MODEL 1
REMARK VINA RESULT:      -9.1      0.000      0.000
REMARK SMILES C[C@@H](C(=O)OCCOCCOCCOC(=O)c1ccc(-c2c3nc(c(-c4cccc(S(=O)(=O)[O-])c4F)c4ccc([nH]4)c(-c4cccc(S(=O)(=O)[O-])c4F)c4nc(c(-c5cccc(S(=O)(=O)[O-])c5F)c5ccc2[nH]5)C=C4)C=C3)cc1)c1ccc(-c2cccc(OC(=O)NCCCc3ccccc3)c2)c(F)c1
REMARK SMILES IDX 7 1 6 2 5 3 3 4 4 5 2 6 1 7 80 8 81 9 105 10 82 11 103 12
REMARK SMILES IDX 83 13 104 14 84 15 85 16 102 17 86 18 88 19 87 20 89 21
REMARK SMILES IDX 90 22 91 23 92 24 93 26 94 27 95 28 96 29 97 30 101 31 98 32
REMARK SMILES IDX 100 33 99 34 8 35 9 36 10 37 11 38 12 39 13 40 14 41 15 42
REMARK SMILES IDX 16 43 17 44 18 45 79 46 19 47 78 48 20 49 21 50 22 51 72 52
REMARK SMILES IDX 23 53 77 54 71 55 73 56 24 57 76 58 70 59 69 60 25 62 57 63
REMARK SMILES IDX 37 64 56 65 38 66 41 67 55 68 74 69 39 70 40 71 54 73 75 74
REMARK SMILES IDX 42 75 26 76 27 77 35 78 28 79 30 80 36 81 29 82 31 83 32 84
REMARK SMILES IDX 33 85 34 86 58 87 59 88 67 89 60 90 62 91 68 92 61 93 63 94
REMARK SMILES IDX 64 95 65 96 66 97 43 98 44 99 52 100 45 101 47 102 53 103
REMARK SMILES IDX 46 104 48 105 49 106 50 107 51 108
REMARK H PARENT 92 25 73 61 41 72
REMARK Flexibility Score: inf
ROOT
ATOM      1  C   UNL A   1      43.034  23.560  29.332  1.00  0.00     0.202 C 
ENDROOT
BRANCH   1   2
ATOM      2  C   UNL A   1      42.532  22.342  28.516  1.00  0.00     0.261 C 
BRANCH   2   3
ATOM      3  O   UNL A   1      43.117  22.055  27.236  1.00  0.00    -0.463 OA
BRANCH   3   4
ATOM      4  C   UNL A   1      42.272  21.793  26.203  1.00  0.00     0.313 C 
ATOM      5  O   UNL A   1      42.412  22.260  25.077  1.00  0.00    -0.252 OA
BRANCH   4   6
ATOM      6  C   UNL A   1      41.095  20.874  26.577  1.00  0.00     0.126 C 
ATOM      7  C   UNL A   1      41.173  19.403  26.145  1.00  0.00     0.025 C 
BRANCH   6   8
ATOM      8  C   UNL A   1      39.760  21.494  26.189  1.00  0.00    -0.031 A 
ATOM      9  C   UNL A   1      38.809  20.772  25.456  1.00  0.00     0.005 A 
ATOM     10  C   UNL A   1      39.436  22.798  26.570  1.00  0.00     0.044 A 
ATOM     11  C   UNL A   1      37.572  21.346  25.119  1.00  0.00     0.012 A 
ATOM     12  C   UNL A   1      38.209  23.354  26.241  1.00  0.00     0.131 A 
ATOM     13  C   UNL A   1      37.252  22.656  25.504  1.00  0.00     0.018 A 
ATOM     14  F   UNL A   1      37.969  24.603  26.651  1.00  0.00    -0.206 F 
BRANCH  13  15
ATOM     15  C   UNL A   1      35.989  23.300  25.124  1.00  0.00    -0.012 A 
ATOM     16  C   UNL A   1      35.747  23.728  23.812  1.00  0.00     0.009 A 
ATOM     17  C   UNL A   1      34.975  23.476  26.085  1.00  0.00     0.056 A 
ATOM     18  C   UNL A   1      34.529  24.319  23.469  1.00  0.00     0.004 A 
ATOM     19  C   UNL A   1      33.760  24.054  25.737  1.00  0.00     0.133 A 
ATOM     20  C   UNL A   1      33.531  24.475  24.429  1.00  0.00     0.047 A 
BRANCH  19  21
ATOM     21  O   UNL A   1      32.692  24.271  26.640  1.00  0.00    -0.410 OA
BRANCH  21  22
ATOM     22  C   UNL A   1      31.332  24.093  26.393  1.00  0.00     0.412 C 
ATOM     23  O   UNL A   1      30.488  24.975  26.273  1.00  0.00    -0.224 OA
ATOM     24  N   UNL A   1      30.986  22.780  26.225  1.00  0.00    -0.321 N 
ATOM     25  H   UNL A   1      30.030  22.579  26.102  1.00  0.00     0.167 HD
BRANCH  24  26
ATOM     26  C   UNL A   1      31.905  21.662  26.213  1.00  0.00     0.120 C 
BRANCH  26  27
ATOM     27  C   UNL A   1      32.075  20.992  24.849  1.00  0.00     0.026 C 
BRANCH  27  28
ATOM     28  C   UNL A   1      33.355  20.193  24.573  1.00  0.00     0.037 C 
BRANCH  28  29
ATOM     29  C   UNL A   1      33.350  18.680  24.584  1.00  0.00    -0.048 A 
ATOM     30  C   UNL A   1      33.875  17.875  23.571  1.00  0.00     0.004 A 
ATOM     31  C   UNL A   1      32.740  18.042  25.680  1.00  0.00     0.004 A 
ATOM     32  C   UNL A   1      33.781  16.480  23.639  1.00  0.00     0.000 A 
ATOM     33  C   UNL A   1      32.657  16.650  25.757  1.00  0.00     0.000 A 
ATOM     34  C   UNL A   1      33.171  15.868  24.730  1.00  0.00     0.000 A 
ENDBRANCH  28  29
ENDBRANCH  27  28
ENDBRANCH  26  27
ENDBRANCH  24  26
ENDBRANCH  21  22
ENDBRANCH  19  21
ENDBRANCH  13  15
ENDBRANCH   6   8
ENDBRANCH   4   6
ENDBRANCH   3   4
ENDBRANCH   2   3
ENDBRANCH   1   2
BRANCH   1  35
ATOM     35  O   UNL A   1      44.304  23.677  29.946  1.00  0.00    -0.376 OA
BRANCH  35  36
ATOM     36  C   UNL A   1      45.058  24.844  29.701  1.00  0.00     0.188 C 
BRANCH  36  37
ATOM     37  C   UNL A   1      46.045  24.629  28.546  1.00  0.00     0.188 C 
BRANCH  37  38
ATOM     38  O   UNL A   1      45.492  24.473  27.258  1.00  0.00    -0.376 OA
BRANCH  38  39
ATOM     39  C   UNL A   1      46.210  23.786  26.248  1.00  0.00     0.202 C 
BRANCH  39  40
ATOM     40  C   UNL A   1      46.759  24.394  24.937  1.00  0.00     0.261 C 
BRANCH  40  41
ATOM     41  O   UNL A   1      47.853  25.309  24.993  1.00  0.00    -0.460 OA
BRANCH  41  42
ATOM     42  C   UNL A   1      47.706  26.491  24.347  1.00  0.00     0.338 C 
ATOM     43  O   UNL A   1      47.779  26.678  23.148  1.00  0.00    -0.246 OA
BRANCH  42  44
ATOM     44  C   UNL A   1      47.229  27.484  25.341  1.00  0.00     0.060 A 
ATOM     45  C   UNL A   1      48.173  28.271  26.011  1.00  0.00     0.016 A 
ATOM     46  C   UNL A   1      45.864  27.663  25.587  1.00  0.00     0.016 A 
ATOM     47  C   UNL A   1      47.751  29.226  26.941  1.00  0.00     0.010 A 
ATOM     48  C   UNL A   1      45.446  28.610  26.531  1.00  0.00     0.010 A 
ATOM     49  C   UNL A   1      46.387  29.390  27.223  1.00  0.00    -0.014 A 
BRANCH  49  50
ATOM     50  C   UNL A   1      45.964  30.239  28.367  1.00  0.00     0.031 A 
ATOM     51  C   UNL A   1      45.990  29.633  29.744  1.00  0.00     0.074 A 
ATOM     52  C   UNL A   1      45.536  31.504  28.202  1.00  0.00     0.049 A 
ATOM     53  N   UNL A   1      45.656  30.163  30.892  1.00  0.00    -0.248 NA
ATOM     54  C   UNL A   1      46.439  28.234  29.831  1.00  0.00     0.031 C 
ATOM     55  C   UNL A   1      45.451  32.207  26.927  1.00  0.00     0.029 A 
ATOM     56  N   UNL A   1      45.076  32.420  29.120  1.00  0.00    -0.354 N 
ATOM     57  C   UNL A   1      45.827  29.156  31.833  1.00  0.00     0.074 A 
ATOM     58  C   UNL A   1      46.297  27.986  31.123  1.00  0.00     0.031 C 
ATOM     59  C   UNL A   1      44.972  33.445  27.139  1.00  0.00     0.029 A 
ATOM     60  C   UNL A   1      44.678  33.613  28.562  1.00  0.00     0.049 A 
ATOM     61  H   UNL A   1      45.036  32.238  30.087  1.00  0.00     0.167 HD
ATOM     62  C   UNL A   1      45.608  29.195  33.167  1.00  0.00     0.034 A 
ATOM     63  C   UNL A   1      44.126  34.705  29.131  1.00  0.00     0.034 A 
ATOM     64  C   UNL A   1      45.120  30.346  33.874  1.00  0.00     0.049 A 
ATOM     65  C   UNL A   1      43.892  34.720  30.622  1.00  0.00     0.074 A 
ATOM     66  C   UNL A   1      44.889  30.487  35.230  1.00  0.00     0.029 A 
ATOM     67  N   UNL A   1      44.767  31.548  33.280  1.00  0.00    -0.354 N 
ATOM     68  N   UNL A   1      44.194  33.812  31.520  1.00  0.00    -0.248 NA
ATOM     69  C   UNL A   1      43.258  35.924  31.186  1.00  0.00     0.031 C 
ATOM     70  C   UNL A   1      44.371  31.767  35.454  1.00  0.00     0.029 A 
ATOM     71  C   UNL A   1      44.314  32.435  34.242  1.00  0.00     0.049 A 
ATOM     72  H   UNL A   1      44.829  31.742  32.316  1.00  0.00     0.167 HD
ATOM     73  C   UNL A   1      43.810  34.344  32.748  1.00  0.00     0.074 A 
ATOM     74  C   UNL A   1      43.292  35.669  32.488  1.00  0.00     0.031 C 
ATOM     75  C   UNL A   1      43.859  33.776  33.978  1.00  0.00     0.034 A 
BRANCH  62  76
ATOM     76  C   UNL A   1      45.899  27.944  33.949  1.00  0.00     0.023 A 
ATOM     77  C   UNL A   1      47.180  27.752  34.508  1.00  0.00     0.012 A 
ATOM     78  C   UNL A   1      44.900  26.974  34.156  1.00  0.00     0.148 A 
ATOM     79  C   UNL A   1      47.471  26.598  35.233  1.00  0.00     0.002 A 
ATOM     80  C   UNL A   1      45.185  25.846  34.915  1.00  0.00     0.091 A 
ATOM     81  F   UNL A   1      43.698  27.164  33.593  1.00  0.00    -0.205 F 
ATOM     82  C   UNL A   1      46.472  25.651  35.444  1.00  0.00     0.022 A 
BRANCH  80  83
ATOM     83  S   UNL A   1      43.949  24.604  35.304  1.00  0.00     0.127 S 
ATOM     84  O   UNL A   1      43.708  24.008  33.990  1.00  0.00    -0.237 OA
ATOM     85  O   UNL A   1      44.667  23.742  36.243  1.00  0.00    -0.237 OA
ATOM     86  O   UNL A   1      42.822  25.324  35.878  1.00  0.00    -0.744 OA
ENDBRANCH  80  83
ENDBRANCH  62  76
BRANCH  63  87
ATOM     87  C   UNL A   1      43.776  35.901  28.303  1.00  0.00     0.023 A 
ATOM     88  C   UNL A   1      42.451  36.073  27.856  1.00  0.00     0.012 A 
ATOM     89  C   UNL A   1      44.744  36.856  27.938  1.00  0.00     0.148 A 
ATOM     90  C   UNL A   1      42.094  37.162  27.058  1.00  0.00     0.002 A 
ATOM     91  C   UNL A   1      44.375  37.964  27.181  1.00  0.00     0.091 A 
ATOM     92  F   UNL A   1      46.010  36.661  28.332  1.00  0.00    -0.205 F 
ATOM     93  C   UNL A   1      43.054  38.112  26.731  1.00  0.00     0.022 A 
BRANCH  91  94
ATOM     94  S   UNL A   1      45.522  39.288  26.784  1.00  0.00     0.127 S 
ATOM     95  O   UNL A   1      45.939  39.729  28.113  1.00  0.00    -0.237 OA
ATOM     96  O   UNL A   1      46.548  38.575  26.022  1.00  0.00    -0.237 OA
ATOM     97  O   UNL A   1      44.758  40.256  26.009  1.00  0.00    -0.744 OA
ENDBRANCH  91  94
ENDBRANCH  63  87
BRANCH  75  98
ATOM     98  C   UNL A   1      43.383  34.593  35.154  1.00  0.00     0.023 A 
ATOM     99  C   UNL A   1      44.295  35.384  35.881  1.00  0.00     0.012 A 
ATOM    100  C   UNL A   1      42.014  34.641  35.481  1.00  0.00     0.148 A 
ATOM    101  C   UNL A   1      43.856  36.183  36.936  1.00  0.00     0.002 A 
ATOM    102  C   UNL A   1      41.577  35.480  36.500  1.00  0.00     0.091 A 
ATOM    103  F   UNL A   1      41.164  33.868  34.789  1.00  0.00    -0.205 F 
ATOM    104  C   UNL A   1      42.497  36.242  37.237  1.00  0.00     0.022 A 
BRANCH 102 105
ATOM    105  S   UNL A   1      39.836  35.693  36.890  1.00  0.00     0.127 S 
ATOM    106  O   UNL A   1      39.874  36.835  37.802  1.00  0.00    -0.237 OA
ATOM    107  O   UNL A   1      39.257  35.978  35.577  1.00  0.00    -0.237 OA
ATOM    108  O   UNL A   1      39.402  34.436  37.484  1.00  0.00    -0.744 OA
ENDBRANCH 102 105
ENDBRANCH  75  98
ENDBRANCH  49  50
ENDBRANCH  42  44
ENDBRANCH  41  42
ENDBRANCH  40  41
ENDBRANCH  39  40
ENDBRANCH  38  39
ENDBRANCH  37  38
ENDBRANCH  36  37
ENDBRANCH  35  36
ENDBRANCH   1  35
TORSDOF 28
ENDMDL
MODEL 2
REMARK VINA RESULT:      -8.7      4.467      8.762
REMARK SMILES C[C@@H](C(=O)OCCOCCOCCOC(=O)c1ccc(-c2c3nc(c(-c4cccc(S(=O)(=O)[O-])c4F)c4ccc([nH]4)c(-c4cccc(S(=O)(=O)[O-])c4F)c4nc(c(-c5cccc(S(=O)(=O)[O-])c5F)c5ccc2[nH]5)C=C4)C=C3)cc1)c1ccc(-c2cccc(OC(=O)NCCCc3ccccc3)c2)c(F)c1
REMARK SMILES IDX 7 1 6 2 5 3 3 4 4 5 2 6 1 7 80 8 81 9 105 10 82 11 103 12
REMARK SMILES IDX 83 13 104 14 84 15 85 16 102 17 86 18 88 19 87 20 89 21
REMARK SMILES IDX 90 22 91 23 92 24 93 26 94 27 95 28 96 29 97 30 101 31 98 32
REMARK SMILES IDX 100 33 99 34 8 35 9 36 10 37 11 38 12 39 13 40 14 41 15 42
REMARK SMILES IDX 16 43 17 44 18 45 79 46 19 47 78 48 20 49 21 50 22 51 72 52
REMARK SMILES IDX 23 53 77 54 71 55 73 56 24 57 76 58 70 59 69 60 25 62 57 63
REMARK SMILES IDX 37 64 56 65 38 66 41 67 55 68 74 69 39 70 40 71 54 73 75 74
REMARK SMILES IDX 42 75 26 76 27 77 35 78 28 79 30 80 36 81 29 82 31 83 32 84
REMARK SMILES IDX 33 85 34 86 58 87 59 88 67 89 60 90 62 91 68 92 61 93 63 94
REMARK SMILES IDX 64 95 65 96 66 97 43 98 44 99 52 100 45 101 47 102 53 103
REMARK SMILES IDX 46 104 48 105 49 106 50 107 51 108
REMARK H PARENT 92 25 73 61 41 72
REMARK Flexibility Score: inf
ROOT
ATOM      1  C   UNL A   1      41.119  28.410  27.676  1.00  0.00     0.202 C 
ENDROOT
BRANCH   1   2
ATOM      2  C   UNL A   1      40.627  27.252  26.771  1.00  0.00     0.261 C 
BRANCH   2   3
ATOM      3  O   UNL A   1      41.182  25.937  26.935  1.00  0.00    -0.463 OA
BRANCH   3   4
ATOM      4  C   UNL A   1      40.480  25.048  27.686  1.00  0.00     0.313 C 
ATOM      5  O   UNL A   1      39.888  25.347  28.718  1.00  0.00    -0.252 OA
BRANCH   4   6
ATOM      6  C   UNL A   1      40.513  23.608  27.141  1.00  0.00     0.126 C 
ATOM      7  C   UNL A   1      41.693  23.212  26.243  1.00  0.00     0.025 C 
BRANCH   6   8
ATOM      8  C   UNL A   1      39.184  23.220  26.510  1.00  0.00    -0.031 A 
ATOM      9  C   UNL A   1      38.967  21.932  26.004  1.00  0.00     0.005 A 
ATOM     10  C   UNL A   1      38.132  24.136  26.431  1.00  0.00     0.044 A 
ATOM     11  C   UNL A   1      37.730  21.577  25.440  1.00  0.00     0.012 A 
ATOM     12  C   UNL A   1      36.911  23.775  25.880  1.00  0.00     0.131 A 
ATOM     13  C   UNL A   1      36.678  22.500  25.364  1.00  0.00     0.018 A 
ATOM     14  F   UNL A   1      35.950  24.704  25.851  1.00  0.00    -0.206 F 
BRANCH  13  15
ATOM     15  C   UNL A   1      35.392  22.176  24.736  1.00  0.00    -0.012 A 
ATOM     16  C   UNL A   1      34.721  20.976  25.009  1.00  0.00     0.009 A 
ATOM     17  C   UNL A   1      34.791  23.095  23.854  1.00  0.00     0.056 A 
ATOM     18  C   UNL A   1      33.488  20.698  24.415  1.00  0.00     0.004 A 
ATOM     19  C   UNL A   1      33.558  22.820  23.274  1.00  0.00     0.133 A 
ATOM     20  C   UNL A   1      32.901  21.623  23.554  1.00  0.00     0.047 A 
BRANCH  19  21
ATOM     21  O   UNL A   1      32.888  23.684  22.375  1.00  0.00    -0.410 OA
BRANCH  21  22
ATOM     22  C   UNL A   1      31.807  24.517  22.658  1.00  0.00     0.412 C 
ATOM     23  O   UNL A   1      30.694  24.168  23.038  1.00  0.00    -0.224 OA
ATOM     24  N   UNL A   1      32.107  25.846  22.527  1.00  0.00    -0.321 N 
ATOM     25  H   UNL A   1      31.372  26.487  22.658  1.00  0.00     0.167 HD
BRANCH  24  26
ATOM     26  C   UNL A   1      33.412  26.388  22.213  1.00  0.00     0.120 C 
BRANCH  26  27
ATOM     27  C   UNL A   1      33.482  27.915  22.208  1.00  0.00     0.026 C 
BRANCH  27  28
ATOM     28  C   UNL A   1      32.561  28.699  23.151  1.00  0.00     0.037 C 
BRANCH  28  29
ATOM     29  C   UNL A   1      32.777  28.680  24.649  1.00  0.00    -0.048 A 
ATOM     30  C   UNL A   1      33.988  28.377  25.275  1.00  0.00     0.004 A 
ATOM     31  C   UNL A   1      31.665  28.955  25.467  1.00  0.00     0.004 A 
ATOM     32  C   UNL A   1      34.085  28.332  26.671  1.00  0.00     0.000 A 
ATOM     33  C   UNL A   1      31.763  28.924  26.860  1.00  0.00     0.000 A 
ATOM     34  C   UNL A   1      32.974  28.604  27.463  1.00  0.00     0.000 A 
ENDBRANCH  28  29
ENDBRANCH  27  28
ENDBRANCH  26  27
ENDBRANCH  24  26
ENDBRANCH  21  22
ENDBRANCH  19  21
ENDBRANCH  13  15
ENDBRANCH   6   8
ENDBRANCH   4   6
ENDBRANCH   3   4
ENDBRANCH   2   3
ENDBRANCH   1   2
BRANCH   1  35
ATOM     35  O   UNL A   1      41.369  28.322  29.066  1.00  0.00    -0.376 OA
BRANCH  35  36
ATOM     36  C   UNL A   1      40.626  29.152  29.931  1.00  0.00     0.188 C 
BRANCH  36  37
ATOM     37  C   UNL A   1      39.266  28.524  30.263  1.00  0.00     0.188 C 
BRANCH  37  38
ATOM     38  O   UNL A   1      38.124  29.172  29.748  1.00  0.00    -0.376 OA
BRANCH  38  39
ATOM     39  C   UNL A   1      37.668  30.384  30.322  1.00  0.00     0.202 C 
BRANCH  39  40
ATOM     40  C   UNL A   1      38.133  31.810  29.945  1.00  0.00     0.261 C 
BRANCH  40  41
ATOM     41  O   UNL A   1      37.342  32.931  30.337  1.00  0.00    -0.460 OA
BRANCH  41  42
ATOM     42  C   UNL A   1      37.884  33.787  31.237  1.00  0.00     0.338 C 
ATOM     43  O   UNL A   1      37.466  34.030  32.353  1.00  0.00    -0.246 OA
BRANCH  42  44
ATOM     44  C   UNL A   1      39.199  34.218  30.703  1.00  0.00     0.060 A 
ATOM     45  C   UNL A   1      39.271  34.680  29.383  1.00  0.00     0.016 A 
ATOM     46  C   UNL A   1      40.347  34.200  31.502  1.00  0.00     0.016 A 
ATOM     47  C   UNL A   1      40.494  35.107  28.858  1.00  0.00     0.010 A 
ATOM     48  C   UNL A   1      41.573  34.615  30.968  1.00  0.00     0.010 A 
ATOM     49  C   UNL A   1      41.658  35.060  29.639  1.00  0.00    -0.014 A 
BRANCH  49  50
ATOM     50  C   UNL A   1      42.983  35.298  29.009  1.00  0.00     0.031 A 
ATOM     51  C   UNL A   1      43.864  34.108  28.746  1.00  0.00     0.074 A 
ATOM     52  C   UNL A   1      43.419  36.533  28.701  1.00  0.00     0.049 A 
ATOM     53  N   UNL A   1      45.062  34.059  28.223  1.00  0.00    -0.248 NA
ATOM     54  C   UNL A   1      43.325  32.798  29.145  1.00  0.00     0.031 C 
ATOM     55  C   UNL A   1      42.673  37.769  28.911  1.00  0.00     0.029 A 
ATOM     56  N   UNL A   1      44.611  36.951  28.155  1.00  0.00    -0.354 N 
ATOM     57  C   UNL A   1      45.431  32.721  28.255  1.00  0.00     0.074 A 
ATOM     58  C   UNL A   1      44.330  31.990  28.845  1.00  0.00     0.031 C 
ATOM     59  C   UNL A   1      43.419  38.808  28.498  1.00  0.00     0.029 A 
ATOM     60  C   UNL A   1      44.714  38.317  28.028  1.00  0.00     0.049 A 
ATOM     61  H   UNL A   1      45.324  36.330  27.881  1.00  0.00     0.167 HD
ATOM     62  C   UNL A   1      46.583  32.148  27.838  1.00  0.00     0.034 A 
ATOM     63  C   UNL A   1      45.740  39.082  27.598  1.00  0.00     0.034 A 
ATOM     64  C   UNL A   1      47.688  32.870  27.272  1.00  0.00     0.049 A 
ATOM     65  C   UNL A   1      47.015  38.414  27.141  1.00  0.00     0.074 A 
ATOM     66  C   UNL A   1      48.888  32.372  26.798  1.00  0.00     0.029 A 
ATOM     67  N   UNL A   1      47.739  34.247  27.122  1.00  0.00    -0.354 N 
ATOM     68  N   UNL A   1      47.294  37.137  27.041  1.00  0.00    -0.248 NA
ATOM     69  C   UNL A   1      48.113  39.297  26.712  1.00  0.00     0.031 C 
ATOM     70  C   UNL A   1      49.677  33.451  26.386  1.00  0.00     0.029 A 
ATOM     71  C   UNL A   1      48.953  34.618  26.569  1.00  0.00     0.049 A 
ATOM     72  H   UNL A   1      47.018  34.870  27.373  1.00  0.00     0.167 HD
ATOM     73  C   UNL A   1      48.583  37.065  26.519  1.00  0.00     0.074 A 
ATOM     74  C   UNL A   1      49.016  38.425  26.284  1.00  0.00     0.031 C 
ATOM     75  C   UNL A   1      49.349  35.972  26.280  1.00  0.00     0.034 A 
BRANCH  62  76
ATOM     76  C   UNL A   1      46.700  30.655  27.980  1.00  0.00     0.023 A 
ATOM     77  C   UNL A   1      47.052  30.098  29.227  1.00  0.00     0.012 A 
ATOM     78  C   UNL A   1      46.434  29.804  26.890  1.00  0.00     0.148 A 
ATOM     79  C   UNL A   1      47.170  28.717  29.377  1.00  0.00     0.002 A 
ATOM     80  C   UNL A   1      46.512  28.428  27.060  1.00  0.00     0.091 A 
ATOM     81  F   UNL A   1      46.127  30.357  25.708  1.00  0.00    -0.205 F 
ATOM     82  C   UNL A   1      46.891  27.884  28.298  1.00  0.00     0.022 A 
BRANCH  80  83
ATOM     83  S   UNL A   1      46.103  27.268  25.752  1.00  0.00     0.127 S 
ATOM     84  O   UNL A   1      45.787  26.062  26.517  1.00  0.00    -0.237 OA
ATOM     85  O   UNL A   1      44.950  27.911  25.123  1.00  0.00    -0.237 OA
ATOM     86  O   UNL A   1      47.286  27.179  24.908  1.00  0.00    -0.744 OA
ENDBRANCH  80  83
ENDBRANCH  62  76
BRANCH  63  87
ATOM     87  C   UNL A   1      45.612  40.571  27.548  1.00  0.00     0.023 A 
ATOM     88  C   UNL A   1      45.649  41.314  28.745  1.00  0.00     0.012 A 
ATOM     89  C   UNL A   1      45.432  41.256  26.330  1.00  0.00     0.148 A 
ATOM     90  C   UNL A   1      45.503  42.702  28.737  1.00  0.00     0.002 A 
ATOM     91  C   UNL A   1      45.334  42.644  26.323  1.00  0.00     0.091 A 
ATOM     92  F   UNL A   1      45.355  40.537  25.202  1.00  0.00    -0.205 F 
ATOM     93  C   UNL A   1      45.358  43.367  27.525  1.00  0.00     0.022 A 
BRANCH  91  94
ATOM     94  S   UNL A   1      45.232  43.597  24.804  1.00  0.00     0.127 S 
ATOM     95  O   UNL A   1      43.805  43.908  24.744  1.00  0.00    -0.237 OA
ATOM     96  O   UNL A   1      46.097  44.738  25.108  1.00  0.00    -0.237 OA
ATOM     97  O   UNL A   1      45.732  42.723  23.753  1.00  0.00    -0.744 OA
ENDBRANCH  91  94
ENDBRANCH  63  87
BRANCH  75  98
ATOM     98  C   UNL A   1      50.722  36.186  25.693  1.00  0.00     0.023 A 
ATOM     99  C   UNL A   1      50.892  36.244  24.295  1.00  0.00     0.012 A 
ATOM    100  C   UNL A   1      51.830  36.413  26.533  1.00  0.00     0.148 A 
ATOM    101  C   UNL A   1      52.148  36.494  23.744  1.00  0.00     0.002 A 
ATOM    102  C   UNL A   1      53.068  36.713  25.976  1.00  0.00     0.091 A 
ATOM    103  F   UNL A   1      51.651  36.336  27.860  1.00  0.00    -0.205 F 
ATOM    104  C   UNL A   1      53.232  36.741  24.582  1.00  0.00     0.022 A 
BRANCH 102 105
ATOM    105  S   UNL A   1      54.495  37.141  26.980  1.00  0.00     0.127 S 
ATOM    106  O   UNL A   1      54.918  35.831  27.471  1.00  0.00    -0.237 OA
ATOM    107  O   UNL A   1      55.395  37.745  25.996  1.00  0.00    -0.237 OA
ATOM    108  O   UNL A   1      54.007  38.061  27.998  1.00  0.00    -0.744 OA
ENDBRANCH 102 105
ENDBRANCH  75  98
ENDBRANCH  49  50
ENDBRANCH  42  44
ENDBRANCH  41  42
ENDBRANCH  40  41
ENDBRANCH  39  40
ENDBRANCH  38  39
ENDBRANCH  37  38
ENDBRANCH  36  37
ENDBRANCH  35  36
ENDBRANCH   1  35
TORSDOF 28
ENDMDL
MODEL 3
REMARK VINA RESULT:      -8.2      6.284      9.919
REMARK SMILES C[C@@H](C(=O)OCCOCCOCCOC(=O)c1ccc(-c2c3nc(c(-c4cccc(S(=O)(=O)[O-])c4F)c4ccc([nH]4)c(-c4cccc(S(=O)(=O)[O-])c4F)c4nc(c(-c5cccc(S(=O)(=O)[O-])c5F)c5ccc2[nH]5)C=C4)C=C3)cc1)c1ccc(-c2cccc(OC(=O)NCCCc3ccccc3)c2)c(F)c1
REMARK SMILES IDX 7 1 6 2 5 3 3 4 4 5 2 6 1 7 80 8 81 9 105 10 82 11 103 12
REMARK SMILES IDX 83 13 104 14 84 15 85 16 102 17 86 18 88 19 87 20 89 21
REMARK SMILES IDX 90 22 91 23 92 24 93 26 94 27 95 28 96 29 97 30 101 31 98 32
REMARK SMILES IDX 100 33 99 34 8 35 9 36 10 37 11 38 12 39 13 40 14 41 15 42
REMARK SMILES IDX 16 43 17 44 18 45 79 46 19 47 78 48 20 49 21 50 22 51 72 52
REMARK SMILES IDX 23 53 77 54 71 55 73 56 24 57 76 58 70 59 69 60 25 62 57 63
REMARK SMILES IDX 37 64 56 65 38 66 41 67 55 68 74 69 39 70 40 71 54 73 75 74
REMARK SMILES IDX 42 75 26 76 27 77 35 78 28 79 30 80 36 81 29 82 31 83 32 84
REMARK SMILES IDX 33 85 34 86 58 87 59 88 67 89 60 90 62 91 68 92 61 93 63 94
REMARK SMILES IDX 64 95 65 96 66 97 43 98 44 99 52 100 45 101 47 102 53 103
REMARK SMILES IDX 46 104 48 105 49 106 50 107 51 108
REMARK H PARENT 92 25 73 61 41 72
REMARK Flexibility Score: inf
ROOT
ATOM      1  C   UNL A   1      43.734  24.933  26.280  1.00  0.00     0.202 C 
ENDROOT
BRANCH   1   2
ATOM      2  C   UNL A   1      42.451  24.291  26.867  1.00  0.00     0.261 C 
BRANCH   2   3
ATOM      3  O   UNL A   1      42.434  22.887  27.168  1.00  0.00    -0.463 OA
BRANCH   3   4
ATOM      4  C   UNL A   1      41.981  22.042  26.204  1.00  0.00     0.313 C 
ATOM      5  O   UNL A   1      42.473  21.964  25.083  1.00  0.00    -0.252 OA
BRANCH   4   6
ATOM      6  C   UNL A   1      40.764  21.201  26.632  1.00  0.00     0.126 C 
ATOM      7  C   UNL A   1      40.819  19.688  26.381  1.00  0.00     0.025 C 
BRANCH   6   8
ATOM      8  C   UNL A   1      39.464  21.800  26.117  1.00  0.00    -0.031 A 
ATOM      9  C   UNL A   1      38.593  21.060  25.308  1.00  0.00     0.005 A 
ATOM     10  C   UNL A   1      39.092  23.104  26.452  1.00  0.00     0.044 A 
ATOM     11  C   UNL A   1      37.385  21.615  24.853  1.00  0.00     0.012 A 
ATOM     12  C   UNL A   1      37.894  23.642  26.005  1.00  0.00     0.131 A 
ATOM     13  C   UNL A   1      37.017  22.924  25.192  1.00  0.00     0.018 A 
ATOM     14  F   UNL A   1      37.604  24.892  26.378  1.00  0.00    -0.206 F 
BRANCH  13  15
ATOM     15  C   UNL A   1      35.787  23.549  24.691  1.00  0.00    -0.012 A 
ATOM     16  C   UNL A   1      35.307  23.298  23.398  1.00  0.00     0.009 A 
ATOM     17  C   UNL A   1      35.044  24.405  25.527  1.00  0.00     0.056 A 
ATOM     18  C   UNL A   1      34.123  23.887  22.951  1.00  0.00     0.004 A 
ATOM     19  C   UNL A   1      33.860  24.980  25.082  1.00  0.00     0.133 A 
ATOM     20  C   UNL A   1      33.393  24.722  23.795  1.00  0.00     0.047 A 
BRANCH  19  21
ATOM     21  O   UNL A   1      33.057  25.853  25.855  1.00  0.00    -0.410 OA
BRANCH  21  22
ATOM     22  C   UNL A   1      31.703  26.131  25.675  1.00  0.00     0.412 C 
ATOM     23  O   UNL A   1      31.225  27.052  25.021  1.00  0.00    -0.224 OA
ATOM     24  N   UNL A   1      30.885  25.211  26.272  1.00  0.00    -0.321 N 
ATOM     25  H   UNL A   1      29.915  25.378  26.231  1.00  0.00     0.167 HD
BRANCH  24  26
ATOM     26  C   UNL A   1      31.322  24.014  26.959  1.00  0.00     0.120 C 
BRANCH  26  27
ATOM     27  C   UNL A   1      30.842  22.707  26.328  1.00  0.00     0.026 C 
BRANCH  27  28
ATOM     28  C   UNL A   1      31.436  22.276  24.981  1.00  0.00     0.037 C 
BRANCH  28  29
ATOM     29  C   UNL A   1      32.404  21.117  24.888  1.00  0.00    -0.048 A 
ATOM     30  C   UNL A   1      33.578  20.998  25.635  1.00  0.00     0.004 A 
ATOM     31  C   UNL A   1      32.114  20.103  23.956  1.00  0.00     0.004 A 
ATOM     32  C   UNL A   1      34.444  19.915  25.449  1.00  0.00     0.000 A 
ATOM     33  C   UNL A   1      32.969  19.014  23.777  1.00  0.00     0.000 A 
ATOM     34  C   UNL A   1      34.141  18.924  24.519  1.00  0.00     0.000 A 
ENDBRANCH  28  29
ENDBRANCH  27  28
ENDBRANCH  26  27
ENDBRANCH  24  26
ENDBRANCH  21  22
ENDBRANCH  19  21
ENDBRANCH  13  15
ENDBRANCH   6   8
ENDBRANCH   4   6
ENDBRANCH   3   4
ENDBRANCH   2   3
ENDBRANCH   1   2
BRANCH   1  35
ATOM     35  O   UNL A   1      44.868  25.340  27.023  1.00  0.00    -0.376 OA
BRANCH  35  36
ATOM     36  C   UNL A   1      46.100  24.707  26.758  1.00  0.00     0.188 C 
BRANCH  36  37
ATOM     37  C   UNL A   1      46.203  24.298  25.283  1.00  0.00     0.188 C 
BRANCH  37  38
ATOM     38  O   UNL A   1      46.769  25.241  24.400  1.00  0.00    -0.376 OA
BRANCH  38  39
ATOM     39  C   UNL A   1      47.439  26.383  24.904  1.00  0.00     0.202 C 
BRANCH  39  40
ATOM     40  C   UNL A   1      48.912  26.452  25.367  1.00  0.00     0.261 C 
BRANCH  40  41
ATOM     41  O   UNL A   1      49.750  27.502  24.882  1.00  0.00    -0.460 OA
BRANCH  41  42
ATOM     42  C   UNL A   1      50.912  27.722  25.544  1.00  0.00     0.338 C 
ATOM     43  O   UNL A   1      51.882  28.328  25.130  1.00  0.00    -0.246 OA
BRANCH  42  44
ATOM     44  C   UNL A   1      50.716  27.278  26.946  1.00  0.00     0.060 A 
ATOM     45  C   UNL A   1      50.390  28.234  27.915  1.00  0.00     0.016 A 
ATOM     46  C   UNL A   1      50.818  25.928  27.299  1.00  0.00     0.016 A 
ATOM     47  C   UNL A   1      50.183  27.842  29.241  1.00  0.00     0.010 A 
ATOM     48  C   UNL A   1      50.625  25.541  28.632  1.00  0.00     0.010 A 
ATOM     49  C   UNL A   1      50.318  26.497  29.614  1.00  0.00    -0.014 A 
BRANCH  49  50
ATOM     50  C   UNL A   1      50.322  26.124  31.053  1.00  0.00     0.031 A 
ATOM     51  C   UNL A   1      51.647  26.048  31.759  1.00  0.00     0.074 A 
ATOM     52  C   UNL A   1      49.191  25.827  31.719  1.00  0.00     0.049 A 
ATOM     53  N   UNL A   1      51.911  25.732  33.001  1.00  0.00    -0.248 NA
ATOM     54  C   UNL A   1      52.836  26.354  30.948  1.00  0.00     0.031 C 
ATOM     55  C   UNL A   1      47.846  25.850  31.154  1.00  0.00     0.029 A 
ATOM     56  N   UNL A   1      48.999  25.431  33.023  1.00  0.00    -0.354 N 
ATOM     57  C   UNL A   1      53.294  25.774  33.112  1.00  0.00     0.074 A 
ATOM     58  C   UNL A   1      53.815  26.149  31.815  1.00  0.00     0.031 C 
ATOM     59  C   UNL A   1      46.965  25.489  32.103  1.00  0.00     0.029 A 
ATOM     60  C   UNL A   1      47.685  25.169  33.335  1.00  0.00     0.049 A 
ATOM     61  H   UNL A   1      49.734  25.343  33.672  1.00  0.00     0.167 HD
ATOM     62  C   UNL A   1      54.067  25.519  34.193  1.00  0.00     0.034 A 
ATOM     63  C   UNL A   1      47.130  24.710  34.477  1.00  0.00     0.034 A 
ATOM     64  C   UNL A   1      53.558  25.125  35.477  1.00  0.00     0.049 A 
ATOM     65  C   UNL A   1      48.018  24.432  35.666  1.00  0.00     0.074 A 
ATOM     66  C   UNL A   1      54.263  24.867  36.639  1.00  0.00     0.029 A 
ATOM     67  N   UNL A   1      52.219  24.910  35.765  1.00  0.00    -0.354 N 
ATOM     68  N   UNL A   1      49.310  24.615  35.801  1.00  0.00    -0.248 NA
ATOM     69  C   UNL A   1      47.365  23.902  36.876  1.00  0.00     0.031 C 
ATOM     70  C   UNL A   1      53.353  24.471  37.624  1.00  0.00     0.029 A 
ATOM     71  C   UNL A   1      52.077  24.516  37.085  1.00  0.00     0.049 A 
ATOM     72  H   UNL A   1      51.478  25.020  35.125  1.00  0.00     0.167 HD
ATOM     73  C   UNL A   1      49.616  24.249  37.108  1.00  0.00     0.074 A 
ATOM     74  C   UNL A   1      48.371  23.871  37.740  1.00  0.00     0.031 C 
ATOM     75  C   UNL A   1      50.824  24.204  37.723  1.00  0.00     0.034 A 
BRANCH  62  76
ATOM     76  C   UNL A   1      55.555  25.662  34.025  1.00  0.00     0.023 A 
ATOM     77  C   UNL A   1      56.157  26.927  34.189  1.00  0.00     0.012 A 
ATOM     78  C   UNL A   1      56.358  24.544  33.734  1.00  0.00     0.148 A 
ATOM     79  C   UNL A   1      57.534  27.080  34.034  1.00  0.00     0.002 A 
ATOM     80  C   UNL A   1      57.734  24.697  33.622  1.00  0.00     0.091 A 
ATOM     81  F   UNL A   1      55.761  23.356  33.556  1.00  0.00    -0.205 F 
ATOM     82  C   UNL A   1      58.322  25.966  33.760  1.00  0.00     0.022 A 
BRANCH  80  83
ATOM     83  S   UNL A   1      58.842  23.313  33.342  1.00  0.00     0.127 S 
ATOM     84  O   UNL A   1      58.401  22.844  32.030  1.00  0.00    -0.237 OA
ATOM     85  O   UNL A   1      60.152  23.964  33.349  1.00  0.00    -0.237 OA
ATOM     86  O   UNL A   1      58.617  22.388  34.444  1.00  0.00    -0.744 OA
ENDBRANCH  80  83
ENDBRANCH  62  76
BRANCH  63  87
ATOM     87  C   UNL A   1      45.652  24.504  34.577  1.00  0.00     0.023 A 
ATOM     88  C   UNL A   1      45.112  23.221  34.357  1.00  0.00     0.012 A 
ATOM     89  C   UNL A   1      44.776  25.568  34.867  1.00  0.00     0.148 A 
ATOM     90  C   UNL A   1      43.735  22.999  34.414  1.00  0.00     0.002 A 
ATOM     91  C   UNL A   1      43.408  25.332  34.970  1.00  0.00     0.091 A 
ATOM     92  F   UNL A   1      45.296  26.792  35.032  1.00  0.00    -0.205 F 
ATOM     93  C   UNL A   1      42.886  24.052  34.732  1.00  0.00     0.022 A 
BRANCH  91  94
ATOM     94  S   UNL A   1      42.243  26.607  35.460  1.00  0.00     0.127 S 
ATOM     95  O   UNL A   1      42.393  27.579  34.378  1.00  0.00    -0.237 OA
ATOM     96  O   UNL A   1      40.977  25.873  35.457  1.00  0.00    -0.237 OA
ATOM     97  O   UNL A   1      42.676  27.057  36.775  1.00  0.00    -0.744 OA
ENDBRANCH  91  94
ENDBRANCH  63  87
BRANCH  75  98
ATOM     98  C   UNL A   1      50.866  23.774  39.168  1.00  0.00     0.023 A 
ATOM     99  C   UNL A   1      51.041  24.732  40.186  1.00  0.00     0.012 A 
ATOM    100  C   UNL A   1      50.646  22.427  39.518  1.00  0.00     0.148 A 
ATOM    101  C   UNL A   1      51.029  24.352  41.527  1.00  0.00     0.002 A 
ATOM    102  C   UNL A   1      50.584  22.064  40.859  1.00  0.00     0.091 A 
ATOM    103  F   UNL A   1      50.499  21.527  38.535  1.00  0.00    -0.205 F 
ATOM    104  C   UNL A   1      50.787  23.022  41.865  1.00  0.00     0.022 A 
BRANCH 102 105
ATOM    105  S   UNL A   1      50.179  20.395  41.386  1.00  0.00     0.127 S 
ATOM    106  O   UNL A   1      48.874  20.193  40.758  1.00  0.00    -0.237 OA
ATOM    107  O   UNL A   1      51.268  19.612  40.799  1.00  0.00    -0.237 OA
ATOM    108  O   UNL A   1      50.172  20.425  42.842  1.00  0.00    -0.744 OA
ENDBRANCH 102 105
ENDBRANCH  75  98
ENDBRANCH  49  50
ENDBRANCH  42  44
ENDBRANCH  41  42
ENDBRANCH  40  41
ENDBRANCH  39  40
ENDBRANCH  38  39
ENDBRANCH  37  38
ENDBRANCH  36  37
ENDBRANCH  35  36
ENDBRANCH   1  35
TORSDOF 28
ENDMDL
