MODEL 1
REMARK VINA RESULT:      -9.5      0.000      0.000
REMARK SMILES C=C(C)C[N@H+]1CC[C@H](C(=O)OCCOCCOCCOC(=O)c2ccc(-c3c4nc(c(-c5cccc(S(=O)(=O)[O-])c5F)c5ccc([nH]5)c(-c5cccc(S(=O)(=O)[O-])c5F)c5nc(c(-c6cccc(S(=O)(=O)[O-])c6F)c6ccc3[nH]6)C=C5)C=C4)cc2)[C@H]1C
REMARK SMILES IDX 16 1 15 2 14 3 13 4 12 5 11 6 9 7 10 8 8 9 5 10 6 11 86 12
REMARK SMILES IDX 7 14 87 15 4 16 2 17 1 18 3 19 17 20 18 21 19 22 20 23 21 24
REMARK SMILES IDX 22 25 23 26 24 27 85 28 25 29 84 30 26 31 27 32 28 33 78 34
REMARK SMILES IDX 29 35 83 36 77 37 79 38 30 39 82 40 76 41 75 42 31 44 63 45
REMARK SMILES IDX 43 46 62 47 44 48 47 49 61 50 80 51 45 52 46 53 60 55 81 56
REMARK SMILES IDX 48 57 32 58 33 59 41 60 34 61 36 62 42 63 35 64 37 65 38 66
REMARK SMILES IDX 39 67 40 68 64 69 65 70 73 71 66 72 68 73 74 74 67 75 69 76
REMARK SMILES IDX 70 77 71 78 72 79 49 80 50 81 58 82 51 83 53 84 59 85 52 86
REMARK SMILES IDX 54 87 55 88 56 89 57 90
REMARK H PARENT 5 13 79 43 47 54
REMARK Flexibility Score: inf
ROOT
ATOM      1  C   UNL A   1      32.526  28.947  26.097  1.00  0.00     0.188 C 
ENDROOT
BRANCH   1   2
ATOM      2  C   UNL A   1      31.604  28.467  27.244  1.00  0.00     0.188 C 
BRANCH   2   3
ATOM      3  O   UNL A   1      31.463  27.060  27.281  1.00  0.00    -0.376 OA
BRANCH   3   4
ATOM      4  C   UNL A   1      31.135  26.430  26.054  1.00  0.00     0.202 C 
BRANCH   4   5
ATOM      5  C   UNL A   1      30.228  25.187  26.087  1.00  0.00     0.261 C 
BRANCH   5   6
ATOM      6  O   UNL A   1      30.578  24.132  25.176  1.00  0.00    -0.463 OA
BRANCH   6   7
ATOM      7  C   UNL A   1      30.900  22.910  25.684  1.00  0.00     0.315 C 
ATOM      8  O   UNL A   1      30.126  22.212  26.319  1.00  0.00    -0.252 OA
BRANCH   7   9
ATOM      9  C   UNL A   1      32.366  22.589  25.368  1.00  0.00     0.162 C 
ATOM     10  N   UNL A   1      32.826  23.781  23.392  1.00  0.00    -0.329 N 
ATOM     11  C   UNL A   1      32.454  22.430  22.980  1.00  0.00     0.263 C 
ATOM     12  C   UNL A   1      33.159  23.784  24.819  1.00  0.00     0.195 C 
ATOM     13  H   UNL A   1      32.005  24.374  23.279  1.00  0.00     0.348 HD
ATOM     14  C   UNL A   1      32.465  21.577  24.242  1.00  0.00     0.083 C 
ATOM     15  C   UNL A   1      34.662  23.646  25.129  1.00  0.00     0.076 C 
BRANCH  10  16
ATOM     16  C   UNL A   1      33.709  24.519  22.496  1.00  0.00     0.293 C 
BRANCH  16  17
ATOM     17  C   UNL A   1      33.088  25.685  21.748  1.00  0.00    -0.026 C 
ATOM     18  C   UNL A   1      32.567  25.647  20.509  1.00  0.00     0.013 C 
ATOM     19  C   UNL A   1      33.047  26.974  22.529  1.00  0.00     0.045 C 
ENDBRANCH  16  17
ENDBRANCH  10  16
ENDBRANCH   7   9
ENDBRANCH   6   7
ENDBRANCH   5   6
ENDBRANCH   4   5
ENDBRANCH   3   4
ENDBRANCH   2   3
ENDBRANCH   1   2
BRANCH   1  20
ATOM     20  O   UNL A   1      32.320  30.211  25.482  1.00  0.00    -0.376 OA
BRANCH  20  21
ATOM     21  C   UNL A   1      31.266  31.037  25.955  1.00  0.00     0.202 C 
BRANCH  21  22
ATOM     22  C   UNL A   1      31.581  32.299  26.783  1.00  0.00     0.261 C 
BRANCH  22  23
ATOM     23  O   UNL A   1      32.905  32.845  26.652  1.00  0.00    -0.460 OA
BRANCH  23  24
ATOM     24  C   UNL A   1      33.424  33.427  27.761  1.00  0.00     0.338 C 
ATOM     25  O   UNL A   1      32.925  34.333  28.419  1.00  0.00    -0.246 OA
BRANCH  24  26
ATOM     26  C   UNL A   1      34.620  32.678  28.203  1.00  0.00     0.060 A 
ATOM     27  C   UNL A   1      34.517  31.294  28.421  1.00  0.00     0.016 A 
ATOM     28  C   UNL A   1      35.824  33.339  28.437  1.00  0.00     0.016 A 
ATOM     29  C   UNL A   1      35.618  30.567  28.877  1.00  0.00     0.010 A 
ATOM     30  C   UNL A   1      36.916  32.616  28.930  1.00  0.00     0.010 A 
ATOM     31  C   UNL A   1      36.812  31.233  29.175  1.00  0.00    -0.014 A 
BRANCH  31  32
ATOM     32  C   UNL A   1      37.898  30.538  29.908  1.00  0.00     0.031 A 
ATOM     33  C   UNL A   1      38.154  30.924  31.338  1.00  0.00     0.074 A 
ATOM     34  C   UNL A   1      38.673  29.619  29.305  1.00  0.00     0.049 A 
ATOM     35  N   UNL A   1      39.127  30.564  32.133  1.00  0.00    -0.248 NA
ATOM     36  C   UNL A   1      37.187  31.851  31.949  1.00  0.00     0.031 C 
ATOM     37  C   UNL A   1      38.512  29.145  27.933  1.00  0.00     0.029 A 
ATOM     38  N   UNL A   1      39.783  28.954  29.766  1.00  0.00    -0.354 N 
ATOM     39  C   UNL A   1      38.918  31.254  33.320  1.00  0.00     0.074 A 
ATOM     40  C   UNL A   1      37.722  32.050  33.144  1.00  0.00     0.031 C 
ATOM     41  C   UNL A   1      39.514  28.296  27.647  1.00  0.00     0.029 A 
ATOM     42  C   UNL A   1      40.407  28.197  28.801  1.00  0.00     0.049 A 
ATOM     43  H   UNL A   1      40.102  29.012  30.696  1.00  0.00     0.167 HD
ATOM     44  C   UNL A   1      39.656  31.231  34.455  1.00  0.00     0.034 A 
ATOM     45  C   UNL A   1      41.581  27.535  28.834  1.00  0.00     0.034 A 
ATOM     46  C   UNL A   1      40.840  30.434  34.629  1.00  0.00     0.049 A 
ATOM     47  C   UNL A   1      42.408  27.556  30.097  1.00  0.00     0.074 A 
ATOM     48  C   UNL A   1      41.633  30.311  35.755  1.00  0.00     0.029 A 
ATOM     49  N   UNL A   1      41.414  29.645  33.645  1.00  0.00    -0.354 N 
ATOM     50  N   UNL A   1      42.149  28.134  31.245  1.00  0.00    -0.248 NA
ATOM     51  C   UNL A   1      43.678  26.816  30.075  1.00  0.00     0.031 C 
ATOM     52  C   UNL A   1      42.711  29.478  35.440  1.00  0.00     0.029 A 
ATOM     53  C   UNL A   1      42.561  29.044  34.132  1.00  0.00     0.049 A 
ATOM     54  H   UNL A   1      41.058  29.529  32.734  1.00  0.00     0.167 HD
ATOM     55  C   UNL A   1      43.200  27.794  32.092  1.00  0.00     0.074 A 
ATOM     56  C   UNL A   1      44.094  26.948  31.328  1.00  0.00     0.031 C 
ATOM     57  C   UNL A   1      43.412  28.157  33.381  1.00  0.00     0.034 A 
BRANCH  44  58
ATOM     58  C   UNL A   1      39.204  32.096  35.602  1.00  0.00     0.023 A 
ATOM     59  C   UNL A   1      38.307  31.583  36.560  1.00  0.00     0.012 A 
ATOM     60  C   UNL A   1      39.712  33.401  35.756  1.00  0.00     0.148 A 
ATOM     61  C   UNL A   1      37.895  32.369  37.636  1.00  0.00     0.002 A 
ATOM     62  C   UNL A   1      39.334  34.160  36.857  1.00  0.00     0.091 A 
ATOM     63  F   UNL A   1      40.547  33.878  34.822  1.00  0.00    -0.205 F 
ATOM     64  C   UNL A   1      38.416  33.651  37.790  1.00  0.00     0.022 A 
BRANCH  62  65
ATOM     65  S   UNL A   1      40.012  35.789  37.189  1.00  0.00     0.127 S 
ATOM     66  O   UNL A   1      39.325  36.146  38.431  1.00  0.00    -0.237 OA
ATOM     67  O   UNL A   1      41.438  35.502  37.343  1.00  0.00    -0.237 OA
ATOM     68  O   UNL A   1      39.677  36.609  36.034  1.00  0.00    -0.744 OA
ENDBRANCH  62  65
ENDBRANCH  44  58
BRANCH  45  69
ATOM     69  C   UNL A   1      42.055  26.788  27.633  1.00  0.00     0.023 A 
ATOM     70  C   UNL A   1      42.654  27.491  26.570  1.00  0.00     0.012 A 
ATOM     71  C   UNL A   1      41.910  25.390  27.538  1.00  0.00     0.148 A 
ATOM     72  C   UNL A   1      43.071  26.819  25.419  1.00  0.00     0.002 A 
ATOM     73  C   UNL A   1      42.378  24.721  26.414  1.00  0.00     0.091 A 
ATOM     74  F   UNL A   1      41.319  24.743  28.552  1.00  0.00    -0.205 F 
ATOM     75  C   UNL A   1      42.942  25.435  25.345  1.00  0.00     0.022 A 
BRANCH  73  76
ATOM     76  S   UNL A   1      42.359  22.930  26.277  1.00  0.00     0.127 S 
ATOM     77  O   UNL A   1      42.686  22.735  24.866  1.00  0.00    -0.237 OA
ATOM     78  O   UNL A   1      43.416  22.546  27.213  1.00  0.00    -0.237 OA
ATOM     79  O   UNL A   1      41.020  22.518  26.675  1.00  0.00    -0.744 OA
ENDBRANCH  73  76
ENDBRANCH  45  69
BRANCH  57  80
ATOM     80  C   UNL A   1      44.622  27.599  34.087  1.00  0.00     0.023 A 
ATOM     81  C   UNL A   1      45.816  28.345  34.146  1.00  0.00     0.012 A 
ATOM     82  C   UNL A   1      44.537  26.375  34.781  1.00  0.00     0.148 A 
ATOM     83  C   UNL A   1      46.914  27.867  34.863  1.00  0.00     0.002 A 
ATOM     84  C   UNL A   1      45.616  25.931  35.536  1.00  0.00     0.091 A 
ATOM     85  F   UNL A   1      43.397  25.674  34.701  1.00  0.00    -0.205 F 
ATOM     86  C   UNL A   1      46.810  26.670  35.567  1.00  0.00     0.022 A 
BRANCH  84  87
ATOM     87  S   UNL A   1      45.541  24.455  36.556  1.00  0.00     0.127 S 
ATOM     88  O   UNL A   1      46.878  24.432  37.147  1.00  0.00    -0.237 OA
ATOM     89  O   UNL A   1      44.465  24.782  37.493  1.00  0.00    -0.237 OA
ATOM     90  O   UNL A   1      45.242  23.353  35.652  1.00  0.00    -0.744 OA
ENDBRANCH  84  87
ENDBRANCH  57  80
ENDBRANCH  31  32
ENDBRANCH  24  26
ENDBRANCH  23  24
ENDBRANCH  22  23
ENDBRANCH  21  22
ENDBRANCH  20  21
ENDBRANCH   1  20
TORSDOF 22
ENDMDL
MODEL 2
REMARK VINA RESULT:      -9.5      1.768      8.025
REMARK SMILES C=C(C)C[N@H+]1CC[C@H](C(=O)OCCOCCOCCOC(=O)c2ccc(-c3c4nc(c(-c5cccc(S(=O)(=O)[O-])c5F)c5ccc([nH]5)c(-c5cccc(S(=O)(=O)[O-])c5F)c5nc(c(-c6cccc(S(=O)(=O)[O-])c6F)c6ccc3[nH]6)C=C5)C=C4)cc2)[C@H]1C
REMARK SMILES IDX 16 1 15 2 14 3 13 4 12 5 11 6 9 7 10 8 8 9 5 10 6 11 86 12
REMARK SMILES IDX 7 14 87 15 4 16 2 17 1 18 3 19 17 20 18 21 19 22 20 23 21 24
REMARK SMILES IDX 22 25 23 26 24 27 85 28 25 29 84 30 26 31 27 32 28 33 78 34
REMARK SMILES IDX 29 35 83 36 77 37 79 38 30 39 82 40 76 41 75 42 31 44 63 45
REMARK SMILES IDX 43 46 62 47 44 48 47 49 61 50 80 51 45 52 46 53 60 55 81 56
REMARK SMILES IDX 48 57 32 58 33 59 41 60 34 61 36 62 42 63 35 64 37 65 38 66
REMARK SMILES IDX 39 67 40 68 64 69 65 70 73 71 66 72 68 73 74 74 67 75 69 76
REMARK SMILES IDX 70 77 71 78 72 79 49 80 50 81 58 82 51 83 53 84 59 85 52 86
REMARK SMILES IDX 54 87 55 88 56 89 57 90
REMARK H PARENT 5 13 79 43 47 54
REMARK Flexibility Score: inf
ROOT
ATOM      1  C   UNL A   1      32.358  27.718  26.183  1.00  0.00     0.188 C 
ENDROOT
BRANCH   1   2
ATOM      2  C   UNL A   1      31.279  27.122  27.117  1.00  0.00     0.188 C 
BRANCH   2   3
ATOM      3  O   UNL A   1      30.934  25.792  26.780  1.00  0.00    -0.376 OA
BRANCH   3   4
ATOM      4  C   UNL A   1      30.509  25.574  25.445  1.00  0.00     0.202 C 
BRANCH   4   5
ATOM      5  C   UNL A   1      31.195  24.465  24.629  1.00  0.00     0.261 C 
BRANCH   5   6
ATOM      6  O   UNL A   1      32.447  23.988  25.150  1.00  0.00    -0.463 OA
BRANCH   6   7
ATOM      7  C   UNL A   1      33.571  24.145  24.397  1.00  0.00     0.315 C 
ATOM      8  O   UNL A   1      33.608  24.783  23.357  1.00  0.00    -0.252 OA
BRANCH   7   9
ATOM      9  C   UNL A   1      34.734  23.376  25.036  1.00  0.00     0.162 C 
ATOM     10  N   UNL A   1      34.095  21.114  24.909  1.00  0.00    -0.329 N 
ATOM     11  C   UNL A   1      33.693  21.582  26.233  1.00  0.00     0.263 C 
ATOM     12  C   UNL A   1      35.063  22.052  24.331  1.00  0.00     0.195 C 
ATOM     13  H   UNL A   1      33.270  21.137  24.311  1.00  0.00     0.348 HD
ATOM     14  C   UNL A   1      34.377  22.928  26.440  1.00  0.00     0.083 C 
ATOM     15  C   UNL A   1      36.539  21.661  24.539  1.00  0.00     0.076 C 
BRANCH  10  16
ATOM     16  C   UNL A   1      34.379  19.690  24.774  1.00  0.00     0.293 C 
BRANCH  16  17
ATOM     17  C   UNL A   1      33.177  18.768  24.693  1.00  0.00    -0.026 C 
ATOM     18  C   UNL A   1      32.745  17.938  25.659  1.00  0.00     0.013 C 
ATOM     19  C   UNL A   1      32.410  18.859  23.398  1.00  0.00     0.045 C 
ENDBRANCH  16  17
ENDBRANCH  10  16
ENDBRANCH   7   9
ENDBRANCH   6   7
ENDBRANCH   5   6
ENDBRANCH   4   5
ENDBRANCH   3   4
ENDBRANCH   2   3
ENDBRANCH   1   2
BRANCH   1  20
ATOM     20  O   UNL A   1      31.992  28.536  25.081  1.00  0.00    -0.376 OA
BRANCH  20  21
ATOM     21  C   UNL A   1      31.371  29.787  25.336  1.00  0.00     0.202 C 
BRANCH  21  22
ATOM     22  C   UNL A   1      31.910  30.708  26.448  1.00  0.00     0.261 C 
BRANCH  22  23
ATOM     23  O   UNL A   1      33.325  30.964  26.448  1.00  0.00    -0.460 OA
BRANCH  23  24
ATOM     24  C   UNL A   1      33.765  31.892  27.332  1.00  0.00     0.338 C 
ATOM     25  O   UNL A   1      33.125  32.830  27.794  1.00  0.00    -0.246 OA
BRANCH  24  26
ATOM     26  C   UNL A   1      35.103  31.510  27.830  1.00  0.00     0.060 A 
ATOM     27  C   UNL A   1      35.399  30.149  28.018  1.00  0.00     0.016 A 
ATOM     28  C   UNL A   1      36.047  32.484  28.148  1.00  0.00     0.016 A 
ATOM     29  C   UNL A   1      36.639  29.759  28.525  1.00  0.00     0.010 A 
ATOM     30  C   UNL A   1      37.276  32.093  28.692  1.00  0.00     0.010 A 
ATOM     31  C   UNL A   1      37.568  30.733  28.906  1.00  0.00    -0.014 A 
BRANCH  31  32
ATOM     32  C   UNL A   1      38.771  30.359  29.689  1.00  0.00     0.031 A 
ATOM     33  C   UNL A   1      39.700  29.324  29.119  1.00  0.00     0.074 A 
ATOM     34  C   UNL A   1      39.010  30.889  30.901  1.00  0.00     0.049 A 
ATOM     35  N   UNL A   1      40.728  28.736  29.673  1.00  0.00    -0.248 NA
ATOM     36  C   UNL A   1      39.424  28.884  27.741  1.00  0.00     0.031 C 
ATOM     37  C   UNL A   1      38.198  31.915  31.551  1.00  0.00     0.029 A 
ATOM     38  N   UNL A   1      39.989  30.598  31.820  1.00  0.00    -0.354 N 
ATOM     39  C   UNL A   1      41.193  27.825  28.732  1.00  0.00     0.074 A 
ATOM     40  C   UNL A   1      40.339  27.942  27.569  1.00  0.00     0.031 C 
ATOM     41  C   UNL A   1      38.687  32.138  32.784  1.00  0.00     0.029 A 
ATOM     42  C   UNL A   1      39.820  31.245  33.023  1.00  0.00     0.049 A 
ATOM     43  H   UNL A   1      40.739  29.987  31.637  1.00  0.00     0.167 HD
ATOM     44  C   UNL A   1      42.235  26.967  28.828  1.00  0.00     0.034 A 
ATOM     45  C   UNL A   1      40.478  31.103  34.191  1.00  0.00     0.034 A 
ATOM     46  C   UNL A   1      43.085  26.857  29.982  1.00  0.00     0.049 A 
ATOM     47  C   UNL A   1      41.610  30.110  34.287  1.00  0.00     0.074 A 
ATOM     48  C   UNL A   1      44.191  26.047  30.159  1.00  0.00     0.029 A 
ATOM     49  N   UNL A   1      42.910  27.562  31.162  1.00  0.00    -0.354 N 
ATOM     50  N   UNL A   1      42.103  29.325  33.359  1.00  0.00    -0.248 NA
ATOM     51  C   UNL A   1      42.293  29.999  35.585  1.00  0.00     0.031 C 
ATOM     52  C   UNL A   1      44.662  26.231  31.462  1.00  0.00     0.029 A 
ATOM     53  C   UNL A   1      43.878  27.193  32.080  1.00  0.00     0.049 A 
ATOM     54  H   UNL A   1      42.202  28.226  31.325  1.00  0.00     0.167 HD
ATOM     55  C   UNL A   1      43.174  28.659  33.948  1.00  0.00     0.074 A 
ATOM     56  C   UNL A   1      43.268  29.143  35.309  1.00  0.00     0.031 C 
ATOM     57  C   UNL A   1      43.999  27.725  33.413  1.00  0.00     0.034 A 
BRANCH  44  58
ATOM     58  C   UNL A   1      42.515  26.072  27.650  1.00  0.00     0.023 A 
ATOM     59  C   UNL A   1      43.315  26.536  26.587  1.00  0.00     0.012 A 
ATOM     60  C   UNL A   1      42.026  24.751  27.622  1.00  0.00     0.148 A 
ATOM     61  C   UNL A   1      43.596  25.712  25.498  1.00  0.00     0.002 A 
ATOM     62  C   UNL A   1      42.350  23.919  26.558  1.00  0.00     0.091 A 
ATOM     63  F   UNL A   1      41.249  24.335  28.633  1.00  0.00    -0.205 F 
ATOM     64  C   UNL A   1      43.124  24.401  25.489  1.00  0.00     0.022 A 
BRANCH  62  65
ATOM     65  S   UNL A   1      41.861  22.193  26.492  1.00  0.00     0.127 S 
ATOM     66  O   UNL A   1      40.402  22.302  26.450  1.00  0.00    -0.237 OA
ATOM     67  O   UNL A   1      42.475  21.748  25.242  1.00  0.00    -0.237 OA
ATOM     68  O   UNL A   1      42.404  21.573  27.692  1.00  0.00    -0.744 OA
ENDBRANCH  62  65
ENDBRANCH  44  58
BRANCH  45  69
ATOM     69  C   UNL A   1      40.090  31.923  35.375  1.00  0.00     0.023 A 
ATOM     70  C   UNL A   1      40.718  33.164  35.596  1.00  0.00     0.012 A 
ATOM     71  C   UNL A   1      39.108  31.478  36.282  1.00  0.00     0.148 A 
ATOM     72  C   UNL A   1      40.399  33.933  36.717  1.00  0.00     0.002 A 
ATOM     73  C   UNL A   1      38.755  32.274  37.365  1.00  0.00     0.091 A 
ATOM     74  F   UNL A   1      38.536  30.286  36.064  1.00  0.00    -0.205 F 
ATOM     75  C   UNL A   1      39.412  33.493  37.596  1.00  0.00     0.022 A 
BRANCH  73  76
ATOM     76  S   UNL A   1      37.419  31.845  38.485  1.00  0.00     0.127 S 
ATOM     77  O   UNL A   1      38.041  32.060  39.790  1.00  0.00    -0.237 OA
ATOM     78  O   UNL A   1      36.396  32.826  38.122  1.00  0.00    -0.237 OA
ATOM     79  O   UNL A   1      37.070  30.465  38.175  1.00  0.00    -0.744 OA
ENDBRANCH  73  76
ENDBRANCH  45  69
BRANCH  57  80
ATOM     80  C   UNL A   1      45.124  27.197  34.268  1.00  0.00     0.023 A 
ATOM     81  C   UNL A   1      46.341  27.900  34.353  1.00  0.00     0.012 A 
ATOM     82  C   UNL A   1      44.930  26.051  35.066  1.00  0.00     0.148 A 
ATOM     83  C   UNL A   1      47.357  27.456  35.200  1.00  0.00     0.002 A 
ATOM     84  C   UNL A   1      45.926  25.645  35.946  1.00  0.00     0.091 A 
ATOM     85  F   UNL A   1      43.770  25.388  34.960  1.00  0.00    -0.205 F 
ATOM     86  C   UNL A   1      47.145  26.339  36.005  1.00  0.00     0.022 A 
BRANCH  84  87
ATOM     87  S   UNL A   1      45.705  24.281  37.094  1.00  0.00     0.127 S 
ATOM     88  O   UNL A   1      45.297  23.200  36.198  1.00  0.00    -0.237 OA
ATOM     89  O   UNL A   1      47.048  24.133  37.657  1.00  0.00    -0.237 OA
ATOM     90  O   UNL A   1      44.692  24.714  38.047  1.00  0.00    -0.744 OA
ENDBRANCH  84  87
ENDBRANCH  57  80
ENDBRANCH  31  32
ENDBRANCH  24  26
ENDBRANCH  23  24
ENDBRANCH  22  23
ENDBRANCH  21  22
ENDBRANCH  20  21
ENDBRANCH   1  20
TORSDOF 22
ENDMDL
MODEL 3
REMARK VINA RESULT:      -9.5      1.715      7.885
REMARK SMILES C=C(C)C[N@H+]1CC[C@H](C(=O)OCCOCCOCCOC(=O)c2ccc(-c3c4nc(c(-c5cccc(S(=O)(=O)[O-])c5F)c5ccc([nH]5)c(-c5cccc(S(=O)(=O)[O-])c5F)c5nc(c(-c6cccc(S(=O)(=O)[O-])c6F)c6ccc3[nH]6)C=C5)C=C4)cc2)[C@H]1C
REMARK SMILES IDX 16 1 15 2 14 3 13 4 12 5 11 6 9 7 10 8 8 9 5 10 6 11 86 12
REMARK SMILES IDX 7 14 87 15 4 16 2 17 1 18 3 19 17 20 18 21 19 22 20 23 21 24
REMARK SMILES IDX 22 25 23 26 24 27 85 28 25 29 84 30 26 31 27 32 28 33 78 34
REMARK SMILES IDX 29 35 83 36 77 37 79 38 30 39 82 40 76 41 75 42 31 44 63 45
REMARK SMILES IDX 43 46 62 47 44 48 47 49 61 50 80 51 45 52 46 53 60 55 81 56
REMARK SMILES IDX 48 57 32 58 33 59 41 60 34 61 36 62 42 63 35 64 37 65 38 66
REMARK SMILES IDX 39 67 40 68 64 69 65 70 73 71 66 72 68 73 74 74 67 75 69 76
REMARK SMILES IDX 70 77 71 78 72 79 49 80 50 81 58 82 51 83 53 84 59 85 52 86
REMARK SMILES IDX 54 87 55 88 56 89 57 90
REMARK H PARENT 5 13 79 43 47 54
REMARK Flexibility Score: inf
ROOT
ATOM      1  C   UNL A   1      32.933  29.000  26.384  1.00  0.00     0.188 C 
ENDROOT
BRANCH   1   2
ATOM      2  C   UNL A   1      31.999  28.267  27.376  1.00  0.00     0.188 C 
BRANCH   2   3
ATOM      3  O   UNL A   1      31.448  27.081  26.837  1.00  0.00    -0.376 OA
BRANCH   3   4
ATOM      4  C   UNL A   1      30.973  27.160  25.503  1.00  0.00     0.202 C 
BRANCH   4   5
ATOM      5  C   UNL A   1      30.882  25.864  24.679  1.00  0.00     0.261 C 
BRANCH   5   6
ATOM      6  O   UNL A   1      31.860  24.856  24.987  1.00  0.00    -0.463 OA
BRANCH   6   7
ATOM      7  C   UNL A   1      31.623  23.574  24.596  1.00  0.00     0.315 C 
ATOM      8  O   UNL A   1      31.203  23.267  23.491  1.00  0.00    -0.252 OA
BRANCH   7   9
ATOM      9  C   UNL A   1      31.924  22.616  25.754  1.00  0.00     0.162 C 
ATOM     10  N   UNL A   1      34.123  21.876  25.363  1.00  0.00    -0.329 N 
ATOM     11  C   UNL A   1      33.240  20.871  24.776  1.00  0.00     0.263 C 
ATOM     12  C   UNL A   1      33.360  22.719  26.288  1.00  0.00     0.195 C 
ATOM     13  H   UNL A   1      34.443  22.482  24.608  1.00  0.00     0.348 HD
ATOM     14  C   UNL A   1      31.840  21.172  25.295  1.00  0.00     0.083 C 
ATOM     15  C   UNL A   1      33.439  22.286  27.765  1.00  0.00     0.076 C 
BRANCH  10  16
ATOM     16  C   UNL A   1      35.437  21.420  25.800  1.00  0.00     0.293 C 
BRANCH  16  17
ATOM     17  C   UNL A   1      36.618  21.850  24.949  1.00  0.00    -0.026 C 
ATOM     18  C   UNL A   1      36.772  23.042  24.347  1.00  0.00     0.013 C 
ATOM     19  C   UNL A   1      37.710  20.816  24.833  1.00  0.00     0.045 C 
ENDBRANCH  16  17
ENDBRANCH  10  16
ENDBRANCH   7   9
ENDBRANCH   6   7
ENDBRANCH   5   6
ENDBRANCH   4   5
ENDBRANCH   3   4
ENDBRANCH   2   3
ENDBRANCH   1   2
BRANCH   1  20
ATOM     20  O   UNL A   1      32.534  30.222  25.780  1.00  0.00    -0.376 OA
BRANCH  20  21
ATOM     21  C   UNL A   1      31.386  30.889  26.282  1.00  0.00     0.202 C 
BRANCH  21  22
ATOM     22  C   UNL A   1      31.497  32.333  26.811  1.00  0.00     0.261 C 
BRANCH  22  23
ATOM     23  O   UNL A   1      32.787  32.959  26.716  1.00  0.00    -0.460 OA
BRANCH  23  24
ATOM     24  C   UNL A   1      33.214  33.619  27.821  1.00  0.00     0.338 C 
ATOM     25  O   UNL A   1      32.603  34.475  28.449  1.00  0.00    -0.246 OA
BRANCH  24  26
ATOM     26  C   UNL A   1      34.478  33.020  28.300  1.00  0.00     0.060 A 
ATOM     27  C   UNL A   1      34.435  31.801  28.998  1.00  0.00     0.016 A 
ATOM     28  C   UNL A   1      35.694  33.671  28.098  1.00  0.00     0.016 A 
ATOM     29  C   UNL A   1      35.607  31.232  29.498  1.00  0.00     0.010 A 
ATOM     30  C   UNL A   1      36.862  33.119  28.632  1.00  0.00     0.010 A 
ATOM     31  C   UNL A   1      36.822  31.911  29.354  1.00  0.00    -0.014 A 
BRANCH  31  32
ATOM     32  C   UNL A   1      38.025  31.467  30.101  1.00  0.00     0.031 A 
ATOM     33  C   UNL A   1      38.900  30.413  29.482  1.00  0.00     0.074 A 
ATOM     34  C   UNL A   1      38.308  31.950  31.323  1.00  0.00     0.049 A 
ATOM     35  N   UNL A   1      39.914  29.770  29.997  1.00  0.00    -0.248 NA
ATOM     36  C   UNL A   1      38.580  30.026  28.098  1.00  0.00     0.031 C 
ATOM     37  C   UNL A   1      37.551  32.988  32.019  1.00  0.00     0.029 A 
ATOM     38  N   UNL A   1      39.293  31.595  32.212  1.00  0.00    -0.354 N 
ATOM     39  C   UNL A   1      40.324  28.869  29.021  1.00  0.00     0.074 A 
ATOM     40  C   UNL A   1      39.453  29.054  27.880  1.00  0.00     0.031 C 
ATOM     41  C   UNL A   1      38.072  33.155  33.247  1.00  0.00     0.029 A 
ATOM     42  C   UNL A   1      39.173  32.212  33.436  1.00  0.00     0.049 A 
ATOM     43  H   UNL A   1      40.014  30.960  31.996  1.00  0.00     0.167 HD
ATOM     44  C   UNL A   1      41.333  27.968  29.070  1.00  0.00     0.034 A 
ATOM     45  C   UNL A   1      39.848  32.009  34.586  1.00  0.00     0.034 A 
ATOM     46  C   UNL A   1      42.200  27.791  30.203  1.00  0.00     0.049 A 
ATOM     47  C   UNL A   1      40.941  30.969  34.630  1.00  0.00     0.074 A 
ATOM     48  C   UNL A   1      43.277  26.933  30.333  1.00  0.00     0.029 A 
ATOM     49  N   UNL A   1      42.077  28.467  31.406  1.00  0.00    -0.354 N 
ATOM     50  N   UNL A   1      41.384  30.194  33.669  1.00  0.00    -0.248 NA
ATOM     51  C   UNL A   1      41.644  30.793  35.909  1.00  0.00     0.031 C 
ATOM     52  C   UNL A   1      43.780  27.060  31.631  1.00  0.00     0.029 A 
ATOM     53  C   UNL A   1      43.047  28.033  32.292  1.00  0.00     0.049 A 
ATOM     54  H   UNL A   1      41.399  29.153  31.603  1.00  0.00     0.167 HD
ATOM     55  C   UNL A   1      42.439  29.469  34.217  1.00  0.00     0.074 A 
ATOM     56  C   UNL A   1      42.579  29.908  35.589  1.00  0.00     0.031 C 
ATOM     57  C   UNL A   1      43.215  28.520  33.638  1.00  0.00     0.034 A 
BRANCH  44  58
ATOM     58  C   UNL A   1      41.553  27.098  27.861  1.00  0.00     0.023 A 
ATOM     59  C   UNL A   1      42.191  27.626  26.721  1.00  0.00     0.012 A 
ATOM     60  C   UNL A   1      41.174  25.742  27.877  1.00  0.00     0.148 A 
ATOM     61  C   UNL A   1      42.417  26.826  25.601  1.00  0.00     0.002 A 
ATOM     62  C   UNL A   1      41.446  24.938  26.776  1.00  0.00     0.091 A 
ATOM     63  F   UNL A   1      40.549  25.264  28.963  1.00  0.00    -0.205 F 
ATOM     64  C   UNL A   1      42.055  25.482  25.633  1.00  0.00     0.022 A 
BRANCH  62  65
ATOM     65  S   UNL A   1      41.095  23.178  26.750  1.00  0.00     0.127 S 
ATOM     66  O   UNL A   1      41.725  22.733  27.994  1.00  0.00    -0.237 OA
ATOM     67  O   UNL A   1      39.632  23.158  26.768  1.00  0.00    -0.237 OA
ATOM     68  O   UNL A   1      41.697  22.664  25.529  1.00  0.00    -0.744 OA
ENDBRANCH  62  65
ENDBRANCH  44  58
BRANCH  45  69
ATOM     69  C   UNL A   1      39.516  32.808  35.801  1.00  0.00     0.023 A 
ATOM     70  C   UNL A   1      40.056  34.100  35.951  1.00  0.00     0.012 A 
ATOM     71  C   UNL A   1      38.674  32.293  36.807  1.00  0.00     0.148 A 
ATOM     72  C   UNL A   1      39.791  34.853  37.097  1.00  0.00     0.002 A 
ATOM     73  C   UNL A   1      38.369  33.070  37.918  1.00  0.00     0.091 A 
ATOM     74  F   UNL A   1      38.186  31.055  36.654  1.00  0.00    -0.205 F 
ATOM     75  C   UNL A   1      38.941  34.343  38.075  1.00  0.00     0.022 A 
BRANCH  73  76
ATOM     76  S   UNL A   1      37.196  32.545  39.172  1.00  0.00     0.127 S 
ATOM     77  O   UNL A   1      35.926  32.653  38.457  1.00  0.00    -0.237 OA
ATOM     78  O   UNL A   1      37.637  31.176  39.441  1.00  0.00    -0.237 OA
ATOM     79  O   UNL A   1      37.371  33.466  40.287  1.00  0.00    -0.744 OA
ENDBRANCH  73  76
ENDBRANCH  45  69
BRANCH  57  80
ATOM     80  C   UNL A   1      44.335  27.922  34.453  1.00  0.00     0.023 A 
ATOM     81  C   UNL A   1      45.632  28.465  34.382  1.00  0.00     0.012 A 
ATOM     82  C   UNL A   1      44.070  26.884  35.368  1.00  0.00     0.148 A 
ATOM     83  C   UNL A   1      46.655  27.965  35.189  1.00  0.00     0.002 A 
ATOM     84  C   UNL A   1      45.078  26.427  36.207  1.00  0.00     0.091 A 
ATOM     85  F   UNL A   1      42.831  26.372  35.412  1.00  0.00    -0.205 F 
ATOM     86  C   UNL A   1      46.375  26.957  36.110  1.00  0.00     0.022 A 
BRANCH  84  87
ATOM     87  S   UNL A   1      44.790  25.205  37.492  1.00  0.00     0.127 S 
ATOM     88  O   UNL A   1      46.136  25.010  38.026  1.00  0.00    -0.237 OA
ATOM     89  O   UNL A   1      43.874  25.912  38.388  1.00  0.00    -0.237 OA
ATOM     90  O   UNL A   1      44.211  24.046  36.825  1.00  0.00    -0.744 OA
ENDBRANCH  84  87
ENDBRANCH  57  80
ENDBRANCH  31  32
ENDBRANCH  24  26
ENDBRANCH  23  24
ENDBRANCH  22  23
ENDBRANCH  21  22
ENDBRANCH  20  21
ENDBRANCH   1  20
TORSDOF 22
ENDMDL
