MODEL 1
REMARK VINA RESULT:      -8.8      0.000      0.000
REMARK SMILES CN(CC(N)=O)S(=O)(=O)c1ccc(C(=O)OCCOCCOCCOC(=O)c2ccc(-c3c4nc(c(-c5cccc(S(=O)(=O)[O-])c5F)c5ccc([nH]5)c(-c5cccc(S(=O)(=O)[O-])c5F)c5nc(c(-c6cccc(S(=O)(=O)[O-])c6F)c6ccc3[nH]6)C=C5)C=C4)cc2)cc1Br
REMARK SMILES IDX 20 1 19 2 18 3 17 4 16 5 14 6 15 7 13 8 10 9 11 10 92 11
REMARK SMILES IDX 12 12 91 13 93 14 7 15 8 16 9 17 2 18 1 19 3 20 4 21 5 22
REMARK SMILES IDX 6 23 21 26 22 27 23 28 24 29 25 30 26 31 27 32 28 33 29 34
REMARK SMILES IDX 90 35 30 36 89 37 31 38 32 39 33 40 83 41 34 42 88 43 82 44
REMARK SMILES IDX 84 45 35 46 87 47 81 48 80 49 36 51 68 52 48 53 67 54 49 55
REMARK SMILES IDX 52 56 66 57 85 58 50 59 51 60 65 62 86 63 53 64 37 65 38 66
REMARK SMILES IDX 46 67 39 68 41 69 47 70 40 71 42 72 43 73 44 74 45 75 69 76
REMARK SMILES IDX 70 77 78 78 71 79 73 80 79 81 72 82 74 83 75 84 76 85 77 86
REMARK SMILES IDX 54 87 55 88 63 89 56 90 58 91 64 92 57 93 59 94 60 95 61 96
REMARK SMILES IDX 62 97
REMARK H PARENT 5 24 5 25 84 50 52 61
REMARK Flexibility Score: inf
ROOT
ATOM      1  C   UNL A   1      35.456  34.347  29.399  1.00  0.00     0.188 C 
ENDROOT
BRANCH   1   2
ATOM      2  O   UNL A   1      35.954  33.061  29.066  1.00  0.00    -0.376 OA
BRANCH   2   3
ATOM      3  C   UNL A   1      35.410  32.432  27.922  1.00  0.00     0.202 C 
BRANCH   3   4
ATOM      4  C   UNL A   1      34.005  31.837  28.088  1.00  0.00     0.261 C 
BRANCH   4   5
ATOM      5  O   UNL A   1      33.557  30.987  27.019  1.00  0.00    -0.460 OA
BRANCH   5   6
ATOM      6  C   UNL A   1      32.237  31.005  26.739  1.00  0.00     0.338 C 
ATOM      7  O   UNL A   1      31.507  31.979  26.719  1.00  0.00    -0.246 OA
BRANCH   6   8
ATOM      8  C   UNL A   1      31.819  29.642  26.333  1.00  0.00     0.061 A 
ATOM      9  C   UNL A   1      31.144  27.019  25.587  1.00  0.00     0.096 A 
ATOM     10  C   UNL A   1      31.422  27.339  26.932  1.00  0.00     0.024 A 
ATOM     11  C   UNL A   1      31.189  28.027  24.618  1.00  0.00     0.038 A 
ATOM     12  C   UNL A   1      31.777  28.638  27.300  1.00  0.00     0.017 A 
ATOM     13  C   UNL A   1      31.500  29.345  25.003  1.00  0.00     0.032 A 
ATOM     14  Br  UNL A   1      30.929  27.758  22.757  1.00  0.00    -0.049 Br
BRANCH   9  15
ATOM     15  S   UNL A   1      30.924  25.289  25.227  1.00  0.00     0.244 S 
ATOM     16  O   UNL A   1      29.822  25.192  24.293  1.00  0.00    -0.207 OA
ATOM     17  O   UNL A   1      30.870  24.623  26.512  1.00  0.00    -0.207 OA
BRANCH  15  18
ATOM     18  N   UNL A   1      32.301  24.742  24.401  1.00  0.00    -0.192 NA
ATOM     19  C   UNL A   1      33.561  25.018  25.140  1.00  0.00     0.125 C 
BRANCH  18  20
ATOM     20  C   UNL A   1      32.260  23.368  23.842  1.00  0.00     0.201 C 
BRANCH  20  21
ATOM     21  C   UNL A   1      33.591  22.793  23.382  1.00  0.00     0.232 C 
ATOM     22  N   UNL A   1      34.084  21.755  24.116  1.00  0.00    -0.369 N 
ATOM     23  O   UNL A   1      34.194  23.205  22.393  1.00  0.00    -0.274 OA
ATOM     24  H   UNL A   1      33.593  21.434  24.906  1.00  0.00     0.159 HD
ATOM     25  H   UNL A   1      34.932  21.327  23.856  1.00  0.00     0.159 HD
ENDBRANCH  20  21
ENDBRANCH  18  20
ENDBRANCH  15  18
ENDBRANCH   9  15
ENDBRANCH   6   8
ENDBRANCH   5   6
ENDBRANCH   4   5
ENDBRANCH   3   4
ENDBRANCH   2   3
ENDBRANCH   1   2
BRANCH   1  26
ATOM     26  C   UNL A   1      34.432  34.290  30.550  1.00  0.00     0.188 C 
BRANCH  26  27
ATOM     27  O   UNL A   1      34.779  33.663  31.783  1.00  0.00    -0.376 OA
BRANCH  27  28
ATOM     28  C   UNL A   1      35.347  32.359  31.768  1.00  0.00     0.202 C 
BRANCH  28  29
ATOM     29  C   UNL A   1      35.852  31.786  33.093  1.00  0.00     0.261 C 
BRANCH  29  30
ATOM     30  O   UNL A   1      36.958  32.505  33.660  1.00  0.00    -0.460 OA
BRANCH  30  31
ATOM     31  C   UNL A   1      37.846  31.745  34.347  1.00  0.00     0.338 C 
ATOM     32  O   UNL A   1      37.691  31.241  35.447  1.00  0.00    -0.246 OA
BRANCH  31  33
ATOM     33  C   UNL A   1      39.006  31.437  33.490  1.00  0.00     0.060 A 
ATOM     34  C   UNL A   1      39.137  32.148  32.290  1.00  0.00     0.016 A 
ATOM     35  C   UNL A   1      39.922  30.439  33.828  1.00  0.00     0.016 A 
ATOM     36  C   UNL A   1      40.179  31.855  31.413  1.00  0.00     0.010 A 
ATOM     37  C   UNL A   1      40.954  30.130  32.936  1.00  0.00     0.010 A 
ATOM     38  C   UNL A   1      41.075  30.824  31.718  1.00  0.00    -0.014 A 
BRANCH  38  39
ATOM     39  C   UNL A   1      42.079  30.396  30.716  1.00  0.00     0.031 A 
ATOM     40  C   UNL A   1      41.816  29.167  29.894  1.00  0.00     0.074 A 
ATOM     41  C   UNL A   1      43.222  31.086  30.559  1.00  0.00     0.049 A 
ATOM     42  N   UNL A   1      42.573  28.599  28.993  1.00  0.00    -0.248 NA
ATOM     43  C   UNL A   1      40.528  28.488  30.117  1.00  0.00     0.031 C 
ATOM     44  C   UNL A   1      43.587  32.294  31.298  1.00  0.00     0.029 A 
ATOM     45  N   UNL A   1      44.301  30.847  29.747  1.00  0.00    -0.354 N 
ATOM     46  C   UNL A   1      41.867  27.488  28.551  1.00  0.00     0.074 A 
ATOM     47  C   UNL A   1      40.621  27.457  29.288  1.00  0.00     0.031 C 
ATOM     48  C   UNL A   1      44.826  32.668  30.933  1.00  0.00     0.029 A 
ATOM     49  C   UNL A   1      45.345  31.717  29.951  1.00  0.00     0.049 A 
ATOM     50  H   UNL A   1      44.325  30.122  29.081  1.00  0.00     0.167 HD
ATOM     51  C   UNL A   1      42.216  26.583  27.608  1.00  0.00     0.034 A 
ATOM     52  C   UNL A   1      46.587  31.726  29.426  1.00  0.00     0.034 A 
ATOM     53  C   UNL A   1      43.451  26.615  26.873  1.00  0.00     0.049 A 
ATOM     54  C   UNL A   1      46.969  30.678  28.414  1.00  0.00     0.074 A 
ATOM     55  C   UNL A   1      43.873  25.769  25.862  1.00  0.00     0.029 A 
ATOM     56  N   UNL A   1      44.472  27.528  27.082  1.00  0.00    -0.354 N 
ATOM     57  N   UNL A   1      46.237  29.717  27.905  1.00  0.00    -0.248 NA
ATOM     58  C   UNL A   1      48.340  30.733  27.884  1.00  0.00     0.031 C 
ATOM     59  C   UNL A   1      45.160  26.160  25.474  1.00  0.00     0.029 A 
ATOM     60  C   UNL A   1      45.532  27.257  26.235  1.00  0.00     0.049 A 
ATOM     61  H   UNL A   1      44.447  28.262  27.738  1.00  0.00     0.167 HD
ATOM     62  C   UNL A   1      47.049  29.069  26.978  1.00  0.00     0.074 A 
ATOM     63  C   UNL A   1      48.321  29.763  26.979  1.00  0.00     0.031 C 
ATOM     64  C   UNL A   1      46.774  27.985  26.211  1.00  0.00     0.034 A 
BRANCH  51  65
ATOM     65  C   UNL A   1      41.229  25.494  27.292  1.00  0.00     0.023 A 
ATOM     66  C   UNL A   1      39.954  25.840  26.803  1.00  0.00     0.012 A 
ATOM     67  C   UNL A   1      41.575  24.137  27.429  1.00  0.00     0.148 A 
ATOM     68  C   UNL A   1      39.028  24.852  26.473  1.00  0.00     0.002 A 
ATOM     69  C   UNL A   1      40.658  23.155  27.068  1.00  0.00     0.091 A 
ATOM     70  F   UNL A   1      42.782  23.830  27.926  1.00  0.00    -0.205 F 
ATOM     71  C   UNL A   1      39.384  23.511  26.597  1.00  0.00     0.022 A 
BRANCH  69  72
ATOM     72  S   UNL A   1      41.047  21.403  27.136  1.00  0.00     0.127 S 
ATOM     73  O   UNL A   1      40.989  21.144  28.573  1.00  0.00    -0.237 OA
ATOM     74  O   UNL A   1      39.953  20.811  26.365  1.00  0.00    -0.237 OA
ATOM     75  O   UNL A   1      42.362  21.263  26.525  1.00  0.00    -0.744 OA
ENDBRANCH  69  72
ENDBRANCH  51  65
BRANCH  52  76
ATOM     76  C   UNL A   1      47.556  32.782  29.831  1.00  0.00     0.023 A 
ATOM     77  C   UNL A   1      47.575  34.008  29.140  1.00  0.00     0.012 A 
ATOM     78  C   UNL A   1      48.447  32.585  30.905  1.00  0.00     0.148 A 
ATOM     79  C   UNL A   1      48.479  35.010  29.496  1.00  0.00     0.002 A 
ATOM     80  C   UNL A   1      49.308  33.606  31.287  1.00  0.00     0.091 A 
ATOM     81  F   UNL A   1      48.430  31.401  31.536  1.00  0.00    -0.205 F 
ATOM     82  C   UNL A   1      49.337  34.815  30.574  1.00  0.00     0.022 A 
BRANCH  80  83
ATOM     83  S   UNL A   1      50.356  33.479  32.741  1.00  0.00     0.127 S 
ATOM     84  O   UNL A   1      51.278  32.416  32.354  1.00  0.00    -0.237 OA
ATOM     85  O   UNL A   1      50.949  34.816  32.808  1.00  0.00    -0.237 OA
ATOM     86  O   UNL A   1      49.453  33.172  33.843  1.00  0.00    -0.744 OA
ENDBRANCH  80  83
ENDBRANCH  52  76
BRANCH  64  87
ATOM     87  C   UNL A   1      47.860  27.481  25.297  1.00  0.00     0.023 A 
ATOM     88  C   UNL A   1      48.809  26.563  25.790  1.00  0.00     0.012 A 
ATOM     89  C   UNL A   1      47.895  27.849  23.937  1.00  0.00     0.148 A 
ATOM     90  C   UNL A   1      49.791  26.039  24.949  1.00  0.00     0.002 A 
ATOM     91  C   UNL A   1      48.851  27.289  23.096  1.00  0.00     0.091 A 
ATOM     92  F   UNL A   1      46.997  28.740  23.491  1.00  0.00    -0.205 F 
ATOM     93  C   UNL A   1      49.804  26.391  23.602  1.00  0.00     0.022 A 
BRANCH  91  94
ATOM     94  S   UNL A   1      48.884  27.618  21.330  1.00  0.00     0.127 S 
ATOM     95  O   UNL A   1      49.492  28.946  21.285  1.00  0.00    -0.237 OA
ATOM     96  O   UNL A   1      49.734  26.539  20.825  1.00  0.00    -0.237 OA
ATOM     97  O   UNL A   1      47.497  27.546  20.887  1.00  0.00    -0.744 OA
ENDBRANCH  91  94
ENDBRANCH  64  87
ENDBRANCH  38  39
ENDBRANCH  31  33
ENDBRANCH  30  31
ENDBRANCH  29  30
ENDBRANCH  28  29
ENDBRANCH  27  28
ENDBRANCH  26  27
ENDBRANCH   1  26
TORSDOF 24
ENDMDL
MODEL 2
REMARK VINA RESULT:      -8.8      4.848      8.473
REMARK SMILES CN(CC(N)=O)S(=O)(=O)c1ccc(C(=O)OCCOCCOCCOC(=O)c2ccc(-c3c4nc(c(-c5cccc(S(=O)(=O)[O-])c5F)c5ccc([nH]5)c(-c5cccc(S(=O)(=O)[O-])c5F)c5nc(c(-c6cccc(S(=O)(=O)[O-])c6F)c6ccc3[nH]6)C=C5)C=C4)cc2)cc1Br
REMARK SMILES IDX 20 1 19 2 18 3 17 4 16 5 14 6 15 7 13 8 10 9 11 10 92 11
REMARK SMILES IDX 12 12 91 13 93 14 7 15 8 16 9 17 2 18 1 19 3 20 4 21 5 22
REMARK SMILES IDX 6 23 21 26 22 27 23 28 24 29 25 30 26 31 27 32 28 33 29 34
REMARK SMILES IDX 90 35 30 36 89 37 31 38 32 39 33 40 83 41 34 42 88 43 82 44
REMARK SMILES IDX 84 45 35 46 87 47 81 48 80 49 36 51 68 52 48 53 67 54 49 55
REMARK SMILES IDX 52 56 66 57 85 58 50 59 51 60 65 62 86 63 53 64 37 65 38 66
REMARK SMILES IDX 46 67 39 68 41 69 47 70 40 71 42 72 43 73 44 74 45 75 69 76
REMARK SMILES IDX 70 77 78 78 71 79 73 80 79 81 72 82 74 83 75 84 76 85 77 86
REMARK SMILES IDX 54 87 55 88 63 89 56 90 58 91 64 92 57 93 59 94 60 95 61 96
REMARK SMILES IDX 62 97
REMARK H PARENT 5 24 5 25 84 50 52 61
REMARK Flexibility Score: inf
ROOT
ATOM      1  C   UNL A   1      36.019  32.058  28.450  1.00  0.00     0.188 C 
ENDROOT
BRANCH   1   2
ATOM      2  O   UNL A   1      35.733  30.691  28.199  1.00  0.00    -0.376 OA
BRANCH   2   3
ATOM      3  C   UNL A   1      36.783  29.894  27.685  1.00  0.00     0.202 C 
BRANCH   3   4
ATOM      4  C   UNL A   1      37.752  29.312  28.723  1.00  0.00     0.261 C 
BRANCH   4   5
ATOM      5  O   UNL A   1      38.578  28.228  28.267  1.00  0.00    -0.460 OA
BRANCH   5   6
ATOM      6  C   UNL A   1      39.160  27.463  29.215  1.00  0.00     0.338 C 
ATOM      7  O   UNL A   1      38.933  27.484  30.411  1.00  0.00    -0.246 OA
BRANCH   6   8
ATOM      8  C   UNL A   1      40.055  26.485  28.553  1.00  0.00     0.061 A 
ATOM      9  C   UNL A   1      41.679  24.539  27.341  1.00  0.00     0.096 A 
ATOM     10  C   UNL A   1      40.376  24.792  26.864  1.00  0.00     0.024 A 
ATOM     11  C   UNL A   1      42.172  25.282  28.419  1.00  0.00     0.038 A 
ATOM     12  C   UNL A   1      39.562  25.744  27.479  1.00  0.00     0.017 A 
ATOM     13  C   UNL A   1      41.364  26.275  29.004  1.00  0.00     0.032 A 
ATOM     14  Br  UNL A   1      43.863  25.014  29.240  1.00  0.00    -0.049 Br
BRANCH   9  15
ATOM     15  S   UNL A   1      42.521  23.151  26.608  1.00  0.00     0.244 S 
ATOM     16  O   UNL A   1      41.509  22.341  25.962  1.00  0.00    -0.207 OA
ATOM     17  O   UNL A   1      43.359  22.602  27.654  1.00  0.00    -0.207 OA
BRANCH  15  18
ATOM     18  N   UNL A   1      43.526  23.736  25.373  1.00  0.00    -0.192 NA
ATOM     19  C   UNL A   1      44.636  24.580  25.887  1.00  0.00     0.125 C 
BRANCH  18  20
ATOM     20  C   UNL A   1      43.979  22.766  24.346  1.00  0.00     0.201 C 
BRANCH  20  21
ATOM     21  C   UNL A   1      44.527  21.447  24.866  1.00  0.00     0.232 C 
ATOM     22  N   UNL A   1      45.529  21.531  25.788  1.00  0.00    -0.369 N 
ATOM     23  O   UNL A   1      44.092  20.353  24.513  1.00  0.00    -0.274 OA
ATOM     24  H   UNL A   1      45.870  22.413  26.062  1.00  0.00     0.159 HD
ATOM     25  H   UNL A   1      45.911  20.712  26.178  1.00  0.00     0.159 HD
ENDBRANCH  20  21
ENDBRANCH  18  20
ENDBRANCH  15  18
ENDBRANCH   9  15
ENDBRANCH   6   8
ENDBRANCH   5   6
ENDBRANCH   4   5
ENDBRANCH   3   4
ENDBRANCH   2   3
ENDBRANCH   1   2
BRANCH   1  26
ATOM     26  C   UNL A   1      34.829  32.785  29.105  1.00  0.00     0.188 C 
BRANCH  26  27
ATOM     27  O   UNL A   1      34.492  32.521  30.465  1.00  0.00    -0.376 OA
BRANCH  27  28
ATOM     28  C   UNL A   1      35.034  33.342  31.492  1.00  0.00     0.202 C 
BRANCH  28  29
ATOM     29  C   UNL A   1      34.736  32.959  32.943  1.00  0.00     0.261 C 
BRANCH  29  30
ATOM     30  O   UNL A   1      35.780  32.207  33.578  1.00  0.00    -0.460 OA
BRANCH  30  31
ATOM     31  C   UNL A   1      36.884  32.921  33.909  1.00  0.00     0.338 C 
ATOM     32  O   UNL A   1      36.927  33.960  34.547  1.00  0.00    -0.246 OA
BRANCH  31  33
ATOM     33  C   UNL A   1      38.095  32.163  33.543  1.00  0.00     0.060 A 
ATOM     34  C   UNL A   1      39.309  32.553  34.124  1.00  0.00     0.016 A 
ATOM     35  C   UNL A   1      38.055  31.122  32.612  1.00  0.00     0.016 A 
ATOM     36  C   UNL A   1      40.493  31.912  33.767  1.00  0.00     0.010 A 
ATOM     37  C   UNL A   1      39.248  30.496  32.239  1.00  0.00     0.010 A 
ATOM     38  C   UNL A   1      40.473  30.900  32.800  1.00  0.00    -0.014 A 
BRANCH  38  39
ATOM     39  C   UNL A   1      41.744  30.334  32.295  1.00  0.00     0.031 A 
ATOM     40  C   UNL A   1      42.413  30.975  31.113  1.00  0.00     0.074 A 
ATOM     41  C   UNL A   1      42.284  29.246  32.873  1.00  0.00     0.049 A 
ATOM     42  N   UNL A   1      43.506  30.620  30.491  1.00  0.00    -0.248 NA
ATOM     43  C   UNL A   1      41.765  32.175  30.558  1.00  0.00     0.031 C 
ATOM     44  C   UNL A   1      41.727  28.539  34.026  1.00  0.00     0.029 A 
ATOM     45  N   UNL A   1      43.405  28.528  32.545  1.00  0.00    -0.354 N 
ATOM     46  C   UNL A   1      43.671  31.538  29.461  1.00  0.00     0.074 A 
ATOM     47  C   UNL A   1      42.561  32.464  29.539  1.00  0.00     0.031 C 
ATOM     48  C   UNL A   1      42.489  27.463  34.284  1.00  0.00     0.029 A 
ATOM     49  C   UNL A   1      43.572  27.395  33.305  1.00  0.00     0.049 A 
ATOM     50  H   UNL A   1      44.030  28.798  31.833  1.00  0.00     0.167 HD
ATOM     51  C   UNL A   1      44.663  31.613  28.545  1.00  0.00     0.034 A 
ATOM     52  C   UNL A   1      44.481  26.404  33.203  1.00  0.00     0.034 A 
ATOM     53  C   UNL A   1      45.767  30.696  28.469  1.00  0.00     0.049 A 
ATOM     54  C   UNL A   1      45.547  26.485  32.141  1.00  0.00     0.074 A 
ATOM     55  C   UNL A   1      46.848  30.719  27.604  1.00  0.00     0.029 A 
ATOM     56  N   UNL A   1      45.923  29.579  29.274  1.00  0.00    -0.354 N 
ATOM     57  N   UNL A   1      45.768  27.435  31.265  1.00  0.00    -0.248 NA
ATOM     58  C   UNL A   1      46.503  25.370  32.072  1.00  0.00     0.031 C 
ATOM     59  C   UNL A   1      47.648  29.603  27.875  1.00  0.00     0.029 A 
ATOM     60  C   UNL A   1      47.071  28.893  28.917  1.00  0.00     0.049 A 
ATOM     61  H   UNL A   1      45.308  29.312  29.995  1.00  0.00     0.167 HD
ATOM     62  C   UNL A   1      46.902  27.045  30.558  1.00  0.00     0.074 A 
ATOM     63  C   UNL A   1      47.335  25.784  31.125  1.00  0.00     0.031 C 
ATOM     64  C   UNL A   1      47.518  27.664  29.520  1.00  0.00     0.034 A 
BRANCH  51  65
ATOM     65  C   UNL A   1      44.616  32.750  27.563  1.00  0.00     0.023 A 
ATOM     66  C   UNL A   1      44.088  32.529  26.276  1.00  0.00     0.012 A 
ATOM     67  C   UNL A   1      45.043  34.042  27.925  1.00  0.00     0.148 A 
ATOM     68  C   UNL A   1      44.005  33.571  25.354  1.00  0.00     0.002 A 
ATOM     69  C   UNL A   1      44.926  35.085  27.013  1.00  0.00     0.091 A 
ATOM     70  F   UNL A   1      45.570  34.223  29.144  1.00  0.00    -0.205 F 
ATOM     71  C   UNL A   1      44.414  34.849  25.726  1.00  0.00     0.022 A 
BRANCH  69  72
ATOM     72  S   UNL A   1      45.372  36.776  27.420  1.00  0.00     0.127 S 
ATOM     73  O   UNL A   1      46.618  36.941  26.673  1.00  0.00    -0.237 OA
ATOM     74  O   UNL A   1      44.238  37.533  26.890  1.00  0.00    -0.237 OA
ATOM     75  O   UNL A   1      45.500  36.815  28.871  1.00  0.00    -0.744 OA
ENDBRANCH  69  72
ENDBRANCH  51  65
BRANCH  52  76
ATOM     76  C   UNL A   1      44.437  25.256  34.151  1.00  0.00     0.023 A 
ATOM     77  C   UNL A   1      43.736  24.089  33.795  1.00  0.00     0.012 A 
ATOM     78  C   UNL A   1      45.098  25.309  35.395  1.00  0.00     0.148 A 
ATOM     79  C   UNL A   1      43.675  23.003  34.670  1.00  0.00     0.002 A 
ATOM     80  C   UNL A   1      45.076  24.206  36.239  1.00  0.00     0.091 A 
ATOM     81  F   UNL A   1      45.740  26.440  35.726  1.00  0.00    -0.205 F 
ATOM     82  C   UNL A   1      44.352  23.056  35.885  1.00  0.00     0.022 A 
BRANCH  80  83
ATOM     83  S   UNL A   1      46.025  24.149  37.763  1.00  0.00     0.127 S 
ATOM     84  O   UNL A   1      45.771  22.787  38.224  1.00  0.00    -0.237 OA
ATOM     85  O   UNL A   1      47.386  24.395  37.286  1.00  0.00    -0.237 OA
ATOM     86  O   UNL A   1      45.484  25.216  38.596  1.00  0.00    -0.744 OA
ENDBRANCH  80  83
ENDBRANCH  52  76
BRANCH  64  87
ATOM     87  C   UNL A   1      48.734  26.999  28.929  1.00  0.00     0.023 A 
ATOM     88  C   UNL A   1      48.584  26.148  27.816  1.00  0.00     0.012 A 
ATOM     89  C   UNL A   1      50.025  27.277  29.420  1.00  0.00     0.148 A 
ATOM     90  C   UNL A   1      49.699  25.564  27.217  1.00  0.00     0.002 A 
ATOM     91  C   UNL A   1      51.135  26.724  28.790  1.00  0.00     0.091 A 
ATOM     92  F   UNL A   1      50.145  28.073  30.493  1.00  0.00    -0.205 F 
ATOM     93  C   UNL A   1      50.974  25.861  27.695  1.00  0.00     0.022 A 
BRANCH  91  94
ATOM     94  S   UNL A   1      52.815  27.126  29.283  1.00  0.00     0.127 S 
ATOM     95  O   UNL A   1      52.877  26.553  30.626  1.00  0.00    -0.237 OA
ATOM     96  O   UNL A   1      53.614  26.420  28.280  1.00  0.00    -0.237 OA
ATOM     97  O   UNL A   1      52.913  28.578  29.214  1.00  0.00    -0.744 OA
ENDBRANCH  91  94
ENDBRANCH  64  87
ENDBRANCH  38  39
ENDBRANCH  31  33
ENDBRANCH  30  31
ENDBRANCH  29  30
ENDBRANCH  28  29
ENDBRANCH  27  28
ENDBRANCH  26  27
ENDBRANCH   1  26
TORSDOF 24
ENDMDL
MODEL 3
REMARK VINA RESULT:      -8.7      3.046      3.607
REMARK SMILES CN(CC(N)=O)S(=O)(=O)c1ccc(C(=O)OCCOCCOCCOC(=O)c2ccc(-c3c4nc(c(-c5cccc(S(=O)(=O)[O-])c5F)c5ccc([nH]5)c(-c5cccc(S(=O)(=O)[O-])c5F)c5nc(c(-c6cccc(S(=O)(=O)[O-])c6F)c6ccc3[nH]6)C=C5)C=C4)cc2)cc1Br
REMARK SMILES IDX 20 1 19 2 18 3 17 4 16 5 14 6 15 7 13 8 10 9 11 10 92 11
REMARK SMILES IDX 12 12 91 13 93 14 7 15 8 16 9 17 2 18 1 19 3 20 4 21 5 22
REMARK SMILES IDX 6 23 21 26 22 27 23 28 24 29 25 30 26 31 27 32 28 33 29 34
REMARK SMILES IDX 90 35 30 36 89 37 31 38 32 39 33 40 83 41 34 42 88 43 82 44
REMARK SMILES IDX 84 45 35 46 87 47 81 48 80 49 36 51 68 52 48 53 67 54 49 55
REMARK SMILES IDX 52 56 66 57 85 58 50 59 51 60 65 62 86 63 53 64 37 65 38 66
REMARK SMILES IDX 46 67 39 68 41 69 47 70 40 71 42 72 43 73 44 74 45 75 69 76
REMARK SMILES IDX 70 77 78 78 71 79 73 80 79 81 72 82 74 83 75 84 76 85 77 86
REMARK SMILES IDX 54 87 55 88 63 89 56 90 58 91 64 92 57 93 59 94 60 95 61 96
REMARK SMILES IDX 62 97
REMARK H PARENT 5 24 5 25 84 50 52 61
REMARK Flexibility Score: inf
ROOT
ATOM      1  C   UNL A   1      35.904  33.301  28.149  1.00  0.00     0.188 C 
ENDROOT
BRANCH   1   2
ATOM      2  O   UNL A   1      35.621  31.924  27.956  1.00  0.00    -0.376 OA
BRANCH   2   3
ATOM      3  C   UNL A   1      34.292  31.577  27.617  1.00  0.00     0.202 C 
BRANCH   3   4
ATOM      4  C   UNL A   1      34.020  30.080  27.419  1.00  0.00     0.261 C 
BRANCH   4   5
ATOM      5  O   UNL A   1      32.728  29.746  26.884  1.00  0.00    -0.460 OA
BRANCH   5   6
ATOM      6  C   UNL A   1      32.706  29.154  25.671  1.00  0.00     0.338 C 
ATOM      7  O   UNL A   1      33.008  29.658  24.605  1.00  0.00    -0.246 OA
BRANCH   6   8
ATOM      8  C   UNL A   1      32.364  27.722  25.849  1.00  0.00     0.061 A 
ATOM      9  C   UNL A   1      31.696  25.032  26.306  1.00  0.00     0.096 A 
ATOM     10  C   UNL A   1      30.714  26.043  26.376  1.00  0.00     0.024 A 
ATOM     11  C   UNL A   1      33.013  25.375  25.987  1.00  0.00     0.038 A 
ATOM     12  C   UNL A   1      31.050  27.382  26.169  1.00  0.00     0.017 A 
ATOM     13  C   UNL A   1      33.336  26.721  25.731  1.00  0.00     0.032 A 
ATOM     14  Br  UNL A   1      34.471  24.160  25.935  1.00  0.00    -0.049 Br
BRANCH   9  15
ATOM     15  S   UNL A   1      31.175  23.405  26.808  1.00  0.00     0.244 S 
ATOM     16  O   UNL A   1      29.801  23.522  27.250  1.00  0.00    -0.207 OA
ATOM     17  O   UNL A   1      32.205  22.920  27.703  1.00  0.00    -0.207 OA
BRANCH  15  18
ATOM     18  N   UNL A   1      31.152  22.410  25.434  1.00  0.00    -0.192 NA
ATOM     19  C   UNL A   1      31.033  23.182  24.169  1.00  0.00     0.125 C 
BRANCH  18  20
ATOM     20  C   UNL A   1      32.174  21.338  25.351  1.00  0.00     0.201 C 
BRANCH  20  21
ATOM     21  C   UNL A   1      32.718  21.039  23.963  1.00  0.00     0.232 C 
ATOM     22  N   UNL A   1      32.315  19.865  23.397  1.00  0.00    -0.369 N 
ATOM     23  O   UNL A   1      33.460  21.806  23.354  1.00  0.00    -0.274 OA
ATOM     24  H   UNL A   1      31.721  19.258  23.895  1.00  0.00     0.159 HD
ATOM     25  H   UNL A   1      32.617  19.625  22.492  1.00  0.00     0.159 HD
ENDBRANCH  20  21
ENDBRANCH  18  20
ENDBRANCH  15  18
ENDBRANCH   9  15
ENDBRANCH   6   8
ENDBRANCH   5   6
ENDBRANCH   4   5
ENDBRANCH   3   4
ENDBRANCH   2   3
ENDBRANCH   1   2
BRANCH   1  26
ATOM     26  C   UNL A   1      35.502  33.781  29.557  1.00  0.00     0.188 C 
BRANCH  26  27
ATOM     27  O   UNL A   1      36.457  33.765  30.616  1.00  0.00    -0.376 OA
BRANCH  27  28
ATOM     28  C   UNL A   1      36.020  33.959  31.955  1.00  0.00     0.202 C 
BRANCH  28  29
ATOM     29  C   UNL A   1      37.011  34.569  32.948  1.00  0.00     0.261 C 
BRANCH  29  30
ATOM     30  O   UNL A   1      38.382  34.230  32.692  1.00  0.00    -0.460 OA
BRANCH  30  31
ATOM     31  C   UNL A   1      38.822  33.108  33.313  1.00  0.00     0.338 C 
ATOM     32  O   UNL A   1      38.370  32.598  34.324  1.00  0.00    -0.246 OA
BRANCH  31  33
ATOM     33  C   UNL A   1      39.847  32.449  32.482  1.00  0.00     0.060 A 
ATOM     34  C   UNL A   1      40.956  31.892  33.132  1.00  0.00     0.016 A 
ATOM     35  C   UNL A   1      39.751  32.419  31.089  1.00  0.00     0.016 A 
ATOM     36  C   UNL A   1      41.983  31.312  32.391  1.00  0.00     0.010 A 
ATOM     37  C   UNL A   1      40.794  31.857  30.346  1.00  0.00     0.010 A 
ATOM     38  C   UNL A   1      41.922  31.318  30.993  1.00  0.00    -0.014 A 
BRANCH  38  39
ATOM     39  C   UNL A   1      43.084  30.858  30.200  1.00  0.00     0.031 A 
ATOM     40  C   UNL A   1      43.212  29.399  29.866  1.00  0.00     0.074 A 
ATOM     41  C   UNL A   1      44.027  31.730  29.802  1.00  0.00     0.049 A 
ATOM     42  N   UNL A   1      44.164  28.781  29.217  1.00  0.00    -0.248 NA
ATOM     43  C   UNL A   1      42.122  28.520  30.322  1.00  0.00     0.031 C 
ATOM     44  C   UNL A   1      44.010  33.169  30.065  1.00  0.00     0.029 A 
ATOM     45  N   UNL A   1      45.199  31.525  29.119  1.00  0.00    -0.354 N 
ATOM     46  C   UNL A   1      43.802  27.440  29.200  1.00  0.00     0.074 A 
ATOM     47  C   UNL A   1      42.544  27.333  29.909  1.00  0.00     0.031 C 
ATOM     48  C   UNL A   1      45.142  33.711  29.583  1.00  0.00     0.029 A 
ATOM     49  C   UNL A   1      45.968  32.657  28.997  1.00  0.00     0.049 A 
ATOM     50  H   UNL A   1      45.463  30.650  28.751  1.00  0.00     0.167 HD
ATOM     51  C   UNL A   1      44.449  26.396  28.635  1.00  0.00     0.034 A 
ATOM     52  C   UNL A   1      47.209  32.817  28.494  1.00  0.00     0.034 A 
ATOM     53  C   UNL A   1      45.696  26.503  27.928  1.00  0.00     0.049 A 
ATOM     54  C   UNL A   1      47.930  31.628  27.914  1.00  0.00     0.074 A 
ATOM     55  C   UNL A   1      46.404  25.507  27.278  1.00  0.00     0.029 A 
ATOM     56  N   UNL A   1      46.432  27.669  27.795  1.00  0.00    -0.354 N 
ATOM     57  N   UNL A   1      47.511  30.393  27.782  1.00  0.00    -0.248 NA
ATOM     58  C   UNL A   1      49.284  31.861  27.389  1.00  0.00     0.031 C 
ATOM     59  C   UNL A   1      47.580  26.069  26.768  1.00  0.00     0.029 A 
ATOM     60  C   UNL A   1      47.596  27.417  27.090  1.00  0.00     0.049 A 
ATOM     61  H   UNL A   1      46.166  28.548  28.150  1.00  0.00     0.167 HD
ATOM     62  C   UNL A   1      48.538  29.708  27.137  1.00  0.00     0.074 A 
ATOM     63  C   UNL A   1      49.589  30.673  26.885  1.00  0.00     0.031 C 
ATOM     64  C   UNL A   1      48.613  28.396  26.803  1.00  0.00     0.034 A 
BRANCH  51  65
ATOM     65  C   UNL A   1      43.799  25.044  28.729  1.00  0.00     0.023 A 
ATOM     66  C   UNL A   1      44.115  24.201  29.814  1.00  0.00     0.012 A 
ATOM     67  C   UNL A   1      42.845  24.627  27.782  1.00  0.00     0.148 A 
ATOM     68  C   UNL A   1      43.506  22.954  29.944  1.00  0.00     0.002 A 
ATOM     69  C   UNL A   1      42.217  23.396  27.936  1.00  0.00     0.091 A 
ATOM     70  F   UNL A   1      42.583  25.431  26.741  1.00  0.00    -0.205 F 
ATOM     71  C   UNL A   1      42.552  22.557  29.011  1.00  0.00     0.022 A 
BRANCH  69  72
ATOM     72  S   UNL A   1      40.933  22.823  26.819  1.00  0.00     0.127 S 
ATOM     73  O   UNL A   1      41.721  22.337  25.687  1.00  0.00    -0.237 OA
ATOM     74  O   UNL A   1      40.282  21.774  27.604  1.00  0.00    -0.237 OA
ATOM     75  O   UNL A   1      40.095  23.984  26.548  1.00  0.00    -0.744 OA
ENDBRANCH  69  72
ENDBRANCH  51  65
BRANCH  52  76
ATOM     76  C   UNL A   1      47.842  34.165  28.495  1.00  0.00     0.023 A 
ATOM     77  C   UNL A   1      48.610  34.570  29.602  1.00  0.00     0.012 A 
ATOM     78  C   UNL A   1      47.701  35.040  27.399  1.00  0.00     0.148 A 
ATOM     79  C   UNL A   1      49.207  35.831  29.630  1.00  0.00     0.002 A 
ATOM     80  C   UNL A   1      48.340  36.273  27.411  1.00  0.00     0.091 A 
ATOM     81  F   UNL A   1      46.945  34.646  26.364  1.00  0.00    -0.205 F 
ATOM     82  C   UNL A   1      49.083  36.678  28.532  1.00  0.00     0.022 A 
BRANCH  80  83
ATOM     83  S   UNL A   1      48.332  37.369  25.987  1.00  0.00     0.127 S 
ATOM     84  O   UNL A   1      46.902  37.574  25.776  1.00  0.00    -0.237 OA
ATOM     85  O   UNL A   1      49.054  38.537  26.495  1.00  0.00    -0.237 OA
ATOM     86  O   UNL A   1      49.035  36.644  24.937  1.00  0.00    -0.744 OA
ENDBRANCH  80  83
ENDBRANCH  52  76
BRANCH  64  87
ATOM     87  C   UNL A   1      49.867  27.919  26.118  1.00  0.00     0.023 A 
ATOM     88  C   UNL A   1      49.895  27.826  24.712  1.00  0.00     0.012 A 
ATOM     89  C   UNL A   1      51.036  27.641  26.854  1.00  0.00     0.148 A 
ATOM     90  C   UNL A   1      51.061  27.440  24.051  1.00  0.00     0.002 A 
ATOM     91  C   UNL A   1      52.206  27.297  26.184  1.00  0.00     0.091 A 
ATOM     92  F   UNL A   1      50.984  27.714  28.192  1.00  0.00    -0.205 F 
ATOM     93  C   UNL A   1      52.217  27.188  24.785  1.00  0.00     0.022 A 
BRANCH  91  94
ATOM     94  S   UNL A   1      53.763  27.045  27.044  1.00  0.00     0.127 S 
ATOM     95  O   UNL A   1      54.566  26.379  26.021  1.00  0.00    -0.237 OA
ATOM     96  O   UNL A   1      54.178  28.414  27.351  1.00  0.00    -0.237 OA
ATOM     97  O   UNL A   1      53.443  26.239  28.216  1.00  0.00    -0.744 OA
ENDBRANCH  91  94
ENDBRANCH  64  87
ENDBRANCH  38  39
ENDBRANCH  31  33
ENDBRANCH  30  31
ENDBRANCH  29  30
ENDBRANCH  28  29
ENDBRANCH  27  28
ENDBRANCH  26  27
ENDBRANCH   1  26
TORSDOF 24
ENDMDL
