MODEL 1
REMARK VINA RESULT:      -8.8      0.000      0.000
REMARK SMILES CCCCCNC(=O)Oc1cccc(-c2ccc([C@@H](C)C(=O)OCCOCCOCCOC(=O)c3ccc(-c4c5nc(c(-c6cccc(S(=O)(=O)[O-])c6F)c6ccc([nH]6)c(-c6cccc(S(=O)(=O)[O-])c6F)c6nc(c(-c7cccc(S(=O)(=O)[O-])c7F)c7ccc4[nH]7)C=C6)C=C5)cc3)cc2F)c1
REMARK SMILES IDX 25 1 24 2 23 3 21 4 22 5 19 6 20 7 18 8 15 9 16 10 99 11
REMARK SMILES IDX 17 12 98 13 100 14 14 15 10 16 11 17 101 18 12 19 13 20 9 21
REMARK SMILES IDX 7 22 6 23 8 25 5 26 4 27 3 28 2 29 1 30 26 31 27 32 28 33
REMARK SMILES IDX 29 34 30 35 31 36 32 37 33 38 34 39 35 40 36 41 97 42 37 43
REMARK SMILES IDX 96 44 38 45 39 46 40 47 90 48 41 49 95 50 89 51 91 52 42 53
REMARK SMILES IDX 94 54 88 55 87 56 43 58 75 59 55 60 74 61 56 62 59 63 73 64
REMARK SMILES IDX 92 65 57 66 58 67 72 69 93 70 60 71 44 72 45 73 53 74 46 75
REMARK SMILES IDX 48 76 54 77 47 78 49 79 50 80 51 81 52 82 76 83 77 84 85 85
REMARK SMILES IDX 78 86 80 87 86 88 79 89 81 90 82 91 83 92 84 93 61 94 62 95
REMARK SMILES IDX 70 96 63 97 65 98 71 99 64 100 66 101 67 102 68 103 69 104
REMARK H PARENT 6 24 91 57 59 68
REMARK Flexibility Score: inf
ROOT
ATOM      1  C   UNL A   1      33.363  28.796  25.187  1.00  0.00     0.202 C 
ENDROOT
BRANCH   1   2
ATOM      2  C   UNL A   1      32.862  28.494  23.768  1.00  0.00     0.261 C 
BRANCH   2   3
ATOM      3  O   UNL A   1      31.556  27.877  23.703  1.00  0.00    -0.463 OA
BRANCH   3   4
ATOM      4  C   UNL A   1      31.499  26.659  23.108  1.00  0.00     0.313 C 
ATOM      5  O   UNL A   1      31.454  26.510  21.889  1.00  0.00    -0.252 OA
BRANCH   4   6
ATOM      6  C   UNL A   1      31.518  25.444  24.042  1.00  0.00     0.126 C 
ATOM      7  C   UNL A   1      30.929  25.867  25.389  1.00  0.00     0.025 C 
BRANCH   6   8
ATOM      8  C   UNL A   1      32.788  24.624  24.270  1.00  0.00    -0.031 A 
ATOM      9  C   UNL A   1      35.162  23.106  24.838  1.00  0.00     0.018 A 
ATOM     10  C   UNL A   1      34.842  23.522  23.530  1.00  0.00     0.012 A 
ATOM     11  C   UNL A   1      34.270  23.476  25.849  1.00  0.00     0.131 A 
ATOM     12  C   UNL A   1      33.682  24.275  23.251  1.00  0.00     0.005 A 
ATOM     13  C   UNL A   1      33.115  24.223  25.581  1.00  0.00     0.044 A 
ATOM     14  F   UNL A   1      34.515  23.139  27.125  1.00  0.00    -0.206 F 
BRANCH   9  15
ATOM     15  C   UNL A   1      36.406  22.362  25.131  1.00  0.00    -0.012 A 
ATOM     16  C   UNL A   1      38.721  22.258  25.885  1.00  0.00     0.133 A 
ATOM     17  C   UNL A   1      38.796  20.903  25.568  1.00  0.00     0.047 A 
ATOM     18  C   UNL A   1      37.547  22.991  25.667  1.00  0.00     0.056 A 
ATOM     19  C   UNL A   1      37.677  20.265  25.043  1.00  0.00     0.004 A 
ATOM     20  C   UNL A   1      36.498  20.989  24.827  1.00  0.00     0.009 A 
BRANCH  16  21
ATOM     21  O   UNL A   1      39.920  22.878  26.282  1.00  0.00    -0.410 OA
BRANCH  21  22
ATOM     22  C   UNL A   1      40.793  22.173  27.094  1.00  0.00     0.412 C 
ATOM     23  N   UNL A   1      42.102  22.279  26.708  1.00  0.00    -0.321 N 
ATOM     24  H   UNL A   1      42.772  21.891  27.315  1.00  0.00     0.167 HD
ATOM     25  O   UNL A   1      40.471  21.473  28.055  1.00  0.00    -0.224 OA
BRANCH  23  26
ATOM     26  C   UNL A   1      42.604  22.906  25.499  1.00  0.00     0.119 C 
BRANCH  26  27
ATOM     27  C   UNL A   1      43.224  24.280  25.746  1.00  0.00     0.021 C 
BRANCH  27  28
ATOM     28  C   UNL A   1      44.745  24.360  25.557  1.00  0.00     0.002 C 
BRANCH  28  29
ATOM     29  C   UNL A   1      45.480  23.022  25.453  1.00  0.00    -0.003 C 
ATOM     30  C   UNL A   1      46.279  22.858  24.169  1.00  0.00     0.004 C 
ENDBRANCH  28  29
ENDBRANCH  27  28
ENDBRANCH  26  27
ENDBRANCH  23  26
ENDBRANCH  21  22
ENDBRANCH  16  21
ENDBRANCH   9  15
ENDBRANCH   6   8
ENDBRANCH   4   6
ENDBRANCH   3   4
ENDBRANCH   2   3
ENDBRANCH   1   2
BRANCH   1  31
ATOM     31  O   UNL A   1      33.085  30.080  25.730  1.00  0.00    -0.376 OA
BRANCH  31  32
ATOM     32  C   UNL A   1      33.141  30.268  27.139  1.00  0.00     0.188 C 
BRANCH  32  33
ATOM     33  C   UNL A   1      34.497  30.548  27.800  1.00  0.00     0.188 C 
BRANCH  33  34
ATOM     34  O   UNL A   1      34.540  31.727  28.581  1.00  0.00    -0.376 OA
BRANCH  34  35
ATOM     35  C   UNL A   1      34.267  32.935  27.895  1.00  0.00     0.202 C 
BRANCH  35  36
ATOM     36  C   UNL A   1      33.344  33.885  28.668  1.00  0.00     0.261 C 
BRANCH  36  37
ATOM     37  O   UNL A   1      34.005  34.813  29.549  1.00  0.00    -0.460 OA
BRANCH  37  38
ATOM     38  C   UNL A   1      33.581  34.854  30.830  1.00  0.00     0.338 C 
ATOM     39  O   UNL A   1      32.449  35.112  31.221  1.00  0.00    -0.246 OA
BRANCH  38  40
ATOM     40  C   UNL A   1      34.650  34.308  31.690  1.00  0.00     0.060 A 
ATOM     41  C   UNL A   1      35.425  35.191  32.458  1.00  0.00     0.016 A 
ATOM     42  C   UNL A   1      34.882  32.933  31.748  1.00  0.00     0.016 A 
ATOM     43  C   UNL A   1      36.456  34.700  33.262  1.00  0.00     0.010 A 
ATOM     44  C   UNL A   1      35.926  32.445  32.538  1.00  0.00     0.010 A 
ATOM     45  C   UNL A   1      36.738  33.328  33.274  1.00  0.00    -0.014 A 
BRANCH  45  46
ATOM     46  C   UNL A   1      37.984  32.821  33.901  1.00  0.00     0.031 A 
ATOM     47  C   UNL A   1      38.183  33.048  35.376  1.00  0.00     0.074 A 
ATOM     48  C   UNL A   1      38.939  32.208  33.178  1.00  0.00     0.049 A 
ATOM     49  N   UNL A   1      39.217  32.774  36.127  1.00  0.00    -0.248 NA
ATOM     50  C   UNL A   1      37.066  33.678  36.100  1.00  0.00     0.031 C 
ATOM     51  C   UNL A   1      38.867  31.921  31.747  1.00  0.00     0.029 A 
ATOM     52  N   UNL A   1      40.178  31.746  33.552  1.00  0.00    -0.354 N 
ATOM     53  C   UNL A   1      38.895  33.234  37.397  1.00  0.00     0.074 A 
ATOM     54  C   UNL A   1      37.570  33.805  37.319  1.00  0.00     0.031 C 
ATOM     55  C   UNL A   1      40.025  31.359  31.357  1.00  0.00     0.029 A 
ATOM     56  C   UNL A   1      40.931  31.276  32.501  1.00  0.00     0.049 A 
ATOM     57  H   UNL A   1      40.497  31.751  34.484  1.00  0.00     0.167 HD
ATOM     58  C   UNL A   1      39.635  33.183  38.530  1.00  0.00     0.034 A 
ATOM     59  C   UNL A   1      42.212  30.856  32.465  1.00  0.00     0.034 A 
ATOM     60  C   UNL A   1      40.943  32.594  38.615  1.00  0.00     0.049 A 
ATOM     61  C   UNL A   1      43.022  30.834  33.740  1.00  0.00     0.074 A 
ATOM     62  C   UNL A   1      41.740  32.434  39.734  1.00  0.00     0.029 A 
ATOM     63  N   UNL A   1      41.655  32.088  37.540  1.00  0.00    -0.354 N 
ATOM     64  N   UNL A   1      42.656  31.150  34.959  1.00  0.00    -0.248 NA
ATOM     65  C   UNL A   1      44.414  30.369  33.637  1.00  0.00     0.031 C 
ATOM     66  C   UNL A   1      42.951  31.865  39.329  1.00  0.00     0.029 A 
ATOM     67  C   UNL A   1      42.891  31.633  37.964  1.00  0.00     0.049 A 
ATOM     68  H   UNL A   1      41.329  32.055  36.612  1.00  0.00     0.167 HD
ATOM     69  C   UNL A   1      43.755  30.879  35.770  1.00  0.00     0.074 A 
ATOM     70  C   UNL A   1      44.793  30.359  34.907  1.00  0.00     0.031 C 
ATOM     71  C   UNL A   1      43.895  31.057  37.108  1.00  0.00     0.034 A 
BRANCH  58  72
ATOM     72  C   UNL A   1      39.044  33.774  39.782  1.00  0.00     0.023 A 
ATOM     73  C   UNL A   1      39.339  35.105  40.139  1.00  0.00     0.012 A 
ATOM     74  C   UNL A   1      38.141  33.030  40.566  1.00  0.00     0.148 A 
ATOM     75  C   UNL A   1      38.765  35.677  41.274  1.00  0.00     0.002 A 
ATOM     76  C   UNL A   1      37.537  33.621  41.668  1.00  0.00     0.091 A 
ATOM     77  F   UNL A   1      37.894  31.758  40.221  1.00  0.00    -0.205 F 
ATOM     78  C   UNL A   1      37.856  34.940  42.030  1.00  0.00     0.022 A 
BRANCH  76  79
ATOM     79  S   UNL A   1      36.294  32.784  42.658  1.00  0.00     0.127 S 
ATOM     80  O   UNL A   1      36.089  33.742  43.744  1.00  0.00    -0.237 OA
ATOM     81  O   UNL A   1      35.177  32.678  41.719  1.00  0.00    -0.237 OA
ATOM     82  O   UNL A   1      36.881  31.512  43.051  1.00  0.00    -0.744 OA
ENDBRANCH  76  79
ENDBRANCH  58  72
BRANCH  59  83
ATOM     83  C   UNL A   1      42.821  30.392  31.184  1.00  0.00     0.023 A 
ATOM     84  C   UNL A   1      43.450  31.328  30.338  1.00  0.00     0.012 A 
ATOM     85  C   UNL A   1      42.761  29.042  30.789  1.00  0.00     0.148 A 
ATOM     86  C   UNL A   1      43.971  30.935  29.104  1.00  0.00     0.002 A 
ATOM     87  C   UNL A   1      43.332  28.648  29.584  1.00  0.00     0.091 A 
ATOM     88  F   UNL A   1      42.141  28.170  31.597  1.00  0.00    -0.205 F 
ATOM     89  C   UNL A   1      43.920  29.594  28.732  1.00  0.00     0.022 A 
BRANCH  87  90
ATOM     90  S   UNL A   1      43.415  26.927  29.073  1.00  0.00     0.127 S 
ATOM     91  O   UNL A   1      44.111  26.314  30.201  1.00  0.00    -0.237 OA
ATOM     92  O   UNL A   1      41.998  26.579  28.961  1.00  0.00    -0.237 OA
ATOM     93  O   UNL A   1      44.135  26.928  27.808  1.00  0.00    -0.744 OA
ENDBRANCH  87  90
ENDBRANCH  59  83
BRANCH  71  94
ATOM     94  C   UNL A   1      45.195  30.634  37.746  1.00  0.00     0.023 A 
ATOM     95  C   UNL A   1      46.198  31.588  38.007  1.00  0.00     0.012 A 
ATOM     96  C   UNL A   1      45.386  29.300  38.161  1.00  0.00     0.148 A 
ATOM     97  C   UNL A   1      47.384  31.214  38.638  1.00  0.00     0.002 A 
ATOM     98  C   UNL A   1      46.548  28.947  38.837  1.00  0.00     0.091 A 
ATOM     99  F   UNL A   1      44.426  28.403  37.891  1.00  0.00    -0.205 F 
ATOM    100  C   UNL A   1      47.553  29.898  39.064  1.00  0.00     0.022 A 
BRANCH  98 101
ATOM    101  S   UNL A   1      46.808  27.302  39.512  1.00  0.00     0.127 S 
ATOM    102  O   UNL A   1      45.659  27.160  40.404  1.00  0.00    -0.237 OA
ATOM    103  O   UNL A   1      46.758  26.464  38.313  1.00  0.00    -0.237 OA
ATOM    104  O   UNL A   1      48.108  27.337  40.168  1.00  0.00    -0.744 OA
ENDBRANCH  98 101
ENDBRANCH  71  94
ENDBRANCH  45  46
ENDBRANCH  38  40
ENDBRANCH  37  38
ENDBRANCH  36  37
ENDBRANCH  35  36
ENDBRANCH  34  35
ENDBRANCH  33  34
ENDBRANCH  32  33
ENDBRANCH  31  32
ENDBRANCH   1  31
TORSDOF 28
ENDMDL
MODEL 2
REMARK VINA RESULT:      -8.4      6.150     10.556
REMARK SMILES CCCCCNC(=O)Oc1cccc(-c2ccc([C@@H](C)C(=O)OCCOCCOCCOC(=O)c3ccc(-c4c5nc(c(-c6cccc(S(=O)(=O)[O-])c6F)c6ccc([nH]6)c(-c6cccc(S(=O)(=O)[O-])c6F)c6nc(c(-c7cccc(S(=O)(=O)[O-])c7F)c7ccc4[nH]7)C=C6)C=C5)cc3)cc2F)c1
REMARK SMILES IDX 25 1 24 2 23 3 21 4 22 5 19 6 20 7 18 8 15 9 16 10 99 11
REMARK SMILES IDX 17 12 98 13 100 14 14 15 10 16 11 17 101 18 12 19 13 20 9 21
REMARK SMILES IDX 7 22 6 23 8 25 5 26 4 27 3 28 2 29 1 30 26 31 27 32 28 33
REMARK SMILES IDX 29 34 30 35 31 36 32 37 33 38 34 39 35 40 36 41 97 42 37 43
REMARK SMILES IDX 96 44 38 45 39 46 40 47 90 48 41 49 95 50 89 51 91 52 42 53
REMARK SMILES IDX 94 54 88 55 87 56 43 58 75 59 55 60 74 61 56 62 59 63 73 64
REMARK SMILES IDX 92 65 57 66 58 67 72 69 93 70 60 71 44 72 45 73 53 74 46 75
REMARK SMILES IDX 48 76 54 77 47 78 49 79 50 80 51 81 52 82 76 83 77 84 85 85
REMARK SMILES IDX 78 86 80 87 86 88 79 89 81 90 82 91 83 92 84 93 61 94 62 95
REMARK SMILES IDX 70 96 63 97 65 98 71 99 64 100 66 101 67 102 68 103 69 104
REMARK H PARENT 6 24 91 57 59 68
REMARK Flexibility Score: inf
ROOT
ATOM      1  C   UNL A   1      33.621  28.211  25.773  1.00  0.00     0.202 C 
ENDROOT
BRANCH   1   2
ATOM      2  C   UNL A   1      33.152  27.817  24.366  1.00  0.00     0.261 C 
BRANCH   2   3
ATOM      3  O   UNL A   1      31.995  26.949  24.332  1.00  0.00    -0.463 OA
BRANCH   3   4
ATOM      4  C   UNL A   1      31.870  26.163  23.234  1.00  0.00     0.313 C 
ATOM      5  O   UNL A   1      31.510  26.592  22.140  1.00  0.00    -0.252 OA
BRANCH   4   6
ATOM      6  C   UNL A   1      32.227  24.683  23.412  1.00  0.00     0.126 C 
ATOM      7  C   UNL A   1      31.087  24.004  24.170  1.00  0.00     0.025 C 
BRANCH   6   8
ATOM      8  C   UNL A   1      33.570  24.246  24.000  1.00  0.00    -0.031 A 
ATOM      9  C   UNL A   1      36.120  23.355  24.982  1.00  0.00     0.018 A 
ATOM     10  C   UNL A   1      35.145  23.905  25.838  1.00  0.00     0.012 A 
ATOM     11  C   UNL A   1      35.782  23.258  23.629  1.00  0.00     0.131 A 
ATOM     12  C   UNL A   1      33.890  24.334  25.360  1.00  0.00     0.005 A 
ATOM     13  C   UNL A   1      34.537  23.682  23.144  1.00  0.00     0.044 A 
ATOM     14  F   UNL A   1      36.646  22.724  22.751  1.00  0.00    -0.206 F 
BRANCH   9  15
ATOM     15  C   UNL A   1      37.414  22.860  25.500  1.00  0.00    -0.012 A 
ATOM     16  C   UNL A   1      39.575  23.207  26.570  1.00  0.00     0.133 A 
ATOM     17  C   UNL A   1      39.923  21.873  26.372  1.00  0.00     0.047 A 
ATOM     18  C   UNL A   1      38.340  23.708  26.138  1.00  0.00     0.056 A 
ATOM     19  C   UNL A   1      39.017  21.020  25.750  1.00  0.00     0.004 A 
ATOM     20  C   UNL A   1      37.779  21.511  25.318  1.00  0.00     0.009 A 
BRANCH  16  21
ATOM     21  O   UNL A   1      40.581  24.050  27.079  1.00  0.00    -0.410 OA
BRANCH  21  22
ATOM     22  C   UNL A   1      41.632  23.480  27.779  1.00  0.00     0.412 C 
ATOM     23  N   UNL A   1      42.853  23.703  27.203  1.00  0.00    -0.321 N 
ATOM     24  H   UNL A   1      43.640  23.417  27.718  1.00  0.00     0.167 HD
ATOM     25  O   UNL A   1      41.527  22.798  28.799  1.00  0.00    -0.224 OA
BRANCH  23  26
ATOM     26  C   UNL A   1      43.107  24.319  25.914  1.00  0.00     0.119 C 
BRANCH  26  27
ATOM     27  C   UNL A   1      43.360  23.303  24.801  1.00  0.00     0.021 C 
BRANCH  27  28
ATOM     28  C   UNL A   1      44.082  22.020  25.232  1.00  0.00     0.002 C 
BRANCH  28  29
ATOM     29  C   UNL A   1      45.598  22.131  25.413  1.00  0.00    -0.003 C 
ATOM     30  C   UNL A   1      46.308  22.802  24.247  1.00  0.00     0.004 C 
ENDBRANCH  28  29
ENDBRANCH  27  28
ENDBRANCH  26  27
ENDBRANCH  23  26
ENDBRANCH  21  22
ENDBRANCH  16  21
ENDBRANCH   9  15
ENDBRANCH   6   8
ENDBRANCH   4   6
ENDBRANCH   3   4
ENDBRANCH   2   3
ENDBRANCH   1   2
BRANCH   1  31
ATOM     31  O   UNL A   1      33.914  29.581  26.015  1.00  0.00    -0.376 OA
BRANCH  31  32
ATOM     32  C   UNL A   1      33.916  30.068  27.353  1.00  0.00     0.188 C 
BRANCH  32  33
ATOM     33  C   UNL A   1      35.226  30.603  27.948  1.00  0.00     0.188 C 
BRANCH  33  34
ATOM     34  O   UNL A   1      35.846  29.737  28.880  1.00  0.00    -0.376 OA
BRANCH  34  35
ATOM     35  C   UNL A   1      36.285  30.334  30.086  1.00  0.00     0.202 C 
BRANCH  35  36
ATOM     36  C   UNL A   1      36.653  29.320  31.176  1.00  0.00     0.261 C 
BRANCH  36  37
ATOM     37  O   UNL A   1      37.444  29.837  32.262  1.00  0.00    -0.460 OA
BRANCH  37  38
ATOM     38  C   UNL A   1      38.680  29.321  32.425  1.00  0.00     0.338 C 
ATOM     39  O   UNL A   1      38.963  28.232  32.913  1.00  0.00    -0.246 OA
BRANCH  38  40
ATOM     40  C   UNL A   1      39.641  30.181  31.706  1.00  0.00     0.060 A 
ATOM     41  C   UNL A   1      39.718  30.095  30.307  1.00  0.00     0.016 A 
ATOM     42  C   UNL A   1      40.455  31.073  32.405  1.00  0.00     0.016 A 
ATOM     43  C   UNL A   1      40.635  30.883  29.607  1.00  0.00     0.010 A 
ATOM     44  C   UNL A   1      41.386  31.846  31.704  1.00  0.00     0.010 A 
ATOM     45  C   UNL A   1      41.503  31.732  30.307  1.00  0.00    -0.014 A 
BRANCH  45  46
ATOM     46  C   UNL A   1      42.653  32.367  29.616  1.00  0.00     0.031 A 
ATOM     47  C   UNL A   1      43.863  31.520  29.322  1.00  0.00     0.074 A 
ATOM     48  C   UNL A   1      42.647  33.672  29.291  1.00  0.00     0.049 A 
ATOM     49  N   UNL A   1      45.013  31.866  28.807  1.00  0.00    -0.248 NA
ATOM     50  C   UNL A   1      43.763  30.091  29.663  1.00  0.00     0.031 C 
ATOM     51  C   UNL A   1      41.539  34.597  29.514  1.00  0.00     0.029 A 
ATOM     52  N   UNL A   1      43.629  34.453  28.730  1.00  0.00    -0.354 N 
ATOM     53  C   UNL A   1      45.788  30.713  28.802  1.00  0.00     0.074 A 
ATOM     54  C   UNL A   1      44.978  29.655  29.363  1.00  0.00     0.031 C 
ATOM     55  C   UNL A   1      41.913  35.828  29.122  1.00  0.00     0.029 A 
ATOM     56  C   UNL A   1      43.297  35.784  28.651  1.00  0.00     0.049 A 
ATOM     57  H   UNL A   1      44.490  34.092  28.414  1.00  0.00     0.167 HD
ATOM     58  C   UNL A   1      47.058  30.547  28.365  1.00  0.00     0.034 A 
ATOM     59  C   UNL A   1      44.035  36.847  28.270  1.00  0.00     0.034 A 
ATOM     60  C   UNL A   1      47.856  31.592  27.783  1.00  0.00     0.049 A 
ATOM     61  C   UNL A   1      45.458  36.635  27.812  1.00  0.00     0.074 A 
ATOM     62  C   UNL A   1      49.128  31.503  27.249  1.00  0.00     0.029 A 
ATOM     63  N   UNL A   1      47.469  32.918  27.679  1.00  0.00    -0.354 N 
ATOM     64  N   UNL A   1      46.131  35.517  27.688  1.00  0.00    -0.248 NA
ATOM     65  C   UNL A   1      46.215  37.833  27.412  1.00  0.00     0.031 C 
ATOM     66  C   UNL A   1      49.527  32.784  26.856  1.00  0.00     0.029 A 
ATOM     67  C   UNL A   1      48.486  33.663  27.108  1.00  0.00     0.049 A 
ATOM     68  H   UNL A   1      46.599  33.277  27.968  1.00  0.00     0.167 HD
ATOM     69  C   UNL A   1      47.368  35.871  27.156  1.00  0.00     0.074 A 
ATOM     70  C   UNL A   1      47.345  37.305  26.966  1.00  0.00     0.031 C 
ATOM     71  C   UNL A   1      48.430  35.080  26.863  1.00  0.00     0.034 A 
BRANCH  58  72
ATOM     72  C   UNL A   1      47.670  29.177  28.488  1.00  0.00     0.023 A 
ATOM     73  C   UNL A   1      48.398  28.833  29.644  1.00  0.00     0.012 A 
ATOM     74  C   UNL A   1      47.463  28.210  27.485  1.00  0.00     0.148 A 
ATOM     75  C   UNL A   1      48.934  27.554  29.788  1.00  0.00     0.002 A 
ATOM     76  C   UNL A   1      47.960  26.924  27.657  1.00  0.00     0.091 A 
ATOM     77  F   UNL A   1      46.788  28.566  26.383  1.00  0.00    -0.205 F 
ATOM     78  C   UNL A   1      48.705  26.598  28.802  1.00  0.00     0.022 A 
BRANCH  76  79
ATOM     79  S   UNL A   1      47.650  25.601  26.483  1.00  0.00     0.127 S 
ATOM     80  O   UNL A   1      46.262  25.257  26.788  1.00  0.00    -0.237 OA
ATOM     81  O   UNL A   1      47.842  26.279  25.200  1.00  0.00    -0.237 OA
ATOM     82  O   UNL A   1      48.628  24.564  26.776  1.00  0.00    -0.744 OA
ENDBRANCH  76  79
ENDBRANCH  58  72
BRANCH  59  83
ATOM     83  C   UNL A   1      43.447  38.219  28.276  1.00  0.00     0.023 A 
ATOM     84  C   UNL A   1      42.818  38.708  27.113  1.00  0.00     0.012 A 
ATOM     85  C   UNL A   1      43.527  39.048  29.412  1.00  0.00     0.148 A 
ATOM     86  C   UNL A   1      42.316  40.009  27.068  1.00  0.00     0.002 A 
ATOM     87  C   UNL A   1      42.976  40.323  29.378  1.00  0.00     0.091 A 
ATOM     88  F   UNL A   1      44.147  38.574  30.502  1.00  0.00    -0.205 F 
ATOM     89  C   UNL A   1      42.387  40.813  28.202  1.00  0.00     0.022 A 
BRANCH  87  90
ATOM     90  S   UNL A   1      42.919  41.389  30.824  1.00  0.00     0.127 S 
ATOM     91  O   UNL A   1      41.932  42.386  30.421  1.00  0.00    -0.237 OA
ATOM     92  O   UNL A   1      42.469  40.461  31.862  1.00  0.00    -0.237 OA
ATOM     93  O   UNL A   1      44.278  41.878  31.003  1.00  0.00    -0.744 OA
ENDBRANCH  87  90
ENDBRANCH  59  83
BRANCH  71  94
ATOM     94  C   UNL A   1      49.646  35.728  26.247  1.00  0.00     0.023 A 
ATOM     95  C   UNL A   1      49.769  35.816  24.847  1.00  0.00     0.012 A 
ATOM     96  C   UNL A   1      50.629  36.323  27.066  1.00  0.00     0.148 A 
ATOM     97  C   UNL A   1      50.867  36.454  24.271  1.00  0.00     0.002 A 
ATOM     98  C   UNL A   1      51.693  37.003  26.484  1.00  0.00     0.091 A 
ATOM     99  F   UNL A   1      50.503  36.216  28.397  1.00  0.00    -0.205 F 
ATOM    100  C   UNL A   1      51.821  37.057  25.088  1.00  0.00     0.022 A 
BRANCH  98 101
ATOM    101  S   UNL A   1      52.912  37.896  27.456  1.00  0.00     0.127 S 
ATOM    102  O   UNL A   1      53.559  36.812  28.192  1.00  0.00    -0.237 OA
ATOM    103  O   UNL A   1      53.742  38.512  26.420  1.00  0.00    -0.237 OA
ATOM    104  O   UNL A   1      52.162  38.844  28.270  1.00  0.00    -0.744 OA
ENDBRANCH  98 101
ENDBRANCH  71  94
ENDBRANCH  45  46
ENDBRANCH  38  40
ENDBRANCH  37  38
ENDBRANCH  36  37
ENDBRANCH  35  36
ENDBRANCH  34  35
ENDBRANCH  33  34
ENDBRANCH  32  33
ENDBRANCH  31  32
ENDBRANCH   1  31
TORSDOF 28
ENDMDL
MODEL 3
REMARK VINA RESULT:      -8.3      4.335      8.673
REMARK SMILES CCCCCNC(=O)Oc1cccc(-c2ccc([C@@H](C)C(=O)OCCOCCOCCOC(=O)c3ccc(-c4c5nc(c(-c6cccc(S(=O)(=O)[O-])c6F)c6ccc([nH]6)c(-c6cccc(S(=O)(=O)[O-])c6F)c6nc(c(-c7cccc(S(=O)(=O)[O-])c7F)c7ccc4[nH]7)C=C6)C=C5)cc3)cc2F)c1
REMARK SMILES IDX 25 1 24 2 23 3 21 4 22 5 19 6 20 7 18 8 15 9 16 10 99 11
REMARK SMILES IDX 17 12 98 13 100 14 14 15 10 16 11 17 101 18 12 19 13 20 9 21
REMARK SMILES IDX 7 22 6 23 8 25 5 26 4 27 3 28 2 29 1 30 26 31 27 32 28 33
REMARK SMILES IDX 29 34 30 35 31 36 32 37 33 38 34 39 35 40 36 41 97 42 37 43
REMARK SMILES IDX 96 44 38 45 39 46 40 47 90 48 41 49 95 50 89 51 91 52 42 53
REMARK SMILES IDX 94 54 88 55 87 56 43 58 75 59 55 60 74 61 56 62 59 63 73 64
REMARK SMILES IDX 92 65 57 66 58 67 72 69 93 70 60 71 44 72 45 73 53 74 46 75
REMARK SMILES IDX 48 76 54 77 47 78 49 79 50 80 51 81 52 82 76 83 77 84 85 85
REMARK SMILES IDX 78 86 80 87 86 88 79 89 81 90 82 91 83 92 84 93 61 94 62 95
REMARK SMILES IDX 70 96 63 97 65 98 71 99 64 100 66 101 67 102 68 103 69 104
REMARK H PARENT 6 24 91 57 59 68
REMARK Flexibility Score: inf
ROOT
ATOM      1  C   UNL A   1      35.974  31.120  31.068  1.00  0.00     0.202 C 
ENDROOT
BRANCH   1   2
ATOM      2  C   UNL A   1      36.051  32.545  31.632  1.00  0.00     0.261 C 
BRANCH   2   3
ATOM      3  O   UNL A   1      35.388  33.551  30.832  1.00  0.00    -0.463 OA
BRANCH   3   4
ATOM      4  C   UNL A   1      35.944  33.815  29.623  1.00  0.00     0.313 C 
ATOM      5  O   UNL A   1      37.139  34.066  29.475  1.00  0.00    -0.252 OA
BRANCH   4   6
ATOM      6  C   UNL A   1      35.003  33.765  28.415  1.00  0.00     0.126 C 
ATOM      7  C   UNL A   1      33.885  34.785  28.638  1.00  0.00     0.025 C 
BRANCH   6   8
ATOM      8  C   UNL A   1      34.407  32.449  27.914  1.00  0.00    -0.031 A 
ATOM      9  C   UNL A   1      33.421  29.926  26.953  1.00  0.00     0.018 A 
ATOM     10  C   UNL A   1      32.580  31.047  27.093  1.00  0.00     0.012 A 
ATOM     11  C   UNL A   1      34.764  30.103  27.300  1.00  0.00     0.131 A 
ATOM     12  C   UNL A   1      33.063  32.289  27.555  1.00  0.00     0.005 A 
ATOM     13  C   UNL A   1      35.254  31.333  27.760  1.00  0.00     0.044 A 
ATOM     14  F   UNL A   1      35.636  29.090  27.173  1.00  0.00    -0.206 F 
BRANCH   9  15
ATOM     15  C   UNL A   1      32.918  28.642  26.418  1.00  0.00    -0.012 A 
ATOM     16  C   UNL A   1      32.775  26.951  24.671  1.00  0.00     0.133 A 
ATOM     17  C   UNL A   1      31.834  26.229  25.402  1.00  0.00     0.047 A 
ATOM     18  C   UNL A   1      33.313  28.148  25.160  1.00  0.00     0.056 A 
ATOM     19  C   UNL A   1      31.437  26.699  26.649  1.00  0.00     0.004 A 
ATOM     20  C   UNL A   1      31.973  27.893  27.149  1.00  0.00     0.009 A 
BRANCH  16  21
ATOM     21  O   UNL A   1      33.034  26.500  23.362  1.00  0.00    -0.410 OA
BRANCH  21  22
ATOM     22  C   UNL A   1      33.102  27.434  22.341  1.00  0.00     0.412 C 
ATOM     23  N   UNL A   1      31.902  28.034  22.073  1.00  0.00    -0.321 N 
ATOM     24  H   UNL A   1      31.918  28.783  21.435  1.00  0.00     0.167 HD
ATOM     25  O   UNL A   1      34.107  27.705  21.683  1.00  0.00    -0.224 OA
BRANCH  23  26
ATOM     26  C   UNL A   1      30.609  27.683  22.631  1.00  0.00     0.119 C 
BRANCH  26  27
ATOM     27  C   UNL A   1      29.864  28.877  23.224  1.00  0.00     0.021 C 
BRANCH  27  28
ATOM     28  C   UNL A   1      28.783  29.492  22.326  1.00  0.00     0.002 C 
BRANCH  28  29
ATOM     29  C   UNL A   1      27.512  29.966  23.034  1.00  0.00    -0.003 C 
ATOM     30  C   UNL A   1      27.592  31.395  23.550  1.00  0.00     0.004 C 
ENDBRANCH  28  29
ENDBRANCH  27  28
ENDBRANCH  26  27
ENDBRANCH  23  26
ENDBRANCH  21  22
ENDBRANCH  16  21
ENDBRANCH   9  15
ENDBRANCH   6   8
ENDBRANCH   4   6
ENDBRANCH   3   4
ENDBRANCH   2   3
ENDBRANCH   1   2
BRANCH   1  31
ATOM     31  O   UNL A   1      37.021  30.217  31.400  1.00  0.00    -0.376 OA
BRANCH  31  32
ATOM     32  C   UNL A   1      38.334  30.462  30.910  1.00  0.00     0.188 C 
BRANCH  32  33
ATOM     33  C   UNL A   1      38.516  30.894  29.449  1.00  0.00     0.188 C 
BRANCH  33  34
ATOM     34  O   UNL A   1      39.488  30.156  28.733  1.00  0.00    -0.376 OA
BRANCH  34  35
ATOM     35  C   UNL A   1      39.006  29.049  27.994  1.00  0.00     0.202 C 
BRANCH  35  36
ATOM     36  C   UNL A   1      39.788  28.786  26.701  1.00  0.00     0.261 C 
BRANCH  36  37
ATOM     37  O   UNL A   1      41.076  29.424  26.614  1.00  0.00    -0.460 OA
BRANCH  37  38
ATOM     38  C   UNL A   1      42.157  28.620  26.531  1.00  0.00     0.338 C 
ATOM     39  O   UNL A   1      42.748  28.287  25.510  1.00  0.00    -0.246 OA
BRANCH  38  40
ATOM     40  C   UNL A   1      42.667  28.385  27.896  1.00  0.00     0.060 A 
ATOM     41  C   UNL A   1      42.062  27.398  28.690  1.00  0.00     0.016 A 
ATOM     42  C   UNL A   1      43.740  29.127  28.391  1.00  0.00     0.016 A 
ATOM     43  C   UNL A   1      42.512  27.173  29.992  1.00  0.00     0.010 A 
ATOM     44  C   UNL A   1      44.176  28.914  29.702  1.00  0.00     0.010 A 
ATOM     45  C   UNL A   1      43.545  27.959  30.519  1.00  0.00    -0.014 A 
BRANCH  45  46
ATOM     46  C   UNL A   1      43.853  27.922  31.971  1.00  0.00     0.031 A 
ATOM     47  C   UNL A   1      43.622  29.171  32.780  1.00  0.00     0.074 A 
ATOM     48  C   UNL A   1      44.362  26.823  32.556  1.00  0.00     0.049 A 
ATOM     49  N   UNL A   1      43.891  29.408  34.037  1.00  0.00    -0.248 NA
ATOM     50  C   UNL A   1      43.012  30.308  32.071  1.00  0.00     0.031 C 
ATOM     51  C   UNL A   1      44.626  25.551  31.888  1.00  0.00     0.029 A 
ATOM     52  N   UNL A   1      44.782  26.618  33.849  1.00  0.00    -0.354 N 
ATOM     53  C   UNL A   1      43.526  30.730  34.259  1.00  0.00     0.074 A 
ATOM     54  C   UNL A   1      43.014  31.245  33.009  1.00  0.00     0.031 C 
ATOM     55  C   UNL A   1      45.191  24.705  32.769  1.00  0.00     0.029 A 
ATOM     56  C   UNL A   1      45.359  25.387  34.051  1.00  0.00     0.049 A 
ATOM     57  H   UNL A   1      44.679  27.290  34.562  1.00  0.00     0.167 HD
ATOM     58  C   UNL A   1      43.605  31.450  35.402  1.00  0.00     0.034 A 
ATOM     59  C   UNL A   1      45.977  24.882  35.139  1.00  0.00     0.034 A 
ATOM     60  C   UNL A   1      44.091  30.931  36.652  1.00  0.00     0.049 A 
ATOM     61  C   UNL A   1      46.074  25.718  36.393  1.00  0.00     0.074 A 
ATOM     62  C   UNL A   1      44.144  31.565  37.880  1.00  0.00     0.029 A 
ATOM     63  N   UNL A   1      44.625  29.666  36.830  1.00  0.00    -0.354 N 
ATOM     64  N   UNL A   1      45.603  26.919  36.625  1.00  0.00    -0.248 NA
ATOM     65  C   UNL A   1      46.762  25.114  37.545  1.00  0.00     0.031 C 
ATOM     66  C   UNL A   1      44.746  30.695  38.794  1.00  0.00     0.029 A 
ATOM     67  C   UNL A   1      45.030  29.505  38.143  1.00  0.00     0.049 A 
ATOM     68  H   UNL A   1      44.704  28.982  36.127  1.00  0.00     0.167 HD
ATOM     69  C   UNL A   1      45.898  27.194  37.958  1.00  0.00     0.074 A 
ATOM     70  C   UNL A   1      46.573  26.028  38.486  1.00  0.00     0.031 C 
ATOM     71  C   UNL A   1      45.643  28.317  38.676  1.00  0.00     0.034 A 
BRANCH  58  72
ATOM     72  C   UNL A   1      43.146  32.883  35.363  1.00  0.00     0.023 A 
ATOM     73  C   UNL A   1      44.068  33.910  35.077  1.00  0.00     0.012 A 
ATOM     74  C   UNL A   1      41.785  33.202  35.542  1.00  0.00     0.148 A 
ATOM     75  C   UNL A   1      43.647  35.237  34.997  1.00  0.00     0.002 A 
ATOM     76  C   UNL A   1      41.366  34.520  35.414  1.00  0.00     0.091 A 
ATOM     77  F   UNL A   1      40.930  32.212  35.836  1.00  0.00    -0.205 F 
ATOM     78  C   UNL A   1      42.296  35.539  35.153  1.00  0.00     0.022 A 
BRANCH  76  79
ATOM     79  S   UNL A   1      39.639  35.002  35.518  1.00  0.00     0.127 S 
ATOM     80  O   UNL A   1      39.749  36.437  35.779  1.00  0.00    -0.237 OA
ATOM     81  O   UNL A   1      39.146  34.662  34.182  1.00  0.00    -0.237 OA
ATOM     82  O   UNL A   1      39.064  34.214  36.597  1.00  0.00    -0.744 OA
ENDBRANCH  76  79
ENDBRANCH  58  72
BRANCH  59  83
ATOM     83  C   UNL A   1      46.540  23.500  35.116  1.00  0.00     0.023 A 
ATOM     84  C   UNL A   1      45.729  22.415  35.506  1.00  0.00     0.012 A 
ATOM     85  C   UNL A   1      47.874  23.256  34.735  1.00  0.00     0.148 A 
ATOM     86  C   UNL A   1      46.246  21.120  35.557  1.00  0.00     0.002 A 
ATOM     87  C   UNL A   1      48.366  21.956  34.735  1.00  0.00     0.091 A 
ATOM     88  F   UNL A   1      48.637  24.302  34.387  1.00  0.00    -0.205 F 
ATOM     89  C   UNL A   1      47.561  20.889  35.162  1.00  0.00     0.022 A 
BRANCH  87  90
ATOM     90  S   UNL A   1      50.011  21.548  34.137  1.00  0.00     0.127 S 
ATOM     91  O   UNL A   1      50.194  22.530  33.072  1.00  0.00    -0.237 OA
ATOM     92  O   UNL A   1      50.829  21.773  35.329  1.00  0.00    -0.237 OA
ATOM     93  O   UNL A   1      49.939  20.157  33.711  1.00  0.00    -0.744 OA
ENDBRANCH  87  90
ENDBRANCH  59  83
BRANCH  71  94
ATOM     94  C   UNL A   1      46.038  28.330  40.132  1.00  0.00     0.023 A 
ATOM     95  C   UNL A   1      45.126  27.903  41.117  1.00  0.00     0.012 A 
ATOM     96  C   UNL A   1      47.347  28.692  40.513  1.00  0.00     0.148 A 
ATOM     97  C   UNL A   1      45.498  27.869  42.461  1.00  0.00     0.002 A 
ATOM     98  C   UNL A   1      47.727  28.604  41.848  1.00  0.00     0.091 A 
ATOM     99  F   UNL A   1      48.197  29.110  39.564  1.00  0.00    -0.205 F 
ATOM    100  C   UNL A   1      46.800  28.207  42.824  1.00  0.00     0.022 A 
BRANCH  98 101
ATOM    101  S   UNL A   1      49.409  28.921  42.394  1.00  0.00     0.127 S 
ATOM    102  O   UNL A   1      49.348  30.339  42.742  1.00  0.00    -0.237 OA
ATOM    103  O   UNL A   1      49.539  28.016  43.536  1.00  0.00    -0.237 OA
ATOM    104  O   UNL A   1      50.267  28.592  41.263  1.00  0.00    -0.744 OA
ENDBRANCH  98 101
ENDBRANCH  71  94
ENDBRANCH  45  46
ENDBRANCH  38  40
ENDBRANCH  37  38
ENDBRANCH  36  37
ENDBRANCH  35  36
ENDBRANCH  34  35
ENDBRANCH  33  34
ENDBRANCH  32  33
ENDBRANCH  31  32
ENDBRANCH   1  31
TORSDOF 28
ENDMDL
