MODEL 1
REMARK VINA RESULT:     -10.2      0.000      0.000
REMARK SMILES Cc1cc(NC(=O)[C@H]2[C@@H](C(=O)OCCOCCOCCOC(=O)c3ccc(-c4c5nc(c(-c6cccc(S(=O)(=O)[O-])c6F)c6ccc([nH]6)c(-c6cccc(S(=O)(=O)[O-])c6F)c6nc(c(-c7cccc(S(=O)(=O)[O-])c7F)c7ccc4[nH]7)C=C6)C=C5)cc3)C2(C)C)n(-c2ccc(F)cc2)n1
REMARK SMILES IDX 16 1 15 2 14 3 13 4 12 5 10 6 11 7 9 8 8 9 87 10 88 11 89 12
REMARK SMILES IDX 6 13 5 14 7 16 4 17 1 18 2 19 3 20 98 21 90 22 91 23 92 24
REMARK SMILES IDX 97 25 93 26 96 27 94 28 95 29 17 30 18 31 19 32 20 33 21 34
REMARK SMILES IDX 22 35 23 36 24 37 25 38 86 39 26 40 85 41 27 42 28 43 29 44
REMARK SMILES IDX 79 45 30 46 84 47 78 48 80 49 31 50 83 51 77 52 76 53 32 55
REMARK SMILES IDX 64 56 44 57 63 58 45 59 48 60 62 61 81 62 46 63 47 64 61 66
REMARK SMILES IDX 82 67 49 68 33 69 34 70 42 71 35 72 37 73 43 74 36 75 38 76
REMARK SMILES IDX 39 77 40 78 41 79 65 80 66 81 74 82 67 83 69 84 75 85 68 86
REMARK SMILES IDX 70 87 71 88 72 89 73 90 50 91 51 92 59 93 52 94 54 95 60 96
REMARK SMILES IDX 53 97 55 98 56 99 57 100 58 101
REMARK H PARENT 5 15 80 54 48 65
REMARK Flexibility Score: inf
ROOT
ATOM      1  C   UNL A   1      33.534  35.100  29.199  1.00  0.00     0.188 C 
ENDROOT
BRANCH   1   2
ATOM      2  O   UNL A   1      32.845  34.012  28.600  1.00  0.00    -0.376 OA
BRANCH   2   3
ATOM      3  C   UNL A   1      33.609  33.228  27.697  1.00  0.00     0.202 C 
BRANCH   3   4
ATOM      4  C   UNL A   1      33.622  31.712  27.962  1.00  0.00     0.261 C 
BRANCH   4   5
ATOM      5  O   UNL A   1      32.933  30.891  26.990  1.00  0.00    -0.463 OA
BRANCH   5   6
ATOM      6  C   UNL A   1      32.914  29.537  27.134  1.00  0.00     0.310 C 
ATOM      7  O   UNL A   1      33.758  28.908  27.754  1.00  0.00    -0.252 OA
BRANCH   6   8
ATOM      8  C   UNL A   1      31.776  28.759  26.433  1.00  0.00     0.118 C 
ATOM      9  C   UNL A   1      32.115  27.487  25.729  1.00  0.00     0.100 C 
ATOM     10  C   UNL A   1      31.336  28.635  24.760  1.00  0.00    -0.009 C 
ATOM     11  C   UNL A   1      32.652  29.613  24.133  1.00  0.00     0.013 C 
ATOM     12  C   UNL A   1      29.436  28.360  23.714  1.00  0.00     0.013 C 
BRANCH   9  13
ATOM     13  C   UNL A   1      33.453  26.969  25.402  1.00  0.00     0.230 C 
ATOM     14  N   UNL A   1      33.912  25.624  25.560  1.00  0.00    -0.310 N 
ATOM     15  H   UNL A   1      34.894  25.547  25.534  1.00  0.00     0.171 HD
ATOM     16  O   UNL A   1      34.335  27.753  25.082  1.00  0.00    -0.274 OA
BRANCH  14  17
ATOM     17  C   UNL A   1      33.273  24.391  25.741  1.00  0.00     0.136 A 
ATOM     18  C   UNL A   1      33.635  21.018  27.135  1.00  0.00     0.069 C 
ATOM     19  C   UNL A   1      33.224  22.303  26.517  1.00  0.00     0.062 A 
ATOM     20  C   UNL A   1      33.709  23.597  26.790  1.00  0.00     0.072 A 
ATOM     21  N   UNL A   1      32.381  22.305  25.485  1.00  0.00    -0.171 NA
ATOM     22  N   UNL A   1      32.430  23.559  24.988  1.00  0.00    -0.217 N 
BRANCH  22  23
ATOM     23  C   UNL A   1      32.069  23.753  23.643  1.00  0.00     0.067 A 
ATOM     24  C   UNL A   1      33.139  22.923  22.399  1.00  0.00     0.031 A 
ATOM     25  C   UNL A   1      31.187  25.260  23.228  1.00  0.00     0.031 A 
ATOM     26  C   UNL A   1      33.475  23.759  20.833  1.00  0.00     0.041 A 
ATOM     27  C   UNL A   1      31.439  26.015  21.587  1.00  0.00     0.041 A 
ATOM     28  C   UNL A   1      32.610  25.284  20.434  1.00  0.00     0.123 A 
ATOM     29  F   UNL A   1      32.762  25.837  19.224  1.00  0.00    -0.207 F 
ENDBRANCH  22  23
ENDBRANCH  14  17
ENDBRANCH   9  13
ENDBRANCH   6   8
ENDBRANCH   5   6
ENDBRANCH   4   5
ENDBRANCH   3   4
ENDBRANCH   2   3
ENDBRANCH   1   2
BRANCH   1  30
ATOM     30  C   UNL A   1      33.246  35.316  30.691  1.00  0.00     0.188 C 
BRANCH  30  31
ATOM     31  O   UNL A   1      34.337  35.064  31.572  1.00  0.00    -0.376 OA
BRANCH  31  32
ATOM     32  C   UNL A   1      35.415  34.201  31.198  1.00  0.00     0.202 C 
BRANCH  32  33
ATOM     33  C   UNL A   1      35.307  32.687  30.983  1.00  0.00     0.261 C 
BRANCH  33  34
ATOM     34  O   UNL A   1      36.113  31.881  31.809  1.00  0.00    -0.460 OA
BRANCH  34  35
ATOM     35  C   UNL A   1      37.410  32.188  31.993  1.00  0.00     0.338 C 
ATOM     36  O   UNL A   1      37.935  32.670  32.976  1.00  0.00    -0.246 OA
BRANCH  35  37
ATOM     37  C   UNL A   1      38.067  31.741  30.745  1.00  0.00     0.060 A 
ATOM     38  C   UNL A   1      37.636  30.547  30.191  1.00  0.00     0.016 A 
ATOM     39  C   UNL A   1      39.292  32.327  30.378  1.00  0.00     0.016 A 
ATOM     40  C   UNL A   1      38.627  29.709  29.747  1.00  0.00     0.010 A 
ATOM     41  C   UNL A   1      40.265  31.507  29.909  1.00  0.00     0.010 A 
ATOM     42  C   UNL A   1      39.947  30.163  29.824  1.00  0.00    -0.014 A 
BRANCH  42  43
ATOM     43  C   UNL A   1      41.042  29.226  29.789  1.00  0.00     0.031 A 
ATOM     44  C   UNL A   1      41.402  28.864  31.172  1.00  0.00     0.074 A 
ATOM     45  C   UNL A   1      41.503  28.705  28.629  1.00  0.00     0.049 A 
ATOM     46  N   UNL A   1      42.280  29.458  31.915  1.00  0.00    -0.248 NA
ATOM     47  C   UNL A   1      40.435  28.047  31.933  1.00  0.00     0.031 C 
ATOM     48  C   UNL A   1      40.947  28.800  27.269  1.00  0.00     0.029 A 
ATOM     49  N   UNL A   1      42.562  27.885  28.433  1.00  0.00    -0.354 N 
ATOM     50  C   UNL A   1      42.152  28.821  33.144  1.00  0.00     0.074 A 
ATOM     51  C   UNL A   1      40.813  28.316  33.183  1.00  0.00     0.031 C 
ATOM     52  C   UNL A   1      41.524  27.859  26.476  1.00  0.00     0.029 A 
ATOM     53  C   UNL A   1      42.577  27.196  27.222  1.00  0.00     0.049 A 
ATOM     54  H   UNL A   1      43.276  27.781  29.103  1.00  0.00     0.167 HD
ATOM     55  C   UNL A   1      43.253  28.353  33.794  1.00  0.00     0.034 A 
ATOM     56  C   UNL A   1      43.357  26.116  26.931  1.00  0.00     0.034 A 
ATOM     57  C   UNL A   1      44.447  28.932  33.226  1.00  0.00     0.049 A 
ATOM     58  C   UNL A   1      44.442  26.103  27.943  1.00  0.00     0.074 A 
ATOM     59  C   UNL A   1      44.987  30.196  33.120  1.00  0.00     0.029 A 
ATOM     60  N   UNL A   1      45.031  28.165  32.249  1.00  0.00    -0.354 N 
ATOM     61  N   UNL A   1      45.332  27.050  28.049  1.00  0.00    -0.248 NA
ATOM     62  C   UNL A   1      44.231  25.298  29.135  1.00  0.00     0.031 C 
ATOM     63  C   UNL A   1      45.621  30.228  31.841  1.00  0.00     0.029 A 
ATOM     64  C   UNL A   1      45.523  28.962  31.256  1.00  0.00     0.049 A 
ATOM     65  H   UNL A   1      45.086  27.182  32.261  1.00  0.00     0.167 HD
ATOM     66  C   UNL A   1      45.458  27.254  29.418  1.00  0.00     0.074 A 
ATOM     67  C   UNL A   1      44.831  26.083  30.034  1.00  0.00     0.031 C 
ATOM     68  C   UNL A   1      45.758  28.494  29.905  1.00  0.00     0.034 A 
BRANCH  55  69
ATOM     69  C   UNL A   1      43.309  27.036  34.557  1.00  0.00     0.023 A 
ATOM     70  C   UNL A   1      43.175  27.122  35.959  1.00  0.00     0.012 A 
ATOM     71  C   UNL A   1      43.736  25.784  34.043  1.00  0.00     0.148 A 
ATOM     72  C   UNL A   1      43.489  26.045  36.797  1.00  0.00     0.002 A 
ATOM     73  C   UNL A   1      43.981  24.697  34.871  1.00  0.00     0.091 A 
ATOM     74  F   UNL A   1      44.038  25.640  32.755  1.00  0.00    -0.205 F 
ATOM     75  C   UNL A   1      43.887  24.830  36.254  1.00  0.00     0.022 A 
BRANCH  73  76
ATOM     76  S   UNL A   1      44.477  23.097  34.209  1.00  0.00     0.127 S 
ATOM     77  O   UNL A   1      43.696  23.038  32.977  1.00  0.00    -0.237 OA
ATOM     78  O   UNL A   1      45.915  23.289  34.026  1.00  0.00    -0.237 OA
ATOM     79  O   UNL A   1      44.131  22.115  35.228  1.00  0.00    -0.744 OA
ENDBRANCH  73  76
ENDBRANCH  55  69
BRANCH  56  80
ATOM     80  C   UNL A   1      43.013  24.873  26.178  1.00  0.00     0.023 A 
ATOM     81  C   UNL A   1      43.898  24.354  25.204  1.00  0.00     0.012 A 
ATOM     82  C   UNL A   1      41.984  24.025  26.644  1.00  0.00     0.148 A 
ATOM     83  C   UNL A   1      43.770  23.038  24.730  1.00  0.00     0.002 A 
ATOM     84  C   UNL A   1      41.861  22.721  26.171  1.00  0.00     0.091 A 
ATOM     85  F   UNL A   1      41.187  24.469  27.623  1.00  0.00    -0.205 F 
ATOM     86  C   UNL A   1      42.758  22.218  25.220  1.00  0.00     0.022 A 
BRANCH  84  87
ATOM     87  S   UNL A   1      40.599  21.596  26.787  1.00  0.00     0.127 S 
ATOM     88  O   UNL A   1      39.371  22.241  26.322  1.00  0.00    -0.237 OA
ATOM     89  O   UNL A   1      40.938  20.354  26.099  1.00  0.00    -0.237 OA
ATOM     90  O   UNL A   1      40.755  21.577  28.236  1.00  0.00    -0.744 OA
ENDBRANCH  84  87
ENDBRANCH  56  80
BRANCH  68  91
ATOM     91  C   UNL A   1      46.268  29.527  28.931  1.00  0.00     0.023 A 
ATOM     92  C   UNL A   1      47.588  29.564  28.430  1.00  0.00     0.012 A 
ATOM     93  C   UNL A   1      45.300  30.370  28.370  1.00  0.00     0.148 A 
ATOM     94  C   UNL A   1      47.924  30.434  27.384  1.00  0.00     0.002 A 
ATOM     95  C   UNL A   1      45.623  31.186  27.298  1.00  0.00     0.091 A 
ATOM     96  F   UNL A   1      44.057  30.315  28.869  1.00  0.00    -0.205 F 
ATOM     97  C   UNL A   1      46.937  31.231  26.805  1.00  0.00     0.022 A 
BRANCH  95  98
ATOM     98  S   UNL A   1      44.360  32.110  26.426  1.00  0.00     0.127 S 
ATOM     99  O   UNL A   1      45.109  32.656  25.297  1.00  0.00    -0.237 OA
ATOM    100  O   UNL A   1      43.398  31.062  26.077  1.00  0.00    -0.237 OA
ATOM    101  O   UNL A   1      43.852  33.095  27.373  1.00  0.00    -0.744 OA
ENDBRANCH  95  98
ENDBRANCH  68  91
ENDBRANCH  42  43
ENDBRANCH  35  37
ENDBRANCH  34  35
ENDBRANCH  33  34
ENDBRANCH  32  33
ENDBRANCH  31  32
ENDBRANCH  30  31
ENDBRANCH   1  30
TORSDOF 23
ENDMDL
MODEL 2
REMARK VINA RESULT:     -10.1      3.584      7.393
REMARK SMILES Cc1cc(NC(=O)[C@H]2[C@@H](C(=O)OCCOCCOCCOC(=O)c3ccc(-c4c5nc(c(-c6cccc(S(=O)(=O)[O-])c6F)c6ccc([nH]6)c(-c6cccc(S(=O)(=O)[O-])c6F)c6nc(c(-c7cccc(S(=O)(=O)[O-])c7F)c7ccc4[nH]7)C=C6)C=C5)cc3)C2(C)C)n(-c2ccc(F)cc2)n1
REMARK SMILES IDX 16 1 15 2 14 3 13 4 12 5 10 6 11 7 9 8 8 9 87 10 88 11 89 12
REMARK SMILES IDX 6 13 5 14 7 16 4 17 1 18 2 19 3 20 98 21 90 22 91 23 92 24
REMARK SMILES IDX 97 25 93 26 96 27 94 28 95 29 17 30 18 31 19 32 20 33 21 34
REMARK SMILES IDX 22 35 23 36 24 37 25 38 86 39 26 40 85 41 27 42 28 43 29 44
REMARK SMILES IDX 79 45 30 46 84 47 78 48 80 49 31 50 83 51 77 52 76 53 32 55
REMARK SMILES IDX 64 56 44 57 63 58 45 59 48 60 62 61 81 62 46 63 47 64 61 66
REMARK SMILES IDX 82 67 49 68 33 69 34 70 42 71 35 72 37 73 43 74 36 75 38 76
REMARK SMILES IDX 39 77 40 78 41 79 65 80 66 81 74 82 67 83 69 84 75 85 68 86
REMARK SMILES IDX 70 87 71 88 72 89 73 90 50 91 51 92 59 93 52 94 54 95 60 96
REMARK SMILES IDX 53 97 55 98 56 99 57 100 58 101
REMARK H PARENT 5 15 80 54 48 65
REMARK Flexibility Score: inf
ROOT
ATOM      1  C   UNL A   1      34.125  31.339  27.627  1.00  0.00     0.188 C 
ENDROOT
BRANCH   1   2
ATOM      2  O   UNL A   1      33.418  30.716  26.564  1.00  0.00    -0.376 OA
BRANCH   2   3
ATOM      3  C   UNL A   1      32.110  30.266  26.883  1.00  0.00     0.202 C 
BRANCH   3   4
ATOM      4  C   UNL A   1      31.977  28.776  27.245  1.00  0.00     0.261 C 
BRANCH   4   5
ATOM      5  O   UNL A   1      33.084  27.928  26.861  1.00  0.00    -0.463 OA
BRANCH   5   6
ATOM      6  C   UNL A   1      33.011  27.188  25.720  1.00  0.00     0.310 C 
ATOM      7  O   UNL A   1      33.921  27.096  24.910  1.00  0.00    -0.252 OA
BRANCH   6   8
ATOM      8  C   UNL A   1      31.678  26.462  25.423  1.00  0.00     0.118 C 
ATOM      9  C   UNL A   1      31.644  25.467  24.310  1.00  0.00     0.100 C 
ATOM     10  C   UNL A   1      30.495  26.703  24.178  1.00  0.00    -0.009 C 
ATOM     11  C   UNL A   1      31.352  27.980  23.332  1.00  0.00     0.013 C 
ATOM     12  C   UNL A   1      28.327  26.440  24.083  1.00  0.00     0.013 C 
BRANCH   9  13
ATOM     13  C   UNL A   1      32.667  25.239  23.276  1.00  0.00     0.230 C 
ATOM     14  N   UNL A   1      33.944  24.623  23.458  1.00  0.00    -0.310 N 
ATOM     15  H   UNL A   1      34.567  24.805  22.717  1.00  0.00     0.171 HD
ATOM     16  O   UNL A   1      32.509  25.720  22.164  1.00  0.00    -0.274 OA
BRANCH  14  17
ATOM     17  C   UNL A   1      34.504  23.818  24.457  1.00  0.00     0.136 A 
ATOM     18  C   UNL A   1      37.652  22.641  25.926  1.00  0.00     0.069 C 
ATOM     19  C   UNL A   1      36.258  22.977  25.545  1.00  0.00     0.062 A 
ATOM     20  C   UNL A   1      35.790  24.125  24.875  1.00  0.00     0.072 A 
ATOM     21  N   UNL A   1      35.286  22.082  25.718  1.00  0.00    -0.171 NA
ATOM     22  N   UNL A   1      34.229  22.568  25.034  1.00  0.00    -0.217 N 
BRANCH  22  23
ATOM     23  C   UNL A   1      33.246  21.660  24.600  1.00  0.00     0.067 A 
ATOM     24  C   UNL A   1      33.316  19.984  25.353  1.00  0.00     0.031 A 
ATOM     25  C   UNL A   1      32.566  21.895  22.956  1.00  0.00     0.031 A 
ATOM     26  C   UNL A   1      32.905  18.548  24.337  1.00  0.00     0.041 A 
ATOM     27  C   UNL A   1      32.032  20.438  21.998  1.00  0.00     0.041 A 
ATOM     28  C   UNL A   1      32.251  18.787  22.680  1.00  0.00     0.123 A 
ATOM     29  F   UNL A   1      31.828  17.732  21.973  1.00  0.00    -0.207 F 
ENDBRANCH  22  23
ENDBRANCH  14  17
ENDBRANCH   9  13
ENDBRANCH   6   8
ENDBRANCH   5   6
ENDBRANCH   4   5
ENDBRANCH   3   4
ENDBRANCH   2   3
ENDBRANCH   1   2
BRANCH   1  30
ATOM     30  C   UNL A   1      33.544  32.677  28.106  1.00  0.00     0.188 C 
BRANCH  30  31
ATOM     31  O   UNL A   1      34.349  33.824  27.851  1.00  0.00    -0.376 OA
BRANCH  31  32
ATOM     32  C   UNL A   1      34.504  34.859  28.827  1.00  0.00     0.202 C 
BRANCH  32  33
ATOM     33  C   UNL A   1      33.628  35.045  30.071  1.00  0.00     0.261 C 
BRANCH  33  34
ATOM     34  O   UNL A   1      34.270  34.887  31.315  1.00  0.00    -0.460 OA
BRANCH  34  35
ATOM     35  C   UNL A   1      34.681  33.669  31.712  1.00  0.00     0.338 C 
ATOM     36  O   UNL A   1      34.155  32.595  31.503  1.00  0.00    -0.246 OA
BRANCH  35  37
ATOM     37  C   UNL A   1      35.963  33.928  32.405  1.00  0.00     0.060 A 
ATOM     38  C   UNL A   1      36.809  34.871  31.846  1.00  0.00     0.016 A 
ATOM     39  C   UNL A   1      36.416  32.998  33.357  1.00  0.00     0.016 A 
ATOM     40  C   UNL A   1      38.135  34.524  31.805  1.00  0.00     0.010 A 
ATOM     41  C   UNL A   1      37.733  32.675  33.340  1.00  0.00     0.010 A 
ATOM     42  C   UNL A   1      38.510  33.310  32.388  1.00  0.00    -0.014 A 
BRANCH  42  43
ATOM     43  C   UNL A   1      39.756  32.682  32.025  1.00  0.00     0.031 A 
ATOM     44  C   UNL A   1      39.466  31.463  31.249  1.00  0.00     0.074 A 
ATOM     45  C   UNL A   1      40.950  33.266  32.271  1.00  0.00     0.049 A 
ATOM     46  N   UNL A   1      39.309  30.270  31.728  1.00  0.00    -0.248 NA
ATOM     47  C   UNL A   1      38.903  31.638  29.895  1.00  0.00     0.031 C 
ATOM     48  C   UNL A   1      41.252  34.627  32.747  1.00  0.00     0.029 A 
ATOM     49  N   UNL A   1      42.193  32.770  32.063  1.00  0.00    -0.354 N 
ATOM     50  C   UNL A   1      38.940  29.519  30.617  1.00  0.00     0.074 A 
ATOM     51  C   UNL A   1      38.341  30.444  29.703  1.00  0.00     0.031 C 
ATOM     52  C   UNL A   1      42.565  34.904  32.528  1.00  0.00     0.029 A 
ATOM     53  C   UNL A   1      43.222  33.709  32.032  1.00  0.00     0.049 A 
ATOM     54  H   UNL A   1      42.359  31.807  31.940  1.00  0.00     0.167 HD
ATOM     55  C   UNL A   1      39.569  28.343  30.342  1.00  0.00     0.034 A 
ATOM     56  C   UNL A   1      44.479  33.495  31.552  1.00  0.00     0.034 A 
ATOM     57  C   UNL A   1      40.309  27.896  31.499  1.00  0.00     0.049 A 
ATOM     58  C   UNL A   1      44.655  32.023  31.486  1.00  0.00     0.074 A 
ATOM     59  C   UNL A   1      40.004  27.489  32.779  1.00  0.00     0.029 A 
ATOM     60  N   UNL A   1      41.625  28.286  31.506  1.00  0.00    -0.354 N 
ATOM     61  N   UNL A   1      44.641  31.254  32.540  1.00  0.00    -0.248 NA
ATOM     62  C   UNL A   1      44.345  31.371  30.225  1.00  0.00     0.031 C 
ATOM     63  C   UNL A   1      41.063  27.990  33.595  1.00  0.00     0.029 A 
ATOM     64  C   UNL A   1      42.015  28.603  32.775  1.00  0.00     0.049 A 
ATOM     65  H   UNL A   1      42.204  28.332  30.711  1.00  0.00     0.167 HD
ATOM     66  C   UNL A   1      43.891  30.150  32.152  1.00  0.00     0.074 A 
ATOM     67  C   UNL A   1      43.821  30.235  30.692  1.00  0.00     0.031 C 
ATOM     68  C   UNL A   1      43.135  29.474  33.067  1.00  0.00     0.034 A 
BRANCH  55  69
ATOM     69  C   UNL A   1      39.943  27.872  28.943  1.00  0.00     0.023 A 
ATOM     70  C   UNL A   1      39.370  26.653  28.523  1.00  0.00     0.012 A 
ATOM     71  C   UNL A   1      40.990  28.385  28.135  1.00  0.00     0.148 A 
ATOM     72  C   UNL A   1      39.841  25.967  27.397  1.00  0.00     0.002 A 
ATOM     73  C   UNL A   1      41.408  27.738  26.981  1.00  0.00     0.091 A 
ATOM     74  F   UNL A   1      41.695  29.446  28.521  1.00  0.00    -0.205 F 
ATOM     75  C   UNL A   1      40.856  26.511  26.621  1.00  0.00     0.022 A 
BRANCH  73  76
ATOM     76  S   UNL A   1      42.706  28.419  25.933  1.00  0.00     0.127 S 
ATOM     77  O   UNL A   1      42.473  29.853  26.076  1.00  0.00    -0.237 OA
ATOM     78  O   UNL A   1      43.910  27.914  26.592  1.00  0.00    -0.237 OA
ATOM     79  O   UNL A   1      42.479  27.868  24.602  1.00  0.00    -0.744 OA
ENDBRANCH  73  76
ENDBRANCH  55  69
BRANCH  56  80
ATOM     80  C   UNL A   1      45.349  34.394  30.735  1.00  0.00     0.023 A 
ATOM     81  C   UNL A   1      46.715  34.564  31.061  1.00  0.00     0.012 A 
ATOM     82  C   UNL A   1      44.923  34.820  29.458  1.00  0.00     0.148 A 
ATOM     83  C   UNL A   1      47.620  35.120  30.141  1.00  0.00     0.002 A 
ATOM     84  C   UNL A   1      45.824  35.372  28.549  1.00  0.00     0.091 A 
ATOM     85  F   UNL A   1      43.653  34.595  29.101  1.00  0.00    -0.205 F 
ATOM     86  C   UNL A   1      47.177  35.515  28.882  1.00  0.00     0.022 A 
BRANCH  84  87
ATOM     87  S   UNL A   1      45.327  35.870  26.893  1.00  0.00     0.127 S 
ATOM     88  O   UNL A   1      46.562  36.459  26.376  1.00  0.00    -0.237 OA
ATOM     89  O   UNL A   1      44.957  34.592  26.291  1.00  0.00    -0.237 OA
ATOM     90  O   UNL A   1      44.238  36.821  27.073  1.00  0.00    -0.744 OA
ENDBRANCH  84  87
ENDBRANCH  56  80
BRANCH  68  91
ATOM     91  C   UNL A   1      43.394  29.744  34.528  1.00  0.00     0.023 A 
ATOM     92  C   UNL A   1      44.516  29.262  35.239  1.00  0.00     0.012 A 
ATOM     93  C   UNL A   1      42.551  30.683  35.137  1.00  0.00     0.148 A 
ATOM     94  C   UNL A   1      44.782  29.719  36.537  1.00  0.00     0.002 A 
ATOM     95  C   UNL A   1      42.850  31.175  36.398  1.00  0.00     0.091 A 
ATOM     96  F   UNL A   1      41.493  31.119  34.440  1.00  0.00    -0.205 F 
ATOM     97  C   UNL A   1      43.959  30.690  37.108  1.00  0.00     0.022 A 
BRANCH  95  98
ATOM     98  S   UNL A   1      41.915  32.528  37.108  1.00  0.00     0.127 S 
ATOM     99  O   UNL A   1      40.615  31.905  37.345  1.00  0.00    -0.237 OA
ATOM    100  O   UNL A   1      42.683  32.830  38.317  1.00  0.00    -0.237 OA
ATOM    101  O   UNL A   1      41.926  33.593  36.113  1.00  0.00    -0.744 OA
ENDBRANCH  95  98
ENDBRANCH  68  91
ENDBRANCH  42  43
ENDBRANCH  35  37
ENDBRANCH  34  35
ENDBRANCH  33  34
ENDBRANCH  32  33
ENDBRANCH  31  32
ENDBRANCH  30  31
ENDBRANCH   1  30
TORSDOF 23
ENDMDL
MODEL 3
REMARK VINA RESULT:      -9.9      3.228      8.671
REMARK SMILES Cc1cc(NC(=O)[C@H]2[C@@H](C(=O)OCCOCCOCCOC(=O)c3ccc(-c4c5nc(c(-c6cccc(S(=O)(=O)[O-])c6F)c6ccc([nH]6)c(-c6cccc(S(=O)(=O)[O-])c6F)c6nc(c(-c7cccc(S(=O)(=O)[O-])c7F)c7ccc4[nH]7)C=C6)C=C5)cc3)C2(C)C)n(-c2ccc(F)cc2)n1
REMARK SMILES IDX 16 1 15 2 14 3 13 4 12 5 10 6 11 7 9 8 8 9 87 10 88 11 89 12
REMARK SMILES IDX 6 13 5 14 7 16 4 17 1 18 2 19 3 20 98 21 90 22 91 23 92 24
REMARK SMILES IDX 97 25 93 26 96 27 94 28 95 29 17 30 18 31 19 32 20 33 21 34
REMARK SMILES IDX 22 35 23 36 24 37 25 38 86 39 26 40 85 41 27 42 28 43 29 44
REMARK SMILES IDX 79 45 30 46 84 47 78 48 80 49 31 50 83 51 77 52 76 53 32 55
REMARK SMILES IDX 64 56 44 57 63 58 45 59 48 60 62 61 81 62 46 63 47 64 61 66
REMARK SMILES IDX 82 67 49 68 33 69 34 70 42 71 35 72 37 73 43 74 36 75 38 76
REMARK SMILES IDX 39 77 40 78 41 79 65 80 66 81 74 82 67 83 69 84 75 85 68 86
REMARK SMILES IDX 70 87 71 88 72 89 73 90 50 91 51 92 59 93 52 94 54 95 60 96
REMARK SMILES IDX 53 97 55 98 56 99 57 100 58 101
REMARK H PARENT 5 15 80 54 48 65
REMARK Flexibility Score: inf
ROOT
ATOM      1  C   UNL A   1      40.043  20.610  26.451  1.00  0.00     0.188 C 
ENDROOT
BRANCH   1   2
ATOM      2  O   UNL A   1      38.964  20.159  25.645  1.00  0.00    -0.376 OA
BRANCH   2   3
ATOM      3  C   UNL A   1      38.034  21.157  25.255  1.00  0.00     0.202 C 
BRANCH   3   4
ATOM      4  C   UNL A   1      36.582  20.686  25.056  1.00  0.00     0.261 C 
BRANCH   4   5
ATOM      5  O   UNL A   1      35.568  21.440  25.761  1.00  0.00    -0.463 OA
BRANCH   5   6
ATOM      6  C   UNL A   1      34.632  22.139  25.063  1.00  0.00     0.310 C 
ATOM      7  O   UNL A   1      34.379  23.319  25.258  1.00  0.00    -0.252 OA
BRANCH   6   8
ATOM      8  C   UNL A   1      33.817  21.374  23.993  1.00  0.00     0.118 C 
ATOM      9  C   UNL A   1      32.337  21.565  23.956  1.00  0.00     0.100 C 
ATOM     10  C   UNL A   1      32.830  19.953  24.106  1.00  0.00    -0.009 C 
ATOM     11  C   UNL A   1      32.999  19.728  25.838  1.00  0.00     0.013 C 
ATOM     12  C   UNL A   1      32.356  18.329  22.720  1.00  0.00     0.013 C 
BRANCH   9  13
ATOM     13  C   UNL A   1      31.490  22.219  24.967  1.00  0.00     0.230 C 
ATOM     14  N   UNL A   1      31.233  23.620  25.091  1.00  0.00    -0.310 N 
ATOM     15  H   UNL A   1      30.865  23.867  25.971  1.00  0.00     0.171 HD
ATOM     16  O   UNL A   1      31.042  21.555  25.890  1.00  0.00    -0.274 OA
BRANCH  14  17
ATOM     17  C   UNL A   1      31.388  24.719  24.237  1.00  0.00     0.136 A 
ATOM     18  C   UNL A   1      32.488  25.772  20.900  1.00  0.00     0.069 C 
ATOM     19  C   UNL A   1      31.963  25.614  22.279  1.00  0.00     0.062 A 
ATOM     20  C   UNL A   1      31.404  24.467  22.874  1.00  0.00     0.072 A 
ATOM     21  N   UNL A   1      32.111  26.600  23.164  1.00  0.00    -0.171 NA
ATOM     22  N   UNL A   1      31.795  26.056  24.359  1.00  0.00    -0.217 N 
BRANCH  22  23
ATOM     23  C   UNL A   1      32.320  26.655  25.518  1.00  0.00     0.067 A 
ATOM     24  C   UNL A   1      31.137  27.651  26.511  1.00  0.00     0.031 A 
ATOM     25  C   UNL A   1      34.073  27.036  25.534  1.00  0.00     0.031 A 
ATOM     26  C   UNL A   1      31.721  29.156  27.323  1.00  0.00     0.041 A 
ATOM     27  C   UNL A   1      34.660  28.485  26.473  1.00  0.00     0.041 A 
ATOM     28  C   UNL A   1      33.476  29.549  27.312  1.00  0.00     0.123 A 
ATOM     29  F   UNL A   1      33.928  30.593  28.018  1.00  0.00    -0.207 F 
ENDBRANCH  22  23
ENDBRANCH  14  17
ENDBRANCH   9  13
ENDBRANCH   6   8
ENDBRANCH   5   6
ENDBRANCH   4   5
ENDBRANCH   3   4
ENDBRANCH   2   3
ENDBRANCH   1   2
BRANCH   1  30
ATOM     30  C   UNL A   1      40.975  21.634  25.786  1.00  0.00     0.188 C 
BRANCH  30  31
ATOM     31  O   UNL A   1      41.545  22.606  26.658  1.00  0.00    -0.376 OA
BRANCH  31  32
ATOM     32  C   UNL A   1      42.288  23.719  26.152  1.00  0.00     0.202 C 
BRANCH  32  33
ATOM     33  C   UNL A   1      43.387  23.641  25.086  1.00  0.00     0.261 C 
BRANCH  33  34
ATOM     34  O   UNL A   1      44.561  22.954  25.451  1.00  0.00    -0.460 OA
BRANCH  34  35
ATOM     35  C   UNL A   1      45.766  23.503  25.210  1.00  0.00     0.338 C 
ATOM     36  O   UNL A   1      46.284  23.733  24.136  1.00  0.00    -0.246 OA
BRANCH  35  37
ATOM     37  C   UNL A   1      46.291  23.828  26.555  1.00  0.00     0.060 A 
ATOM     38  C   UNL A   1      45.629  23.285  27.644  1.00  0.00     0.016 A 
ATOM     39  C   UNL A   1      47.175  24.912  26.691  1.00  0.00     0.016 A 
ATOM     40  C   UNL A   1      45.418  24.142  28.694  1.00  0.00     0.010 A 
ATOM     41  C   UNL A   1      46.991  25.744  27.746  1.00  0.00     0.010 A 
ATOM     42  C   UNL A   1      45.948  25.432  28.599  1.00  0.00    -0.014 A 
BRANCH  42  43
ATOM     43  C   UNL A   1      45.428  26.494  29.424  1.00  0.00     0.031 A 
ATOM     44  C   UNL A   1      44.070  26.834  28.962  1.00  0.00     0.074 A 
ATOM     45  C   UNL A   1      46.089  26.942  30.516  1.00  0.00     0.049 A 
ATOM     46  N   UNL A   1      43.765  27.730  28.078  1.00  0.00    -0.248 NA
ATOM     47  C   UNL A   1      43.006  25.837  29.189  1.00  0.00     0.031 C 
ATOM     48  C   UNL A   1      47.284  26.396  31.182  1.00  0.00     0.029 A 
ATOM     49  N   UNL A   1      45.770  27.973  31.334  1.00  0.00    -0.354 N 
ATOM     50  C   UNL A   1      42.393  27.574  27.917  1.00  0.00     0.074 A 
ATOM     51  C   UNL A   1      42.110  26.218  28.278  1.00  0.00     0.031 C 
ATOM     52  C   UNL A   1      47.403  26.944  32.420  1.00  0.00     0.029 A 
ATOM     53  C   UNL A   1      46.390  27.970  32.582  1.00  0.00     0.049 A 
ATOM     54  H   UNL A   1      45.139  28.680  31.064  1.00  0.00     0.167 HD
ATOM     55  C   UNL A   1      41.567  28.654  27.971  1.00  0.00     0.034 A 
ATOM     56  C   UNL A   1      46.011  28.713  33.659  1.00  0.00     0.034 A 
ATOM     57  C   UNL A   1      42.334  29.871  27.838  1.00  0.00     0.049 A 
ATOM     58  C   UNL A   1      45.138  29.792  33.134  1.00  0.00     0.074 A 
ATOM     59  C   UNL A   1      43.114  30.454  26.864  1.00  0.00     0.029 A 
ATOM     60  N   UNL A   1      42.703  30.433  29.036  1.00  0.00    -0.354 N 
ATOM     61  N   UNL A   1      45.558  30.715  32.312  1.00  0.00    -0.248 NA
ATOM     62  C   UNL A   1      43.706  29.548  33.130  1.00  0.00     0.031 C 
ATOM     63  C   UNL A   1      44.178  31.096  27.568  1.00  0.00     0.029 A 
ATOM     64  C   UNL A   1      43.959  30.957  28.941  1.00  0.00     0.049 A 
ATOM     65  H   UNL A   1      42.143  30.453  29.845  1.00  0.00     0.167 HD
ATOM     66  C   UNL A   1      44.534  30.841  31.383  1.00  0.00     0.074 A 
ATOM     67  C   UNL A   1      43.384  30.171  31.993  1.00  0.00     0.031 C 
ATOM     68  C   UNL A   1      44.814  31.182  30.090  1.00  0.00     0.034 A 
BRANCH  55  69
ATOM     69  C   UNL A   1      40.198  28.662  28.638  1.00  0.00     0.023 A 
ATOM     70  C   UNL A   1      39.114  29.068  27.832  1.00  0.00     0.012 A 
ATOM     71  C   UNL A   1      39.941  28.557  30.030  1.00  0.00     0.148 A 
ATOM     72  C   UNL A   1      37.867  29.392  28.381  1.00  0.00     0.002 A 
ATOM     73  C   UNL A   1      38.685  28.813  30.564  1.00  0.00     0.091 A 
ATOM     74  F   UNL A   1      40.928  28.329  30.893  1.00  0.00    -0.205 F 
ATOM     75  C   UNL A   1      37.650  29.260  29.747  1.00  0.00     0.022 A 
BRANCH  73  76
ATOM     76  S   UNL A   1      38.352  28.633  32.325  1.00  0.00     0.127 S 
ATOM     77  O   UNL A   1      36.958  29.059  32.402  1.00  0.00    -0.237 OA
ATOM     78  O   UNL A   1      38.578  27.202  32.522  1.00  0.00    -0.237 OA
ATOM     79  O   UNL A   1      39.316  29.489  33.006  1.00  0.00    -0.744 OA
ENDBRANCH  73  76
ENDBRANCH  55  69
BRANCH  56  80
ATOM     80  C   UNL A   1      45.950  28.330  35.102  1.00  0.00     0.023 A 
ATOM     81  C   UNL A   1      46.633  29.093  36.078  1.00  0.00     0.012 A 
ATOM     82  C   UNL A   1      44.966  27.423  35.552  1.00  0.00     0.148 A 
ATOM     83  C   UNL A   1      46.331  28.967  37.444  1.00  0.00     0.002 A 
ATOM     84  C   UNL A   1      44.671  27.300  36.908  1.00  0.00     0.091 A 
ATOM     85  F   UNL A   1      44.253  26.751  34.640  1.00  0.00    -0.205 F 
ATOM     86  C   UNL A   1      45.343  28.078  37.858  1.00  0.00     0.022 A 
BRANCH  84  87
ATOM     87  S   UNL A   1      43.382  26.198  37.510  1.00  0.00     0.127 S 
ATOM     88  O   UNL A   1      43.859  24.897  37.041  1.00  0.00    -0.237 OA
ATOM     89  O   UNL A   1      43.462  26.399  38.954  1.00  0.00    -0.237 OA
ATOM     90  O   UNL A   1      42.147  26.647  36.879  1.00  0.00    -0.744 OA
ENDBRANCH  84  87
ENDBRANCH  56  80
BRANCH  68  91
ATOM     91  C   UNL A   1      46.186  31.732  29.791  1.00  0.00     0.023 A 
ATOM     92  C   UNL A   1      47.300  30.939  29.435  1.00  0.00     0.012 A 
ATOM     93  C   UNL A   1      46.279  33.126  29.687  1.00  0.00     0.148 A 
ATOM     94  C   UNL A   1      48.482  31.541  28.982  1.00  0.00     0.002 A 
ATOM     95  C   UNL A   1      47.428  33.714  29.185  1.00  0.00     0.091 A 
ATOM     96  F   UNL A   1      45.207  33.852  30.035  1.00  0.00    -0.205 F 
ATOM     97  C   UNL A   1      48.539  32.928  28.839  1.00  0.00     0.022 A 
BRANCH  95  98
ATOM     98  S   UNL A   1      47.494  35.470  28.840  1.00  0.00     0.127 S 
ATOM     99  O   UNL A   1      47.366  36.046  30.177  1.00  0.00    -0.237 OA
ATOM    100  O   UNL A   1      48.818  35.615  28.232  1.00  0.00    -0.237 OA
ATOM    101  O   UNL A   1      46.387  35.747  27.933  1.00  0.00    -0.744 OA
ENDBRANCH  95  98
ENDBRANCH  68  91
ENDBRANCH  42  43
ENDBRANCH  35  37
ENDBRANCH  34  35
ENDBRANCH  33  34
ENDBRANCH  32  33
ENDBRANCH  31  32
ENDBRANCH  30  31
ENDBRANCH   1  30
TORSDOF 23
ENDMDL
