MODEL 1
REMARK VINA RESULT:      -8.4      0.000      0.000
REMARK SMILES N#C/C(=C\c1ccc(-c2ccc(C(=O)OCCOCCOCCOC(=O)c3ccc(-c4c5nc(c(-c6cccc(S(=O)(=O)[O-])c6F)c6ccc([nH]6)c(-c6cccc(S(=O)(=O)[O-])c6F)c6nc(c(-c7cccc(S(=O)(=O)[O-])c7F)c7ccc4[nH]7)C=C6)C=C5)cc3)cc2)o1)[C@@H]1N=c2cc(Br)cnc2=N1
REMARK SMILES IDX 19 1 18 2 17 3 16 4 15 5 13 6 14 7 12 8 9 9 10 10 91 11
REMARK SMILES IDX 11 12 90 13 8 14 5 15 6 16 92 17 7 18 4 19 3 20 2 21 1 22
REMARK SMILES IDX 93 23 94 24 102 25 95 26 101 27 96 28 100 29 97 30 99 31
REMARK SMILES IDX 98 32 20 33 21 34 22 35 23 36 24 37 25 38 26 39 27 40 28 41
REMARK SMILES IDX 89 42 29 43 88 44 30 45 31 46 32 47 82 48 33 49 87 50 81 51
REMARK SMILES IDX 83 52 34 53 86 54 80 55 79 56 35 58 67 59 47 60 66 61 48 62
REMARK SMILES IDX 51 63 65 64 84 65 49 66 50 67 64 69 85 70 52 71 36 72 37 73
REMARK SMILES IDX 45 74 38 75 40 76 46 77 39 78 41 79 42 80 43 81 44 82 68 83
REMARK SMILES IDX 69 84 77 85 70 86 72 87 78 88 71 89 73 90 74 91 75 92 76 93
REMARK SMILES IDX 53 94 54 95 62 96 55 97 57 98 63 99 56 100 58 101 59 102
REMARK SMILES IDX 60 103 61 104
REMARK H PARENT 83 57 51 68
REMARK Flexibility Score: inf
ROOT
ATOM      1  C   UNL A   1      32.187  29.953  25.758  1.00  0.00     0.188 C 
ENDROOT
BRANCH   1   2
ATOM      2  O   UNL A   1      33.285  29.093  25.940  1.00  0.00    -0.376 OA
BRANCH   2   3
ATOM      3  C   UNL A   1      34.021  29.114  27.149  1.00  0.00     0.202 C 
BRANCH   3   4
ATOM      4  C   UNL A   1      35.533  29.392  27.283  1.00  0.00     0.261 C 
BRANCH   4   5
ATOM      5  O   UNL A   1      36.066  29.618  28.592  1.00  0.00    -0.460 OA
BRANCH   5   6
ATOM      6  C   UNL A   1      37.300  30.174  28.640  1.00  0.00     0.338 C 
ATOM      7  O   UNL A   1      37.564  31.349  28.859  1.00  0.00    -0.246 OA
BRANCH   6   8
ATOM      8  C   UNL A   1      38.336  29.121  28.524  1.00  0.00     0.060 A 
ATOM      9  C   UNL A   1      40.164  27.030  28.099  1.00  0.00     0.017 A 
ATOM     10  C   UNL A   1      40.165  28.143  27.253  1.00  0.00     0.013 A 
ATOM     11  C   UNL A   1      39.308  27.026  29.217  1.00  0.00     0.013 A 
ATOM     12  C   UNL A   1      39.242  29.179  27.456  1.00  0.00     0.016 A 
ATOM     13  C   UNL A   1      38.401  28.067  29.437  1.00  0.00     0.016 A 
BRANCH   9  14
ATOM     14  C   UNL A   1      40.814  25.785  27.707  1.00  0.00     0.134 A 
ATOM     15  C   UNL A   1      42.339  24.496  26.710  1.00  0.00     0.128 A 
ATOM     16  C   UNL A   1      41.376  23.675  27.297  1.00  0.00     0.051 A 
ATOM     17  O   UNL A   1      41.983  25.810  26.998  1.00  0.00    -0.457 OA
ATOM     18  C   UNL A   1      40.407  24.488  27.906  1.00  0.00     0.051 A 
BRANCH  15  19
ATOM     19  C   UNL A   1      43.527  24.095  26.004  1.00  0.00     0.066 C 
ATOM     20  C   UNL A   1      44.692  23.742  26.618  1.00  0.00     0.080 C 
BRANCH  20  21
ATOM     21  C   UNL A   1      44.603  23.550  28.123  1.00  0.00     0.099 C 
ATOM     22  N   UNL A   1      44.529  23.392  29.372  1.00  0.00    -0.193 NA
ENDBRANCH  20  21
BRANCH  20  23
ATOM     23  C   UNL A   1      46.007  23.638  25.895  1.00  0.00     0.265 C 
ATOM     24  N   UNL A   1      47.106  24.062  26.831  1.00  0.00    -0.249 NA
ATOM     25  N   UNL A   1      46.011  24.492  24.686  1.00  0.00    -0.232 NA
ATOM     26  C   UNL A   1      47.579  25.102  26.239  1.00  0.00     0.106 A 
ATOM     27  C   UNL A   1      46.956  25.336  24.919  1.00  0.00     0.175 A 
ATOM     28  C   UNL A   1      48.577  26.063  26.702  1.00  0.00     0.049 A 
ATOM     29  N   UNL A   1      47.329  26.322  24.058  1.00  0.00    -0.234 NA
ATOM     30  C   UNL A   1      48.878  27.072  25.874  1.00  0.00     0.038 A 
ATOM     31  C   UNL A   1      48.230  27.130  24.523  1.00  0.00     0.129 A 
ATOM     32  Br  UNL A   1      50.075  28.420  26.327  1.00  0.00    -0.049 Br
ENDBRANCH  20  23
ENDBRANCH  15  19
ENDBRANCH   9  14
ENDBRANCH   6   8
ENDBRANCH   5   6
ENDBRANCH   4   5
ENDBRANCH   3   4
ENDBRANCH   2   3
ENDBRANCH   1   2
BRANCH   1  33
ATOM     33  C   UNL A   1      31.940  30.933  26.926  1.00  0.00     0.188 C 
BRANCH  33  34
ATOM     34  O   UNL A   1      32.135  32.327  26.746  1.00  0.00    -0.376 OA
BRANCH  34  35
ATOM     35  C   UNL A   1      32.742  33.084  27.782  1.00  0.00     0.202 C 
BRANCH  35  36
ATOM     36  C   UNL A   1      34.097  32.696  28.406  1.00  0.00     0.261 C 
BRANCH  36  37
ATOM     37  O   UNL A   1      34.842  33.742  29.044  1.00  0.00    -0.460 OA
BRANCH  37  38
ATOM     38  C   UNL A   1      34.460  34.051  30.307  1.00  0.00     0.338 C 
ATOM     39  O   UNL A   1      33.369  34.466  30.669  1.00  0.00    -0.246 OA
BRANCH  38  40
ATOM     40  C   UNL A   1      35.519  33.641  31.248  1.00  0.00     0.060 A 
ATOM     41  C   UNL A   1      36.686  34.415  31.334  1.00  0.00     0.016 A 
ATOM     42  C   UNL A   1      35.380  32.482  32.011  1.00  0.00     0.016 A 
ATOM     43  C   UNL A   1      37.723  34.030  32.182  1.00  0.00     0.010 A 
ATOM     44  C   UNL A   1      36.432  32.082  32.839  1.00  0.00     0.010 A 
ATOM     45  C   UNL A   1      37.615  32.840  32.912  1.00  0.00    -0.014 A 
BRANCH  45  46
ATOM     46  C   UNL A   1      38.793  32.304  33.635  1.00  0.00     0.031 A 
ATOM     47  C   UNL A   1      39.060  32.784  35.034  1.00  0.00     0.074 A 
ATOM     48  C   UNL A   1      39.630  31.430  33.047  1.00  0.00     0.049 A 
ATOM     49  N   UNL A   1      40.070  32.522  35.822  1.00  0.00    -0.248 NA
ATOM     50  C   UNL A   1      38.056  33.687  35.622  1.00  0.00     0.031 C 
ATOM     51  C   UNL A   1      39.471  30.883  31.702  1.00  0.00     0.029 A 
ATOM     52  N   UNL A   1      40.801  30.878  33.503  1.00  0.00    -0.354 N 
ATOM     53  C   UNL A   1      39.845  33.255  36.981  1.00  0.00     0.074 A 
ATOM     54  C   UNL A   1      38.603  33.974  36.793  1.00  0.00     0.031 C 
ATOM     55  C   UNL A   1      40.531  30.105  31.423  1.00  0.00     0.029 A 
ATOM     56  C   UNL A   1      41.455  30.125  32.556  1.00  0.00     0.049 A 
ATOM     57  H   UNL A   1      41.141  31.009  34.418  1.00  0.00     0.167 HD
ATOM     58  C   UNL A   1      40.601  33.319  38.102  1.00  0.00     0.034 A 
ATOM     59  C   UNL A   1      42.675  29.552  32.587  1.00  0.00     0.034 A 
ATOM     60  C   UNL A   1      41.829  32.595  38.288  1.00  0.00     0.049 A 
ATOM     61  C   UNL A   1      43.514  29.667  33.835  1.00  0.00     0.074 A 
ATOM     62  C   UNL A   1      42.638  32.552  39.410  1.00  0.00     0.029 A 
ATOM     63  N   UNL A   1      42.439  31.809  37.325  1.00  0.00    -0.354 N 
ATOM     64  N   UNL A   1      43.235  30.265  34.967  1.00  0.00    -0.248 NA
ATOM     65  C   UNL A   1      44.827  29.004  33.818  1.00  0.00     0.031 C 
ATOM     66  C   UNL A   1      43.759  31.772  39.110  1.00  0.00     0.029 A 
ATOM     67  C   UNL A   1      43.626  31.293  37.817  1.00  0.00     0.049 A 
ATOM     68  H   UNL A   1      42.081  31.641  36.423  1.00  0.00     0.167 HD
ATOM     69  C   UNL A   1      44.317  30.019  35.808  1.00  0.00     0.074 A 
ATOM     70  C   UNL A   1      45.249  29.203  35.059  1.00  0.00     0.031 C 
ATOM     71  C   UNL A   1      44.524  30.440  37.080  1.00  0.00     0.034 A 
BRANCH  58  72
ATOM     72  C   UNL A   1      40.118  34.202  39.222  1.00  0.00     0.023 A 
ATOM     73  C   UNL A   1      40.487  35.562  39.253  1.00  0.00     0.012 A 
ATOM     74  C   UNL A   1      39.255  33.696  40.213  1.00  0.00     0.148 A 
ATOM     75  C   UNL A   1      40.033  36.398  40.273  1.00  0.00     0.002 A 
ATOM     76  C   UNL A   1      38.768  34.546  41.199  1.00  0.00     0.091 A 
ATOM     77  F   UNL A   1      38.934  32.396  40.180  1.00  0.00    -0.205 F 
ATOM     78  C   UNL A   1      39.165  35.893  41.238  1.00  0.00     0.022 A 
BRANCH  76  79
ATOM     79  S   UNL A   1      37.583  34.013  42.439  1.00  0.00     0.127 S 
ATOM     80  O   UNL A   1      36.561  33.373  41.613  1.00  0.00    -0.237 OA
ATOM     81  O   UNL A   1      38.380  33.088  43.246  1.00  0.00    -0.237 OA
ATOM     82  O   UNL A   1      37.158  35.218  43.137  1.00  0.00    -0.744 OA
ENDBRANCH  76  79
ENDBRANCH  58  72
BRANCH  59  83
ATOM     83  C   UNL A   1      43.178  28.804  31.399  1.00  0.00     0.023 A 
ATOM     84  C   UNL A   1      42.856  27.442  31.244  1.00  0.00     0.012 A 
ATOM     85  C   UNL A   1      43.968  29.439  30.420  1.00  0.00     0.148 A 
ATOM     86  C   UNL A   1      43.338  26.718  30.154  1.00  0.00     0.002 A 
ATOM     87  C   UNL A   1      44.399  28.725  29.308  1.00  0.00     0.091 A 
ATOM     88  F   UNL A   1      44.278  30.731  30.595  1.00  0.00    -0.205 F 
ATOM     89  C   UNL A   1      44.100  27.359  29.182  1.00  0.00     0.022 A 
BRANCH  87  90
ATOM     90  S   UNL A   1      45.284  29.497  27.949  1.00  0.00     0.127 S 
ATOM     91  O   UNL A   1      45.561  28.352  27.084  1.00  0.00    -0.237 OA
ATOM     92  O   UNL A   1      44.283  30.431  27.432  1.00  0.00    -0.237 OA
ATOM     93  O   UNL A   1      46.450  30.132  28.547  1.00  0.00    -0.744 OA
ENDBRANCH  87  90
ENDBRANCH  59  83
BRANCH  71  94
ATOM     94  C   UNL A   1      45.787  29.996  37.775  1.00  0.00     0.023 A 
ATOM     95  C   UNL A   1      46.924  30.828  37.774  1.00  0.00     0.012 A 
ATOM     96  C   UNL A   1      45.816  28.789  38.504  1.00  0.00     0.148 A 
ATOM     97  C   UNL A   1      48.079  30.452  38.460  1.00  0.00     0.002 A 
ATOM     98  C   UNL A   1      46.951  28.446  39.228  1.00  0.00     0.091 A 
ATOM     99  F   UNL A   1      44.729  28.004  38.481  1.00  0.00    -0.205 F 
ATOM    100  C   UNL A   1      48.088  29.270  39.197  1.00  0.00     0.022 A 
BRANCH  98 101
ATOM    101  S   UNL A   1      47.020  26.996  40.287  1.00  0.00     0.127 S 
ATOM    102  O   UNL A   1      46.036  27.330  41.315  1.00  0.00    -0.237 OA
ATOM    103  O   UNL A   1      46.610  25.928  39.375  1.00  0.00    -0.237 OA
ATOM    104  O   UNL A   1      48.397  26.900  40.751  1.00  0.00    -0.744 OA
ENDBRANCH  98 101
ENDBRANCH  71  94
ENDBRANCH  45  46
ENDBRANCH  38  40
ENDBRANCH  37  38
ENDBRANCH  36  37
ENDBRANCH  35  36
ENDBRANCH  34  35
ENDBRANCH  33  34
ENDBRANCH   1  33
TORSDOF 24
ENDMDL
MODEL 2
REMARK VINA RESULT:      -8.3      1.248      7.376
REMARK SMILES N#C/C(=C\c1ccc(-c2ccc(C(=O)OCCOCCOCCOC(=O)c3ccc(-c4c5nc(c(-c6cccc(S(=O)(=O)[O-])c6F)c6ccc([nH]6)c(-c6cccc(S(=O)(=O)[O-])c6F)c6nc(c(-c7cccc(S(=O)(=O)[O-])c7F)c7ccc4[nH]7)C=C6)C=C5)cc3)cc2)o1)[C@@H]1N=c2cc(Br)cnc2=N1
REMARK SMILES IDX 19 1 18 2 17 3 16 4 15 5 13 6 14 7 12 8 9 9 10 10 91 11
REMARK SMILES IDX 11 12 90 13 8 14 5 15 6 16 92 17 7 18 4 19 3 20 2 21 1 22
REMARK SMILES IDX 93 23 94 24 102 25 95 26 101 27 96 28 100 29 97 30 99 31
REMARK SMILES IDX 98 32 20 33 21 34 22 35 23 36 24 37 25 38 26 39 27 40 28 41
REMARK SMILES IDX 89 42 29 43 88 44 30 45 31 46 32 47 82 48 33 49 87 50 81 51
REMARK SMILES IDX 83 52 34 53 86 54 80 55 79 56 35 58 67 59 47 60 66 61 48 62
REMARK SMILES IDX 51 63 65 64 84 65 49 66 50 67 64 69 85 70 52 71 36 72 37 73
REMARK SMILES IDX 45 74 38 75 40 76 46 77 39 78 41 79 42 80 43 81 44 82 68 83
REMARK SMILES IDX 69 84 77 85 70 86 72 87 78 88 71 89 73 90 74 91 75 92 76 93
REMARK SMILES IDX 53 94 54 95 62 96 55 97 57 98 63 99 56 100 58 101 59 102
REMARK SMILES IDX 60 103 61 104
REMARK H PARENT 83 57 51 68
REMARK Flexibility Score: inf
ROOT
ATOM      1  C   UNL A   1      32.220  29.524  25.617  1.00  0.00     0.188 C 
ENDROOT
BRANCH   1   2
ATOM      2  O   UNL A   1      33.380  28.802  25.953  1.00  0.00    -0.376 OA
BRANCH   2   3
ATOM      3  C   UNL A   1      34.067  29.068  27.162  1.00  0.00     0.202 C 
BRANCH   3   4
ATOM      4  C   UNL A   1      35.586  29.298  27.307  1.00  0.00     0.261 C 
BRANCH   4   5
ATOM      5  O   UNL A   1      36.083  29.754  28.569  1.00  0.00    -0.460 OA
BRANCH   5   6
ATOM      6  C   UNL A   1      37.321  30.305  28.554  1.00  0.00     0.338 C 
ATOM      7  O   UNL A   1      37.595  31.488  28.702  1.00  0.00    -0.246 OA
BRANCH   6   8
ATOM      8  C   UNL A   1      38.348  29.242  28.466  1.00  0.00     0.060 A 
ATOM      9  C   UNL A   1      40.163  27.128  28.098  1.00  0.00     0.017 A 
ATOM     10  C   UNL A   1      40.178  28.223  27.229  1.00  0.00     0.013 A 
ATOM     11  C   UNL A   1      39.299  27.154  29.210  1.00  0.00     0.013 A 
ATOM     12  C   UNL A   1      39.262  29.270  27.404  1.00  0.00     0.016 A 
ATOM     13  C   UNL A   1      38.399  28.207  29.402  1.00  0.00     0.016 A 
BRANCH   9  14
ATOM     14  C   UNL A   1      40.805  25.870  27.736  1.00  0.00     0.134 A 
ATOM     15  C   UNL A   1      42.293  24.544  26.731  1.00  0.00     0.128 A 
ATOM     16  C   UNL A   1      41.367  23.747  27.403  1.00  0.00     0.051 A 
ATOM     17  O   UNL A   1      41.938  25.869  26.971  1.00  0.00    -0.457 OA
ATOM     18  C   UNL A   1      40.421  24.581  28.018  1.00  0.00     0.051 A 
BRANCH  15  19
ATOM     19  C   UNL A   1      43.450  24.117  25.989  1.00  0.00     0.066 C 
ATOM     20  C   UNL A   1      44.629  23.748  26.567  1.00  0.00     0.080 C 
BRANCH  20  21
ATOM     21  C   UNL A   1      44.587  23.569  28.075  1.00  0.00     0.099 C 
ATOM     22  N   UNL A   1      44.551  23.421  29.327  1.00  0.00    -0.193 NA
ENDBRANCH  20  21
BRANCH  20  23
ATOM     23  C   UNL A   1      45.917  23.617  25.801  1.00  0.00     0.265 C 
ATOM     24  N   UNL A   1      47.062  23.894  26.736  1.00  0.00    -0.249 NA
ATOM     25  N   UNL A   1      45.950  24.561  24.662  1.00  0.00    -0.232 NA
ATOM     26  C   UNL A   1      47.591  24.943  26.212  1.00  0.00     0.106 A 
ATOM     27  C   UNL A   1      46.954  25.321  24.933  1.00  0.00     0.175 A 
ATOM     28  C   UNL A   1      48.661  25.798  26.721  1.00  0.00     0.049 A 
ATOM     29  N   UNL A   1      47.372  26.345  24.140  1.00  0.00    -0.234 NA
ATOM     30  C   UNL A   1      49.009  26.848  25.964  1.00  0.00     0.038 A 
ATOM     31  C   UNL A   1      48.336  27.054  24.641  1.00  0.00     0.129 A 
ATOM     32  Br  UNL A   1      50.305  28.075  26.486  1.00  0.00    -0.049 Br
ENDBRANCH  20  23
ENDBRANCH  15  19
ENDBRANCH   9  14
ENDBRANCH   6   8
ENDBRANCH   5   6
ENDBRANCH   4   5
ENDBRANCH   3   4
ENDBRANCH   2   3
ENDBRANCH   1   2
BRANCH   1  33
ATOM     33  C   UNL A   1      31.782  30.560  26.675  1.00  0.00     0.188 C 
BRANCH  33  34
ATOM     34  O   UNL A   1      32.108  31.931  26.514  1.00  0.00    -0.376 OA
BRANCH  34  35
ATOM     35  C   UNL A   1      32.522  32.685  27.644  1.00  0.00     0.202 C 
BRANCH  35  36
ATOM     36  C   UNL A   1      33.970  32.656  28.173  1.00  0.00     0.261 C 
BRANCH  36  37
ATOM     37  O   UNL A   1      34.509  33.892  28.659  1.00  0.00    -0.460 OA
BRANCH  37  38
ATOM     38  C   UNL A   1      34.388  34.105  29.992  1.00  0.00     0.338 C 
ATOM     39  O   UNL A   1      33.386  34.462  30.595  1.00  0.00    -0.246 OA
BRANCH  38  40
ATOM     40  C   UNL A   1      35.623  33.666  30.667  1.00  0.00     0.060 A 
ATOM     41  C   UNL A   1      35.566  32.567  31.537  1.00  0.00     0.016 A 
ATOM     42  C   UNL A   1      36.820  34.355  30.473  1.00  0.00     0.016 A 
ATOM     43  C   UNL A   1      36.708  32.156  32.222  1.00  0.00     0.010 A 
ATOM     44  C   UNL A   1      37.956  33.958  31.182  1.00  0.00     0.010 A 
ATOM     45  C   UNL A   1      37.900  32.873  32.076  1.00  0.00    -0.014 A 
BRANCH  45  46
ATOM     46  C   UNL A   1      39.052  32.588  32.966  1.00  0.00     0.031 A 
ATOM     47  C   UNL A   1      40.130  31.662  32.477  1.00  0.00     0.074 A 
ATOM     48  C   UNL A   1      39.122  33.119  34.200  1.00  0.00     0.049 A 
ATOM     49  N   UNL A   1      41.178  31.203  33.109  1.00  0.00    -0.248 NA
ATOM     50  C   UNL A   1      40.005  31.183  31.090  1.00  0.00     0.031 C 
ATOM     51  C   UNL A   1      38.147  34.038  34.781  1.00  0.00     0.029 A 
ATOM     52  N   UNL A   1      40.046  32.928  35.198  1.00  0.00    -0.354 N 
ATOM     53  C   UNL A   1      41.816  30.354  32.215  1.00  0.00     0.074 A 
ATOM     54  C   UNL A   1      41.036  30.358  30.996  1.00  0.00     0.031 C 
ATOM     55  C   UNL A   1      38.500  34.299  36.052  1.00  0.00     0.029 A 
ATOM     56  C   UNL A   1      39.707  33.541  36.381  1.00  0.00     0.049 A 
ATOM     57  H   UNL A   1      40.870  32.402  35.079  1.00  0.00     0.167 HD
ATOM     58  C   UNL A   1      42.952  29.638  32.390  1.00  0.00     0.034 A 
ATOM     59  C   UNL A   1      40.282  33.467  37.598  1.00  0.00     0.034 A 
ATOM     60  C   UNL A   1      43.729  29.643  33.600  1.00  0.00     0.049 A 
ATOM     61  C   UNL A   1      41.527  32.635  37.778  1.00  0.00     0.074 A 
ATOM     62  C   UNL A   1      44.924  28.994  33.855  1.00  0.00     0.029 A 
ATOM     63  N   UNL A   1      43.379  30.309  34.764  1.00  0.00    -0.354 N 
ATOM     64  N   UNL A   1      42.186  31.930  36.890  1.00  0.00    -0.248 NA
ATOM     65  C   UNL A   1      42.122  32.608  39.123  1.00  0.00     0.031 C 
ATOM     66  C   UNL A   1      45.275  29.234  35.187  1.00  0.00     0.029 A 
ATOM     67  C   UNL A   1      44.322  30.070  35.748  1.00  0.00     0.049 A 
ATOM     68  H   UNL A   1      42.578  30.870  34.874  1.00  0.00     0.167 HD
ATOM     69  C   UNL A   1      43.292  31.410  37.558  1.00  0.00     0.074 A 
ATOM     70  C   UNL A   1      43.221  31.895  38.920  1.00  0.00     0.031 C 
ATOM     71  C   UNL A   1      44.270  30.597  37.088  1.00  0.00     0.034 A 
BRANCH  58  72
ATOM     72  C   UNL A   1      43.428  28.788  31.242  1.00  0.00     0.023 A 
ATOM     73  C   UNL A   1      43.058  27.430  31.173  1.00  0.00     0.012 A 
ATOM     74  C   UNL A   1      44.197  29.349  30.205  1.00  0.00     0.148 A 
ATOM     75  C   UNL A   1      43.475  26.634  30.106  1.00  0.00     0.002 A 
ATOM     76  C   UNL A   1      44.569  28.563  29.121  1.00  0.00     0.091 A 
ATOM     77  F   UNL A   1      44.558  30.637  30.300  1.00  0.00    -0.205 F 
ATOM     78  C   UNL A   1      44.219  27.203  29.076  1.00  0.00     0.022 A 
BRANCH  76  79
ATOM     79  S   UNL A   1      45.459  29.220  27.706  1.00  0.00     0.127 S 
ATOM     80  O   UNL A   1      46.639  29.801  28.345  1.00  0.00    -0.237 OA
ATOM     81  O   UNL A   1      45.722  28.013  26.923  1.00  0.00    -0.237 OA
ATOM     82  O   UNL A   1      44.560  30.173  27.071  1.00  0.00    -0.744 OA
ENDBRANCH  76  79
ENDBRANCH  58  72
BRANCH  59  83
ATOM     83  C   UNL A   1      39.695  34.212  38.747  1.00  0.00     0.023 A 
ATOM     84  C   UNL A   1      39.992  35.578  38.920  1.00  0.00     0.012 A 
ATOM     85  C   UNL A   1      38.837  33.575  39.667  1.00  0.00     0.148 A 
ATOM     86  C   UNL A   1      39.474  36.287  40.003  1.00  0.00     0.002 A 
ATOM     87  C   UNL A   1      38.279  34.302  40.712  1.00  0.00     0.091 A 
ATOM     88  F   UNL A   1      38.579  32.271  39.495  1.00  0.00    -0.205 F 
ATOM     89  C   UNL A   1      38.611  35.654  40.893  1.00  0.00     0.022 A 
BRANCH  87  90
ATOM     90  S   UNL A   1      37.066  33.601  41.836  1.00  0.00     0.127 S 
ATOM     91  O   UNL A   1      37.809  32.486  42.420  1.00  0.00    -0.237 OA
ATOM     92  O   UNL A   1      36.819  34.719  42.746  1.00  0.00    -0.237 OA
ATOM     93  O   UNL A   1      35.926  33.233  41.008  1.00  0.00    -0.744 OA
ENDBRANCH  87  90
ENDBRANCH  59  83
BRANCH  71  94
ATOM     94  C   UNL A   1      45.378  30.204  38.033  1.00  0.00     0.023 A 
ATOM     95  C   UNL A   1      45.308  28.986  38.738  1.00  0.00     0.012 A 
ATOM     96  C   UNL A   1      46.532  31.006  38.154  1.00  0.00     0.148 A 
ATOM     97  C   UNL A   1      46.353  28.588  39.571  1.00  0.00     0.002 A 
ATOM     98  C   UNL A   1      47.591  30.578  38.945  1.00  0.00     0.091 A 
ATOM     99  F   UNL A   1      46.575  32.168  37.486  1.00  0.00    -0.205 F 
ATOM    100  C   UNL A   1      47.498  29.375  39.664  1.00  0.00     0.022 A 
BRANCH  98 101
ATOM    101  S   UNL A   1      49.145  31.473  39.047  1.00  0.00     0.127 S 
ATOM    102  O   UNL A   1      49.284  31.985  37.684  1.00  0.00    -0.237 OA
ATOM    103  O   UNL A   1      48.848  32.493  40.053  1.00  0.00    -0.237 OA
ATOM    104  O   UNL A   1      50.148  30.498  39.451  1.00  0.00    -0.744 OA
ENDBRANCH  98 101
ENDBRANCH  71  94
ENDBRANCH  45  46
ENDBRANCH  38  40
ENDBRANCH  37  38
ENDBRANCH  36  37
ENDBRANCH  35  36
ENDBRANCH  34  35
ENDBRANCH  33  34
ENDBRANCH   1  33
TORSDOF 24
ENDMDL
MODEL 3
REMARK VINA RESULT:      -8.1      6.949     12.951
REMARK SMILES N#C/C(=C\c1ccc(-c2ccc(C(=O)OCCOCCOCCOC(=O)c3ccc(-c4c5nc(c(-c6cccc(S(=O)(=O)[O-])c6F)c6ccc([nH]6)c(-c6cccc(S(=O)(=O)[O-])c6F)c6nc(c(-c7cccc(S(=O)(=O)[O-])c7F)c7ccc4[nH]7)C=C6)C=C5)cc3)cc2)o1)[C@@H]1N=c2cc(Br)cnc2=N1
REMARK SMILES IDX 19 1 18 2 17 3 16 4 15 5 13 6 14 7 12 8 9 9 10 10 91 11
REMARK SMILES IDX 11 12 90 13 8 14 5 15 6 16 92 17 7 18 4 19 3 20 2 21 1 22
REMARK SMILES IDX 93 23 94 24 102 25 95 26 101 27 96 28 100 29 97 30 99 31
REMARK SMILES IDX 98 32 20 33 21 34 22 35 23 36 24 37 25 38 26 39 27 40 28 41
REMARK SMILES IDX 89 42 29 43 88 44 30 45 31 46 32 47 82 48 33 49 87 50 81 51
REMARK SMILES IDX 83 52 34 53 86 54 80 55 79 56 35 58 67 59 47 60 66 61 48 62
REMARK SMILES IDX 51 63 65 64 84 65 49 66 50 67 64 69 85 70 52 71 36 72 37 73
REMARK SMILES IDX 45 74 38 75 40 76 46 77 39 78 41 79 42 80 43 81 44 82 68 83
REMARK SMILES IDX 69 84 77 85 70 86 72 87 78 88 71 89 73 90 74 91 75 92 76 93
REMARK SMILES IDX 53 94 54 95 62 96 55 97 57 98 63 99 56 100 58 101 59 102
REMARK SMILES IDX 60 103 61 104
REMARK H PARENT 83 57 51 68
REMARK Flexibility Score: inf
ROOT
ATOM      1  C   UNL A   1      41.487  27.716  29.404  1.00  0.00     0.188 C 
ENDROOT
BRANCH   1   2
ATOM      2  O   UNL A   1      41.442  28.281  30.691  1.00  0.00    -0.376 OA
BRANCH   2   3
ATOM      3  C   UNL A   1      40.258  28.896  31.165  1.00  0.00     0.202 C 
BRANCH   3   4
ATOM      4  C   UNL A   1      39.878  30.381  30.992  1.00  0.00     0.261 C 
BRANCH   4   5
ATOM      5  O   UNL A   1      39.504  30.836  29.688  1.00  0.00    -0.460 OA
BRANCH   5   6
ATOM      6  C   UNL A   1      38.519  31.765  29.645  1.00  0.00     0.338 C 
ATOM      7  O   UNL A   1      38.565  32.901  30.099  1.00  0.00    -0.246 OA
BRANCH   6   8
ATOM      8  C   UNL A   1      37.385  31.265  28.834  1.00  0.00     0.060 A 
ATOM      9  C   UNL A   1      35.086  30.337  27.511  1.00  0.00     0.017 A 
ATOM     10  C   UNL A   1      35.233  31.700  27.786  1.00  0.00     0.013 A 
ATOM     11  C   UNL A   1      36.148  29.463  27.814  1.00  0.00     0.013 A 
ATOM     12  C   UNL A   1      36.374  32.160  28.461  1.00  0.00     0.016 A 
ATOM     13  C   UNL A   1      37.297  29.921  28.467  1.00  0.00     0.016 A 
BRANCH   9  14
ATOM     14  C   UNL A   1      33.784  29.772  27.178  1.00  0.00     0.134 A 
ATOM     15  C   UNL A   1      32.342  28.208  26.502  1.00  0.00     0.128 A 
ATOM     16  C   UNL A   1      31.645  29.399  26.709  1.00  0.00     0.051 A 
ATOM     17  O   UNL A   1      33.673  28.456  26.823  1.00  0.00    -0.457 OA
ATOM     18  C   UNL A   1      32.557  30.386  27.115  1.00  0.00     0.051 A 
BRANCH  15  19
ATOM     19  C   UNL A   1      31.807  26.932  26.109  1.00  0.00     0.066 C 
ATOM     20  C   UNL A   1      31.599  26.561  24.813  1.00  0.00     0.080 C 
BRANCH  20  21
ATOM     21  C   UNL A   1      32.200  27.485  23.768  1.00  0.00     0.099 C 
ATOM     22  N   UNL A   1      32.699  28.253  22.900  1.00  0.00    -0.193 NA
ENDBRANCH  20  21
BRANCH  20  23
ATOM     23  C   UNL A   1      30.755  25.381  24.418  1.00  0.00     0.265 C 
ATOM     24  N   UNL A   1      30.759  24.387  25.548  1.00  0.00    -0.249 NA
ATOM     25  N   UNL A   1      31.276  24.751  23.185  1.00  0.00    -0.232 NA
ATOM     26  C   UNL A   1      31.324  23.366  25.007  1.00  0.00     0.106 A 
ATOM     27  C   UNL A   1      31.592  23.562  23.566  1.00  0.00     0.175 A 
ATOM     28  C   UNL A   1      31.755  22.110  25.616  1.00  0.00     0.049 A 
ATOM     29  N   UNL A   1      32.111  22.609  22.745  1.00  0.00    -0.234 NA
ATOM     30  C   UNL A   1      32.335  21.212  24.808  1.00  0.00     0.038 A 
ATOM     31  C   UNL A   1      32.458  21.512  23.345  1.00  0.00     0.129 A 
ATOM     32  Br  UNL A   1      33.002  19.590  25.425  1.00  0.00    -0.049 Br
ENDBRANCH  20  23
ENDBRANCH  15  19
ENDBRANCH   9  14
ENDBRANCH   6   8
ENDBRANCH   5   6
ENDBRANCH   4   5
ENDBRANCH   3   4
ENDBRANCH   2   3
ENDBRANCH   1   2
BRANCH   1  33
ATOM     33  C   UNL A   1      40.189  26.998  28.974  1.00  0.00     0.188 C 
BRANCH  33  34
ATOM     34  O   UNL A   1      39.983  26.640  27.616  1.00  0.00    -0.376 OA
BRANCH  34  35
ATOM     35  C   UNL A   1      40.085  25.276  27.234  1.00  0.00     0.202 C 
BRANCH  35  36
ATOM     36  C   UNL A   1      41.390  24.469  27.383  1.00  0.00     0.261 C 
BRANCH  36  37
ATOM     37  O   UNL A   1      42.378  24.637  26.358  1.00  0.00    -0.460 OA
BRANCH  37  38
ATOM     38  C   UNL A   1      43.587  24.077  26.607  1.00  0.00     0.338 C 
ATOM     39  O   UNL A   1      43.835  22.889  26.754  1.00  0.00    -0.246 OA
BRANCH  38  40
ATOM     40  C   UNL A   1      44.631  25.112  26.504  1.00  0.00     0.060 A 
ATOM     41  C   UNL A   1      45.260  25.562  27.675  1.00  0.00     0.016 A 
ATOM     42  C   UNL A   1      44.963  25.664  25.266  1.00  0.00     0.016 A 
ATOM     43  C   UNL A   1      46.220  26.570  27.613  1.00  0.00     0.010 A 
ATOM     44  C   UNL A   1      45.905  26.694  25.210  1.00  0.00     0.010 A 
ATOM     45  C   UNL A   1      46.521  27.167  26.384  1.00  0.00    -0.014 A 
BRANCH  45  46
ATOM     46  C   UNL A   1      47.364  28.385  26.336  1.00  0.00     0.031 A 
ATOM     47  C   UNL A   1      46.699  29.728  26.451  1.00  0.00     0.074 A 
ATOM     48  C   UNL A   1      48.695  28.301  26.162  1.00  0.00     0.049 A 
ATOM     49  N   UNL A   1      47.219  30.923  26.350  1.00  0.00    -0.248 NA
ATOM     50  C   UNL A   1      45.249  29.723  26.708  1.00  0.00     0.031 C 
ATOM     51  C   UNL A   1      49.455  27.058  26.050  1.00  0.00     0.029 A 
ATOM     52  N   UNL A   1      49.636  29.290  26.014  1.00  0.00    -0.354 N 
ATOM     53  C   UNL A   1      46.160  31.810  26.491  1.00  0.00     0.074 A 
ATOM     54  C   UNL A   1      44.965  31.016  26.683  1.00  0.00     0.031 C 
ATOM     55  C   UNL A   1      50.743  27.359  25.807  1.00  0.00     0.029 A 
ATOM     56  C   UNL A   1      50.890  28.811  25.717  1.00  0.00     0.049 A 
ATOM     57  H   UNL A   1      49.433  30.249  26.111  1.00  0.00     0.167 HD
ATOM     58  C   UNL A   1      46.181  33.163  26.468  1.00  0.00     0.034 A 
ATOM     59  C   UNL A   1      52.016  29.468  25.372  1.00  0.00     0.034 A 
ATOM     60  C   UNL A   1      47.371  33.948  26.286  1.00  0.00     0.049 A 
ATOM     61  C   UNL A   1      52.005  30.975  25.319  1.00  0.00     0.074 A 
ATOM     62  C   UNL A   1      47.502  35.326  26.304  1.00  0.00     0.029 A 
ATOM     63  N   UNL A   1      48.630  33.431  26.030  1.00  0.00    -0.354 N 
ATOM     64  N   UNL A   1      51.022  31.804  25.572  1.00  0.00    -0.248 NA
ATOM     65  C   UNL A   1      53.268  31.638  24.958  1.00  0.00     0.031 C 
ATOM     66  C   UNL A   1      48.833  35.642  26.016  1.00  0.00     0.029 A 
ATOM     67  C   UNL A   1      49.541  34.460  25.865  1.00  0.00     0.049 A 
ATOM     68  H   UNL A   1      48.846  32.471  25.975  1.00  0.00     0.167 HD
ATOM     69  C   UNL A   1      51.556  33.084  25.438  1.00  0.00     0.074 A 
ATOM     70  C   UNL A   1      52.954  32.918  25.099  1.00  0.00     0.031 C 
ATOM     71  C   UNL A   1      50.941  34.285  25.575  1.00  0.00     0.034 A 
BRANCH  58  72
ATOM     72  C   UNL A   1      44.872  33.886  26.649  1.00  0.00     0.023 A 
ATOM     73  C   UNL A   1      44.172  34.364  25.523  1.00  0.00     0.012 A 
ATOM     74  C   UNL A   1      44.311  34.044  27.931  1.00  0.00     0.148 A 
ATOM     75  C   UNL A   1      42.950  35.019  25.672  1.00  0.00     0.002 A 
ATOM     76  C   UNL A   1      43.070  34.654  28.068  1.00  0.00     0.091 A 
ATOM     77  F   UNL A   1      45.002  33.603  28.991  1.00  0.00    -0.205 F 
ATOM     78  C   UNL A   1      42.394  35.152  26.942  1.00  0.00     0.022 A 
BRANCH  76  79
ATOM     79  S   UNL A   1      42.232  34.803  29.650  1.00  0.00     0.127 S 
ATOM     80  O   UNL A   1      40.902  35.247  29.238  1.00  0.00    -0.237 OA
ATOM     81  O   UNL A   1      42.287  33.431  30.155  1.00  0.00    -0.237 OA
ATOM     82  O   UNL A   1      43.001  35.767  30.424  1.00  0.00    -0.744 OA
ENDBRANCH  76  79
ENDBRANCH  58  72
BRANCH  59  83
ATOM     83  C   UNL A   1      53.258  28.706  25.060  1.00  0.00     0.023 A 
ATOM     84  C   UNL A   1      54.026  28.163  26.107  1.00  0.00     0.012 A 
ATOM     85  C   UNL A   1      53.678  28.511  23.728  1.00  0.00     0.148 A 
ATOM     86  C   UNL A   1      55.207  27.469  25.837  1.00  0.00     0.002 A 
ATOM     87  C   UNL A   1      54.824  27.771  23.464  1.00  0.00     0.091 A 
ATOM     88  F   UNL A   1      52.941  29.050  22.746  1.00  0.00    -0.205 F 
ATOM     89  C   UNL A   1      55.600  27.264  24.518  1.00  0.00     0.022 A 
BRANCH  87  90
ATOM     90  S   UNL A   1      55.342  27.356  21.795  1.00  0.00     0.127 S 
ATOM     91  O   UNL A   1      55.455  28.677  21.180  1.00  0.00    -0.237 OA
ATOM     92  O   UNL A   1      56.617  26.679  22.037  1.00  0.00    -0.237 OA
ATOM     93  O   UNL A   1      54.295  26.498  21.258  1.00  0.00    -0.744 OA
ENDBRANCH  87  90
ENDBRANCH  59  83
BRANCH  71  94
ATOM     94  C   UNL A   1      51.776  35.529  25.401  1.00  0.00     0.023 A 
ATOM     95  C   UNL A   1      52.001  36.056  24.114  1.00  0.00     0.012 A 
ATOM     96  C   UNL A   1      52.264  36.226  26.527  1.00  0.00     0.148 A 
ATOM     97  C   UNL A   1      52.724  37.237  23.947  1.00  0.00     0.002 A 
ATOM     98  C   UNL A   1      52.938  37.429  26.357  1.00  0.00     0.091 A 
ATOM     99  F   UNL A   1      52.051  35.702  27.743  1.00  0.00    -0.205 F 
ATOM    100  C   UNL A   1      53.180  37.929  25.067  1.00  0.00     0.022 A 
BRANCH  98 101
ATOM    101  S   UNL A   1      53.473  38.441  27.740  1.00  0.00     0.127 S 
ATOM    102  O   UNL A   1      54.457  39.317  27.106  1.00  0.00    -0.237 OA
ATOM    103  O   UNL A   1      52.231  39.106  28.136  1.00  0.00    -0.237 OA
ATOM    104  O   UNL A   1      54.009  37.519  28.733  1.00  0.00    -0.744 OA
ENDBRANCH  98 101
ENDBRANCH  71  94
ENDBRANCH  45  46
ENDBRANCH  38  40
ENDBRANCH  37  38
ENDBRANCH  36  37
ENDBRANCH  35  36
ENDBRANCH  34  35
ENDBRANCH  33  34
ENDBRANCH   1  33
TORSDOF 24
ENDMDL
