MODEL 1
REMARK VINA RESULT:      -9.3      0.000      0.000
REMARK SMILES O=C(OCCOCCOCCOC(=O)[C@H]1CC[C@@H](CNc2cccc(F)c2[N+](=O)[O-])O1)c1ccc(-c2c3nc(c(-c4cccc(S(=O)(=O)[O-])c4F)c4ccc([nH]4)c(-c4cccc(S(=O)(=O)[O-])c4F)c4nc(c(-c5cccc(S(=O)(=O)[O-])c5F)c5ccc2[nH]5)C=C4)C=C3)cc1
REMARK SMILES IDX 8 1 7 2 6 3 5 4 4 5 3 6 2 7 1 8 32 9 33 10 94 11 34 12 93 13
REMARK SMILES IDX 35 14 36 15 37 16 87 17 38 18 92 19 86 20 88 21 39 22 91 23
REMARK SMILES IDX 85 24 84 25 40 27 72 28 52 29 71 30 53 31 56 32 70 33 89 34
REMARK SMILES IDX 54 35 55 36 69 38 90 39 57 40 41 41 42 42 50 43 43 44 45 45
REMARK SMILES IDX 51 46 44 47 46 48 47 49 48 50 49 51 73 52 74 53 82 54 75 55
REMARK SMILES IDX 77 56 83 57 76 58 78 59 79 60 80 61 81 62 58 63 59 64 67 65
REMARK SMILES IDX 60 66 62 67 68 68 61 69 63 70 64 71 65 72 66 73 9 74 10 75
REMARK SMILES IDX 11 76 12 77 13 78 14 79 15 80 16 81 31 82 17 83 18 84 19 85
REMARK SMILES IDX 20 86 21 88 22 89 27 90 23 91 25 92 24 93 26 94 28 95 29 96
REMARK SMILES IDX 30 97
REMARK H PARENT 88 26 56 37 20 87
REMARK Flexibility Score: inf
ROOT
ATOM      1  C   UNL A   1      38.032  21.631  25.689  1.00  0.00     0.188 C 
ENDROOT
BRANCH   1   2
ATOM      2  C   UNL A   1      37.822  20.298  24.968  1.00  0.00     0.188 C 
BRANCH   2   3
ATOM      3  O   UNL A   1      38.906  19.375  25.106  1.00  0.00    -0.376 OA
BRANCH   3   4
ATOM      4  C   UNL A   1      39.887  19.751  26.082  1.00  0.00     0.202 C 
BRANCH   4   5
ATOM      5  C   UNL A   1      41.102  18.816  26.246  1.00  0.00     0.261 C 
BRANCH   5   6
ATOM      6  O   UNL A   1      42.190  19.096  25.348  1.00  0.00    -0.460 OA
BRANCH   6   7
ATOM      7  C   UNL A   1      43.240  19.942  25.513  1.00  0.00     0.338 C 
ATOM      8  O   UNL A   1      44.368  19.522  25.262  1.00  0.00    -0.246 OA
BRANCH   7   9
ATOM      9  C   UNL A   1      43.101  21.349  26.000  1.00  0.00     0.060 A 
ATOM     10  C   UNL A   1      42.937  22.459  25.177  1.00  0.00     0.016 A 
ATOM     11  C   UNL A   1      43.105  21.566  27.390  1.00  0.00     0.016 A 
ATOM     12  C   UNL A   1      42.935  23.746  25.679  1.00  0.00     0.010 A 
ATOM     13  C   UNL A   1      43.048  22.862  27.917  1.00  0.00     0.010 A 
ATOM     14  C   UNL A   1      43.029  23.958  27.049  1.00  0.00    -0.014 A 
BRANCH  14  15
ATOM     15  C   UNL A   1      43.317  25.338  27.476  1.00  0.00     0.031 A 
ATOM     16  C   UNL A   1      44.659  25.901  27.137  1.00  0.00     0.074 A 
ATOM     17  C   UNL A   1      42.322  26.114  27.942  1.00  0.00     0.049 A 
ATOM     18  N   UNL A   1      45.109  27.108  27.328  1.00  0.00    -0.248 NA
ATOM     19  C   UNL A   1      45.616  24.999  26.468  1.00  0.00     0.031 C 
ATOM     20  C   UNL A   1      40.957  25.647  28.167  1.00  0.00     0.029 A 
ATOM     21  N   UNL A   1      42.274  27.441  28.269  1.00  0.00    -0.354 N 
ATOM     22  C   UNL A   1      46.411  27.096  26.851  1.00  0.00     0.074 A 
ATOM     23  C   UNL A   1      46.683  25.771  26.351  1.00  0.00     0.031 C 
ATOM     24  C   UNL A   1      40.194  26.672  28.570  1.00  0.00     0.029 A 
ATOM     25  C   UNL A   1      41.037  27.852  28.710  1.00  0.00     0.049 A 
ATOM     26  H   UNL A   1      43.050  28.043  28.197  1.00  0.00     0.167 HD
ATOM     27  C   UNL A   1      47.293  28.116  26.836  1.00  0.00     0.034 A 
ATOM     28  C   UNL A   1      40.646  29.042  29.207  1.00  0.00     0.034 A 
ATOM     29  C   UNL A   1      46.979  29.425  27.323  1.00  0.00     0.049 A 
ATOM     30  C   UNL A   1      41.681  30.134  29.261  1.00  0.00     0.074 A 
ATOM     31  C   UNL A   1      47.800  30.532  27.396  1.00  0.00     0.029 A 
ATOM     32  N   UNL A   1      45.741  29.798  27.829  1.00  0.00    -0.354 N 
ATOM     33  N   UNL A   1      42.911  30.117  28.801  1.00  0.00    -0.248 NA
ATOM     34  C   UNL A   1      41.290  31.402  29.887  1.00  0.00     0.031 C 
ATOM     35  C   UNL A   1      47.069  31.565  27.986  1.00  0.00     0.029 A 
ATOM     36  C   UNL A   1      45.780  31.116  28.238  1.00  0.00     0.049 A 
ATOM     37  H   UNL A   1      44.953  29.210  27.887  1.00  0.00     0.167 HD
ATOM     38  C   UNL A   1      43.437  31.372  29.067  1.00  0.00     0.074 A 
ATOM     39  C   UNL A   1      42.382  32.136  29.704  1.00  0.00     0.031 C 
ATOM     40  C   UNL A   1      44.684  31.847  28.825  1.00  0.00     0.034 A 
BRANCH  27  41
ATOM     41  C   UNL A   1      48.673  27.833  26.318  1.00  0.00     0.023 A 
ATOM     42  C   UNL A   1      49.718  27.514  27.209  1.00  0.00     0.012 A 
ATOM     43  C   UNL A   1      48.924  27.860  24.933  1.00  0.00     0.148 A 
ATOM     44  C   UNL A   1      50.998  27.246  26.726  1.00  0.00     0.002 A 
ATOM     45  C   UNL A   1      50.188  27.545  24.458  1.00  0.00     0.091 A 
ATOM     46  F   UNL A   1      47.921  28.200  24.111  1.00  0.00    -0.205 F 
ATOM     47  C   UNL A   1      51.230  27.249  25.353  1.00  0.00     0.022 A 
BRANCH  45  48
ATOM     48  S   UNL A   1      50.570  27.454  22.706  1.00  0.00     0.127 S 
ATOM     49  O   UNL A   1      50.568  28.867  22.330  1.00  0.00    -0.237 OA
ATOM     50  O   UNL A   1      51.891  26.827  22.719  1.00  0.00    -0.237 OA
ATOM     51  O   UNL A   1      49.514  26.655  22.102  1.00  0.00    -0.744 OA
ENDBRANCH  45  48
ENDBRANCH  27  41
BRANCH  28  52
ATOM     52  C   UNL A   1      39.249  29.236  29.697  1.00  0.00     0.023 A 
ATOM     53  C   UNL A   1      38.910  28.911  31.024  1.00  0.00     0.012 A 
ATOM     54  C   UNL A   1      38.256  29.793  28.861  1.00  0.00     0.148 A 
ATOM     55  C   UNL A   1      37.612  29.118  31.500  1.00  0.00     0.002 A 
ATOM     56  C   UNL A   1      36.988  30.063  29.361  1.00  0.00     0.091 A 
ATOM     57  F   UNL A   1      38.586  30.077  27.593  1.00  0.00    -0.205 F 
ATOM     58  C   UNL A   1      36.655  29.704  30.674  1.00  0.00     0.022 A 
BRANCH  56  59
ATOM     59  S   UNL A   1      35.741  30.947  28.411  1.00  0.00     0.127 S 
ATOM     60  O   UNL A   1      36.503  32.104  27.938  1.00  0.00    -0.237 OA
ATOM     61  O   UNL A   1      35.399  29.966  27.377  1.00  0.00    -0.237 OA
ATOM     62  O   UNL A   1      34.670  31.236  29.346  1.00  0.00    -0.744 OA
ENDBRANCH  56  59
ENDBRANCH  28  52
BRANCH  40  63
ATOM     63  C   UNL A   1      44.980  33.264  29.229  1.00  0.00     0.023 A 
ATOM     64  C   UNL A   1      45.481  33.527  30.518  1.00  0.00     0.012 A 
ATOM     65  C   UNL A   1      44.924  34.294  28.272  1.00  0.00     0.148 A 
ATOM     66  C   UNL A   1      45.920  34.806  30.850  1.00  0.00     0.002 A 
ATOM     67  C   UNL A   1      45.418  35.550  28.592  1.00  0.00     0.091 A 
ATOM     68  F   UNL A   1      44.431  34.012  27.057  1.00  0.00    -0.205 F 
ATOM     69  C   UNL A   1      45.907  35.810  29.884  1.00  0.00     0.022 A 
BRANCH  67  70
ATOM     70  S   UNL A   1      45.561  36.865  27.379  1.00  0.00     0.127 S 
ATOM     71  O   UNL A   1      46.221  36.176  26.272  1.00  0.00    -0.237 OA
ATOM     72  O   UNL A   1      44.160  37.213  27.138  1.00  0.00    -0.237 OA
ATOM     73  O   UNL A   1      46.348  37.916  28.011  1.00  0.00    -0.744 OA
ENDBRANCH  67  70
ENDBRANCH  40  63
ENDBRANCH  14  15
ENDBRANCH   7   9
ENDBRANCH   6   7
ENDBRANCH   5   6
ENDBRANCH   4   5
ENDBRANCH   3   4
ENDBRANCH   2   3
ENDBRANCH   1   2
BRANCH   1  74
ATOM     74  O   UNL A   1      37.627  22.816  25.007  1.00  0.00    -0.376 OA
BRANCH  74  75
ATOM     75  C   UNL A   1      37.193  23.921  25.792  1.00  0.00     0.202 C 
BRANCH  75  76
ATOM     76  C   UNL A   1      35.703  24.027  26.151  1.00  0.00     0.261 C 
BRANCH  76  77
ATOM     77  O   UNL A   1      34.813  23.872  25.039  1.00  0.00    -0.461 OA
BRANCH  77  78
ATOM     78  C   UNL A   1      33.921  22.847  25.161  1.00  0.00     0.335 C 
ATOM     79  O   UNL A   1      33.224  22.656  26.152  1.00  0.00    -0.249 OA
BRANCH  78  80
ATOM     80  C   UNL A   1      33.865  22.004  23.877  1.00  0.00     0.228 C 
ATOM     81  C   UNL A   1      32.501  21.408  23.634  1.00  0.00     0.047 C 
ATOM     82  O   UNL A   1      34.083  22.828  22.722  1.00  0.00    -0.361 OA
ATOM     83  C   UNL A   1      31.731  22.598  23.115  1.00  0.00     0.037 C 
ATOM     84  C   UNL A   1      32.793  23.356  22.312  1.00  0.00     0.138 C 
BRANCH  84  85
ATOM     85  C   UNL A   1      32.783  24.880  22.559  1.00  0.00     0.145 C 
BRANCH  85  86
ATOM     86  N   UNL A   1      31.786  25.249  23.563  1.00  0.00    -0.377 N 
ATOM     87  H   UNL A   1      31.378  24.557  24.130  1.00  0.00     0.160 HD
BRANCH  86  88
ATOM     88  C   UNL A   1      31.418  26.586  23.717  1.00  0.00     0.116 A 
ATOM     89  C   UNL A   1      30.688  27.209  22.683  1.00  0.00     0.033 A 
ATOM     90  C   UNL A   1      31.727  27.359  24.863  1.00  0.00     0.327 A 
ATOM     91  C   UNL A   1      30.305  28.548  22.753  1.00  0.00     0.006 A 
ATOM     92  C   UNL A   1      31.351  28.704  24.921  1.00  0.00     0.202 A 
ATOM     93  C   UNL A   1      30.648  29.296  23.870  1.00  0.00     0.047 A 
ATOM     94  F   UNL A   1      31.611  29.479  25.984  1.00  0.00    -0.199 F 
BRANCH  90  95
ATOM     95  N   UNL A   1      32.357  26.754  26.041  1.00  0.00     0.068 N 
ATOM     96  O   UNL A   1      33.574  26.939  26.215  1.00  0.00    -0.258 OA
ATOM     97  O   UNL A   1      31.686  25.961  26.719  1.00  0.00    -0.258 OA
ENDBRANCH  90  95
ENDBRANCH  86  88
ENDBRANCH  85  86
ENDBRANCH  84  85
ENDBRANCH  78  80
ENDBRANCH  77  78
ENDBRANCH  76  77
ENDBRANCH  75  76
ENDBRANCH  74  75
ENDBRANCH   1  74
TORSDOF 24
ENDMDL
MODEL 2
REMARK VINA RESULT:      -8.8      1.893      2.172
REMARK SMILES O=C(OCCOCCOCCOC(=O)[C@H]1CC[C@@H](CNc2cccc(F)c2[N+](=O)[O-])O1)c1ccc(-c2c3nc(c(-c4cccc(S(=O)(=O)[O-])c4F)c4ccc([nH]4)c(-c4cccc(S(=O)(=O)[O-])c4F)c4nc(c(-c5cccc(S(=O)(=O)[O-])c5F)c5ccc2[nH]5)C=C4)C=C3)cc1
REMARK SMILES IDX 8 1 7 2 6 3 5 4 4 5 3 6 2 7 1 8 32 9 33 10 94 11 34 12 93 13
REMARK SMILES IDX 35 14 36 15 37 16 87 17 38 18 92 19 86 20 88 21 39 22 91 23
REMARK SMILES IDX 85 24 84 25 40 27 72 28 52 29 71 30 53 31 56 32 70 33 89 34
REMARK SMILES IDX 54 35 55 36 69 38 90 39 57 40 41 41 42 42 50 43 43 44 45 45
REMARK SMILES IDX 51 46 44 47 46 48 47 49 48 50 49 51 73 52 74 53 82 54 75 55
REMARK SMILES IDX 77 56 83 57 76 58 78 59 79 60 80 61 81 62 58 63 59 64 67 65
REMARK SMILES IDX 60 66 62 67 68 68 61 69 63 70 64 71 65 72 66 73 9 74 10 75
REMARK SMILES IDX 11 76 12 77 13 78 14 79 15 80 16 81 31 82 17 83 18 84 19 85
REMARK SMILES IDX 20 86 21 88 22 89 27 90 23 91 25 92 24 93 26 94 28 95 29 96
REMARK SMILES IDX 30 97
REMARK H PARENT 88 26 56 37 20 87
REMARK Flexibility Score: inf
ROOT
ATOM      1  C   UNL A   1      38.601  21.504  25.801  1.00  0.00     0.188 C 
ENDROOT
BRANCH   1   2
ATOM      2  C   UNL A   1      38.320  20.089  25.291  1.00  0.00     0.188 C 
BRANCH   2   3
ATOM      3  O   UNL A   1      39.444  19.207  25.350  1.00  0.00    -0.376 OA
BRANCH   3   4
ATOM      4  C   UNL A   1      40.444  19.580  26.307  1.00  0.00     0.202 C 
BRANCH   4   5
ATOM      5  C   UNL A   1      41.829  18.917  26.165  1.00  0.00     0.261 C 
BRANCH   5   6
ATOM      6  O   UNL A   1      42.615  19.417  25.068  1.00  0.00    -0.460 OA
BRANCH   6   7
ATOM      7  C   UNL A   1      43.547  20.405  25.065  1.00  0.00     0.338 C 
ATOM      8  O   UNL A   1      44.628  20.181  24.522  1.00  0.00    -0.246 OA
BRANCH   7   9
ATOM      9  C   UNL A   1      43.338  21.744  25.698  1.00  0.00     0.060 A 
ATOM     10  C   UNL A   1      43.084  22.920  24.999  1.00  0.00     0.016 A 
ATOM     11  C   UNL A   1      43.369  21.816  27.103  1.00  0.00     0.016 A 
ATOM     12  C   UNL A   1      43.020  24.146  25.632  1.00  0.00     0.010 A 
ATOM     13  C   UNL A   1      43.250  23.046  27.763  1.00  0.00     0.010 A 
ATOM     14  C   UNL A   1      43.140  24.221  27.014  1.00  0.00    -0.014 A 
BRANCH  14  15
ATOM     15  C   UNL A   1      43.357  25.566  27.576  1.00  0.00     0.031 A 
ATOM     16  C   UNL A   1      44.717  26.166  27.429  1.00  0.00     0.074 A 
ATOM     17  C   UNL A   1      42.305  26.293  27.992  1.00  0.00     0.049 A 
ATOM     18  N   UNL A   1      45.123  27.358  27.760  1.00  0.00    -0.248 NA
ATOM     19  C   UNL A   1      45.756  25.329  26.798  1.00  0.00     0.031 C 
ATOM     20  C   UNL A   1      40.932  25.798  28.031  1.00  0.00     0.029 A 
ATOM     21  N   UNL A   1      42.199  27.590  28.414  1.00  0.00    -0.354 N 
ATOM     22  C   UNL A   1      46.468  27.396  27.426  1.00  0.00     0.074 A 
ATOM     23  C   UNL A   1      46.816  26.117  26.857  1.00  0.00     0.031 C 
ATOM     24  C   UNL A   1      40.112  26.781  28.429  1.00  0.00     0.029 A 
ATOM     25  C   UNL A   1      40.914  27.954  28.750  1.00  0.00     0.049 A 
ATOM     26  H   UNL A   1      42.967  28.203  28.472  1.00  0.00     0.167 HD
ATOM     27  C   UNL A   1      47.330  28.422  27.585  1.00  0.00     0.034 A 
ATOM     28  C   UNL A   1      40.453  29.097  29.294  1.00  0.00     0.034 A 
ATOM     29  C   UNL A   1      46.942  29.685  28.136  1.00  0.00     0.049 A 
ATOM     30  C   UNL A   1      41.456  30.191  29.543  1.00  0.00     0.074 A 
ATOM     31  C   UNL A   1      47.732  30.790  28.383  1.00  0.00     0.029 A 
ATOM     32  N   UNL A   1      45.651  30.006  28.534  1.00  0.00    -0.354 N 
ATOM     33  N   UNL A   1      42.729  30.221  29.218  1.00  0.00    -0.248 NA
ATOM     34  C   UNL A   1      40.979  31.402  30.220  1.00  0.00     0.031 C 
ATOM     35  C   UNL A   1      46.924  31.767  28.970  1.00  0.00     0.029 A 
ATOM     36  C   UNL A   1      45.623  31.288  29.046  1.00  0.00     0.049 A 
ATOM     37  H   UNL A   1      44.872  29.408  28.461  1.00  0.00     0.167 HD
ATOM     38  C   UNL A   1      43.202  31.455  29.636  1.00  0.00     0.074 A 
ATOM     39  C   UNL A   1      42.071  32.157  30.213  1.00  0.00     0.031 C 
ATOM     40  C   UNL A   1      44.458  31.960  29.567  1.00  0.00     0.034 A 
BRANCH  27  41
ATOM     41  C   UNL A   1      48.761  28.193  27.198  1.00  0.00     0.023 A 
ATOM     42  C   UNL A   1      49.750  28.029  28.189  1.00  0.00     0.012 A 
ATOM     43  C   UNL A   1      49.119  28.116  25.839  1.00  0.00     0.148 A 
ATOM     44  C   UNL A   1      51.080  27.810  27.829  1.00  0.00     0.002 A 
ATOM     45  C   UNL A   1      50.434  27.851  25.490  1.00  0.00     0.091 A 
ATOM     46  F   UNL A   1      48.164  28.311  24.918  1.00  0.00    -0.205 F 
ATOM     47  C   UNL A   1      51.419  27.710  26.482  1.00  0.00     0.022 A 
BRANCH  45  48
ATOM     48  S   UNL A   1      50.959  27.634  23.786  1.00  0.00     0.127 S 
ATOM     49  O   UNL A   1      52.291  27.056  23.958  1.00  0.00    -0.237 OA
ATOM     50  O   UNL A   1      49.951  26.705  23.278  1.00  0.00    -0.237 OA
ATOM     51  O   UNL A   1      50.936  28.959  23.183  1.00  0.00    -0.744 OA
ENDBRANCH  45  48
ENDBRANCH  27  41
BRANCH  28  52
ATOM     52  C   UNL A   1      39.008  29.239  29.644  1.00  0.00     0.023 A 
ATOM     53  C   UNL A   1      38.548  28.872  30.922  1.00  0.00     0.012 A 
ATOM     54  C   UNL A   1      38.088  29.788  28.724  1.00  0.00     0.148 A 
ATOM     55  C   UNL A   1      37.203  29.029  31.269  1.00  0.00     0.002 A 
ATOM     56  C   UNL A   1      36.768  30.009  29.100  1.00  0.00     0.091 A 
ATOM     57  F   UNL A   1      38.534  30.113  27.503  1.00  0.00    -0.205 F 
ATOM     58  C   UNL A   1      36.316  29.609  30.364  1.00  0.00     0.022 A 
BRANCH  56  59
ATOM     59  S   UNL A   1      35.596  30.881  28.048  1.00  0.00     0.127 S 
ATOM     60  O   UNL A   1      36.391  32.032  27.620  1.00  0.00    -0.237 OA
ATOM     61  O   UNL A   1      35.332  29.887  27.004  1.00  0.00    -0.237 OA
ATOM     62  O   UNL A   1      34.458  31.181  28.897  1.00  0.00    -0.744 OA
ENDBRANCH  56  59
ENDBRANCH  28  52
BRANCH  40  63
ATOM     63  C   UNL A   1      44.686  33.342  30.110  1.00  0.00     0.023 A 
ATOM     64  C   UNL A   1      44.498  34.457  29.272  1.00  0.00     0.012 A 
ATOM     65  C   UNL A   1      44.914  33.528  31.487  1.00  0.00     0.148 A 
ATOM     66  C   UNL A   1      44.537  35.745  29.800  1.00  0.00     0.002 A 
ATOM     67  C   UNL A   1      44.893  34.810  32.014  1.00  0.00     0.091 A 
ATOM     68  F   UNL A   1      45.100  32.445  32.255  1.00  0.00    -0.205 F 
ATOM     69  C   UNL A   1      44.715  35.920  31.171  1.00  0.00     0.022 A 
BRANCH  67  70
ATOM     70  S   UNL A   1      44.984  35.125  33.779  1.00  0.00     0.127 S 
ATOM     71  O   UNL A   1      44.860  36.581  33.826  1.00  0.00    -0.237 OA
ATOM     72  O   UNL A   1      43.821  34.394  34.281  1.00  0.00    -0.237 OA
ATOM     73  O   UNL A   1      46.270  34.600  34.219  1.00  0.00    -0.744 OA
ENDBRANCH  67  70
ENDBRANCH  40  63
ENDBRANCH  14  15
ENDBRANCH   7   9
ENDBRANCH   6   7
ENDBRANCH   5   6
ENDBRANCH   4   5
ENDBRANCH   3   4
ENDBRANCH   2   3
ENDBRANCH   1   2
BRANCH   1  74
ATOM     74  O   UNL A   1      38.083  22.591  25.039  1.00  0.00    -0.376 OA
BRANCH  74  75
ATOM     75  C   UNL A   1      37.504  23.684  25.743  1.00  0.00     0.202 C 
BRANCH  75  76
ATOM     76  C   UNL A   1      36.017  23.608  26.121  1.00  0.00     0.261 C 
BRANCH  76  77
ATOM     77  O   UNL A   1      35.176  23.038  25.110  1.00  0.00    -0.461 OA
BRANCH  77  78
ATOM     78  C   UNL A   1      34.610  21.844  25.446  1.00  0.00     0.335 C 
ATOM     79  O   UNL A   1      34.673  21.343  26.564  1.00  0.00    -0.249 OA
BRANCH  78  80
ATOM     80  C   UNL A   1      33.837  21.243  24.261  1.00  0.00     0.228 C 
ATOM     81  C   UNL A   1      32.681  20.380  24.701  1.00  0.00     0.047 C 
ATOM     82  O   UNL A   1      33.210  22.278  23.490  1.00  0.00    -0.361 OA
ATOM     83  C   UNL A   1      31.654  21.415  25.094  1.00  0.00     0.037 C 
ATOM     84  C   UNL A   1      31.907  22.535  24.079  1.00  0.00     0.138 C 
BRANCH  84  85
ATOM     85  C   UNL A   1      31.919  23.946  24.707  1.00  0.00     0.145 C 
BRANCH  85  86
ATOM     86  N   UNL A   1      31.624  24.974  23.709  1.00  0.00    -0.377 N 
ATOM     87  H   UNL A   1      31.126  24.740  22.893  1.00  0.00     0.160 HD
BRANCH  86  88
ATOM     88  C   UNL A   1      32.048  26.286  23.918  1.00  0.00     0.116 A 
ATOM     89  C   UNL A   1      33.432  26.555  23.928  1.00  0.00     0.033 A 
ATOM     90  C   UNL A   1      31.163  27.375  24.114  1.00  0.00     0.327 A 
ATOM     91  C   UNL A   1      33.933  27.837  24.155  1.00  0.00     0.006 A 
ATOM     92  C   UNL A   1      31.673  28.655  24.354  1.00  0.00     0.202 A 
ATOM     93  C   UNL A   1      33.049  28.883  24.379  1.00  0.00     0.047 A 
ATOM     94  F   UNL A   1      30.882  29.721  24.538  1.00  0.00    -0.199 F 
BRANCH  90  95
ATOM     95  N   UNL A   1      29.712  27.210  23.980  1.00  0.00     0.068 N 
ATOM     96  O   UNL A   1      29.155  26.337  24.667  1.00  0.00    -0.258 OA
ATOM     97  O   UNL A   1      29.135  27.837  23.078  1.00  0.00    -0.258 OA
ENDBRANCH  90  95
ENDBRANCH  86  88
ENDBRANCH  85  86
ENDBRANCH  84  85
ENDBRANCH  78  80
ENDBRANCH  77  78
ENDBRANCH  76  77
ENDBRANCH  75  76
ENDBRANCH  74  75
ENDBRANCH   1  74
TORSDOF 24
ENDMDL
MODEL 3
REMARK VINA RESULT:      -8.7      5.182      6.963
REMARK SMILES O=C(OCCOCCOCCOC(=O)[C@H]1CC[C@@H](CNc2cccc(F)c2[N+](=O)[O-])O1)c1ccc(-c2c3nc(c(-c4cccc(S(=O)(=O)[O-])c4F)c4ccc([nH]4)c(-c4cccc(S(=O)(=O)[O-])c4F)c4nc(c(-c5cccc(S(=O)(=O)[O-])c5F)c5ccc2[nH]5)C=C4)C=C3)cc1
REMARK SMILES IDX 8 1 7 2 6 3 5 4 4 5 3 6 2 7 1 8 32 9 33 10 94 11 34 12 93 13
REMARK SMILES IDX 35 14 36 15 37 16 87 17 38 18 92 19 86 20 88 21 39 22 91 23
REMARK SMILES IDX 85 24 84 25 40 27 72 28 52 29 71 30 53 31 56 32 70 33 89 34
REMARK SMILES IDX 54 35 55 36 69 38 90 39 57 40 41 41 42 42 50 43 43 44 45 45
REMARK SMILES IDX 51 46 44 47 46 48 47 49 48 50 49 51 73 52 74 53 82 54 75 55
REMARK SMILES IDX 77 56 83 57 76 58 78 59 79 60 80 61 81 62 58 63 59 64 67 65
REMARK SMILES IDX 60 66 62 67 68 68 61 69 63 70 64 71 65 72 66 73 9 74 10 75
REMARK SMILES IDX 11 76 12 77 13 78 14 79 15 80 16 81 31 82 17 83 18 84 19 85
REMARK SMILES IDX 20 86 21 88 22 89 27 90 23 91 25 92 24 93 26 94 28 95 29 96
REMARK SMILES IDX 30 97
REMARK H PARENT 88 26 56 37 20 87
REMARK Flexibility Score: inf
ROOT
ATOM      1  C   UNL A   1      39.354  22.788  26.113  1.00  0.00     0.188 C 
ENDROOT
BRANCH   1   2
ATOM      2  C   UNL A   1      40.225  21.561  26.390  1.00  0.00     0.188 C 
BRANCH   2   3
ATOM      3  O   UNL A   1      41.410  21.487  25.593  1.00  0.00    -0.376 OA
BRANCH   3   4
ATOM      4  C   UNL A   1      42.204  22.681  25.593  1.00  0.00     0.202 C 
BRANCH   4   5
ATOM      5  C   UNL A   1      43.735  22.502  25.534  1.00  0.00     0.261 C 
BRANCH   5   6
ATOM      6  O   UNL A   1      44.428  23.564  24.856  1.00  0.00    -0.460 OA
BRANCH   6   7
ATOM      7  C   UNL A   1      44.550  24.870  25.212  1.00  0.00     0.338 C 
ATOM      8  O   UNL A   1      45.483  25.516  24.736  1.00  0.00    -0.246 OA
BRANCH   7   9
ATOM      9  C   UNL A   1      43.624  25.560  26.162  1.00  0.00     0.060 A 
ATOM     10  C   UNL A   1      43.289  26.909  26.103  1.00  0.00     0.016 A 
ATOM     11  C   UNL A   1      43.023  24.785  27.171  1.00  0.00     0.016 A 
ATOM     12  C   UNL A   1      42.524  27.515  27.080  1.00  0.00     0.010 A 
ATOM     13  C   UNL A   1      42.200  25.375  28.138  1.00  0.00     0.010 A 
ATOM     14  C   UNL A   1      42.006  26.759  28.125  1.00  0.00    -0.014 A 
BRANCH  14  15
ATOM     15  C   UNL A   1      41.462  27.515  29.267  1.00  0.00     0.031 A 
ATOM     16  C   UNL A   1      42.277  27.560  30.518  1.00  0.00     0.074 A 
ATOM     17  C   UNL A   1      40.390  28.309  29.092  1.00  0.00     0.049 A 
ATOM     18  N   UNL A   1      42.053  28.225  31.614  1.00  0.00    -0.248 NA
ATOM     19  C   UNL A   1      43.529  26.779  30.532  1.00  0.00     0.031 C 
ATOM     20  C   UNL A   1      39.635  28.401  27.847  1.00  0.00     0.029 A 
ATOM     21  N   UNL A   1      39.775  29.208  29.918  1.00  0.00    -0.354 N 
ATOM     22  C   UNL A   1      43.102  27.905  32.463  1.00  0.00     0.074 A 
ATOM     23  C   UNL A   1      43.973  26.996  31.759  1.00  0.00     0.031 C 
ATOM     24  C   UNL A   1      38.671  29.324  27.974  1.00  0.00     0.029 A 
ATOM     25  C   UNL A   1      38.691  29.831  29.341  1.00  0.00     0.049 A 
ATOM     26  H   UNL A   1      40.077  29.392  30.837  1.00  0.00     0.167 HD
ATOM     27  C   UNL A   1      43.309  28.343  33.721  1.00  0.00     0.034 A 
ATOM     28  C   UNL A   1      37.795  30.684  29.876  1.00  0.00     0.034 A 
ATOM     29  C   UNL A   1      42.432  29.263  34.380  1.00  0.00     0.049 A 
ATOM     30  C   UNL A   1      38.004  31.083  31.312  1.00  0.00     0.074 A 
ATOM     31  C   UNL A   1      42.514  29.752  35.667  1.00  0.00     0.029 A 
ATOM     32  N   UNL A   1      41.303  29.824  33.799  1.00  0.00    -0.354 N 
ATOM     33  N   UNL A   1      39.005  30.780  32.107  1.00  0.00    -0.248 NA
ATOM     34  C   UNL A   1      36.982  31.936  31.929  1.00  0.00     0.031 C 
ATOM     35  C   UNL A   1      41.409  30.580  35.879  1.00  0.00     0.029 A 
ATOM     36  C   UNL A   1      40.664  30.642  34.709  1.00  0.00     0.049 A 
ATOM     37  H   UNL A   1      41.003  29.663  32.875  1.00  0.00     0.167 HD
ATOM     38  C   UNL A   1      38.744  31.415  33.311  1.00  0.00     0.074 A 
ATOM     39  C   UNL A   1      37.503  32.144  33.133  1.00  0.00     0.031 C 
ATOM     40  C   UNL A   1      39.453  31.386  34.467  1.00  0.00     0.034 A 
BRANCH  27  41
ATOM     41  C   UNL A   1      44.497  27.799  34.459  1.00  0.00     0.023 A 
ATOM     42  C   UNL A   1      45.724  28.492  34.446  1.00  0.00     0.012 A 
ATOM     43  C   UNL A   1      44.382  26.603  35.192  1.00  0.00     0.148 A 
ATOM     44  C   UNL A   1      46.826  27.990  35.138  1.00  0.00     0.002 A 
ATOM     45  C   UNL A   1      45.468  26.135  35.916  1.00  0.00     0.091 A 
ATOM     46  F   UNL A   1      43.214  25.946  35.159  1.00  0.00    -0.205 F 
ATOM     47  C   UNL A   1      46.694  26.819  35.882  1.00  0.00     0.022 A 
BRANCH  45  48
ATOM     48  S   UNL A   1      45.380  24.676  36.960  1.00  0.00     0.127 S 
ATOM     49  O   UNL A   1      46.788  24.472  37.302  1.00  0.00    -0.237 OA
ATOM     50  O   UNL A   1      44.545  25.146  38.064  1.00  0.00    -0.237 OA
ATOM     51  O   UNL A   1      44.788  23.627  36.142  1.00  0.00    -0.744 OA
ENDBRANCH  45  48
ENDBRANCH  27  41
BRANCH  28  52
ATOM     52  C   UNL A   1      36.644  31.179  29.064  1.00  0.00     0.023 A 
ATOM     53  C   UNL A   1      36.540  32.546  28.740  1.00  0.00     0.012 A 
ATOM     54  C   UNL A   1      35.670  30.289  28.564  1.00  0.00     0.148 A 
ATOM     55  C   UNL A   1      35.483  33.014  27.955  1.00  0.00     0.002 A 
ATOM     56  C   UNL A   1      34.662  30.750  27.725  1.00  0.00     0.091 A 
ATOM     57  F   UNL A   1      35.768  28.994  28.898  1.00  0.00    -0.205 F 
ATOM     58  C   UNL A   1      34.552  32.117  27.438  1.00  0.00     0.022 A 
BRANCH  56  59
ATOM     59  S   UNL A   1      33.509  29.643  26.899  1.00  0.00     0.127 S 
ATOM     60  O   UNL A   1      33.073  28.796  28.010  1.00  0.00    -0.237 OA
ATOM     61  O   UNL A   1      32.497  30.579  26.401  1.00  0.00    -0.237 OA
ATOM     62  O   UNL A   1      34.278  28.979  25.863  1.00  0.00    -0.744 OA
ENDBRANCH  56  59
ENDBRANCH  28  52
BRANCH  40  63
ATOM     63  C   UNL A   1      38.923  32.176  35.629  1.00  0.00     0.023 A 
ATOM     64  C   UNL A   1      38.048  31.563  36.545  1.00  0.00     0.012 A 
ATOM     65  C   UNL A   1      39.433  33.461  35.897  1.00  0.00     0.148 A 
ATOM     66  C   UNL A   1      37.684  32.222  37.716  1.00  0.00     0.002 A 
ATOM     67  C   UNL A   1      39.112  34.086  37.092  1.00  0.00     0.091 A 
ATOM     68  F   UNL A   1      40.256  34.022  34.999  1.00  0.00    -0.205 F 
ATOM     69  C   UNL A   1      38.230  33.473  37.998  1.00  0.00     0.022 A 
BRANCH  67  70
ATOM     70  S   UNL A   1      39.866  35.635  37.599  1.00  0.00     0.127 S 
ATOM     71  O   UNL A   1      41.242  35.221  37.865  1.00  0.00    -0.237 OA
ATOM     72  O   UNL A   1      39.694  36.464  36.407  1.00  0.00    -0.237 OA
ATOM     73  O   UNL A   1      39.119  36.086  38.766  1.00  0.00    -0.744 OA
ENDBRANCH  67  70
ENDBRANCH  40  63
ENDBRANCH  14  15
ENDBRANCH   7   9
ENDBRANCH   6   7
ENDBRANCH   5   6
ENDBRANCH   4   5
ENDBRANCH   3   4
ENDBRANCH   2   3
ENDBRANCH   1   2
BRANCH   1  74
ATOM     74  O   UNL A   1      37.958  22.572  25.921  1.00  0.00    -0.376 OA
BRANCH  74  75
ATOM     75  C   UNL A   1      37.226  23.549  25.190  1.00  0.00     0.202 C 
BRANCH  75  76
ATOM     76  C   UNL A   1      35.965  24.150  25.828  1.00  0.00     0.261 C 
BRANCH  76  77
ATOM     77  O   UNL A   1      34.735  23.601  25.341  1.00  0.00    -0.461 OA
BRANCH  77  78
ATOM     78  C   UNL A   1      34.140  22.704  26.180  1.00  0.00     0.335 C 
ATOM     79  O   UNL A   1      33.668  22.993  27.274  1.00  0.00    -0.249 OA
BRANCH  78  80
ATOM     80  C   UNL A   1      34.089  21.303  25.548  1.00  0.00     0.228 C 
ATOM     81  C   UNL A   1      32.730  20.661  25.672  1.00  0.00     0.047 C 
ATOM     82  O   UNL A   1      34.297  21.381  24.130  1.00  0.00    -0.361 OA
ATOM     83  C   UNL A   1      31.948  21.383  24.600  1.00  0.00     0.037 C 
ATOM     84  C   UNL A   1      33.002  21.598  23.509  1.00  0.00     0.138 C 
BRANCH  84  85
ATOM     85  C   UNL A   1      32.980  23.017  22.899  1.00  0.00     0.145 C 
BRANCH  85  86
ATOM     86  N   UNL A   1      31.661  23.633  23.036  1.00  0.00    -0.377 N 
ATOM     87  H   UNL A   1      30.862  23.167  22.700  1.00  0.00     0.160 HD
BRANCH  86  88
ATOM     88  C   UNL A   1      31.537  24.882  23.645  1.00  0.00     0.116 A 
ATOM     89  C   UNL A   1      31.025  24.945  24.958  1.00  0.00     0.033 A 
ATOM     90  C   UNL A   1      31.906  26.099  23.023  1.00  0.00     0.327 A 
ATOM     91  C   UNL A   1      30.849  26.158  25.624  1.00  0.00     0.006 A 
ATOM     92  C   UNL A   1      31.715  27.312  23.691  1.00  0.00     0.202 A 
ATOM     93  C   UNL A   1      31.185  27.341  24.982  1.00  0.00     0.047 A 
ATOM     94  F   UNL A   1      32.054  28.491  23.152  1.00  0.00    -0.199 F 
BRANCH  90  95
ATOM     95  N   UNL A   1      32.576  26.114  21.717  1.00  0.00     0.068 N 
ATOM     96  O   UNL A   1      31.906  25.820  20.712  1.00  0.00    -0.258 OA
ATOM     97  O   UNL A   1      33.807  26.263  21.695  1.00  0.00    -0.258 OA
ENDBRANCH  90  95
ENDBRANCH  86  88
ENDBRANCH  85  86
ENDBRANCH  84  85
ENDBRANCH  78  80
ENDBRANCH  77  78
ENDBRANCH  76  77
ENDBRANCH  75  76
ENDBRANCH  74  75
ENDBRANCH   1  74
TORSDOF 24
ENDMDL
