MODEL 1
REMARK VINA RESULT:     -10.7      0.000      0.000
REMARK SMILES O=C(OCCOCCOCCOC(=O)c1ccc(C(F)(F)F)cc1NC(=O)c1ccon1)c1ccc(-c2c3nc(c(-c4cccc(S(=O)(=O)[O-])c4F)c4ccc([nH]4)c(-c4cccc(S(=O)(=O)[O-])c4F)c4nc(c(-c5cccc(S(=O)(=O)[O-])c5F)c5ccc2[nH]5)C=C4)C=C3)cc1
REMARK SMILES IDX 7 1 6 2 5 3 4 4 3 5 2 6 1 7 33 8 34 9 95 10 35 11 94 12
REMARK SMILES IDX 36 13 37 14 38 15 88 16 39 17 93 18 87 19 89 20 40 21 92 22
REMARK SMILES IDX 86 23 85 24 41 26 73 27 53 28 72 29 54 30 57 31 71 32 90 33
REMARK SMILES IDX 55 34 56 35 70 37 91 38 58 39 42 40 43 41 51 42 44 43 46 44
REMARK SMILES IDX 52 45 45 46 47 47 48 48 49 49 50 50 74 51 75 52 83 53 76 54
REMARK SMILES IDX 78 55 84 56 77 57 79 58 80 59 81 60 82 61 59 62 60 63 68 64
REMARK SMILES IDX 61 65 63 66 69 67 62 68 64 69 65 70 66 71 67 72 8 73 9 74
REMARK SMILES IDX 10 75 11 76 12 77 13 78 14 79 15 80 16 81 24 82 17 83 23 84
REMARK SMILES IDX 18 85 25 86 26 87 27 89 28 90 29 91 32 92 30 93 31 94 19 95
REMARK SMILES IDX 20 96 21 97 22 98
REMARK H PARENT 89 25 57 36 25 88
REMARK Flexibility Score: inf
ROOT
ATOM      1  C   UNL A   1      34.641  21.850  24.208  1.00  0.00     0.188 C 
ENDROOT
BRANCH   1   2
ATOM      2  O   UNL A   1      35.638  22.720  23.655  1.00  0.00    -0.376 OA
BRANCH   2   3
ATOM      3  C   UNL A   1      36.975  22.253  23.859  1.00  0.00     0.202 C 
BRANCH   3   4
ATOM      4  C   UNL A   1      37.065  20.926  24.623  1.00  0.00     0.261 C 
BRANCH   4   5
ATOM      5  O   UNL A   1      37.712  21.081  25.895  1.00  0.00    -0.460 OA
BRANCH   5   6
ATOM      6  C   UNL A   1      39.013  21.395  26.130  1.00  0.00     0.338 C 
ATOM      7  O   UNL A   1      39.878  20.561  25.870  1.00  0.00    -0.246 OA
BRANCH   6   8
ATOM      8  C   UNL A   1      39.457  22.738  26.615  1.00  0.00     0.060 A 
ATOM      9  C   UNL A   1      38.896  23.956  26.227  1.00  0.00     0.016 A 
ATOM     10  C   UNL A   1      40.484  22.762  27.573  1.00  0.00     0.016 A 
ATOM     11  C   UNL A   1      39.440  25.167  26.650  1.00  0.00     0.010 A 
ATOM     12  C   UNL A   1      40.984  23.975  28.063  1.00  0.00     0.010 A 
ATOM     13  C   UNL A   1      40.499  25.187  27.559  1.00  0.00    -0.014 A 
BRANCH  13  14
ATOM     14  C   UNL A   1      41.141  26.478  27.897  1.00  0.00     0.031 A 
ATOM     15  C   UNL A   1      42.567  26.718  27.485  1.00  0.00     0.074 A 
ATOM     16  C   UNL A   1      40.432  27.452  28.498  1.00  0.00     0.049 A 
ATOM     17  N   UNL A   1      43.311  27.776  27.667  1.00  0.00    -0.248 NA
ATOM     18  C   UNL A   1      43.238  25.633  26.746  1.00  0.00     0.031 C 
ATOM     19  C   UNL A   1      39.022  27.364  28.885  1.00  0.00     0.029 A 
ATOM     20  N   UNL A   1      40.803  28.713  28.887  1.00  0.00    -0.354 N 
ATOM     21  C   UNL A   1      44.536  27.483  27.081  1.00  0.00     0.074 A 
ATOM     22  C   UNL A   1      44.446  26.140  26.554  1.00  0.00     0.031 C 
ATOM     23  C   UNL A   1      38.659  28.514  29.476  1.00  0.00     0.029 A 
ATOM     24  C   UNL A   1      39.812  29.398  29.548  1.00  0.00     0.049 A 
ATOM     25  H   UNL A   1      41.694  29.091  28.710  1.00  0.00     0.167 HD
ATOM     26  C   UNL A   1      45.630  28.271  26.966  1.00  0.00     0.034 A 
ATOM     27  C   UNL A   1      39.847  30.593  30.164  1.00  0.00     0.034 A 
ATOM     28  C   UNL A   1      45.716  29.609  27.480  1.00  0.00     0.049 A 
ATOM     29  C   UNL A   1      41.105  31.407  30.105  1.00  0.00     0.074 A 
ATOM     30  C   UNL A   1      46.776  30.495  27.410  1.00  0.00     0.029 A 
ATOM     31  N   UNL A   1      44.701  30.251  28.171  1.00  0.00    -0.354 N 
ATOM     32  N   UNL A   1      42.235  31.131  29.504  1.00  0.00    -0.248 NA
ATOM     33  C   UNL A   1      41.069  32.717  30.769  1.00  0.00     0.031 C 
ATOM     34  C   UNL A   1      46.406  31.669  28.075  1.00  0.00     0.029 A 
ATOM     35  C   UNL A   1      45.110  31.518  28.542  1.00  0.00     0.049 A 
ATOM     36  H   UNL A   1      43.818  29.862  28.368  1.00  0.00     0.167 HD
ATOM     37  C   UNL A   1      43.040  32.244  29.698  1.00  0.00     0.074 A 
ATOM     38  C   UNL A   1      42.264  33.201  30.460  1.00  0.00     0.031 C 
ATOM     39  C   UNL A   1      44.311  32.457  29.283  1.00  0.00     0.034 A 
BRANCH  26  40
ATOM     40  C   UNL A   1      46.812  27.702  26.233  1.00  0.00     0.023 A 
ATOM     41  C   UNL A   1      46.912  27.876  24.837  1.00  0.00     0.012 A 
ATOM     42  C   UNL A   1      47.823  27.005  26.921  1.00  0.00     0.148 A 
ATOM     43  C   UNL A   1      47.990  27.342  24.133  1.00  0.00     0.002 A 
ATOM     44  C   UNL A   1      48.909  26.501  26.215  1.00  0.00     0.091 A 
ATOM     45  F   UNL A   1      47.690  26.826  28.242  1.00  0.00    -0.205 F 
ATOM     46  C   UNL A   1      48.991  26.661  24.822  1.00  0.00     0.022 A 
BRANCH  44  47
ATOM     47  S   UNL A   1      50.268  25.644  27.017  1.00  0.00     0.127 S 
ATOM     48  O   UNL A   1      50.683  26.626  28.018  1.00  0.00    -0.237 OA
ATOM     49  O   UNL A   1      49.606  24.458  27.562  1.00  0.00    -0.237 OA
ATOM     50  O   UNL A   1      51.241  25.368  25.970  1.00  0.00    -0.744 OA
ENDBRANCH  44  47
ENDBRANCH  26  40
BRANCH  27  51
ATOM     51  C   UNL A   1      38.683  31.110  30.924  1.00  0.00     0.023 A 
ATOM     52  C   UNL A   1      38.592  30.899  32.311  1.00  0.00     0.012 A 
ATOM     53  C   UNL A   1      37.617  31.726  30.247  1.00  0.00     0.148 A 
ATOM     54  C   UNL A   1      37.440  31.271  33.006  1.00  0.00     0.002 A 
ATOM     55  C   UNL A   1      36.475  32.099  30.948  1.00  0.00     0.091 A 
ATOM     56  F   UNL A   1      37.720  31.920  28.924  1.00  0.00    -0.205 F 
ATOM     57  C   UNL A   1      36.377  31.867  32.325  1.00  0.00     0.022 A 
BRANCH  55  58
ATOM     58  S   UNL A   1      35.156  32.964  30.092  1.00  0.00     0.127 S 
ATOM     59  O   UNL A   1      35.836  34.140  29.568  1.00  0.00    -0.237 OA
ATOM     60  O   UNL A   1      34.730  31.994  29.082  1.00  0.00    -0.237 OA
ATOM     61  O   UNL A   1      34.170  33.177  31.146  1.00  0.00    -0.744 OA
ENDBRANCH  55  58
ENDBRANCH  27  51
BRANCH  39  62
ATOM     62  C   UNL A   1      44.926  33.780  29.633  1.00  0.00     0.023 A 
ATOM     63  C   UNL A   1      45.590  33.937  30.864  1.00  0.00     0.012 A 
ATOM     64  C   UNL A   1      44.879  34.852  28.723  1.00  0.00     0.148 A 
ATOM     65  C   UNL A   1      46.180  35.155  31.196  1.00  0.00     0.002 A 
ATOM     66  C   UNL A   1      45.507  36.048  29.041  1.00  0.00     0.091 A 
ATOM     67  F   UNL A   1      44.211  34.686  27.572  1.00  0.00    -0.205 F 
ATOM     68  C   UNL A   1      46.150  36.205  30.280  1.00  0.00     0.022 A 
BRANCH  66  69
ATOM     69  S   UNL A   1      45.588  37.416  27.881  1.00  0.00     0.127 S 
ATOM     70  O   UNL A   1      44.285  38.051  28.076  1.00  0.00    -0.237 OA
ATOM     71  O   UNL A   1      46.724  38.187  28.385  1.00  0.00    -0.237 OA
ATOM     72  O   UNL A   1      45.804  36.813  26.573  1.00  0.00    -0.744 OA
ENDBRANCH  66  69
ENDBRANCH  39  62
ENDBRANCH  13  14
ENDBRANCH   6   8
ENDBRANCH   5   6
ENDBRANCH   4   5
ENDBRANCH   3   4
ENDBRANCH   2   3
ENDBRANCH   1   2
BRANCH   1  73
ATOM     73  C   UNL A   1      33.418  22.647  24.664  1.00  0.00     0.188 C 
BRANCH  73  74
ATOM     74  O   UNL A   1      32.224  22.421  23.911  1.00  0.00    -0.376 OA
BRANCH  74  75
ATOM     75  C   UNL A   1      31.637  23.544  23.260  1.00  0.00     0.202 C 
BRANCH  75  76
ATOM     76  C   UNL A   1      32.569  24.707  22.891  1.00  0.00     0.261 C 
BRANCH  76  77
ATOM     77  O   UNL A   1      31.939  25.807  22.209  1.00  0.00    -0.460 OA
BRANCH  77  78
ATOM     78  C   UNL A   1      32.398  27.023  22.583  1.00  0.00     0.340 C 
ATOM     79  O   UNL A   1      33.561  27.406  22.586  1.00  0.00    -0.246 OA
BRANCH  78  80
ATOM     80  C   UNL A   1      31.306  27.893  23.042  1.00  0.00     0.083 A 
ATOM     81  C   UNL A   1      30.245  28.116  22.153  1.00  0.00     0.018 A 
ATOM     82  C   UNL A   1      31.499  28.692  24.185  1.00  0.00     0.056 A 
ATOM     83  C   UNL A   1      29.386  29.189  22.363  1.00  0.00     0.014 A 
ATOM     84  C   UNL A   1      30.680  29.811  24.320  1.00  0.00     0.040 A 
ATOM     85  C   UNL A   1      29.624  30.074  23.421  1.00  0.00     0.058 A 
BRANCH  82  86
ATOM     86  N   UNL A   1      32.424  28.254  25.158  1.00  0.00    -0.320 N 
ATOM     87  C   UNL A   1      32.611  27.119  25.918  1.00  0.00     0.277 C 
ATOM     88  H   UNL A   1      33.113  28.934  25.340  1.00  0.00     0.170 HD
ATOM     89  O   UNL A   1      33.695  27.027  26.503  1.00  0.00    -0.267 OA
BRANCH  87  90
ATOM     90  C   UNL A   1      31.543  26.158  26.143  1.00  0.00     0.171 A 
ATOM     91  C   UNL A   1      30.207  26.155  25.678  1.00  0.00     0.079 A 
ATOM     92  N   UNL A   1      31.803  25.030  26.826  1.00  0.00    -0.075 NA
ATOM     93  C   UNL A   1      29.658  25.022  26.211  1.00  0.00     0.232 A 
ATOM     94  O   UNL A   1      30.611  24.329  26.872  1.00  0.00    -0.364 OA
ENDBRANCH  87  90
ENDBRANCH  82  86
BRANCH  85  95
ATOM     95  C   UNL A   1      28.775  31.320  23.573  1.00  0.00     0.416 C 
ATOM     96  F   UNL A   1      28.435  31.844  22.362  1.00  0.00    -0.166 F 
ATOM     97  F   UNL A   1      27.601  31.071  24.214  1.00  0.00    -0.166 F 
ATOM     98  F   UNL A   1      29.391  32.312  24.260  1.00  0.00    -0.166 F 
ENDBRANCH  85  95
ENDBRANCH  78  80
ENDBRANCH  77  78
ENDBRANCH  76  77
ENDBRANCH  75  76
ENDBRANCH  74  75
ENDBRANCH  73  74
ENDBRANCH   1  73
TORSDOF 23
ENDMDL
MODEL 2
REMARK VINA RESULT:     -10.7      1.134      7.666
REMARK SMILES O=C(OCCOCCOCCOC(=O)c1ccc(C(F)(F)F)cc1NC(=O)c1ccon1)c1ccc(-c2c3nc(c(-c4cccc(S(=O)(=O)[O-])c4F)c4ccc([nH]4)c(-c4cccc(S(=O)(=O)[O-])c4F)c4nc(c(-c5cccc(S(=O)(=O)[O-])c5F)c5ccc2[nH]5)C=C4)C=C3)cc1
REMARK SMILES IDX 7 1 6 2 5 3 4 4 3 5 2 6 1 7 33 8 34 9 95 10 35 11 94 12
REMARK SMILES IDX 36 13 37 14 38 15 88 16 39 17 93 18 87 19 89 20 40 21 92 22
REMARK SMILES IDX 86 23 85 24 41 26 73 27 53 28 72 29 54 30 57 31 71 32 90 33
REMARK SMILES IDX 55 34 56 35 70 37 91 38 58 39 42 40 43 41 51 42 44 43 46 44
REMARK SMILES IDX 52 45 45 46 47 47 48 48 49 49 50 50 74 51 75 52 83 53 76 54
REMARK SMILES IDX 78 55 84 56 77 57 79 58 80 59 81 60 82 61 59 62 60 63 68 64
REMARK SMILES IDX 61 65 63 66 69 67 62 68 64 69 65 70 66 71 67 72 8 73 9 74
REMARK SMILES IDX 10 75 11 76 12 77 13 78 14 79 15 80 16 81 24 82 17 83 23 84
REMARK SMILES IDX 18 85 25 86 26 87 27 89 28 90 29 91 32 92 30 93 31 94 19 95
REMARK SMILES IDX 20 96 21 97 22 98
REMARK H PARENT 89 25 57 36 25 88
REMARK Flexibility Score: inf
ROOT
ATOM      1  C   UNL A   1      34.423  21.337  24.616  1.00  0.00     0.188 C 
ENDROOT
BRANCH   1   2
ATOM      2  O   UNL A   1      35.069  22.528  24.146  1.00  0.00    -0.376 OA
BRANCH   2   3
ATOM      3  C   UNL A   1      36.486  22.389  24.007  1.00  0.00     0.202 C 
BRANCH   3   4
ATOM      4  C   UNL A   1      37.034  21.044  24.501  1.00  0.00     0.261 C 
BRANCH   4   5
ATOM      5  O   UNL A   1      37.611  21.147  25.812  1.00  0.00    -0.460 OA
BRANCH   5   6
ATOM      6  C   UNL A   1      38.909  21.391  26.129  1.00  0.00     0.338 C 
ATOM      7  O   UNL A   1      39.726  20.479  26.013  1.00  0.00    -0.246 OA
BRANCH   6   8
ATOM      8  C   UNL A   1      39.415  22.738  26.537  1.00  0.00     0.060 A 
ATOM      9  C   UNL A   1      38.841  23.955  26.167  1.00  0.00     0.016 A 
ATOM     10  C   UNL A   1      40.522  22.767  27.402  1.00  0.00     0.016 A 
ATOM     11  C   UNL A   1      39.438  25.166  26.508  1.00  0.00     0.010 A 
ATOM     12  C   UNL A   1      41.080  23.984  27.814  1.00  0.00     0.010 A 
ATOM     13  C   UNL A   1      40.572  25.191  27.321  1.00  0.00    -0.014 A 
BRANCH  13  14
ATOM     14  C   UNL A   1      41.261  26.479  27.567  1.00  0.00     0.031 A 
ATOM     15  C   UNL A   1      40.564  27.541  28.372  1.00  0.00     0.074 A 
ATOM     16  C   UNL A   1      42.524  26.666  27.139  1.00  0.00     0.049 A 
ATOM     17  N   UNL A   1      40.990  28.728  28.713  1.00  0.00    -0.248 NA
ATOM     18  C   UNL A   1      39.221  27.215  28.882  1.00  0.00     0.031 C 
ATOM     19  C   UNL A   1      43.328  25.685  26.407  1.00  0.00     0.029 A 
ATOM     20  N   UNL A   1      43.354  27.749  27.261  1.00  0.00    -0.354 N 
ATOM     21  C   UNL A   1      39.968  29.295  29.465  1.00  0.00     0.074 A 
ATOM     22  C   UNL A   1      38.891  28.332  29.514  1.00  0.00     0.031 C 
ATOM     23  C   UNL A   1      44.526  26.224  26.128  1.00  0.00     0.029 A 
ATOM     24  C   UNL A   1      44.559  27.593  26.620  1.00  0.00     0.049 A 
ATOM     25  H   UNL A   1      43.111  28.561  27.760  1.00  0.00     0.167 HD
ATOM     26  C   UNL A   1      39.939  30.498  30.083  1.00  0.00     0.034 A 
ATOM     27  C   UNL A   1      45.561  28.471  26.430  1.00  0.00     0.034 A 
ATOM     28  C   UNL A   1      41.013  31.449  30.044  1.00  0.00     0.049 A 
ATOM     29  C   UNL A   1      45.461  29.834  27.046  1.00  0.00     0.074 A 
ATOM     30  C   UNL A   1      41.086  32.694  30.643  1.00  0.00     0.029 A 
ATOM     31  N   UNL A   1      42.201  31.264  29.356  1.00  0.00    -0.354 N 
ATOM     32  N   UNL A   1      44.507  30.331  27.792  1.00  0.00    -0.248 NA
ATOM     33  C   UNL A   1      46.601  30.736  26.830  1.00  0.00     0.031 C 
ATOM     34  C   UNL A   1      42.316  33.269  30.302  1.00  0.00     0.029 A 
ATOM     35  C   UNL A   1      43.012  32.374  29.506  1.00  0.00     0.049 A 
ATOM     36  H   UNL A   1      42.434  30.460  28.837  1.00  0.00     0.167 HD
ATOM     37  C   UNL A   1      44.941  31.597  28.156  1.00  0.00     0.074 A 
ATOM     38  C   UNL A   1      46.248  31.785  27.558  1.00  0.00     0.031 C 
ATOM     39  C   UNL A   1      44.315  32.526  28.917  1.00  0.00     0.034 A 
BRANCH  26  40
ATOM     40  C   UNL A   1      38.705  30.833  30.873  1.00  0.00     0.023 A 
ATOM     41  C   UNL A   1      38.639  30.482  32.238  1.00  0.00     0.012 A 
ATOM     42  C   UNL A   1      37.620  31.498  30.274  1.00  0.00     0.148 A 
ATOM     43  C   UNL A   1      37.499  30.766  32.987  1.00  0.00     0.002 A 
ATOM     44  C   UNL A   1      36.499  31.804  31.036  1.00  0.00     0.091 A 
ATOM     45  F   UNL A   1      37.694  31.794  28.969  1.00  0.00    -0.205 F 
ATOM     46  C   UNL A   1      36.432  31.433  32.389  1.00  0.00     0.022 A 
BRANCH  44  47
ATOM     47  S   UNL A   1      35.090  32.696  30.366  1.00  0.00     0.127 S 
ATOM     48  O   UNL A   1      35.701  33.972  29.997  1.00  0.00    -0.237 OA
ATOM     49  O   UNL A   1      34.703  31.853  29.235  1.00  0.00    -0.237 OA
ATOM     50  O   UNL A   1      34.109  32.759  31.441  1.00  0.00    -0.744 OA
ENDBRANCH  44  47
ENDBRANCH  26  40
BRANCH  27  51
ATOM     51  C   UNL A   1      46.744  28.132  25.603  1.00  0.00     0.023 A 
ATOM     52  C   UNL A   1      46.652  28.134  24.200  1.00  0.00     0.012 A 
ATOM     53  C   UNL A   1      47.936  27.712  26.218  1.00  0.00     0.148 A 
ATOM     54  C   UNL A   1      47.726  27.693  23.423  1.00  0.00     0.002 A 
ATOM     55  C   UNL A   1      49.002  27.280  25.436  1.00  0.00     0.091 A 
ATOM     56  F   UNL A   1      48.007  27.716  27.557  1.00  0.00    -0.205 F 
ATOM     57  C   UNL A   1      48.900  27.260  24.040  1.00  0.00     0.022 A 
BRANCH  55  58
ATOM     58  S   UNL A   1      50.549  26.828  26.224  1.00  0.00     0.127 S 
ATOM     59  O   UNL A   1      50.120  26.433  27.559  1.00  0.00    -0.237 OA
ATOM     60  O   UNL A   1      51.039  25.734  25.383  1.00  0.00    -0.237 OA
ATOM     61  O   UNL A   1      51.341  28.047  26.111  1.00  0.00    -0.744 OA
ENDBRANCH  55  58
ENDBRANCH  27  51
BRANCH  39  62
ATOM     62  C   UNL A   1      45.047  33.814  29.154  1.00  0.00     0.023 A 
ATOM     63  C   UNL A   1      45.948  33.916  30.230  1.00  0.00     0.012 A 
ATOM     64  C   UNL A   1      44.871  34.905  28.284  1.00  0.00     0.148 A 
ATOM     65  C   UNL A   1      46.648  35.100  30.453  1.00  0.00     0.002 A 
ATOM     66  C   UNL A   1      45.604  36.067  28.485  1.00  0.00     0.091 A 
ATOM     67  F   UNL A   1      43.981  34.793  27.287  1.00  0.00    -0.205 F 
ATOM     68  C   UNL A   1      46.486  36.169  29.574  1.00  0.00     0.022 A 
BRANCH  66  69
ATOM     69  S   UNL A   1      45.517  37.454  27.349  1.00  0.00     0.127 S 
ATOM     70  O   UNL A   1      46.031  38.548  28.172  1.00  0.00    -0.237 OA
ATOM     71  O   UNL A   1      46.409  37.031  26.270  1.00  0.00    -0.237 OA
ATOM     72  O   UNL A   1      44.116  37.562  26.964  1.00  0.00    -0.744 OA
ENDBRANCH  66  69
ENDBRANCH  39  62
ENDBRANCH  13  14
ENDBRANCH   6   8
ENDBRANCH   5   6
ENDBRANCH   4   5
ENDBRANCH   3   4
ENDBRANCH   2   3
ENDBRANCH   1   2
BRANCH   1  73
ATOM     73  C   UNL A   1      33.570  21.631  25.850  1.00  0.00     0.188 C 
BRANCH  73  74
ATOM     74  O   UNL A   1      32.196  21.254  25.749  1.00  0.00    -0.376 OA
BRANCH  74  75
ATOM     75  C   UNL A   1      31.227  22.300  25.755  1.00  0.00     0.202 C 
BRANCH  75  76
ATOM     76  C   UNL A   1      31.685  23.683  25.276  1.00  0.00     0.261 C 
BRANCH  76  77
ATOM     77  O   UNL A   1      30.647  24.676  25.177  1.00  0.00    -0.460 OA
BRANCH  77  78
ATOM     78  C   UNL A   1      30.286  24.972  23.908  1.00  0.00     0.340 C 
ATOM     79  O   UNL A   1      30.289  24.218  22.943  1.00  0.00    -0.246 OA
BRANCH  78  80
ATOM     80  C   UNL A   1      29.888  26.381  23.776  1.00  0.00     0.083 A 
ATOM     81  C   UNL A   1      28.520  26.675  23.872  1.00  0.00     0.018 A 
ATOM     82  C   UNL A   1      30.814  27.310  23.265  1.00  0.00     0.056 A 
ATOM     83  C   UNL A   1      28.043  27.893  23.401  1.00  0.00     0.014 A 
ATOM     84  C   UNL A   1      30.297  28.483  22.719  1.00  0.00     0.040 A 
ATOM     85  C   UNL A   1      28.920  28.788  22.777  1.00  0.00     0.058 A 
BRANCH  82  86
ATOM     86  N   UNL A   1      32.190  27.045  23.435  1.00  0.00    -0.320 N 
ATOM     87  C   UNL A   1      33.098  27.106  24.471  1.00  0.00     0.277 C 
ATOM     88  H   UNL A   1      32.609  26.735  22.599  1.00  0.00     0.170 HD
ATOM     89  O   UNL A   1      34.189  26.559  24.273  1.00  0.00    -0.267 OA
BRANCH  87  90
ATOM     90  C   UNL A   1      32.850  27.894  25.667  1.00  0.00     0.171 A 
ATOM     91  C   UNL A   1      32.194  27.543  26.869  1.00  0.00     0.079 A 
ATOM     92  N   UNL A   1      33.357  29.136  25.756  1.00  0.00    -0.075 NA
ATOM     93  C   UNL A   1      32.241  28.677  27.633  1.00  0.00     0.232 A 
ATOM     94  O   UNL A   1      32.960  29.622  26.989  1.00  0.00    -0.364 OA
ENDBRANCH  87  90
ENDBRANCH  82  86
BRANCH  85  95
ATOM     95  C   UNL A   1      28.384  30.054  22.140  1.00  0.00     0.416 C 
ATOM     96  F   UNL A   1      27.572  30.738  22.995  1.00  0.00    -0.166 F 
ATOM     97  F   UNL A   1      29.374  30.919  21.793  1.00  0.00    -0.166 F 
ATOM     98  F   UNL A   1      27.654  29.828  21.021  1.00  0.00    -0.166 F 
ENDBRANCH  85  95
ENDBRANCH  78  80
ENDBRANCH  77  78
ENDBRANCH  76  77
ENDBRANCH  75  76
ENDBRANCH  74  75
ENDBRANCH  73  74
ENDBRANCH   1  73
TORSDOF 23
ENDMDL
MODEL 3
REMARK VINA RESULT:     -10.6      2.050      7.730
REMARK SMILES O=C(OCCOCCOCCOC(=O)c1ccc(C(F)(F)F)cc1NC(=O)c1ccon1)c1ccc(-c2c3nc(c(-c4cccc(S(=O)(=O)[O-])c4F)c4ccc([nH]4)c(-c4cccc(S(=O)(=O)[O-])c4F)c4nc(c(-c5cccc(S(=O)(=O)[O-])c5F)c5ccc2[nH]5)C=C4)C=C3)cc1
REMARK SMILES IDX 7 1 6 2 5 3 4 4 3 5 2 6 1 7 33 8 34 9 95 10 35 11 94 12
REMARK SMILES IDX 36 13 37 14 38 15 88 16 39 17 93 18 87 19 89 20 40 21 92 22
REMARK SMILES IDX 86 23 85 24 41 26 73 27 53 28 72 29 54 30 57 31 71 32 90 33
REMARK SMILES IDX 55 34 56 35 70 37 91 38 58 39 42 40 43 41 51 42 44 43 46 44
REMARK SMILES IDX 52 45 45 46 47 47 48 48 49 49 50 50 74 51 75 52 83 53 76 54
REMARK SMILES IDX 78 55 84 56 77 57 79 58 80 59 81 60 82 61 59 62 60 63 68 64
REMARK SMILES IDX 61 65 63 66 69 67 62 68 64 69 65 70 66 71 67 72 8 73 9 74
REMARK SMILES IDX 10 75 11 76 12 77 13 78 14 79 15 80 16 81 24 82 17 83 23 84
REMARK SMILES IDX 18 85 25 86 26 87 27 89 28 90 29 91 32 92 30 93 31 94 19 95
REMARK SMILES IDX 20 96 21 97 22 98
REMARK H PARENT 89 25 57 36 25 88
REMARK Flexibility Score: inf
ROOT
ATOM      1  C   UNL A   1      34.443  20.733  24.805  1.00  0.00     0.188 C 
ENDROOT
BRANCH   1   2
ATOM      2  O   UNL A   1      34.938  22.078  24.769  1.00  0.00    -0.376 OA
BRANCH   2   3
ATOM      3  C   UNL A   1      36.268  22.179  24.252  1.00  0.00     0.202 C 
BRANCH   3   4
ATOM      4  C   UNL A   1      37.139  20.944  24.516  1.00  0.00     0.261 C 
BRANCH   4   5
ATOM      5  O   UNL A   1      37.748  20.984  25.815  1.00  0.00    -0.460 OA
BRANCH   5   6
ATOM      6  C   UNL A   1      39.046  21.253  26.114  1.00  0.00     0.338 C 
ATOM      7  O   UNL A   1      39.887  20.374  25.935  1.00  0.00    -0.246 OA
BRANCH   6   8
ATOM      8  C   UNL A   1      39.520  22.595  26.574  1.00  0.00     0.060 A 
ATOM      9  C   UNL A   1      39.009  23.818  26.138  1.00  0.00     0.016 A 
ATOM     10  C   UNL A   1      40.521  22.612  27.559  1.00  0.00     0.016 A 
ATOM     11  C   UNL A   1      39.580  25.022  26.543  1.00  0.00     0.010 A 
ATOM     12  C   UNL A   1      41.046  23.823  28.030  1.00  0.00     0.010 A 
ATOM     13  C   UNL A   1      40.614  25.035  27.480  1.00  0.00    -0.014 A 
BRANCH  13  14
ATOM     14  C   UNL A   1      41.287  26.314  27.800  1.00  0.00     0.031 A 
ATOM     15  C   UNL A   1      40.507  27.403  28.482  1.00  0.00     0.074 A 
ATOM     16  C   UNL A   1      42.602  26.470  27.552  1.00  0.00     0.049 A 
ATOM     17  N   UNL A   1      40.905  28.588  28.862  1.00  0.00    -0.248 NA
ATOM     18  C   UNL A   1      39.098  27.112  28.803  1.00  0.00     0.031 C 
ATOM     19  C   UNL A   1      43.481  25.461  26.957  1.00  0.00     0.029 A 
ATOM     20  N   UNL A   1      43.429  27.540  27.773  1.00  0.00    -0.354 N 
ATOM     21  C   UNL A   1      39.800  29.188  29.453  1.00  0.00     0.074 A 
ATOM     22  C   UNL A   1      38.706  28.246  29.364  1.00  0.00     0.031 C 
ATOM     23  C   UNL A   1      44.717  25.973  26.841  1.00  0.00     0.029 A 
ATOM     24  C   UNL A   1      44.709  27.350  27.311  1.00  0.00     0.049 A 
ATOM     25  H   UNL A   1      43.135  28.365  28.220  1.00  0.00     0.167 HD
ATOM     26  C   UNL A   1      39.708  30.402  30.042  1.00  0.00     0.034 A 
ATOM     27  C   UNL A   1      45.745  28.205  27.250  1.00  0.00     0.034 A 
ATOM     28  C   UNL A   1      40.797  31.333  30.140  1.00  0.00     0.049 A 
ATOM     29  C   UNL A   1      45.588  29.582  27.824  1.00  0.00     0.074 A 
ATOM     30  C   UNL A   1      40.811  32.587  30.724  1.00  0.00     0.029 A 
ATOM     31  N   UNL A   1      42.066  31.113  29.629  1.00  0.00    -0.354 N 
ATOM     32  N   UNL A   1      44.549  30.110  28.421  1.00  0.00    -0.248 NA
ATOM     33  C   UNL A   1      46.766  30.458  27.758  1.00  0.00     0.031 C 
ATOM     34  C   UNL A   1      42.088  33.133  30.550  1.00  0.00     0.029 A 
ATOM     35  C   UNL A   1      42.871  32.210  29.875  1.00  0.00     0.049 A 
ATOM     36  H   UNL A   1      42.353  30.296  29.161  1.00  0.00     0.167 HD
ATOM     37  C   UNL A   1      44.954  31.374  28.822  1.00  0.00     0.074 A 
ATOM     38  C   UNL A   1      46.335  31.527  28.412  1.00  0.00     0.031 C 
ATOM     39  C   UNL A   1      44.246  32.328  29.473  1.00  0.00     0.034 A 
BRANCH  26  40
ATOM     40  C   UNL A   1      38.383  30.774  30.645  1.00  0.00     0.023 A 
ATOM     41  C   UNL A   1      38.099  30.406  31.977  1.00  0.00     0.012 A 
ATOM     42  C   UNL A   1      37.426  31.491  29.903  1.00  0.00     0.148 A 
ATOM     43  C   UNL A   1      36.870  30.724  32.552  1.00  0.00     0.002 A 
ATOM     44  C   UNL A   1      36.215  31.830  30.494  1.00  0.00     0.091 A 
ATOM     45  F   UNL A   1      37.707  31.804  28.631  1.00  0.00    -0.205 F 
ATOM     46  C   UNL A   1      35.931  31.442  31.814  1.00  0.00     0.022 A 
BRANCH  44  47
ATOM     47  S   UNL A   1      34.957  32.787  29.640  1.00  0.00     0.127 S 
ATOM     48  O   UNL A   1      34.052  33.125  30.737  1.00  0.00    -0.237 OA
ATOM     49  O   UNL A   1      35.731  33.913  29.117  1.00  0.00    -0.237 OA
ATOM     50  O   UNL A   1      34.405  31.904  28.622  1.00  0.00    -0.744 OA
ENDBRANCH  44  47
ENDBRANCH  26  40
BRANCH  27  51
ATOM     51  C   UNL A   1      47.026  27.830  26.604  1.00  0.00     0.023 A 
ATOM     52  C   UNL A   1      48.171  27.594  27.385  1.00  0.00     0.012 A 
ATOM     53  C   UNL A   1      47.127  27.805  25.203  1.00  0.00     0.148 A 
ATOM     54  C   UNL A   1      49.406  27.367  26.774  1.00  0.00     0.002 A 
ATOM     55  C   UNL A   1      48.360  27.571  24.602  1.00  0.00     0.091 A 
ATOM     56  F   UNL A   1      46.025  28.032  24.472  1.00  0.00    -0.205 F 
ATOM     57  C   UNL A   1      49.503  27.361  25.382  1.00  0.00     0.022 A 
BRANCH  55  58
ATOM     58  S   UNL A   1      48.464  27.454  22.815  1.00  0.00     0.127 S 
ATOM     59  O   UNL A   1      49.798  27.971  22.541  1.00  0.00    -0.237 OA
ATOM     60  O   UNL A   1      48.293  26.021  22.569  1.00  0.00    -0.237 OA
ATOM     61  O   UNL A   1      47.332  28.260  22.369  1.00  0.00    -0.744 OA
ENDBRANCH  55  58
ENDBRANCH  27  51
BRANCH  39  62
ATOM     62  C   UNL A   1      44.964  33.607  29.791  1.00  0.00     0.023 A 
ATOM     63  C   UNL A   1      44.961  34.659  28.857  1.00  0.00     0.012 A 
ATOM     64  C   UNL A   1      45.604  33.775  31.032  1.00  0.00     0.148 A 
ATOM     65  C   UNL A   1      45.610  35.858  29.145  1.00  0.00     0.002 A 
ATOM     66  C   UNL A   1      46.210  34.988  31.331  1.00  0.00     0.091 A 
ATOM     67  F   UNL A   1      45.621  32.745  31.890  1.00  0.00    -0.205 F 
ATOM     68  C   UNL A   1      46.222  36.027  30.385  1.00  0.00     0.022 A 
BRANCH  66  69
ATOM     69  S   UNL A   1      46.943  35.314  32.937  1.00  0.00     0.127 S 
ATOM     70  O   UNL A   1      48.177  34.534  32.867  1.00  0.00    -0.237 OA
ATOM     71  O   UNL A   1      47.134  36.764  32.905  1.00  0.00    -0.237 OA
ATOM     72  O   UNL A   1      45.966  34.859  33.917  1.00  0.00    -0.744 OA
ENDBRANCH  66  69
ENDBRANCH  39  62
ENDBRANCH  13  14
ENDBRANCH   6   8
ENDBRANCH   5   6
ENDBRANCH   4   5
ENDBRANCH   3   4
ENDBRANCH   2   3
ENDBRANCH   1   2
BRANCH   1  73
ATOM     73  C   UNL A   1      33.248  20.619  25.753  1.00  0.00     0.188 C 
BRANCH  73  74
ATOM     74  O   UNL A   1      31.968  20.818  25.150  1.00  0.00    -0.376 OA
BRANCH  74  75
ATOM     75  C   UNL A   1      31.179  21.903  25.630  1.00  0.00     0.202 C 
BRANCH  75  76
ATOM     76  C   UNL A   1      31.663  23.322  25.300  1.00  0.00     0.261 C 
BRANCH  76  77
ATOM     77  O   UNL A   1      30.645  24.340  25.320  1.00  0.00    -0.460 OA
BRANCH  77  78
ATOM     78  C   UNL A   1      30.216  24.715  24.093  1.00  0.00     0.340 C 
ATOM     79  O   UNL A   1      30.101  24.005  23.101  1.00  0.00    -0.246 OA
BRANCH  78  80
ATOM     80  C   UNL A   1      29.906  26.150  24.046  1.00  0.00     0.083 A 
ATOM     81  C   UNL A   1      28.560  26.513  23.890  1.00  0.00     0.018 A 
ATOM     82  C   UNL A   1      30.952  27.072  23.851  1.00  0.00     0.056 A 
ATOM     83  C   UNL A   1      28.238  27.800  23.475  1.00  0.00     0.014 A 
ATOM     84  C   UNL A   1      30.605  28.325  23.349  1.00  0.00     0.040 A 
ATOM     85  C   UNL A   1      29.259  28.703  23.155  1.00  0.00     0.058 A 
BRANCH  82  86
ATOM     86  N   UNL A   1      32.250  26.709  24.270  1.00  0.00    -0.320 N 
ATOM     87  C   UNL A   1      33.384  26.198  23.676  1.00  0.00     0.277 C 
ATOM     88  H   UNL A   1      32.379  26.861  25.235  1.00  0.00     0.170 HD
ATOM     89  O   UNL A   1      34.418  26.233  24.353  1.00  0.00    -0.267 OA
BRANCH  87  90
ATOM     90  C   UNL A   1      33.341  25.519  22.391  1.00  0.00     0.171 A 
ATOM     91  C   UNL A   1      33.271  24.139  22.090  1.00  0.00     0.079 A 
ATOM     92  N   UNL A   1      33.278  26.248  21.262  1.00  0.00    -0.075 NA
ATOM     93  C   UNL A   1      33.274  24.082  20.724  1.00  0.00     0.232 A 
ATOM     94  O   UNL A   1      33.247  25.336  20.222  1.00  0.00    -0.364 OA
ENDBRANCH  87  90
ENDBRANCH  82  86
BRANCH  85  95
ATOM     95  C   UNL A   1      28.916  30.060  22.572  1.00  0.00     0.416 C 
ATOM     96  F   UNL A   1      27.714  30.038  21.931  1.00  0.00    -0.166 F 
ATOM     97  F   UNL A   1      28.811  31.022  23.528  1.00  0.00    -0.166 F 
ATOM     98  F   UNL A   1      29.823  30.504  21.669  1.00  0.00    -0.166 F 
ENDBRANCH  85  95
ENDBRANCH  78  80
ENDBRANCH  77  78
ENDBRANCH  76  77
ENDBRANCH  75  76
ENDBRANCH  74  75
ENDBRANCH  73  74
ENDBRANCH   1  73
TORSDOF 23
ENDMDL
