MODEL 1
REMARK VINA RESULT:     -10.9      0.000      0.000
REMARK SMILES NS(=O)(=O)c1ccc(-n2nc(C(=O)OCCOCCOCCOC(=O)c3ccc(-c4c5nc(c(-c6cccc(S(=O)(=O)[O-])c6F)c6ccc([nH]6)c(-c6cccc(S(=O)(=O)[O-])c6F)c6nc(c(-c7cccc(S(=O)(=O)[O-])c7F)c7ccc4[nH]7)C=C6)C=C5)cc3)cc2-c2cc3ccccc3s2)cc1
REMARK SMILES IDX 18 1 17 2 16 3 15 4 14 5 12 6 13 7 11 8 9 9 10 10 90 11
REMARK SMILES IDX 89 12 8 13 5 14 6 15 101 16 7 17 100 18 2 19 3 20 4 21 1 22
REMARK SMILES IDX 91 25 92 26 99 27 93 28 98 29 94 30 97 31 95 32 96 33 19 34
REMARK SMILES IDX 20 35 21 36 22 37 23 38 24 39 25 40 26 41 27 42 88 43 28 44
REMARK SMILES IDX 87 45 29 46 30 47 31 48 81 49 32 50 86 51 80 52 82 53 33 54
REMARK SMILES IDX 85 55 79 56 78 57 34 59 66 60 46 61 65 62 47 63 50 64 64 65
REMARK SMILES IDX 83 66 48 67 49 68 63 70 84 71 51 72 35 73 36 74 44 75 37 76
REMARK SMILES IDX 39 77 45 78 38 79 40 80 41 81 42 82 43 83 67 84 68 85 76 86
REMARK SMILES IDX 69 87 71 88 77 89 70 90 72 91 73 92 74 93 75 94 52 95 53 96
REMARK SMILES IDX 61 97 54 98 56 99 62 100 55 101 57 102 58 103 59 104 60 105
REMARK H PARENT 1 23 1 24 82 58 50 69
REMARK Flexibility Score: inf
ROOT
ATOM      1  C   UNL A   1      34.820  21.339  25.947  1.00  0.00     0.188 C 
ENDROOT
BRANCH   1   2
ATOM      2  O   UNL A   1      34.775  20.221  25.072  1.00  0.00    -0.376 OA
BRANCH   2   3
ATOM      3  C   UNL A   1      33.623  19.396  25.005  1.00  0.00     0.202 C 
BRANCH   3   4
ATOM      4  C   UNL A   1      32.584  19.576  23.881  1.00  0.00     0.261 C 
BRANCH   4   5
ATOM      5  O   UNL A   1      31.836  20.794  23.928  1.00  0.00    -0.458 OA
BRANCH   5   6
ATOM      6  C   UNL A   1      31.999  21.663  22.886  1.00  0.00     0.358 C 
ATOM      7  O   UNL A   1      32.145  21.324  21.718  1.00  0.00    -0.244 OA
BRANCH   6   8
ATOM      8  C   UNL A   1      31.943  23.060  23.347  1.00  0.00     0.171 A 
ATOM      9  N   UNL A   1      31.482  25.148  23.443  1.00  0.00    -0.231 N 
ATOM     10  N   UNL A   1      31.019  23.960  22.965  1.00  0.00    -0.160 NA
ATOM     11  C   UNL A   1      32.708  25.001  24.048  1.00  0.00     0.085 A 
ATOM     12  C   UNL A   1      32.818  23.644  24.283  1.00  0.00     0.068 A 
BRANCH   9  13
ATOM     13  C   UNL A   1      30.734  26.319  23.229  1.00  0.00     0.065 A 
ATOM     14  C   UNL A   1      29.188  28.572  22.774  1.00  0.00     0.082 A 
ATOM     15  C   UNL A   1      30.301  28.314  21.963  1.00  0.00     0.024 A 
ATOM     16  C   UNL A   1      28.848  27.714  23.826  1.00  0.00     0.024 A 
ATOM     17  C   UNL A   1      31.091  27.191  22.201  1.00  0.00     0.030 A 
ATOM     18  C   UNL A   1      29.609  26.562  24.034  1.00  0.00     0.030 A 
BRANCH  14  19
ATOM     19  S   UNL A   1      28.230  30.027  22.474  1.00  0.00     0.238 S 
ATOM     20  O   UNL A   1      27.068  30.005  23.353  1.00  0.00    -0.207 OA
ATOM     21  O   UNL A   1      28.123  30.268  21.068  1.00  0.00    -0.207 OA
BRANCH  19  22
ATOM     22  N   UNL A   1      29.230  31.229  23.084  1.00  0.00    -0.225 NA
ATOM     23  H   UNL A   1      30.187  31.068  22.772  1.00  0.00     0.137 HD
ATOM     24  H   UNL A   1      29.198  31.214  24.104  1.00  0.00     0.137 HD
ENDBRANCH  19  22
ENDBRANCH  14  19
ENDBRANCH   9  13
BRANCH  11  25
ATOM     25  C   UNL A   1      33.790  25.935  24.240  1.00  0.00     0.054 A 
ATOM     26  C   UNL A   1      33.836  27.263  23.817  1.00  0.00     0.031 A 
ATOM     27  S   UNL A   1      34.368  26.024  25.901  1.00  0.00    -0.134 S 
ATOM     28  C   UNL A   1      33.223  28.053  24.880  1.00  0.00    -0.007 A 
ATOM     29  C   UNL A   1      33.250  27.347  26.093  1.00  0.00     0.035 A 
ATOM     30  C   UNL A   1      32.490  29.258  24.832  1.00  0.00     0.009 A 
ATOM     31  C   UNL A   1      32.435  27.685  27.183  1.00  0.00     0.019 A 
ATOM     32  C   UNL A   1      31.654  29.593  25.905  1.00  0.00     0.001 A 
ATOM     33  C   UNL A   1      31.590  28.788  27.041  1.00  0.00     0.001 A 
ENDBRANCH  11  25
ENDBRANCH   6   8
ENDBRANCH   5   6
ENDBRANCH   4   5
ENDBRANCH   3   4
ENDBRANCH   2   3
ENDBRANCH   1   2
BRANCH   1  34
ATOM     34  C   UNL A   1      35.989  22.353  25.892  1.00  0.00     0.188 C 
BRANCH  34  35
ATOM     35  O   UNL A   1      37.279  21.788  25.772  1.00  0.00    -0.376 OA
BRANCH  35  36
ATOM     36  C   UNL A   1      38.446  22.603  25.785  1.00  0.00     0.202 C 
BRANCH  36  37
ATOM     37  C   UNL A   1      39.565  22.451  26.819  1.00  0.00     0.261 C 
BRANCH  37  38
ATOM     38  O   UNL A   1      39.856  23.626  27.536  1.00  0.00    -0.460 OA
BRANCH  38  39
ATOM     39  C   UNL A   1      41.097  23.660  28.058  1.00  0.00     0.338 C 
ATOM     40  O   UNL A   1      41.604  22.841  28.805  1.00  0.00    -0.246 OA
BRANCH  39  41
ATOM     41  C   UNL A   1      41.768  24.861  27.540  1.00  0.00     0.060 A 
ATOM     42  C   UNL A   1      42.898  25.234  28.263  1.00  0.00     0.016 A 
ATOM     43  C   UNL A   1      40.952  25.774  26.860  1.00  0.00     0.016 A 
ATOM     44  C   UNL A   1      42.923  26.525  28.706  1.00  0.00     0.010 A 
ATOM     45  C   UNL A   1      40.952  27.051  27.332  1.00  0.00     0.010 A 
ATOM     46  C   UNL A   1      41.856  27.352  28.345  1.00  0.00    -0.014 A 
BRANCH  46  47
ATOM     47  C   UNL A   1      41.719  28.595  29.048  1.00  0.00     0.031 A 
ATOM     48  C   UNL A   1      42.714  29.571  28.584  1.00  0.00     0.074 A 
ATOM     49  C   UNL A   1      40.736  28.788  29.944  1.00  0.00     0.049 A 
ATOM     50  N   UNL A   1      43.771  29.971  29.207  1.00  0.00    -0.248 NA
ATOM     51  C   UNL A   1      42.673  29.934  27.157  1.00  0.00     0.031 C 
ATOM     52  C   UNL A   1      39.565  27.943  30.207  1.00  0.00     0.029 A 
ATOM     53  N   UNL A   1      40.500  29.884  30.705  1.00  0.00    -0.354 N 
ATOM     54  C   UNL A   1      44.369  30.860  28.324  1.00  0.00     0.074 A 
ATOM     55  C   UNL A   1      43.834  30.570  27.024  1.00  0.00     0.031 C 
ATOM     56  C   UNL A   1      38.629  28.681  30.849  1.00  0.00     0.029 A 
ATOM     57  C   UNL A   1      39.186  29.992  31.141  1.00  0.00     0.049 A 
ATOM     58  H   UNL A   1      41.196  30.543  30.928  1.00  0.00     0.167 HD
ATOM     59  C   UNL A   1      44.973  31.985  28.783  1.00  0.00     0.034 A 
ATOM     60  C   UNL A   1      38.594  31.125  31.592  1.00  0.00     0.034 A 
ATOM     61  C   UNL A   1      45.267  31.888  30.190  1.00  0.00     0.049 A 
ATOM     62  C   UNL A   1      39.677  32.079  31.941  1.00  0.00     0.074 A 
ATOM     63  C   UNL A   1      46.013  31.031  30.974  1.00  0.00     0.029 A 
ATOM     64  N   UNL A   1      44.412  32.545  31.042  1.00  0.00    -0.354 N 
ATOM     65  N   UNL A   1      40.513  31.892  32.925  1.00  0.00    -0.248 NA
ATOM     66  C   UNL A   1      40.121  33.012  30.915  1.00  0.00     0.031 C 
ATOM     67  C   UNL A   1      45.277  30.901  32.187  1.00  0.00     0.029 A 
ATOM     68  C   UNL A   1      44.149  31.723  32.106  1.00  0.00     0.049 A 
ATOM     69  H   UNL A   1      44.050  33.451  30.911  1.00  0.00     0.167 HD
ATOM     70  C   UNL A   1      41.740  32.310  32.423  1.00  0.00     0.074 A 
ATOM     71  C   UNL A   1      41.417  33.093  31.232  1.00  0.00     0.031 C 
ATOM     72  C   UNL A   1      42.904  31.731  32.844  1.00  0.00     0.034 A 
BRANCH  59  73
ATOM     73  C   UNL A   1      44.903  33.318  28.074  1.00  0.00     0.023 A 
ATOM     74  C   UNL A   1      46.116  33.831  27.572  1.00  0.00     0.012 A 
ATOM     75  C   UNL A   1      43.800  34.206  28.117  1.00  0.00     0.148 A 
ATOM     76  C   UNL A   1      46.239  35.170  27.188  1.00  0.00     0.002 A 
ATOM     77  C   UNL A   1      43.904  35.510  27.655  1.00  0.00     0.091 A 
ATOM     78  F   UNL A   1      42.670  33.861  28.737  1.00  0.00    -0.205 F 
ATOM     79  C   UNL A   1      45.131  36.008  27.222  1.00  0.00     0.022 A 
BRANCH  77  80
ATOM     80  S   UNL A   1      42.483  36.612  27.640  1.00  0.00     0.127 S 
ATOM     81  O   UNL A   1      42.641  37.307  28.913  1.00  0.00    -0.237 OA
ATOM     82  O   UNL A   1      42.748  37.423  26.452  1.00  0.00    -0.237 OA
ATOM     83  O   UNL A   1      41.316  35.746  27.520  1.00  0.00    -0.744 OA
ENDBRANCH  77  80
ENDBRANCH  59  73
BRANCH  60  84
ATOM     84  C   UNL A   1      37.185  31.556  31.449  1.00  0.00     0.023 A 
ATOM     85  C   UNL A   1      36.381  31.705  32.594  1.00  0.00     0.012 A 
ATOM     86  C   UNL A   1      36.704  32.070  30.223  1.00  0.00     0.148 A 
ATOM     87  C   UNL A   1      35.146  32.363  32.527  1.00  0.00     0.002 A 
ATOM     88  C   UNL A   1      35.473  32.714  30.158  1.00  0.00     0.091 A 
ATOM     89  F   UNL A   1      37.494  32.007  29.144  1.00  0.00    -0.205 F 
ATOM     90  C   UNL A   1      34.695  32.871  31.311  1.00  0.00     0.022 A 
BRANCH  88  91
ATOM     91  S   UNL A   1      34.830  33.414  28.630  1.00  0.00     0.127 S 
ATOM     92  O   UNL A   1      35.120  32.351  27.668  1.00  0.00    -0.237 OA
ATOM     93  O   UNL A   1      33.414  33.582  28.948  1.00  0.00    -0.237 OA
ATOM     94  O   UNL A   1      35.577  34.645  28.409  1.00  0.00    -0.744 OA
ENDBRANCH  88  91
ENDBRANCH  60  84
BRANCH  72  95
ATOM     95  C   UNL A   1      42.842  30.820  34.046  1.00  0.00     0.023 A 
ATOM     96  C   UNL A   1      42.935  31.304  35.367  1.00  0.00     0.012 A 
ATOM     97  C   UNL A   1      42.502  29.474  33.838  1.00  0.00     0.148 A 
ATOM     98  C   UNL A   1      42.713  30.457  36.457  1.00  0.00     0.002 A 
ATOM     99  C   UNL A   1      42.236  28.647  34.921  1.00  0.00     0.091 A 
ATOM    100  F   UNL A   1      42.412  29.032  32.574  1.00  0.00    -0.205 F 
ATOM    101  C   UNL A   1      42.350  29.131  36.233  1.00  0.00     0.022 A 
BRANCH  99 102
ATOM    102  S   UNL A   1      41.637  26.972  34.694  1.00  0.00     0.127 S 
ATOM    103  O   UNL A   1      40.492  27.174  33.809  1.00  0.00    -0.237 OA
ATOM    104  O   UNL A   1      42.783  26.308  34.071  1.00  0.00    -0.237 OA
ATOM    105  O   UNL A   1      41.318  26.477  36.027  1.00  0.00    -0.744 OA
ENDBRANCH  99 102
ENDBRANCH  72  95
ENDBRANCH  46  47
ENDBRANCH  39  41
ENDBRANCH  38  39
ENDBRANCH  37  38
ENDBRANCH  36  37
ENDBRANCH  35  36
ENDBRANCH  34  35
ENDBRANCH   1  34
TORSDOF 24
ENDMDL
MODEL 2
REMARK VINA RESULT:     -10.2      6.095     12.067
REMARK SMILES NS(=O)(=O)c1ccc(-n2nc(C(=O)OCCOCCOCCOC(=O)c3ccc(-c4c5nc(c(-c6cccc(S(=O)(=O)[O-])c6F)c6ccc([nH]6)c(-c6cccc(S(=O)(=O)[O-])c6F)c6nc(c(-c7cccc(S(=O)(=O)[O-])c7F)c7ccc4[nH]7)C=C6)C=C5)cc3)cc2-c2cc3ccccc3s2)cc1
REMARK SMILES IDX 18 1 17 2 16 3 15 4 14 5 12 6 13 7 11 8 9 9 10 10 90 11
REMARK SMILES IDX 89 12 8 13 5 14 6 15 101 16 7 17 100 18 2 19 3 20 4 21 1 22
REMARK SMILES IDX 91 25 92 26 99 27 93 28 98 29 94 30 97 31 95 32 96 33 19 34
REMARK SMILES IDX 20 35 21 36 22 37 23 38 24 39 25 40 26 41 27 42 88 43 28 44
REMARK SMILES IDX 87 45 29 46 30 47 31 48 81 49 32 50 86 51 80 52 82 53 33 54
REMARK SMILES IDX 85 55 79 56 78 57 34 59 66 60 46 61 65 62 47 63 50 64 64 65
REMARK SMILES IDX 83 66 48 67 49 68 63 70 84 71 51 72 35 73 36 74 44 75 37 76
REMARK SMILES IDX 39 77 45 78 38 79 40 80 41 81 42 82 43 83 67 84 68 85 76 86
REMARK SMILES IDX 69 87 71 88 77 89 70 90 72 91 73 92 74 93 75 94 52 95 53 96
REMARK SMILES IDX 61 97 54 98 56 99 62 100 55 101 57 102 58 103 59 104 60 105
REMARK H PARENT 1 23 1 24 82 58 50 69
REMARK Flexibility Score: inf
ROOT
ATOM      1  C   UNL A   1      33.764  35.227  28.900  1.00  0.00     0.188 C 
ENDROOT
BRANCH   1   2
ATOM      2  O   UNL A   1      34.006  35.390  30.290  1.00  0.00    -0.376 OA
BRANCH   2   3
ATOM      3  C   UNL A   1      33.314  34.604  31.247  1.00  0.00     0.202 C 
BRANCH   3   4
ATOM      4  C   UNL A   1      34.060  33.567  32.109  1.00  0.00     0.261 C 
BRANCH   4   5
ATOM      5  O   UNL A   1      34.147  33.879  33.502  1.00  0.00    -0.458 OA
BRANCH   5   6
ATOM      6  C   UNL A   1      34.976  34.906  33.858  1.00  0.00     0.358 C 
ATOM      7  O   UNL A   1      34.609  36.060  34.040  1.00  0.00    -0.244 OA
BRANCH   6   8
ATOM      8  C   UNL A   1      36.361  34.436  34.024  1.00  0.00     0.171 A 
ATOM      9  N   UNL A   1      38.440  34.081  33.661  1.00  0.00    -0.231 N 
ATOM     10  N   UNL A   1      37.430  34.952  33.391  1.00  0.00    -0.160 NA
ATOM     11  C   UNL A   1      37.991  33.004  34.389  1.00  0.00     0.085 A 
ATOM     12  C   UNL A   1      36.774  33.412  34.898  1.00  0.00     0.068 A 
BRANCH   9  13
ATOM     13  C   UNL A   1      39.727  34.332  33.154  1.00  0.00     0.065 A 
ATOM     14  C   UNL A   1      42.240  34.924  32.151  1.00  0.00     0.082 A 
ATOM     15  C   UNL A   1      41.302  34.271  31.342  1.00  0.00     0.024 A 
ATOM     16  C   UNL A   1      41.934  35.273  33.472  1.00  0.00     0.024 A 
ATOM     17  C   UNL A   1      40.043  33.957  31.849  1.00  0.00     0.030 A 
ATOM     18  C   UNL A   1      40.657  35.003  33.965  1.00  0.00     0.030 A 
BRANCH  14  19
ATOM     19  S   UNL A   1      43.843  35.272  31.493  1.00  0.00     0.238 S 
ATOM     20  O   UNL A   1      44.845  34.827  32.453  1.00  0.00    -0.207 OA
ATOM     21  O   UNL A   1      43.867  36.580  30.912  1.00  0.00    -0.207 OA
BRANCH  19  22
ATOM     22  N   UNL A   1      43.934  34.187  30.215  1.00  0.00    -0.225 NA
ATOM     23  H   UNL A   1      43.570  33.282  30.511  1.00  0.00     0.137 HD
ATOM     24  H   UNL A   1      44.907  34.084  29.925  1.00  0.00     0.137 HD
ENDBRANCH  19  22
ENDBRANCH  14  19
ENDBRANCH   9  13
BRANCH  11  25
ATOM     25  C   UNL A   1      38.484  31.651  34.485  1.00  0.00     0.054 A 
ATOM     26  C   UNL A   1      39.583  31.110  33.820  1.00  0.00     0.031 A 
ATOM     27  S   UNL A   1      38.702  31.089  36.140  1.00  0.00    -0.134 S 
ATOM     28  C   UNL A   1      40.746  31.387  34.657  1.00  0.00    -0.007 A 
ATOM     29  C   UNL A   1      40.350  31.631  35.981  1.00  0.00     0.035 A 
ATOM     30  C   UNL A   1      42.097  31.616  34.318  1.00  0.00     0.009 A 
ATOM     31  C   UNL A   1      41.182  32.264  36.915  1.00  0.00     0.019 A 
ATOM     32  C   UNL A   1      42.931  32.270  35.234  1.00  0.00     0.001 A 
ATOM     33  C   UNL A   1      42.462  32.634  36.494  1.00  0.00     0.001 A 
ENDBRANCH  11  25
ENDBRANCH   6   8
ENDBRANCH   5   6
ENDBRANCH   4   5
ENDBRANCH   3   4
ENDBRANCH   2   3
ENDBRANCH   1   2
BRANCH   1  34
ATOM     34  C   UNL A   1      33.703  33.820  28.257  1.00  0.00     0.188 C 
BRANCH  34  35
ATOM     35  O   UNL A   1      34.830  33.454  27.486  1.00  0.00    -0.376 OA
BRANCH  35  36
ATOM     36  C   UNL A   1      35.677  32.381  27.881  1.00  0.00     0.202 C 
BRANCH  36  37
ATOM     37  C   UNL A   1      35.619  31.732  29.267  1.00  0.00     0.261 C 
BRANCH  37  38
ATOM     38  O   UNL A   1      35.881  30.350  29.271  1.00  0.00    -0.460 OA
BRANCH  38  39
ATOM     39  C   UNL A   1      37.147  30.027  28.943  1.00  0.00     0.338 C 
ATOM     40  O   UNL A   1      37.583  29.802  27.827  1.00  0.00    -0.246 OA
BRANCH  39  41
ATOM     41  C   UNL A   1      37.942  30.023  30.179  1.00  0.00     0.060 A 
ATOM     42  C   UNL A   1      39.048  30.867  30.142  1.00  0.00     0.016 A 
ATOM     43  C   UNL A   1      37.897  28.844  30.934  1.00  0.00     0.016 A 
ATOM     44  C   UNL A   1      40.247  30.292  30.450  1.00  0.00     0.010 A 
ATOM     45  C   UNL A   1      39.094  28.255  31.204  1.00  0.00     0.010 A 
ATOM     46  C   UNL A   1      40.240  28.946  30.827  1.00  0.00    -0.014 A 
BRANCH  46  47
ATOM     47  C   UNL A   1      41.501  28.263  30.852  1.00  0.00     0.031 A 
ATOM     48  C   UNL A   1      42.053  28.231  32.213  1.00  0.00     0.074 A 
ATOM     49  C   UNL A   1      42.008  27.688  29.748  1.00  0.00     0.049 A 
ATOM     50  N   UNL A   1      43.043  28.918  32.675  1.00  0.00    -0.248 NA
ATOM     51  C   UNL A   1      41.239  27.565  33.243  1.00  0.00     0.031 C 
ATOM     52  C   UNL A   1      41.347  27.453  28.458  1.00  0.00     0.029 A 
ATOM     53  N   UNL A   1      43.192  27.043  29.607  1.00  0.00    -0.354 N 
ATOM     54  C   UNL A   1      43.129  28.537  34.007  1.00  0.00     0.074 A 
ATOM     55  C   UNL A   1      41.858  27.963  34.352  1.00  0.00     0.031 C 
ATOM     56  C   UNL A   1      42.028  26.495  27.787  1.00  0.00     0.029 A 
ATOM     57  C   UNL A   1      43.221  26.152  28.543  1.00  0.00     0.049 A 
ATOM     58  H   UNL A   1      43.959  27.192  30.205  1.00  0.00     0.167 HD
ATOM     59  C   UNL A   1      44.338  28.392  34.606  1.00  0.00     0.034 A 
ATOM     60  C   UNL A   1      44.107  25.138  28.386  1.00  0.00     0.034 A 
ATOM     61  C   UNL A   1      45.375  29.066  33.866  1.00  0.00     0.049 A 
ATOM     62  C   UNL A   1      45.258  25.416  29.283  1.00  0.00     0.074 A 
ATOM     63  C   UNL A   1      45.600  30.369  33.470  1.00  0.00     0.029 A 
ATOM     64  N   UNL A   1      46.178  28.278  33.078  1.00  0.00    -0.354 N 
ATOM     65  N   UNL A   1      46.077  26.417  29.116  1.00  0.00    -0.248 NA
ATOM     66  C   UNL A   1      45.226  24.854  30.626  1.00  0.00     0.031 C 
ATOM     67  C   UNL A   1      46.198  30.266  32.181  1.00  0.00     0.029 A 
ATOM     68  C   UNL A   1      46.356  28.911  31.877  1.00  0.00     0.049 A 
ATOM     69  H   UNL A   1      46.560  27.407  33.333  1.00  0.00     0.167 HD
ATOM     70  C   UNL A   1      46.309  26.894  30.401  1.00  0.00     0.074 A 
ATOM     71  C   UNL A   1      45.856  25.827  31.291  1.00  0.00     0.031 C 
ATOM     72  C   UNL A   1      46.561  28.219  30.622  1.00  0.00     0.034 A 
BRANCH  59  73
ATOM     73  C   UNL A   1      44.651  27.297  35.599  1.00  0.00     0.023 A 
ATOM     74  C   UNL A   1      45.060  27.708  36.884  1.00  0.00     0.012 A 
ATOM     75  C   UNL A   1      44.836  25.930  35.274  1.00  0.00     0.148 A 
ATOM     76  C   UNL A   1      45.673  26.819  37.774  1.00  0.00     0.002 A 
ATOM     77  C   UNL A   1      45.365  25.034  36.191  1.00  0.00     0.091 A 
ATOM     78  F   UNL A   1      44.642  25.494  34.028  1.00  0.00    -0.205 F 
ATOM     79  C   UNL A   1      45.818  25.481  37.431  1.00  0.00     0.022 A 
BRANCH  77  80
ATOM     80  S   UNL A   1      45.528  23.287  35.803  1.00  0.00     0.127 S 
ATOM     81  O   UNL A   1      44.135  22.851  35.832  1.00  0.00    -0.237 OA
ATOM     82  O   UNL A   1      46.137  23.332  34.473  1.00  0.00    -0.237 OA
ATOM     83  O   UNL A   1      46.397  22.735  36.835  1.00  0.00    -0.744 OA
ENDBRANCH  77  80
ENDBRANCH  59  73
BRANCH  60  84
ATOM     84  C   UNL A   1      43.898  23.810  27.768  1.00  0.00     0.023 A 
ATOM     85  C   UNL A   1      42.803  23.019  28.165  1.00  0.00     0.012 A 
ATOM     86  C   UNL A   1      44.613  23.426  26.611  1.00  0.00     0.148 A 
ATOM     87  C   UNL A   1      42.419  21.895  27.423  1.00  0.00     0.002 A 
ATOM     88  C   UNL A   1      44.236  22.303  25.881  1.00  0.00     0.091 A 
ATOM     89  F   UNL A   1      45.606  24.214  26.177  1.00  0.00    -0.205 F 
ATOM     90  C   UNL A   1      43.131  21.540  26.280  1.00  0.00     0.022 A 
BRANCH  88  91
ATOM     91  S   UNL A   1      45.093  21.792  24.385  1.00  0.00     0.127 S 
ATOM     92  O   UNL A   1      46.443  21.535  24.885  1.00  0.00    -0.237 OA
ATOM     93  O   UNL A   1      44.344  20.597  24.002  1.00  0.00    -0.237 OA
ATOM     94  O   UNL A   1      44.997  22.917  23.465  1.00  0.00    -0.744 OA
ENDBRANCH  88  91
ENDBRANCH  60  84
BRANCH  72  95
ATOM     95  C   UNL A   1      46.836  29.093  29.423  1.00  0.00     0.023 A 
ATOM     96  C   UNL A   1      48.087  29.110  28.771  1.00  0.00     0.012 A 
ATOM     97  C   UNL A   1      45.756  29.771  28.837  1.00  0.00     0.148 A 
ATOM     98  C   UNL A   1      48.260  29.805  27.571  1.00  0.00     0.002 A 
ATOM     99  C   UNL A   1      45.918  30.422  27.622  1.00  0.00     0.091 A 
ATOM    100  F   UNL A   1      44.571  29.739  29.467  1.00  0.00    -0.205 F 
ATOM    101  C   UNL A   1      47.171  30.451  26.989  1.00  0.00     0.022 A 
BRANCH  99 102
ATOM    102  S   UNL A   1      44.527  31.155  26.759  1.00  0.00     0.127 S 
ATOM    103  O   UNL A   1      44.026  32.111  27.745  1.00  0.00    -0.237 OA
ATOM    104  O   UNL A   1      45.164  31.760  25.589  1.00  0.00    -0.237 OA
ATOM    105  O   UNL A   1      43.627  30.053  26.442  1.00  0.00    -0.744 OA
ENDBRANCH  99 102
ENDBRANCH  72  95
ENDBRANCH  46  47
ENDBRANCH  39  41
ENDBRANCH  38  39
ENDBRANCH  37  38
ENDBRANCH  36  37
ENDBRANCH  35  36
ENDBRANCH  34  35
ENDBRANCH   1  34
TORSDOF 24
ENDMDL
MODEL 3
REMARK VINA RESULT:     -10.1      2.036      2.536
REMARK SMILES NS(=O)(=O)c1ccc(-n2nc(C(=O)OCCOCCOCCOC(=O)c3ccc(-c4c5nc(c(-c6cccc(S(=O)(=O)[O-])c6F)c6ccc([nH]6)c(-c6cccc(S(=O)(=O)[O-])c6F)c6nc(c(-c7cccc(S(=O)(=O)[O-])c7F)c7ccc4[nH]7)C=C6)C=C5)cc3)cc2-c2cc3ccccc3s2)cc1
REMARK SMILES IDX 18 1 17 2 16 3 15 4 14 5 12 6 13 7 11 8 9 9 10 10 90 11
REMARK SMILES IDX 89 12 8 13 5 14 6 15 101 16 7 17 100 18 2 19 3 20 4 21 1 22
REMARK SMILES IDX 91 25 92 26 99 27 93 28 98 29 94 30 97 31 95 32 96 33 19 34
REMARK SMILES IDX 20 35 21 36 22 37 23 38 24 39 25 40 26 41 27 42 88 43 28 44
REMARK SMILES IDX 87 45 29 46 30 47 31 48 81 49 32 50 86 51 80 52 82 53 33 54
REMARK SMILES IDX 85 55 79 56 78 57 34 59 66 60 46 61 65 62 47 63 50 64 64 65
REMARK SMILES IDX 83 66 48 67 49 68 63 70 84 71 51 72 35 73 36 74 44 75 37 76
REMARK SMILES IDX 39 77 45 78 38 79 40 80 41 81 42 82 43 83 67 84 68 85 76 86
REMARK SMILES IDX 69 87 71 88 77 89 70 90 72 91 73 92 74 93 75 94 52 95 53 96
REMARK SMILES IDX 61 97 54 98 56 99 62 100 55 101 57 102 58 103 59 104 60 105
REMARK H PARENT 1 23 1 24 82 58 50 69
REMARK Flexibility Score: inf
ROOT
ATOM      1  C   UNL A   1      35.312  22.342  25.775  1.00  0.00     0.188 C 
ENDROOT
BRANCH   1   2
ATOM      2  O   UNL A   1      34.492  21.373  26.412  1.00  0.00    -0.376 OA
BRANCH   2   3
ATOM      3  C   UNL A   1      33.999  20.252  25.696  1.00  0.00     0.202 C 
BRANCH   3   4
ATOM      4  C   UNL A   1      33.490  20.399  24.248  1.00  0.00     0.261 C 
BRANCH   4   5
ATOM      5  O   UNL A   1      32.179  20.954  24.113  1.00  0.00    -0.458 OA
BRANCH   5   6
ATOM      6  C   UNL A   1      31.959  21.773  23.041  1.00  0.00     0.358 C 
ATOM      7  O   UNL A   1      31.808  21.382  21.890  1.00  0.00    -0.244 OA
BRANCH   6   8
ATOM      8  C   UNL A   1      31.895  23.184  23.456  1.00  0.00     0.171 A 
ATOM      9  N   UNL A   1      31.403  25.267  23.495  1.00  0.00    -0.231 N 
ATOM     10  N   UNL A   1      30.945  24.056  23.072  1.00  0.00    -0.160 NA
ATOM     11  C   UNL A   1      32.649  25.159  24.067  1.00  0.00     0.085 A 
ATOM     12  C   UNL A   1      32.788  23.813  24.344  1.00  0.00     0.068 A 
BRANCH   9  13
ATOM     13  C   UNL A   1      30.630  26.418  23.266  1.00  0.00     0.065 A 
ATOM     14  C   UNL A   1      29.180  28.742  22.852  1.00  0.00     0.082 A 
ATOM     15  C   UNL A   1      28.788  27.844  23.854  1.00  0.00     0.024 A 
ATOM     16  C   UNL A   1      30.291  28.479  22.043  1.00  0.00     0.024 A 
ATOM     17  C   UNL A   1      29.505  26.665  24.052  1.00  0.00     0.030 A 
ATOM     18  C   UNL A   1      31.040  27.323  22.273  1.00  0.00     0.030 A 
BRANCH  14  19
ATOM     19  S   UNL A   1      28.226  30.208  22.597  1.00  0.00     0.238 S 
ATOM     20  O   UNL A   1      29.107  31.361  22.725  1.00  0.00    -0.207 OA
ATOM     21  O   UNL A   1      26.980  30.115  23.293  1.00  0.00    -0.207 OA
BRANCH  19  22
ATOM     22  N   UNL A   1      27.863  30.102  20.962  1.00  0.00    -0.225 NA
ATOM     23  H   UNL A   1      28.258  30.904  20.472  1.00  0.00     0.137 HD
ATOM     24  H   UNL A   1      26.850  30.093  20.838  1.00  0.00     0.137 HD
ENDBRANCH  19  22
ENDBRANCH  14  19
ENDBRANCH   9  13
BRANCH  11  25
ATOM     25  C   UNL A   1      33.721  26.115  24.193  1.00  0.00     0.054 A 
ATOM     26  C   UNL A   1      33.711  27.447  23.779  1.00  0.00     0.031 A 
ATOM     27  S   UNL A   1      34.407  26.207  25.812  1.00  0.00    -0.134 S 
ATOM     28  C   UNL A   1      33.153  28.217  24.887  1.00  0.00    -0.007 A 
ATOM     29  C   UNL A   1      33.276  27.503  26.090  1.00  0.00     0.035 A 
ATOM     30  C   UNL A   1      32.392  29.405  24.898  1.00  0.00     0.009 A 
ATOM     31  C   UNL A   1      32.530  27.817  27.234  1.00  0.00     0.019 A 
ATOM     32  C   UNL A   1      31.623  29.715  26.027  1.00  0.00     0.001 A 
ATOM     33  C   UNL A   1      31.654  28.901  27.158  1.00  0.00     0.001 A 
ENDBRANCH  11  25
ENDBRANCH   6   8
ENDBRANCH   5   6
ENDBRANCH   4   5
ENDBRANCH   3   4
ENDBRANCH   2   3
ENDBRANCH   1   2
BRANCH   1  34
ATOM     34  C   UNL A   1      36.842  22.141  25.651  1.00  0.00     0.188 C 
BRANCH  34  35
ATOM     35  O   UNL A   1      37.252  20.875  25.174  1.00  0.00    -0.376 OA
BRANCH  35  36
ATOM     36  C   UNL A   1      38.589  20.420  25.345  1.00  0.00     0.202 C 
BRANCH  36  37
ATOM     37  C   UNL A   1      39.580  21.071  26.315  1.00  0.00     0.261 C 
BRANCH  37  38
ATOM     38  O   UNL A   1      40.387  22.067  25.736  1.00  0.00    -0.460 OA
BRANCH  38  39
ATOM     39  C   UNL A   1      40.918  22.931  26.623  1.00  0.00     0.338 C 
ATOM     40  O   UNL A   1      41.933  22.780  27.280  1.00  0.00    -0.246 OA
BRANCH  39  41
ATOM     41  C   UNL A   1      40.069  24.131  26.641  1.00  0.00     0.060 A 
ATOM     42  C   UNL A   1      40.500  25.142  25.787  1.00  0.00     0.016 A 
ATOM     43  C   UNL A   1      39.375  24.373  27.834  1.00  0.00     0.016 A 
ATOM     44  C   UNL A   1      40.674  26.370  26.356  1.00  0.00     0.010 A 
ATOM     45  C   UNL A   1      39.584  25.586  28.417  1.00  0.00     0.010 A 
ATOM     46  C   UNL A   1      40.348  26.507  27.708  1.00  0.00    -0.014 A 
BRANCH  46  47
ATOM     47  C   UNL A   1      40.809  27.687  28.381  1.00  0.00     0.031 A 
ATOM     48  C   UNL A   1      42.146  28.071  27.909  1.00  0.00     0.074 A 
ATOM     49  C   UNL A   1      40.028  28.343  29.258  1.00  0.00     0.049 A 
ATOM     50  N   UNL A   1      43.265  27.945  28.539  1.00  0.00    -0.248 NA
ATOM     51  C   UNL A   1      42.282  28.372  26.475  1.00  0.00     0.031 C 
ATOM     52  C   UNL A   1      38.597  28.152  29.523  1.00  0.00     0.029 A 
ATOM     53  N   UNL A   1      40.332  29.441  29.991  1.00  0.00    -0.354 N 
ATOM     54  C   UNL A   1      44.212  28.426  27.646  1.00  0.00     0.074 A 
ATOM     55  C   UNL A   1      43.607  28.386  26.344  1.00  0.00     0.031 C 
ATOM     56  C   UNL A   1      38.115  29.259  30.134  1.00  0.00     0.029 A 
ATOM     57  C   UNL A   1      39.220  30.163  30.404  1.00  0.00     0.049 A 
ATOM     58  H   UNL A   1      41.255  29.703  30.209  1.00  0.00     0.167 HD
ATOM     59  C   UNL A   1      45.272  29.149  28.088  1.00  0.00     0.034 A 
ATOM     60  C   UNL A   1      39.228  31.453  30.821  1.00  0.00     0.034 A 
ATOM     61  C   UNL A   1      45.482  28.964  29.501  1.00  0.00     0.049 A 
ATOM     62  C   UNL A   1      40.630  31.798  31.165  1.00  0.00     0.074 A 
ATOM     63  C   UNL A   1      45.739  27.878  30.315  1.00  0.00     0.029 A 
ATOM     64  N   UNL A   1      45.033  29.967  30.325  1.00  0.00    -0.354 N 
ATOM     65  N   UNL A   1      41.278  31.268  32.165  1.00  0.00    -0.248 NA
ATOM     66  C   UNL A   1      41.462  32.386  30.125  1.00  0.00     0.031 C 
ATOM     67  C   UNL A   1      45.024  28.141  31.519  1.00  0.00     0.029 A 
ATOM     68  C   UNL A   1      44.413  29.393  31.403  1.00  0.00     0.049 A 
ATOM     69  H   UNL A   1      45.138  30.933  30.168  1.00  0.00     0.167 HD
ATOM     70  C   UNL A   1      42.559  31.048  31.672  1.00  0.00     0.074 A 
ATOM     71  C   UNL A   1      42.644  31.859  30.458  1.00  0.00     0.031 C 
ATOM     72  C   UNL A   1      43.315  30.003  32.123  1.00  0.00     0.034 A 
BRANCH  59  73
ATOM     73  C   UNL A   1      45.837  30.340  27.348  1.00  0.00     0.023 A 
ATOM     74  C   UNL A   1      47.238  30.488  27.364  1.00  0.00     0.012 A 
ATOM     75  C   UNL A   1      45.081  31.447  26.890  1.00  0.00     0.148 A 
ATOM     76  C   UNL A   1      47.850  31.691  26.999  1.00  0.00     0.002 A 
ATOM     77  C   UNL A   1      45.696  32.609  26.448  1.00  0.00     0.091 A 
ATOM     78  F   UNL A   1      43.752  31.461  27.007  1.00  0.00    -0.205 F 
ATOM     79  C   UNL A   1      47.080  32.750  26.533  1.00  0.00     0.022 A 
BRANCH  77  80
ATOM     80  S   UNL A   1      44.738  33.984  25.796  1.00  0.00     0.127 S 
ATOM     81  O   UNL A   1      45.792  34.876  25.326  1.00  0.00    -0.237 OA
ATOM     82  O   UNL A   1      43.959  33.332  24.743  1.00  0.00    -0.237 OA
ATOM     83  O   UNL A   1      43.937  34.468  26.914  1.00  0.00    -0.744 OA
ENDBRANCH  77  80
ENDBRANCH  59  73
BRANCH  60  84
ATOM     84  C   UNL A   1      38.185  32.490  30.648  1.00  0.00     0.023 A 
ATOM     85  C   UNL A   1      38.019  33.111  29.396  1.00  0.00     0.012 A 
ATOM     86  C   UNL A   1      37.187  32.687  31.629  1.00  0.00     0.148 A 
ATOM     87  C   UNL A   1      36.884  33.886  29.121  1.00  0.00     0.002 A 
ATOM     88  C   UNL A   1      36.066  33.465  31.356  1.00  0.00     0.091 A 
ATOM     89  F   UNL A   1      37.293  32.037  32.795  1.00  0.00    -0.205 F 
ATOM     90  C   UNL A   1      35.907  34.059  30.098  1.00  0.00     0.022 A 
BRANCH  88  91
ATOM     91  S   UNL A   1      34.753  33.720  32.558  1.00  0.00     0.127 S 
ATOM     92  O   UNL A   1      33.920  32.535  32.348  1.00  0.00    -0.237 OA
ATOM     93  O   UNL A   1      35.494  33.730  33.817  1.00  0.00    -0.237 OA
ATOM     94  O   UNL A   1      34.114  34.976  32.192  1.00  0.00    -0.744 OA
ENDBRANCH  88  91
ENDBRANCH  60  84
BRANCH  72  95
ATOM     95  C   UNL A   1      42.831  29.260  33.343  1.00  0.00     0.023 A 
ATOM     96  C   UNL A   1      41.808  28.290  33.282  1.00  0.00     0.012 A 
ATOM     97  C   UNL A   1      43.549  29.415  34.540  1.00  0.00     0.148 A 
ATOM     98  C   UNL A   1      41.495  27.507  34.397  1.00  0.00     0.002 A 
ATOM     99  C   UNL A   1      43.267  28.604  35.631  1.00  0.00     0.091 A 
ATOM    100  F   UNL A   1      44.523  30.337  34.579  1.00  0.00    -0.205 F 
ATOM    101  C   UNL A   1      42.235  27.655  35.568  1.00  0.00     0.022 A 
BRANCH  99 102
ATOM    102  S   UNL A   1      44.269  28.654  37.118  1.00  0.00     0.127 S 
ATOM    103  O   UNL A   1      43.994  29.996  37.626  1.00  0.00    -0.237 OA
ATOM    104  O   UNL A   1      43.702  27.568  37.919  1.00  0.00    -0.237 OA
ATOM    105  O   UNL A   1      45.641  28.417  36.685  1.00  0.00    -0.744 OA
ENDBRANCH  99 102
ENDBRANCH  72  95
ENDBRANCH  46  47
ENDBRANCH  39  41
ENDBRANCH  38  39
ENDBRANCH  37  38
ENDBRANCH  36  37
ENDBRANCH  35  36
ENDBRANCH  34  35
ENDBRANCH   1  34
TORSDOF 24
ENDMDL
