MODEL 1
REMARK VINA RESULT:      -9.9      0.000      0.000
REMARK SMILES COc1ccccc1[C@@H]1CN(C(=O)Cc2csc(C)n2)C[C@H]1C(=O)OCCOCCOCCOC(=O)c1ccc(-c2c3nc(c(-c4cccc(S(=O)(=O)[O-])c4F)c4ccc([nH]4)c(-c4cccc(S(=O)(=O)[O-])c4F)c4nc(c(-c5cccc(S(=O)(=O)[O-])c5F)c5ccc2[nH]5)C=C4)C=C3)cc1
REMARK SMILES IDX 29 1 28 2 27 3 26 4 25 5 23 6 24 7 22 8 9 9 10 10 11 11
REMARK SMILES IDX 21 12 8 13 3 14 4 15 5 16 7 17 6 18 2 19 1 20 12 21 13 22
REMARK SMILES IDX 14 23 15 24 16 25 20 26 17 27 18 28 19 29 30 30 31 31 32 32
REMARK SMILES IDX 33 33 34 34 35 35 36 36 37 37 38 38 99 39 39 40 98 41 40 42
REMARK SMILES IDX 41 43 42 44 92 45 43 46 97 47 91 48 93 49 44 50 96 51 90 52
REMARK SMILES IDX 89 53 45 55 77 56 57 57 76 58 58 59 61 60 75 61 94 62 59 63
REMARK SMILES IDX 60 64 74 66 95 67 62 68 46 69 47 70 55 71 48 72 50 73 56 74
REMARK SMILES IDX 49 75 51 76 52 77 53 78 54 79 78 80 79 81 87 82 80 83 82 84
REMARK SMILES IDX 88 85 81 86 83 87 84 88 85 89 86 90 63 91 64 92 72 93 65 94
REMARK SMILES IDX 67 95 73 96 66 97 68 98 69 99 70 100 71 101
REMARK H PARENT 93 54 61 65
REMARK Flexibility Score: inf
ROOT
ATOM      1  C   UNL A   1      33.175  20.511  25.919  1.00  0.00     0.188 C 
ENDROOT
BRANCH   1   2
ATOM      2  O   UNL A   1      32.641  21.811  25.707  1.00  0.00    -0.376 OA
BRANCH   2   3
ATOM      3  C   UNL A   1      33.052  22.876  26.551  1.00  0.00     0.202 C 
BRANCH   3   4
ATOM      4  C   UNL A   1      32.451  24.257  26.271  1.00  0.00     0.261 C 
BRANCH   4   5
ATOM      5  O   UNL A   1      33.385  25.358  26.396  1.00  0.00    -0.463 OA
BRANCH   5   6
ATOM      6  C   UNL A   1      33.668  26.015  25.246  1.00  0.00     0.311 C 
ATOM      7  O   UNL A   1      34.304  25.521  24.317  1.00  0.00    -0.252 OA
BRANCH   6   8
ATOM      8  C   UNL A   1      33.237  27.468  25.177  1.00  0.00     0.128 C 
ATOM      9  C   UNL A   1      31.871  27.986  25.696  1.00  0.00     0.058 C 
ATOM     10  C   UNL A   1      32.211  29.336  26.343  1.00  0.00     0.129 C 
ATOM     11  N   UNL A   1      33.592  29.241  26.747  1.00  0.00    -0.341 N 
ATOM     12  C   UNL A   1      34.291  28.226  25.991  1.00  0.00     0.135 C 
BRANCH   9  13
ATOM     13  C   UNL A   1      30.733  28.257  24.707  1.00  0.00    -0.000 A 
ATOM     14  C   UNL A   1      29.880  27.253  24.205  1.00  0.00     0.122 A 
ATOM     15  C   UNL A   1      28.946  27.527  23.198  1.00  0.00     0.047 A 
ATOM     16  C   UNL A   1      28.843  28.815  22.671  1.00  0.00     0.004 A 
ATOM     17  C   UNL A   1      30.621  29.543  24.141  1.00  0.00     0.008 A 
ATOM     18  C   UNL A   1      29.680  29.823  23.143  1.00  0.00     0.001 A 
BRANCH  14  19
ATOM     19  O   UNL A   1      30.095  25.955  24.585  1.00  0.00    -0.496 OA
ATOM     20  C   UNL A   1      30.441  25.102  23.495  1.00  0.00     0.278 C 
ENDBRANCH  14  19
ENDBRANCH   9  13
BRANCH  11  21
ATOM     21  C   UNL A   1      34.274  30.134  27.546  1.00  0.00     0.228 C 
ATOM     22  O   UNL A   1      35.196  29.773  28.283  1.00  0.00    -0.274 OA
BRANCH  21  23
ATOM     23  C   UNL A   1      33.868  31.598  27.480  1.00  0.00     0.157 C 
BRANCH  23  24
ATOM     24  C   UNL A   1      34.719  32.420  28.392  1.00  0.00     0.061 A 
ATOM     25  C   UNL A   1      35.942  32.988  28.090  1.00  0.00     0.091 A 
ATOM     26  N   UNL A   1      34.247  32.707  29.666  1.00  0.00    -0.246 NA
ATOM     27  S   UNL A   1      36.485  33.950  29.398  1.00  0.00    -0.127 S 
ATOM     28  C   UNL A   1      35.058  33.552  30.269  1.00  0.00     0.090 A 
ATOM     29  C   UNL A   1      34.804  34.162  31.601  1.00  0.00     0.079 C 
ENDBRANCH  23  24
ENDBRANCH  21  23
ENDBRANCH  11  21
ENDBRANCH   6   8
ENDBRANCH   5   6
ENDBRANCH   4   5
ENDBRANCH   3   4
ENDBRANCH   2   3
ENDBRANCH   1   2
BRANCH   1  30
ATOM     30  C   UNL A   1      33.714  19.731  24.715  1.00  0.00     0.188 C 
BRANCH  30  31
ATOM     31  O   UNL A   1      35.126  19.613  24.660  1.00  0.00    -0.376 OA
BRANCH  31  32
ATOM     32  C   UNL A   1      35.834  20.821  24.903  1.00  0.00     0.202 C 
BRANCH  32  33
ATOM     33  C   UNL A   1      37.327  20.559  25.112  1.00  0.00     0.261 C 
BRANCH  33  34
ATOM     34  O   UNL A   1      38.027  21.667  25.709  1.00  0.00    -0.460 OA
BRANCH  34  35
ATOM     35  C   UNL A   1      39.237  21.385  26.235  1.00  0.00     0.338 C 
ATOM     36  O   UNL A   1      39.844  20.321  26.161  1.00  0.00    -0.246 OA
BRANCH  35  37
ATOM     37  C   UNL A   1      39.803  22.619  26.794  1.00  0.00     0.060 A 
ATOM     38  C   UNL A   1      39.286  23.850  26.381  1.00  0.00     0.016 A 
ATOM     39  C   UNL A   1      40.885  22.568  27.668  1.00  0.00     0.016 A 
ATOM     40  C   UNL A   1      39.886  25.039  26.779  1.00  0.00     0.010 A 
ATOM     41  C   UNL A   1      41.476  23.762  28.088  1.00  0.00     0.010 A 
ATOM     42  C   UNL A   1      41.004  25.002  27.614  1.00  0.00    -0.014 A 
BRANCH  42  43
ATOM     43  C   UNL A   1      41.769  26.243  27.884  1.00  0.00     0.031 A 
ATOM     44  C   UNL A   1      41.164  27.283  28.782  1.00  0.00     0.074 A 
ATOM     45  C   UNL A   1      42.985  26.441  27.344  1.00  0.00     0.049 A 
ATOM     46  N   UNL A   1      41.559  28.506  29.015  1.00  0.00    -0.248 NA
ATOM     47  C   UNL A   1      39.946  26.892  29.511  1.00  0.00     0.031 C 
ATOM     48  C   UNL A   1      43.702  25.487  26.500  1.00  0.00     0.029 A 
ATOM     49  N   UNL A   1      43.815  27.533  27.402  1.00  0.00    -0.354 N 
ATOM     50  C   UNL A   1      40.606  29.052  29.866  1.00  0.00     0.074 A 
ATOM     51  C   UNL A   1      39.620  28.023  30.117  1.00  0.00     0.031 C 
ATOM     52  C   UNL A   1      44.850  26.049  26.088  1.00  0.00     0.029 A 
ATOM     53  C   UNL A   1      44.920  27.419  26.593  1.00  0.00     0.049 A 
ATOM     54  H   UNL A   1      43.636  28.320  27.966  1.00  0.00     0.167 HD
ATOM     55  C   UNL A   1      40.560  30.296  30.398  1.00  0.00     0.034 A 
ATOM     56  C   UNL A   1      45.853  28.331  26.253  1.00  0.00     0.034 A 
ATOM     57  C   UNL A   1      41.564  31.302  30.181  1.00  0.00     0.049 A 
ATOM     58  C   UNL A   1      45.770  29.718  26.834  1.00  0.00     0.074 A 
ATOM     59  C   UNL A   1      41.619  32.588  30.686  1.00  0.00     0.029 A 
ATOM     60  N   UNL A   1      42.694  31.133  29.395  1.00  0.00    -0.354 N 
ATOM     61  N   UNL A   1      44.890  30.212  27.671  1.00  0.00    -0.248 NA
ATOM     62  C   UNL A   1      46.820  30.669  26.438  1.00  0.00     0.031 C 
ATOM     63  C   UNL A   1      42.779  33.200  30.198  1.00  0.00     0.029 A 
ATOM     64  C   UNL A   1      43.454  32.289  29.401  1.00  0.00     0.049 A 
ATOM     65  H   UNL A   1      42.922  30.310  28.904  1.00  0.00     0.167 HD
ATOM     66  C   UNL A   1      45.289  31.521  27.918  1.00  0.00     0.074 A 
ATOM     67  C   UNL A   1      46.506  31.735  27.162  1.00  0.00     0.031 C 
ATOM     68  C   UNL A   1      44.690  32.468  28.683  1.00  0.00     0.034 A 
BRANCH  55  69
ATOM     69  C   UNL A   1      39.387  30.627  31.278  1.00  0.00     0.023 A 
ATOM     70  C   UNL A   1      38.096  30.714  30.718  1.00  0.00     0.012 A 
ATOM     71  C   UNL A   1      39.557  30.835  32.660  1.00  0.00     0.148 A 
ATOM     72  C   UNL A   1      36.998  31.035  31.515  1.00  0.00     0.002 A 
ATOM     73  C   UNL A   1      38.451  31.114  33.455  1.00  0.00     0.091 A 
ATOM     74  F   UNL A   1      40.796  30.781  33.169  1.00  0.00    -0.205 F 
ATOM     75  C   UNL A   1      37.173  31.226  32.883  1.00  0.00     0.022 A 
BRANCH  73  76
ATOM     76  S   UNL A   1      38.577  31.304  35.236  1.00  0.00     0.127 S 
ATOM     77  O   UNL A   1      39.693  32.242  35.356  1.00  0.00    -0.237 OA
ATOM     78  O   UNL A   1      37.271  31.865  35.584  1.00  0.00    -0.237 OA
ATOM     79  O   UNL A   1      38.815  29.968  35.761  1.00  0.00    -0.744 OA
ENDBRANCH  73  76
ENDBRANCH  55  69
BRANCH  56  80
ATOM     80  C   UNL A   1      46.939  27.954  25.306  1.00  0.00     0.023 A 
ATOM     81  C   UNL A   1      46.724  28.062  23.920  1.00  0.00     0.012 A 
ATOM     82  C   UNL A   1      48.199  27.536  25.777  1.00  0.00     0.148 A 
ATOM     83  C   UNL A   1      47.741  27.746  23.018  1.00  0.00     0.002 A 
ATOM     84  C   UNL A   1      49.226  27.281  24.876  1.00  0.00     0.091 A 
ATOM     85  F   UNL A   1      48.375  27.417  27.101  1.00  0.00    -0.205 F 
ATOM     86  C   UNL A   1      48.995  27.370  23.495  1.00  0.00     0.022 A 
BRANCH  84  87
ATOM     87  S   UNL A   1      50.905  26.930  25.409  1.00  0.00     0.127 S 
ATOM     88  O   UNL A   1      50.801  25.534  25.827  1.00  0.00    -0.237 OA
ATOM     89  O   UNL A   1      51.664  27.150  24.177  1.00  0.00    -0.237 OA
ATOM     90  O   UNL A   1      51.188  27.889  26.467  1.00  0.00    -0.744 OA
ENDBRANCH  84  87
ENDBRANCH  56  80
BRANCH  68  91
ATOM     91  C   UNL A   1      45.351  33.819  28.765  1.00  0.00     0.023 A 
ATOM     92  C   UNL A   1      44.958  34.841  27.879  1.00  0.00     0.012 A 
ATOM     93  C   UNL A   1      46.299  34.100  29.769  1.00  0.00     0.148 A 
ATOM     94  C   UNL A   1      45.517  36.115  27.974  1.00  0.00     0.002 A 
ATOM     95  C   UNL A   1      46.820  35.383  29.885  1.00  0.00     0.091 A 
ATOM     96  F   UNL A   1      46.674  33.108  30.590  1.00  0.00    -0.205 F 
ATOM     97  C   UNL A   1      46.437  36.389  28.983  1.00  0.00     0.022 A 
BRANCH  95  98
ATOM     98  S   UNL A   1      47.941  35.846  31.210  1.00  0.00     0.127 S 
ATOM     99  O   UNL A   1      48.435  37.141  30.744  1.00  0.00    -0.237 OA
ATOM    100  O   UNL A   1      47.049  35.915  32.368  1.00  0.00    -0.237 OA
ATOM    101  O   UNL A   1      48.935  34.783  31.280  1.00  0.00    -0.744 OA
ENDBRANCH  95  98
ENDBRANCH  68  91
ENDBRANCH  42  43
ENDBRANCH  35  37
ENDBRANCH  34  35
ENDBRANCH  33  34
ENDBRANCH  32  33
ENDBRANCH  31  32
ENDBRANCH  30  31
ENDBRANCH   1  30
TORSDOF 25
ENDMDL
MODEL 2
REMARK VINA RESULT:      -9.8      1.561      7.354
REMARK SMILES COc1ccccc1[C@@H]1CN(C(=O)Cc2csc(C)n2)C[C@H]1C(=O)OCCOCCOCCOC(=O)c1ccc(-c2c3nc(c(-c4cccc(S(=O)(=O)[O-])c4F)c4ccc([nH]4)c(-c4cccc(S(=O)(=O)[O-])c4F)c4nc(c(-c5cccc(S(=O)(=O)[O-])c5F)c5ccc2[nH]5)C=C4)C=C3)cc1
REMARK SMILES IDX 29 1 28 2 27 3 26 4 25 5 23 6 24 7 22 8 9 9 10 10 11 11
REMARK SMILES IDX 21 12 8 13 3 14 4 15 5 16 7 17 6 18 2 19 1 20 12 21 13 22
REMARK SMILES IDX 14 23 15 24 16 25 20 26 17 27 18 28 19 29 30 30 31 31 32 32
REMARK SMILES IDX 33 33 34 34 35 35 36 36 37 37 38 38 99 39 39 40 98 41 40 42
REMARK SMILES IDX 41 43 42 44 92 45 43 46 97 47 91 48 93 49 44 50 96 51 90 52
REMARK SMILES IDX 89 53 45 55 77 56 57 57 76 58 58 59 61 60 75 61 94 62 59 63
REMARK SMILES IDX 60 64 74 66 95 67 62 68 46 69 47 70 55 71 48 72 50 73 56 74
REMARK SMILES IDX 49 75 51 76 52 77 53 78 54 79 78 80 79 81 87 82 80 83 82 84
REMARK SMILES IDX 88 85 81 86 83 87 84 88 85 89 86 90 63 91 64 92 72 93 65 94
REMARK SMILES IDX 67 95 73 96 66 97 68 98 69 99 70 100 71 101
REMARK H PARENT 93 54 61 65
REMARK Flexibility Score: inf
ROOT
ATOM      1  C   UNL A   1      33.342  20.945  25.414  1.00  0.00     0.188 C 
ENDROOT
BRANCH   1   2
ATOM      2  O   UNL A   1      33.291  22.359  25.279  1.00  0.00    -0.376 OA
BRANCH   2   3
ATOM      3  C   UNL A   1      33.393  23.171  26.439  1.00  0.00     0.202 C 
BRANCH   3   4
ATOM      4  C   UNL A   1      32.800  24.581  26.355  1.00  0.00     0.261 C 
BRANCH   4   5
ATOM      5  O   UNL A   1      33.765  25.626  26.081  1.00  0.00    -0.463 OA
BRANCH   5   6
ATOM      6  C   UNL A   1      33.644  26.227  24.872  1.00  0.00     0.311 C 
ATOM      7  O   UNL A   1      33.981  25.700  23.813  1.00  0.00    -0.252 OA
BRANCH   6   8
ATOM      8  C   UNL A   1      33.149  27.661  24.879  1.00  0.00     0.128 C 
ATOM      9  C   UNL A   1      31.783  28.095  25.469  1.00  0.00     0.058 C 
ATOM     10  C   UNL A   1      32.089  29.433  26.158  1.00  0.00     0.129 C 
ATOM     11  N   UNL A   1      33.487  29.384  26.507  1.00  0.00    -0.341 N 
ATOM     12  C   UNL A   1      34.199  28.432  25.685  1.00  0.00     0.135 C 
BRANCH   9  13
ATOM     13  C   UNL A   1      30.597  28.354  24.534  1.00  0.00    -0.000 A 
ATOM     14  C   UNL A   1      29.681  27.357  24.141  1.00  0.00     0.122 A 
ATOM     15  C   UNL A   1      28.698  27.610  23.177  1.00  0.00     0.047 A 
ATOM     16  C   UNL A   1      28.607  28.869  22.584  1.00  0.00     0.004 A 
ATOM     17  C   UNL A   1      30.495  29.610  23.903  1.00  0.00     0.008 A 
ATOM     18  C   UNL A   1      29.505  29.869  22.948  1.00  0.00     0.001 A 
BRANCH  14  19
ATOM     19  O   UNL A   1      29.874  26.074  24.582  1.00  0.00    -0.496 OA
ATOM     20  C   UNL A   1      30.351  25.198  23.562  1.00  0.00     0.278 C 
ENDBRANCH  14  19
ENDBRANCH   9  13
BRANCH  11  21
ATOM     21  C   UNL A   1      34.160  30.274  27.316  1.00  0.00     0.228 C 
ATOM     22  O   UNL A   1      35.317  30.065  27.690  1.00  0.00    -0.274 OA
BRANCH  21  23
ATOM     23  C   UNL A   1      33.436  31.548  27.725  1.00  0.00     0.157 C 
BRANCH  23  24
ATOM     24  C   UNL A   1      34.365  32.473  28.441  1.00  0.00     0.061 A 
ATOM     25  C   UNL A   1      35.452  33.133  27.900  1.00  0.00     0.091 A 
ATOM     26  N   UNL A   1      34.118  32.763  29.777  1.00  0.00    -0.246 NA
ATOM     27  S   UNL A   1      36.141  34.185  29.062  1.00  0.00    -0.127 S 
ATOM     28  C   UNL A   1      34.947  33.696  30.197  1.00  0.00     0.090 A 
ATOM     29  C   UNL A   1      34.896  34.329  31.542  1.00  0.00     0.079 C 
ENDBRANCH  23  24
ENDBRANCH  21  23
ENDBRANCH  11  21
ENDBRANCH   6   8
ENDBRANCH   5   6
ENDBRANCH   4   5
ENDBRANCH   3   4
ENDBRANCH   2   3
ENDBRANCH   1   2
BRANCH   1  30
ATOM     30  C   UNL A   1      34.379  20.164  24.599  1.00  0.00     0.188 C 
BRANCH  30  31
ATOM     31  O   UNL A   1      35.690  20.164  25.140  1.00  0.00    -0.376 OA
BRANCH  31  32
ATOM     32  C   UNL A   1      36.437  21.347  24.890  1.00  0.00     0.202 C 
BRANCH  32  33
ATOM     33  C   UNL A   1      37.913  21.159  25.245  1.00  0.00     0.261 C 
BRANCH  33  34
ATOM     34  O   UNL A   1      38.531  22.343  25.784  1.00  0.00    -0.460 OA
BRANCH  34  35
ATOM     35  C   UNL A   1      39.508  22.138  26.690  1.00  0.00     0.338 C 
ATOM     36  O   UNL A   1      39.998  21.062  27.016  1.00  0.00    -0.246 OA
BRANCH  35  37
ATOM     37  C   UNL A   1      40.019  23.442  27.130  1.00  0.00     0.060 A 
ATOM     38  C   UNL A   1      39.556  24.601  26.500  1.00  0.00     0.016 A 
ATOM     39  C   UNL A   1      41.002  23.521  28.113  1.00  0.00     0.016 A 
ATOM     40  C   UNL A   1      40.117  25.838  26.792  1.00  0.00     0.010 A 
ATOM     41  C   UNL A   1      41.552  24.767  28.424  1.00  0.00     0.010 A 
ATOM     42  C   UNL A   1      41.141  25.926  27.738  1.00  0.00    -0.014 A 
BRANCH  42  43
ATOM     43  C   UNL A   1      41.880  27.199  27.913  1.00  0.00     0.031 A 
ATOM     44  C   UNL A   1      43.247  27.330  27.307  1.00  0.00     0.074 A 
ATOM     45  C   UNL A   1      41.342  28.225  28.597  1.00  0.00     0.049 A 
ATOM     46  N   UNL A   1      44.142  28.266  27.479  1.00  0.00    -0.248 NA
ATOM     47  C   UNL A   1      43.662  26.259  26.386  1.00  0.00     0.031 C 
ATOM     48  C   UNL A   1      40.005  28.241  29.188  1.00  0.00     0.029 A 
ATOM     49  N   UNL A   1      41.878  29.442  28.938  1.00  0.00    -0.354 N 
ATOM     50  C   UNL A   1      45.249  27.867  26.740  1.00  0.00     0.074 A 
ATOM     51  C   UNL A   1      44.909  26.609  26.110  1.00  0.00     0.031 C 
ATOM     52  C   UNL A   1      39.837  29.397  29.851  1.00  0.00     0.029 A 
ATOM     53  C   UNL A   1      41.072  30.175  29.777  1.00  0.00     0.049 A 
ATOM     54  H   UNL A   1      42.752  29.759  28.614  1.00  0.00     0.167 HD
ATOM     55  C   UNL A   1      46.439  28.494  26.593  1.00  0.00     0.034 A 
ATOM     56  C   UNL A   1      41.321  31.315  30.452  1.00  0.00     0.034 A 
ATOM     57  C   UNL A   1      46.759  29.764  27.186  1.00  0.00     0.049 A 
ATOM     58  C   UNL A   1      42.660  31.984  30.297  1.00  0.00     0.074 A 
ATOM     59  C   UNL A   1      47.930  30.492  27.086  1.00  0.00     0.029 A 
ATOM     60  N   UNL A   1      45.899  30.498  27.989  1.00  0.00    -0.354 N 
ATOM     61  N   UNL A   1      43.685  31.621  29.563  1.00  0.00    -0.248 NA
ATOM     62  C   UNL A   1      42.872  33.231  31.048  1.00  0.00     0.031 C 
ATOM     63  C   UNL A   1      47.782  31.664  27.836  1.00  0.00     0.029 A 
ATOM     64  C   UNL A   1      46.511  31.673  28.391  1.00  0.00     0.049 A 
ATOM     65  H   UNL A   1      44.986  30.225  28.237  1.00  0.00     0.167 HD
ATOM     66  C   UNL A   1      44.654  32.602  29.747  1.00  0.00     0.074 A 
ATOM     67  C   UNL A   1      44.083  33.588  30.641  1.00  0.00     0.031 C 
ATOM     68  C   UNL A   1      45.911  32.669  29.240  1.00  0.00     0.034 A 
BRANCH  55  69
ATOM     69  C   UNL A   1      47.477  27.813  25.744  1.00  0.00     0.023 A 
ATOM     70  C   UNL A   1      48.388  26.918  26.339  1.00  0.00     0.012 A 
ATOM     71  C   UNL A   1      47.540  28.045  24.357  1.00  0.00     0.148 A 
ATOM     72  C   UNL A   1      49.368  26.289  25.570  1.00  0.00     0.002 A 
ATOM     73  C   UNL A   1      48.493  27.384  23.591  1.00  0.00     0.091 A 
ATOM     74  F   UNL A   1      46.687  28.927  23.814  1.00  0.00    -0.205 F 
ATOM     75  C   UNL A   1      49.415  26.514  24.197  1.00  0.00     0.022 A 
BRANCH  73  76
ATOM     76  S   UNL A   1      48.579  27.562  21.806  1.00  0.00     0.127 S 
ATOM     77  O   UNL A   1      49.723  28.460  21.653  1.00  0.00    -0.237 OA
ATOM     78  O   UNL A   1      48.821  26.188  21.366  1.00  0.00    -0.237 OA
ATOM     79  O   UNL A   1      47.290  28.104  21.401  1.00  0.00    -0.744 OA
ENDBRANCH  73  76
ENDBRANCH  55  69
BRANCH  56  80
ATOM     80  C   UNL A   1      40.271  31.884  31.344  1.00  0.00     0.023 A 
ATOM     81  C   UNL A   1      39.411  32.884  30.856  1.00  0.00     0.012 A 
ATOM     82  C   UNL A   1      40.094  31.402  32.655  1.00  0.00     0.148 A 
ATOM     83  C   UNL A   1      38.399  33.405  31.665  1.00  0.00     0.002 A 
ATOM     84  C   UNL A   1      39.049  31.881  33.434  1.00  0.00     0.091 A 
ATOM     85  F   UNL A   1      40.941  30.466  33.108  1.00  0.00    -0.205 F 
ATOM     86  C   UNL A   1      38.209  32.894  32.947  1.00  0.00     0.022 A 
BRANCH  84  87
ATOM     87  S   UNL A   1      38.647  31.180  35.038  1.00  0.00     0.127 S 
ATOM     88  O   UNL A   1      38.561  29.755  34.729  1.00  0.00    -0.237 OA
ATOM     89  O   UNL A   1      39.809  31.570  35.838  1.00  0.00    -0.237 OA
ATOM     90  O   UNL A   1      37.400  31.816  35.442  1.00  0.00    -0.744 OA
ENDBRANCH  84  87
ENDBRANCH  56  80
BRANCH  68  91
ATOM     91  C   UNL A   1      46.753  33.859  29.618  1.00  0.00     0.023 A 
ATOM     92  C   UNL A   1      47.637  33.767  30.710  1.00  0.00     0.012 A 
ATOM     93  C   UNL A   1      46.729  35.035  28.843  1.00  0.00     0.148 A 
ATOM     94  C   UNL A   1      48.466  34.838  31.042  1.00  0.00     0.002 A 
ATOM     95  C   UNL A   1      47.589  36.083  29.154  1.00  0.00     0.091 A 
ATOM     96  F   UNL A   1      45.866  35.110  27.819  1.00  0.00    -0.205 F 
ATOM     97  C   UNL A   1      48.451  35.989  30.258  1.00  0.00     0.022 A 
BRANCH  95  98
ATOM     98  S   UNL A   1      47.699  37.564  28.144  1.00  0.00     0.127 S 
ATOM     99  O   UNL A   1      48.240  38.533  29.095  1.00  0.00    -0.237 OA
ATOM    100  O   UNL A   1      48.630  37.158  27.090  1.00  0.00    -0.237 OA
ATOM    101  O   UNL A   1      46.344  37.830  27.679  1.00  0.00    -0.744 OA
ENDBRANCH  95  98
ENDBRANCH  68  91
ENDBRANCH  42  43
ENDBRANCH  35  37
ENDBRANCH  34  35
ENDBRANCH  33  34
ENDBRANCH  32  33
ENDBRANCH  31  32
ENDBRANCH  30  31
ENDBRANCH   1  30
TORSDOF 25
ENDMDL
MODEL 3
REMARK VINA RESULT:      -9.0      5.647     11.192
REMARK SMILES COc1ccccc1[C@@H]1CN(C(=O)Cc2csc(C)n2)C[C@H]1C(=O)OCCOCCOCCOC(=O)c1ccc(-c2c3nc(c(-c4cccc(S(=O)(=O)[O-])c4F)c4ccc([nH]4)c(-c4cccc(S(=O)(=O)[O-])c4F)c4nc(c(-c5cccc(S(=O)(=O)[O-])c5F)c5ccc2[nH]5)C=C4)C=C3)cc1
REMARK SMILES IDX 29 1 28 2 27 3 26 4 25 5 23 6 24 7 22 8 9 9 10 10 11 11
REMARK SMILES IDX 21 12 8 13 3 14 4 15 5 16 7 17 6 18 2 19 1 20 12 21 13 22
REMARK SMILES IDX 14 23 15 24 16 25 20 26 17 27 18 28 19 29 30 30 31 31 32 32
REMARK SMILES IDX 33 33 34 34 35 35 36 36 37 37 38 38 99 39 39 40 98 41 40 42
REMARK SMILES IDX 41 43 42 44 92 45 43 46 97 47 91 48 93 49 44 50 96 51 90 52
REMARK SMILES IDX 89 53 45 55 77 56 57 57 76 58 58 59 61 60 75 61 94 62 59 63
REMARK SMILES IDX 60 64 74 66 95 67 62 68 46 69 47 70 55 71 48 72 50 73 56 74
REMARK SMILES IDX 49 75 51 76 52 77 53 78 54 79 78 80 79 81 87 82 80 83 82 84
REMARK SMILES IDX 88 85 81 86 83 87 84 88 85 89 86 90 63 91 64 92 72 93 65 94
REMARK SMILES IDX 67 95 73 96 66 97 68 98 69 99 70 100 71 101
REMARK H PARENT 93 54 61 65
REMARK Flexibility Score: inf
ROOT
ATOM      1  C   UNL A   1      36.820  32.400  39.951  1.00  0.00     0.188 C 
ENDROOT
BRANCH   1   2
ATOM      2  O   UNL A   1      36.640  32.206  38.555  1.00  0.00    -0.376 OA
BRANCH   2   3
ATOM      3  C   UNL A   1      37.255  33.104  37.643  1.00  0.00     0.202 C 
BRANCH   3   4
ATOM      4  C   UNL A   1      37.676  32.537  36.285  1.00  0.00     0.261 C 
BRANCH   4   5
ATOM      5  O   UNL A   1      36.672  32.649  35.246  1.00  0.00    -0.463 OA
BRANCH   5   6
ATOM      6  C   UNL A   1      37.005  33.440  34.197  1.00  0.00     0.311 C 
ATOM      7  O   UNL A   1      37.208  34.649  34.293  1.00  0.00    -0.252 OA
BRANCH   6   8
ATOM      8  C   UNL A   1      37.028  32.776  32.834  1.00  0.00     0.128 C 
ATOM      9  C   UNL A   1      37.175  33.553  31.501  1.00  0.00     0.058 C 
ATOM     10  C   UNL A   1      38.092  32.658  30.653  1.00  0.00     0.129 C 
ATOM     11  N   UNL A   1      38.879  31.900  31.594  1.00  0.00    -0.341 N 
ATOM     12  C   UNL A   1      38.229  31.826  32.882  1.00  0.00     0.135 C 
BRANCH   9  13
ATOM     13  C   UNL A   1      35.938  33.838  30.642  1.00  0.00    -0.000 A 
ATOM     14  C   UNL A   1      34.915  34.729  31.022  1.00  0.00     0.122 A 
ATOM     15  C   UNL A   1      33.739  34.850  30.271  1.00  0.00     0.047 A 
ATOM     16  C   UNL A   1      33.562  34.083  29.120  1.00  0.00     0.004 A 
ATOM     17  C   UNL A   1      35.724  33.060  29.487  1.00  0.00     0.008 A 
ATOM     18  C   UNL A   1      34.555  33.188  28.728  1.00  0.00     0.001 A 
BRANCH  14  19
ATOM     19  O   UNL A   1      35.000  35.351  32.240  1.00  0.00    -0.496 OA
ATOM     20  C   UNL A   1      33.728  35.558  32.853  1.00  0.00     0.278 C 
ENDBRANCH  14  19
ENDBRANCH   9  13
BRANCH  11  21
ATOM     21  C   UNL A   1      39.973  31.114  31.299  1.00  0.00     0.228 C 
ATOM     22  O   UNL A   1      40.995  31.588  30.795  1.00  0.00    -0.274 OA
BRANCH  21  23
ATOM     23  C   UNL A   1      39.893  29.632  31.634  1.00  0.00     0.157 C 
BRANCH  23  24
ATOM     24  C   UNL A   1      39.911  28.812  30.386  1.00  0.00     0.061 A 
ATOM     25  C   UNL A   1      39.680  27.453  30.288  1.00  0.00     0.091 A 
ATOM     26  N   UNL A   1      40.131  29.449  29.172  1.00  0.00    -0.246 NA
ATOM     27  S   UNL A   1      39.673  26.972  28.645  1.00  0.00    -0.127 S 
ATOM     28  C   UNL A   1      39.971  28.599  28.179  1.00  0.00     0.090 A 
ATOM     29  C   UNL A   1      40.021  28.963  26.738  1.00  0.00     0.079 C 
ENDBRANCH  23  24
ENDBRANCH  21  23
ENDBRANCH  11  21
ENDBRANCH   6   8
ENDBRANCH   5   6
ENDBRANCH   4   5
ENDBRANCH   3   4
ENDBRANCH   2   3
ENDBRANCH   1   2
BRANCH   1  30
ATOM     30  C   UNL A   1      37.982  33.280  40.428  1.00  0.00     0.188 C 
BRANCH  30  31
ATOM     31  O   UNL A   1      39.203  32.593  40.648  1.00  0.00    -0.376 OA
BRANCH  31  32
ATOM     32  C   UNL A   1      40.369  33.396  40.518  1.00  0.00     0.202 C 
BRANCH  32  33
ATOM     33  C   UNL A   1      40.009  34.862  40.265  1.00  0.00     0.261 C 
BRANCH  33  34
ATOM     34  O   UNL A   1      40.993  35.570  39.487  1.00  0.00    -0.460 OA
BRANCH  34  35
ATOM     35  C   UNL A   1      40.519  36.280  38.443  1.00  0.00     0.338 C 
ATOM     36  O   UNL A   1      39.858  37.313  38.492  1.00  0.00    -0.246 OA
BRANCH  35  37
ATOM     37  C   UNL A   1      41.055  35.704  37.204  1.00  0.00     0.060 A 
ATOM     38  C   UNL A   1      40.166  35.238  36.231  1.00  0.00     0.016 A 
ATOM     39  C   UNL A   1      42.429  35.559  37.029  1.00  0.00     0.016 A 
ATOM     40  C   UNL A   1      40.634  34.562  35.111  1.00  0.00     0.010 A 
ATOM     41  C   UNL A   1      42.902  34.899  35.892  1.00  0.00     0.010 A 
ATOM     42  C   UNL A   1      42.006  34.362  34.947  1.00  0.00    -0.014 A 
BRANCH  42  43
ATOM     43  C   UNL A   1      42.503  33.477  33.867  1.00  0.00     0.031 A 
ATOM     44  C   UNL A   1      42.803  34.075  32.523  1.00  0.00     0.074 A 
ATOM     45  C   UNL A   1      42.689  32.161  34.078  1.00  0.00     0.049 A 
ATOM     46  N   UNL A   1      43.070  33.478  31.393  1.00  0.00    -0.248 NA
ATOM     47  C   UNL A   1      42.795  35.545  32.443  1.00  0.00     0.031 C 
ATOM     48  C   UNL A   1      42.485  31.470  35.351  1.00  0.00     0.029 A 
ATOM     49  N   UNL A   1      43.061  31.167  33.208  1.00  0.00    -0.354 N 
ATOM     50  C   UNL A   1      43.201  34.493  30.454  1.00  0.00     0.074 A 
ATOM     51  C   UNL A   1      42.993  35.745  31.150  1.00  0.00     0.031 C 
ATOM     52  C   UNL A   1      42.699  30.157  35.171  1.00  0.00     0.029 A 
ATOM     53  C   UNL A   1      42.999  29.910  33.762  1.00  0.00     0.049 A 
ATOM     54  H   UNL A   1      43.344  31.336  32.281  1.00  0.00     0.167 HD
ATOM     55  C   UNL A   1      43.476  34.394  29.132  1.00  0.00     0.034 A 
ATOM     56  C   UNL A   1      43.118  28.696  33.188  1.00  0.00     0.034 A 
ATOM     57  C   UNL A   1      43.723  33.151  28.453  1.00  0.00     0.049 A 
ATOM     58  C   UNL A   1      43.397  28.604  31.711  1.00  0.00     0.074 A 
ATOM     59  C   UNL A   1      44.026  32.944  27.120  1.00  0.00     0.029 A 
ATOM     60  N   UNL A   1      43.700  31.904  29.057  1.00  0.00    -0.354 N 
ATOM     61  N   UNL A   1      43.561  29.571  30.841  1.00  0.00    -0.248 NA
ATOM     62  C   UNL A   1      43.528  27.255  31.141  1.00  0.00     0.031 C 
ATOM     63  C   UNL A   1      44.178  31.567  26.916  1.00  0.00     0.029 A 
ATOM     64  C   UNL A   1      43.985  30.920  28.126  1.00  0.00     0.049 A 
ATOM     65  H   UNL A   1      43.510  31.741  30.010  1.00  0.00     0.167 HD
ATOM     66  C   UNL A   1      43.832  28.950  29.626  1.00  0.00     0.074 A 
ATOM     67  C   UNL A   1      43.838  27.524  29.880  1.00  0.00     0.031 C 
ATOM     68  C   UNL A   1      44.036  29.508  28.406  1.00  0.00     0.034 A 
BRANCH  55  69
ATOM     69  C   UNL A   1      43.534  35.672  28.342  1.00  0.00     0.023 A 
ATOM     70  C   UNL A   1      42.353  36.206  27.789  1.00  0.00     0.012 A 
ATOM     71  C   UNL A   1      44.753  36.353  28.162  1.00  0.00     0.148 A 
ATOM     72  C   UNL A   1      42.390  37.382  27.039  1.00  0.00     0.002 A 
ATOM     73  C   UNL A   1      44.775  37.546  27.448  1.00  0.00     0.091 A 
ATOM     74  F   UNL A   1      45.872  35.813  28.667  1.00  0.00    -0.205 F 
ATOM     75  C   UNL A   1      43.598  38.056  26.877  1.00  0.00     0.022 A 
BRANCH  73  76
ATOM     76  S   UNL A   1      46.274  38.516  27.251  1.00  0.00     0.127 S 
ATOM     77  O   UNL A   1      46.672  38.731  28.642  1.00  0.00    -0.237 OA
ATOM     78  O   UNL A   1      47.140  37.604  26.504  1.00  0.00    -0.237 OA
ATOM     79  O   UNL A   1      45.879  39.709  26.515  1.00  0.00    -0.744 OA
ENDBRANCH  73  76
ENDBRANCH  55  69
BRANCH  56  80
ATOM     80  C   UNL A   1      42.961  27.471  34.022  1.00  0.00     0.023 A 
ATOM     81  C   UNL A   1      41.674  27.042  34.395  1.00  0.00     0.012 A 
ATOM     82  C   UNL A   1      44.080  26.705  34.403  1.00  0.00     0.148 A 
ATOM     83  C   UNL A   1      41.505  25.878  35.147  1.00  0.00     0.002 A 
ATOM     84  C   UNL A   1      43.901  25.516  35.100  1.00  0.00     0.091 A 
ATOM     85  F   UNL A   1      45.298  27.145  34.058  1.00  0.00    -0.205 F 
ATOM     86  C   UNL A   1      42.615  25.108  35.486  1.00  0.00     0.022 A 
BRANCH  84  87
ATOM     87  S   UNL A   1      45.260  24.396  35.452  1.00  0.00     0.127 S 
ATOM     88  O   UNL A   1      46.045  25.170  36.410  1.00  0.00    -0.237 OA
ATOM     89  O   UNL A   1      44.561  23.241  36.016  1.00  0.00    -0.237 OA
ATOM     90  O   UNL A   1      45.900  24.141  34.168  1.00  0.00    -0.744 OA
ENDBRANCH  84  87
ENDBRANCH  56  80
BRANCH  68  91
ATOM     91  C   UNL A   1      44.307  28.580  27.251  1.00  0.00     0.023 A 
ATOM     92  C   UNL A   1      43.228  28.004  26.554  1.00  0.00     0.012 A 
ATOM     93  C   UNL A   1      45.624  28.346  26.806  1.00  0.00     0.148 A 
ATOM     94  C   UNL A   1      43.456  27.186  25.447  1.00  0.00     0.002 A 
ATOM     95  C   UNL A   1      45.841  27.565  25.677  1.00  0.00     0.091 A 
ATOM     96  F   UNL A   1      46.638  28.888  27.496  1.00  0.00    -0.205 F 
ATOM     97  C   UNL A   1      44.759  26.978  25.002  1.00  0.00     0.022 A 
BRANCH  95  98
ATOM     98  S   UNL A   1      47.479  27.319  24.983  1.00  0.00     0.127 S 
ATOM     99  O   UNL A   1      47.940  26.143  25.718  1.00  0.00    -0.237 OA
ATOM    100  O   UNL A   1      47.189  27.079  23.569  1.00  0.00    -0.237 OA
ATOM    101  O   UNL A   1      48.212  28.550  25.245  1.00  0.00    -0.744 OA
ENDBRANCH  95  98
ENDBRANCH  68  91
ENDBRANCH  42  43
ENDBRANCH  35  37
ENDBRANCH  34  35
ENDBRANCH  33  34
ENDBRANCH  32  33
ENDBRANCH  31  32
ENDBRANCH  30  31
ENDBRANCH   1  30
TORSDOF 25
ENDMDL
