MODEL 1
REMARK VINA RESULT:     -11.2      0.000      0.000
REMARK SMILES O=C(OCCOCCOCCOC(=O)[C@@H](Cc1ccccc1)/N=C1\C(=O)c2ccccc2C(=O)[C@H]1Cl)c1ccc(-c2c3nc(c(-c4cccc(S(=O)(=O)[O-])c4F)c4ccc([nH]4)c(-c4cccc(S(=O)(=O)[O-])c4F)c4nc(c(-c5cccc(S(=O)(=O)[O-])c5F)c5ccc2[nH]5)C=C4)C=C3)cc1
REMARK SMILES IDX 7 1 6 2 5 3 4 4 3 5 2 6 1 7 37 8 38 9 99 10 39 11 98 12
REMARK SMILES IDX 40 13 41 14 42 15 92 16 43 17 97 18 91 19 93 20 44 21 96 22
REMARK SMILES IDX 90 23 89 24 45 26 77 27 57 28 76 29 58 30 61 31 75 32 94 33
REMARK SMILES IDX 59 34 60 35 74 37 95 38 62 39 46 40 47 41 55 42 48 43 50 44
REMARK SMILES IDX 56 45 49 46 51 47 52 48 53 49 54 50 78 51 79 52 87 53 80 54
REMARK SMILES IDX 82 55 88 56 81 57 83 58 84 59 85 60 86 61 63 62 64 63 72 64
REMARK SMILES IDX 65 65 67 66 73 67 66 68 68 69 69 70 70 71 71 72 8 73 9 74
REMARK SMILES IDX 10 75 11 76 12 77 13 78 14 79 15 80 16 81 17 82 18 83 22 84
REMARK SMILES IDX 19 85 21 86 20 87 23 88 24 89 25 90 35 91 26 92 27 93 33 94
REMARK SMILES IDX 36 95 28 96 32 97 34 98 29 99 31 100 30 101
REMARK H PARENT 93 25 61 36
REMARK Flexibility Score: inf
ROOT
ATOM      1  C   UNL A   1      35.261  22.265  26.822  1.00  0.00     0.188 C 
ENDROOT
BRANCH   1   2
ATOM      2  O   UNL A   1      35.017  21.047  26.122  1.00  0.00    -0.376 OA
BRANCH   2   3
ATOM      3  C   UNL A   1      35.788  20.842  24.947  1.00  0.00     0.202 C 
BRANCH   3   4
ATOM      4  C   UNL A   1      37.256  20.438  25.128  1.00  0.00     0.261 C 
BRANCH   4   5
ATOM      5  O   UNL A   1      38.248  21.475  25.212  1.00  0.00    -0.460 OA
BRANCH   5   6
ATOM      6  C   UNL A   1      39.332  21.597  26.012  1.00  0.00     0.338 C 
ATOM      7  O   UNL A   1      40.035  20.606  26.204  1.00  0.00    -0.246 OA
BRANCH   6   8
ATOM      8  C   UNL A   1      39.688  22.857  26.722  1.00  0.00     0.060 A 
ATOM      9  C   UNL A   1      39.169  24.110  26.404  1.00  0.00     0.016 A 
ATOM     10  C   UNL A   1      40.690  22.775  27.709  1.00  0.00     0.016 A 
ATOM     11  C   UNL A   1      39.602  25.245  27.094  1.00  0.00     0.010 A 
ATOM     12  C   UNL A   1      41.165  23.921  28.361  1.00  0.00     0.010 A 
ATOM     13  C   UNL A   1      40.622  25.170  28.057  1.00  0.00    -0.014 A 
BRANCH  13  14
ATOM     14  C   UNL A   1      41.185  26.445  28.580  1.00  0.00     0.031 A 
ATOM     15  C   UNL A   1      42.575  26.819  28.160  1.00  0.00     0.074 A 
ATOM     16  C   UNL A   1      40.480  27.291  29.354  1.00  0.00     0.049 A 
ATOM     17  N   UNL A   1      43.152  27.989  28.143  1.00  0.00    -0.248 NA
ATOM     18  C   UNL A   1      43.420  25.714  27.676  1.00  0.00     0.031 C 
ATOM     19  C   UNL A   1      39.163  27.020  29.911  1.00  0.00     0.029 A 
ATOM     20  N   UNL A   1      40.754  28.582  29.753  1.00  0.00    -0.354 N 
ATOM     21  C   UNL A   1      44.430  27.763  27.651  1.00  0.00     0.074 A 
ATOM     22  C   UNL A   1      44.528  26.354  27.335  1.00  0.00     0.031 C 
ATOM     23  C   UNL A   1      38.694  28.138  30.490  1.00  0.00     0.029 A 
ATOM     24  C   UNL A   1      39.666  29.213  30.319  1.00  0.00     0.049 A 
ATOM     25  H   UNL A   1      41.635  29.008  29.647  1.00  0.00     0.167 HD
ATOM     26  C   UNL A   1      45.452  28.638  27.513  1.00  0.00     0.034 A 
ATOM     27  C   UNL A   1      39.455  30.521  30.584  1.00  0.00     0.034 A 
ATOM     28  C   UNL A   1      45.406  30.003  27.950  1.00  0.00     0.049 A 
ATOM     29  C   UNL A   1      40.583  31.496  30.357  1.00  0.00     0.074 A 
ATOM     30  C   UNL A   1      46.431  30.932  27.982  1.00  0.00     0.029 A 
ATOM     31  N   UNL A   1      44.286  30.619  28.483  1.00  0.00    -0.354 N 
ATOM     32  N   UNL A   1      41.727  31.317  29.740  1.00  0.00    -0.248 NA
ATOM     33  C   UNL A   1      40.388  32.859  30.876  1.00  0.00     0.031 C 
ATOM     34  C   UNL A   1      45.934  32.104  28.562  1.00  0.00     0.029 A 
ATOM     35  C   UNL A   1      44.595  31.912  28.864  1.00  0.00     0.049 A 
ATOM     36  H   UNL A   1      43.401  30.198  28.577  1.00  0.00     0.167 HD
ATOM     37  C   UNL A   1      42.397  32.533  29.826  1.00  0.00     0.074 A 
ATOM     38  C   UNL A   1      41.495  33.465  30.470  1.00  0.00     0.031 C 
ATOM     39  C   UNL A   1      43.668  32.836  29.464  1.00  0.00     0.034 A 
BRANCH  26  40
ATOM     40  C   UNL A   1      46.721  28.094  26.930  1.00  0.00     0.023 A 
ATOM     41  C   UNL A   1      47.775  27.724  27.789  1.00  0.00     0.012 A 
ATOM     42  C   UNL A   1      46.888  28.005  25.537  1.00  0.00     0.148 A 
ATOM     43  C   UNL A   1      48.993  27.294  27.262  1.00  0.00     0.002 A 
ATOM     44  C   UNL A   1      48.096  27.557  25.021  1.00  0.00     0.091 A 
ATOM     45  F   UNL A   1      45.881  28.402  24.747  1.00  0.00    -0.205 F 
ATOM     46  C   UNL A   1      49.151  27.208  25.880  1.00  0.00     0.022 A 
BRANCH  44  47
ATOM     47  S   UNL A   1      48.391  27.403  23.258  1.00  0.00     0.127 S 
ATOM     48  O   UNL A   1      49.758  27.912  23.145  1.00  0.00    -0.237 OA
ATOM     49  O   UNL A   1      48.255  25.962  23.049  1.00  0.00    -0.237 OA
ATOM     50  O   UNL A   1      47.368  28.211  22.609  1.00  0.00    -0.744 OA
ENDBRANCH  44  47
ENDBRANCH  26  40
BRANCH  27  51
ATOM     51  C   UNL A   1      38.103  31.033  30.972  1.00  0.00     0.023 A 
ATOM     52  C   UNL A   1      37.724  30.979  32.333  1.00  0.00     0.012 A 
ATOM     53  C   UNL A   1      37.188  31.559  30.045  1.00  0.00     0.148 A 
ATOM     54  C   UNL A   1      36.463  31.406  32.749  1.00  0.00     0.002 A 
ATOM     55  C   UNL A   1      35.958  32.049  30.478  1.00  0.00     0.091 A 
ATOM     56  F   UNL A   1      37.523  31.570  28.746  1.00  0.00    -0.205 F 
ATOM     57  C   UNL A   1      35.583  31.955  31.825  1.00  0.00     0.022 A 
BRANCH  55  58
ATOM     58  S   UNL A   1      34.869  32.926  29.351  1.00  0.00     0.127 S 
ATOM     59  O   UNL A   1      33.961  33.606  30.268  1.00  0.00    -0.237 OA
ATOM     60  O   UNL A   1      35.795  33.802  28.632  1.00  0.00    -0.237 OA
ATOM     61  O   UNL A   1      34.291  31.875  28.522  1.00  0.00    -0.744 OA
ENDBRANCH  55  58
ENDBRANCH  27  51
BRANCH  39  62
ATOM     62  C   UNL A   1      44.183  34.210  29.804  1.00  0.00     0.023 A 
ATOM     63  C   UNL A   1      44.957  34.381  30.970  1.00  0.00     0.012 A 
ATOM     64  C   UNL A   1      44.000  35.296  28.928  1.00  0.00     0.148 A 
ATOM     65  C   UNL A   1      45.521  35.619  31.272  1.00  0.00     0.002 A 
ATOM     66  C   UNL A   1      44.604  36.516  29.213  1.00  0.00     0.091 A 
ATOM     67  F   UNL A   1      43.243  35.119  27.835  1.00  0.00    -0.205 F 
ATOM     68  C   UNL A   1      45.357  36.682  30.388  1.00  0.00     0.022 A 
BRANCH  66  69
ATOM     69  S   UNL A   1      44.529  37.909  28.081  1.00  0.00     0.127 S 
ATOM     70  O   UNL A   1      43.858  38.920  28.897  1.00  0.00    -0.237 OA
ATOM     71  O   UNL A   1      45.943  38.175  27.818  1.00  0.00    -0.237 OA
ATOM     72  O   UNL A   1      43.780  37.438  26.924  1.00  0.00    -0.744 OA
ENDBRANCH  66  69
ENDBRANCH  39  62
ENDBRANCH  13  14
ENDBRANCH   6   8
ENDBRANCH   5   6
ENDBRANCH   4   5
ENDBRANCH   3   4
ENDBRANCH   2   3
ENDBRANCH   1   2
BRANCH   1  73
ATOM     73  C   UNL A   1      34.368  23.446  26.441  1.00  0.00     0.188 C 
BRANCH  73  74
ATOM     74  O   UNL A   1      34.946  24.275  25.435  1.00  0.00    -0.376 OA
BRANCH  74  75
ATOM     75  C   UNL A   1      34.321  25.561  25.357  1.00  0.00     0.202 C 
BRANCH  75  76
ATOM     76  C   UNL A   1      33.381  25.840  26.533  1.00  0.00     0.261 C 
BRANCH  76  77
ATOM     77  O   UNL A   1      32.209  26.606  26.204  1.00  0.00    -0.462 OA
BRANCH  77  78
ATOM     78  C   UNL A   1      32.428  27.879  25.779  1.00  0.00     0.331 C 
ATOM     79  O   UNL A   1      33.140  28.684  26.373  1.00  0.00    -0.250 OA
BRANCH  78  80
ATOM     80  C   UNL A   1      31.701  28.188  24.471  1.00  0.00     0.219 C 
BRANCH  80  81
ATOM     81  C   UNL A   1      31.318  29.649  24.172  1.00  0.00     0.074 C 
BRANCH  81  82
ATOM     82  C   UNL A   1      29.928  29.960  23.662  1.00  0.00    -0.045 A 
ATOM     83  C   UNL A   1      29.361  31.222  23.868  1.00  0.00     0.004 A 
ATOM     84  C   UNL A   1      29.123  28.955  23.111  1.00  0.00     0.004 A 
ATOM     85  C   UNL A   1      28.024  31.471  23.553  1.00  0.00     0.000 A 
ATOM     86  C   UNL A   1      27.783  29.200  22.802  1.00  0.00     0.000 A 
ATOM     87  C   UNL A   1      27.231  30.456  23.028  1.00  0.00     0.000 A 
ENDBRANCH  81  82
ENDBRANCH  80  81
BRANCH  80  88
ATOM     88  N   UNL A   1      32.225  27.494  23.279  1.00  0.00    -0.268 NA
ATOM     89  C   UNL A   1      31.920  26.312  22.876  1.00  0.00     0.110 C 
ATOM     90  C   UNL A   1      30.904  25.382  23.490  1.00  0.00     0.209 C 
ATOM     91  C   UNL A   1      32.677  25.688  21.735  1.00  0.00     0.205 C 
ATOM     92  O   UNL A   1      29.755  25.715  23.675  1.00  0.00    -0.287 OA
ATOM     93  C   UNL A   1      31.348  24.010  23.756  1.00  0.00     0.035 A 
ATOM     94  C   UNL A   1      33.147  24.275  22.021  1.00  0.00     0.187 C 
ATOM     95  Cl  UNL A   1      31.585  25.621  20.323  1.00  0.00    -0.107 Cl
ATOM     96  C   UNL A   1      30.653  23.243  24.697  1.00  0.00     0.013 A 
ATOM     97  C   UNL A   1      32.449  23.490  23.076  1.00  0.00     0.031 A 
ATOM     98  O   UNL A   1      34.025  23.718  21.367  1.00  0.00    -0.292 OA
ATOM     99  C   UNL A   1      31.083  21.949  24.983  1.00  0.00     0.001 A 
ATOM    100  C   UNL A   1      32.875  22.190  23.371  1.00  0.00     0.012 A 
ATOM    101  C   UNL A   1      32.196  21.425  24.325  1.00  0.00     0.001 A 
ENDBRANCH  80  88
ENDBRANCH  78  80
ENDBRANCH  77  78
ENDBRANCH  76  77
ENDBRANCH  75  76
ENDBRANCH  74  75
ENDBRANCH  73  74
ENDBRANCH   1  73
TORSDOF 23
ENDMDL
MODEL 2
REMARK VINA RESULT:     -10.5      2.757      4.979
REMARK SMILES O=C(OCCOCCOCCOC(=O)[C@@H](Cc1ccccc1)/N=C1\C(=O)c2ccccc2C(=O)[C@H]1Cl)c1ccc(-c2c3nc(c(-c4cccc(S(=O)(=O)[O-])c4F)c4ccc([nH]4)c(-c4cccc(S(=O)(=O)[O-])c4F)c4nc(c(-c5cccc(S(=O)(=O)[O-])c5F)c5ccc2[nH]5)C=C4)C=C3)cc1
REMARK SMILES IDX 7 1 6 2 5 3 4 4 3 5 2 6 1 7 37 8 38 9 99 10 39 11 98 12
REMARK SMILES IDX 40 13 41 14 42 15 92 16 43 17 97 18 91 19 93 20 44 21 96 22
REMARK SMILES IDX 90 23 89 24 45 26 77 27 57 28 76 29 58 30 61 31 75 32 94 33
REMARK SMILES IDX 59 34 60 35 74 37 95 38 62 39 46 40 47 41 55 42 48 43 50 44
REMARK SMILES IDX 56 45 49 46 51 47 52 48 53 49 54 50 78 51 79 52 87 53 80 54
REMARK SMILES IDX 82 55 88 56 81 57 83 58 84 59 85 60 86 61 63 62 64 63 72 64
REMARK SMILES IDX 65 65 67 66 73 67 66 68 68 69 69 70 70 71 71 72 8 73 9 74
REMARK SMILES IDX 10 75 11 76 12 77 13 78 14 79 15 80 16 81 17 82 18 83 22 84
REMARK SMILES IDX 19 85 21 86 20 87 23 88 24 89 25 90 35 91 26 92 27 93 33 94
REMARK SMILES IDX 36 95 28 96 32 97 34 98 29 99 31 100 30 101
REMARK H PARENT 93 25 61 36
REMARK Flexibility Score: inf
ROOT
ATOM      1  C   UNL A   1      34.077  21.726  25.595  1.00  0.00     0.188 C 
ENDROOT
BRANCH   1   2
ATOM      2  O   UNL A   1      34.961  21.701  24.475  1.00  0.00    -0.376 OA
BRANCH   2   3
ATOM      3  C   UNL A   1      36.047  22.616  24.522  1.00  0.00     0.202 C 
BRANCH   3   4
ATOM      4  C   UNL A   1      37.404  22.076  24.988  1.00  0.00     0.261 C 
BRANCH   4   5
ATOM      5  O   UNL A   1      38.098  22.774  26.036  1.00  0.00    -0.460 OA
BRANCH   5   6
ATOM      6  C   UNL A   1      39.306  22.545  26.599  1.00  0.00     0.338 C 
ATOM      7  O   UNL A   1      39.596  21.393  26.919  1.00  0.00    -0.246 OA
BRANCH   6   8
ATOM      8  C   UNL A   1      40.285  23.624  26.905  1.00  0.00     0.060 A 
ATOM      9  C   UNL A   1      41.201  23.578  27.953  1.00  0.00     0.016 A 
ATOM     10  C   UNL A   1      40.199  24.803  26.138  1.00  0.00     0.016 A 
ATOM     11  C   UNL A   1      42.048  24.663  28.194  1.00  0.00     0.010 A 
ATOM     12  C   UNL A   1      41.009  25.912  26.416  1.00  0.00     0.010 A 
ATOM     13  C   UNL A   1      41.944  25.851  27.450  1.00  0.00    -0.014 A 
BRANCH  13  14
ATOM     14  C   UNL A   1      42.718  27.035  27.913  1.00  0.00     0.031 A 
ATOM     15  C   UNL A   1      44.113  27.206  27.389  1.00  0.00     0.074 A 
ATOM     16  C   UNL A   1      42.198  27.977  28.722  1.00  0.00     0.049 A 
ATOM     17  N   UNL A   1      44.847  28.282  27.313  1.00  0.00    -0.248 NA
ATOM     18  C   UNL A   1      44.755  25.990  26.862  1.00  0.00     0.031 C 
ATOM     19  C   UNL A   1      40.899  27.898  29.376  1.00  0.00     0.029 A 
ATOM     20  N   UNL A   1      42.680  29.217  29.083  1.00  0.00    -0.354 N 
ATOM     21  C   UNL A   1      46.040  27.874  26.735  1.00  0.00     0.074 A 
ATOM     22  C   UNL A   1      45.915  26.464  26.433  1.00  0.00     0.031 C 
ATOM     23  C   UNL A   1      40.638  29.074  29.971  1.00  0.00     0.029 A 
ATOM     24  C   UNL A   1      41.737  29.999  29.715  1.00  0.00     0.049 A 
ATOM     25  H   UNL A   1      43.603  29.513  28.907  1.00  0.00     0.167 HD
ATOM     26  C   UNL A   1      47.163  28.594  26.512  1.00  0.00     0.034 A 
ATOM     27  C   UNL A   1      41.733  31.324  29.975  1.00  0.00     0.034 A 
ATOM     28  C   UNL A   1      47.343  29.953  26.931  1.00  0.00     0.049 A 
ATOM     29  C   UNL A   1      42.968  32.128  29.654  1.00  0.00     0.074 A 
ATOM     30  C   UNL A   1      48.488  30.727  26.876  1.00  0.00     0.029 A 
ATOM     31  N   UNL A   1      46.363  30.725  27.534  1.00  0.00    -0.354 N 
ATOM     32  N   UNL A   1      44.027  31.786  28.960  1.00  0.00    -0.248 NA
ATOM     33  C   UNL A   1      43.007  33.507  30.165  1.00  0.00     0.031 C 
ATOM     34  C   UNL A   1      48.206  31.961  27.472  1.00  0.00     0.029 A 
ATOM     35  C   UNL A   1      46.879  31.963  27.872  1.00  0.00     0.049 A 
ATOM     36  H   UNL A   1      45.437  30.435  27.696  1.00  0.00     0.167 HD
ATOM     37  C   UNL A   1      44.867  32.894  28.979  1.00  0.00     0.074 A 
ATOM     38  C   UNL A   1      44.156  33.948  29.673  1.00  0.00     0.031 C 
ATOM     39  C   UNL A   1      46.138  33.012  28.523  1.00  0.00     0.034 A 
BRANCH  26  40
ATOM     40  C   UNL A   1      48.296  27.873  25.847  1.00  0.00     0.023 A 
ATOM     41  C   UNL A   1      48.359  27.827  24.441  1.00  0.00     0.012 A 
ATOM     42  C   UNL A   1      49.261  27.195  26.614  1.00  0.00     0.148 A 
ATOM     43  C   UNL A   1      49.359  27.092  23.805  1.00  0.00     0.002 A 
ATOM     44  C   UNL A   1      50.265  26.482  25.973  1.00  0.00     0.091 A 
ATOM     45  F   UNL A   1      49.150  27.225  27.949  1.00  0.00    -0.205 F 
ATOM     46  C   UNL A   1      50.312  26.423  24.571  1.00  0.00     0.022 A 
BRANCH  44  47
ATOM     47  S   UNL A   1      51.540  25.597  26.874  1.00  0.00     0.127 S 
ATOM     48  O   UNL A   1      52.285  26.698  27.483  1.00  0.00    -0.237 OA
ATOM     49  O   UNL A   1      50.753  24.798  27.813  1.00  0.00    -0.237 OA
ATOM     50  O   UNL A   1      52.269  24.824  25.879  1.00  0.00    -0.744 OA
ENDBRANCH  44  47
ENDBRANCH  26  40
BRANCH  27  51
ATOM     51  C   UNL A   1      40.499  32.026  30.452  1.00  0.00     0.023 A 
ATOM     52  C   UNL A   1      39.570  32.487  29.492  1.00  0.00     0.012 A 
ATOM     53  C   UNL A   1      40.225  32.254  31.811  1.00  0.00     0.148 A 
ATOM     54  C   UNL A   1      38.421  33.181  29.874  1.00  0.00     0.002 A 
ATOM     55  C   UNL A   1      39.041  32.885  32.188  1.00  0.00     0.091 A 
ATOM     56  F   UNL A   1      41.125  31.861  32.724  1.00  0.00    -0.205 F 
ATOM     57  C   UNL A   1      38.147  33.368  31.223  1.00  0.00     0.022 A 
BRANCH  55  58
ATOM     58  S   UNL A   1      38.564  32.988  33.916  1.00  0.00     0.127 S 
ATOM     59  O   UNL A   1      37.235  33.585  33.833  1.00  0.00    -0.237 OA
ATOM     60  O   UNL A   1      38.588  31.586  34.336  1.00  0.00    -0.237 OA
ATOM     61  O   UNL A   1      39.607  33.802  34.527  1.00  0.00    -0.744 OA
ENDBRANCH  55  58
ENDBRANCH  27  51
BRANCH  39  62
ATOM     62  C   UNL A   1      46.866  34.300  28.805  1.00  0.00     0.023 A 
ATOM     63  C   UNL A   1      47.665  34.395  29.963  1.00  0.00     0.012 A 
ATOM     64  C   UNL A   1      46.851  35.365  27.885  1.00  0.00     0.148 A 
ATOM     65  C   UNL A   1      48.419  35.539  30.214  1.00  0.00     0.002 A 
ATOM     66  C   UNL A   1      47.642  36.484  28.119  1.00  0.00     0.091 A 
ATOM     67  F   UNL A   1      46.068  35.264  26.801  1.00  0.00    -0.205 F 
ATOM     68  C   UNL A   1      48.419  36.577  29.286  1.00  0.00     0.022 A 
BRANCH  66  69
ATOM     69  S   UNL A   1      47.780  37.824  26.929  1.00  0.00     0.127 S 
ATOM     70  O   UNL A   1      48.312  37.129  25.759  1.00  0.00    -0.237 OA
ATOM     71  O   UNL A   1      46.392  38.269  26.797  1.00  0.00    -0.237 OA
ATOM     72  O   UNL A   1      48.671  38.803  27.538  1.00  0.00    -0.744 OA
ENDBRANCH  66  69
ENDBRANCH  39  62
ENDBRANCH  13  14
ENDBRANCH   6   8
ENDBRANCH   5   6
ENDBRANCH   4   5
ENDBRANCH   3   4
ENDBRANCH   2   3
ENDBRANCH   1   2
BRANCH   1  73
ATOM     73  C   UNL A   1      33.993  23.053  26.350  1.00  0.00     0.188 C 
BRANCH  73  74
ATOM     74  O   UNL A   1      32.897  23.861  25.929  1.00  0.00    -0.376 OA
BRANCH  74  75
ATOM     75  C   UNL A   1      33.285  25.210  25.647  1.00  0.00     0.202 C 
BRANCH  75  76
ATOM     76  C   UNL A   1      32.479  26.242  26.442  1.00  0.00     0.261 C 
BRANCH  76  77
ATOM     77  O   UNL A   1      33.226  27.391  26.877  1.00  0.00    -0.462 OA
BRANCH  77  78
ATOM     78  C   UNL A   1      32.497  28.501  27.170  1.00  0.00     0.331 C 
ATOM     79  O   UNL A   1      31.584  28.521  27.991  1.00  0.00    -0.250 OA
BRANCH  78  80
ATOM     80  C   UNL A   1      32.956  29.724  26.377  1.00  0.00     0.219 C 
BRANCH  80  81
ATOM     81  C   UNL A   1      32.303  30.000  25.011  1.00  0.00     0.074 C 
BRANCH  81  82
ATOM     82  C   UNL A   1      32.305  28.915  23.958  1.00  0.00    -0.045 A 
ATOM     83  C   UNL A   1      31.122  28.248  23.621  1.00  0.00     0.004 A 
ATOM     84  C   UNL A   1      33.506  28.451  23.406  1.00  0.00     0.004 A 
ATOM     85  C   UNL A   1      31.137  27.136  22.776  1.00  0.00     0.000 A 
ATOM     86  C   UNL A   1      33.524  27.335  22.566  1.00  0.00     0.000 A 
ATOM     87  C   UNL A   1      32.340  26.673  22.256  1.00  0.00     0.000 A 
ENDBRANCH  81  82
ENDBRANCH  80  81
BRANCH  80  88
ATOM     88  N   UNL A   1      33.138  30.956  27.168  1.00  0.00    -0.268 NA
ATOM     89  C   UNL A   1      34.175  31.292  27.851  1.00  0.00     0.110 C 
ATOM     90  C   UNL A   1      35.475  30.536  27.950  1.00  0.00     0.209 C 
ATOM     91  C   UNL A   1      34.129  32.505  28.739  1.00  0.00     0.205 C 
ATOM     92  O   UNL A   1      36.110  30.216  26.969  1.00  0.00    -0.287 OA
ATOM     93  C   UNL A   1      35.993  30.298  29.300  1.00  0.00     0.035 A 
ATOM     94  C   UNL A   1      34.652  32.249  30.140  1.00  0.00     0.187 C 
ATOM     95  Cl  UNL A   1      35.154  33.768  28.000  1.00  0.00    -0.107 Cl
ATOM     96  C   UNL A   1      36.910  29.260  29.502  1.00  0.00     0.013 A 
ATOM     97  C   UNL A   1      35.570  31.098  30.360  1.00  0.00     0.031 A 
ATOM     98  O   UNL A   1      34.418  32.996  31.087  1.00  0.00    -0.292 OA
ATOM     99  C   UNL A   1      37.387  29.002  30.785  1.00  0.00     0.001 A 
ATOM    100  C   UNL A   1      36.052  30.831  31.646  1.00  0.00     0.012 A 
ATOM    101  C   UNL A   1      36.954  29.783  31.857  1.00  0.00     0.001 A 
ENDBRANCH  80  88
ENDBRANCH  78  80
ENDBRANCH  77  78
ENDBRANCH  76  77
ENDBRANCH  75  76
ENDBRANCH  74  75
ENDBRANCH  73  74
ENDBRANCH   1  73
TORSDOF 23
ENDMDL
MODEL 3
REMARK VINA RESULT:     -10.3      1.836      2.193
REMARK SMILES O=C(OCCOCCOCCOC(=O)[C@@H](Cc1ccccc1)/N=C1\C(=O)c2ccccc2C(=O)[C@H]1Cl)c1ccc(-c2c3nc(c(-c4cccc(S(=O)(=O)[O-])c4F)c4ccc([nH]4)c(-c4cccc(S(=O)(=O)[O-])c4F)c4nc(c(-c5cccc(S(=O)(=O)[O-])c5F)c5ccc2[nH]5)C=C4)C=C3)cc1
REMARK SMILES IDX 7 1 6 2 5 3 4 4 3 5 2 6 1 7 37 8 38 9 99 10 39 11 98 12
REMARK SMILES IDX 40 13 41 14 42 15 92 16 43 17 97 18 91 19 93 20 44 21 96 22
REMARK SMILES IDX 90 23 89 24 45 26 77 27 57 28 76 29 58 30 61 31 75 32 94 33
REMARK SMILES IDX 59 34 60 35 74 37 95 38 62 39 46 40 47 41 55 42 48 43 50 44
REMARK SMILES IDX 56 45 49 46 51 47 52 48 53 49 54 50 78 51 79 52 87 53 80 54
REMARK SMILES IDX 82 55 88 56 81 57 83 58 84 59 85 60 86 61 63 62 64 63 72 64
REMARK SMILES IDX 65 65 67 66 73 67 66 68 68 69 69 70 70 71 71 72 8 73 9 74
REMARK SMILES IDX 10 75 11 76 12 77 13 78 14 79 15 80 16 81 17 82 18 83 22 84
REMARK SMILES IDX 19 85 21 86 20 87 23 88 24 89 25 90 35 91 26 92 27 93 33 94
REMARK SMILES IDX 36 95 28 96 32 97 34 98 29 99 31 100 30 101
REMARK H PARENT 93 25 61 36
REMARK Flexibility Score: inf
ROOT
ATOM      1  C   UNL A   1      35.020  22.033  26.898  1.00  0.00     0.188 C 
ENDROOT
BRANCH   1   2
ATOM      2  O   UNL A   1      35.045  20.912  26.016  1.00  0.00    -0.376 OA
BRANCH   2   3
ATOM      3  C   UNL A   1      36.018  20.959  24.981  1.00  0.00     0.202 C 
BRANCH   3   4
ATOM      4  C   UNL A   1      37.484  21.116  25.400  1.00  0.00     0.261 C 
BRANCH   4   5
ATOM      5  O   UNL A   1      37.953  22.420  25.784  1.00  0.00    -0.460 OA
BRANCH   5   6
ATOM      6  C   UNL A   1      39.149  22.818  26.275  1.00  0.00     0.338 C 
ATOM      7  O   UNL A   1      40.064  21.997  26.331  1.00  0.00    -0.246 OA
BRANCH   6   8
ATOM      8  C   UNL A   1      39.401  24.186  26.807  1.00  0.00     0.060 A 
ATOM      9  C   UNL A   1      40.086  25.182  26.116  1.00  0.00     0.016 A 
ATOM     10  C   UNL A   1      39.001  24.441  28.134  1.00  0.00     0.016 A 
ATOM     11  C   UNL A   1      40.318  26.422  26.717  1.00  0.00     0.010 A 
ATOM     12  C   UNL A   1      39.285  25.664  28.756  1.00  0.00     0.010 A 
ATOM     13  C   UNL A   1      39.948  26.668  28.050  1.00  0.00    -0.014 A 
BRANCH  13  14
ATOM     14  C   UNL A   1      40.431  27.923  28.689  1.00  0.00     0.031 A 
ATOM     15  C   UNL A   1      41.870  28.297  28.494  1.00  0.00     0.074 A 
ATOM     16  C   UNL A   1      39.621  28.753  29.373  1.00  0.00     0.049 A 
ATOM     17  N   UNL A   1      42.448  29.462  28.599  1.00  0.00    -0.248 NA
ATOM     18  C   UNL A   1      42.774  27.199  28.111  1.00  0.00     0.031 C 
ATOM     19  C   UNL A   1      38.233  28.478  29.717  1.00  0.00     0.029 A 
ATOM     20  N   UNL A   1      39.837  30.030  29.847  1.00  0.00    -0.354 N 
ATOM     21  C   UNL A   1      43.784  29.239  28.299  1.00  0.00     0.074 A 
ATOM     22  C   UNL A   1      43.923  27.838  27.960  1.00  0.00     0.031 C 
ATOM     23  C   UNL A   1      37.688  29.583  30.251  1.00  0.00     0.029 A 
ATOM     24  C   UNL A   1      38.679  30.654  30.260  1.00  0.00     0.049 A 
ATOM     25  H   UNL A   1      40.726  30.451  29.887  1.00  0.00     0.167 HD
ATOM     26  C   UNL A   1      44.819  30.109  28.342  1.00  0.00     0.034 A 
ATOM     27  C   UNL A   1      38.436  31.955  30.529  1.00  0.00     0.034 A 
ATOM     28  C   UNL A   1      44.714  31.460  28.807  1.00  0.00     0.049 A 
ATOM     29  C   UNL A   1      39.590  32.926  30.503  1.00  0.00     0.074 A 
ATOM     30  C   UNL A   1      45.726  32.379  29.020  1.00  0.00     0.029 A 
ATOM     31  N   UNL A   1      43.528  32.071  29.183  1.00  0.00    -0.354 N 
ATOM     32  N   UNL A   1      40.812  32.756  30.061  1.00  0.00    -0.248 NA
ATOM     33  C   UNL A   1      39.325  34.276  31.026  1.00  0.00     0.031 C 
ATOM     34  C   UNL A   1      45.152  33.539  29.553  1.00  0.00     0.029 A 
ATOM     35  C   UNL A   1      43.782  33.350  29.644  1.00  0.00     0.049 A 
ATOM     36  H   UNL A   1      42.638  31.655  29.130  1.00  0.00     0.167 HD
ATOM     37  C   UNL A   1      41.467  33.962  30.281  1.00  0.00     0.074 A 
ATOM     38  C   UNL A   1      40.482  34.884  30.810  1.00  0.00     0.031 C 
ATOM     39  C   UNL A   1      42.779  34.264  30.124  1.00  0.00     0.034 A 
BRANCH  26  40
ATOM     40  C   UNL A   1      46.159  29.570  27.941  1.00  0.00     0.023 A 
ATOM     41  C   UNL A   1      46.583  29.694  26.603  1.00  0.00     0.012 A 
ATOM     42  C   UNL A   1      46.967  28.895  28.873  1.00  0.00     0.148 A 
ATOM     43  C   UNL A   1      47.790  29.127  26.193  1.00  0.00     0.002 A 
ATOM     44  C   UNL A   1      48.176  28.351  28.461  1.00  0.00     0.091 A 
ATOM     45  F   UNL A   1      46.517  28.759  30.128  1.00  0.00    -0.205 F 
ATOM     46  C   UNL A   1      48.586  28.460  27.122  1.00  0.00     0.022 A 
BRANCH  44  47
ATOM     47  S   UNL A   1      49.272  27.482  29.585  1.00  0.00     0.127 S 
ATOM     48  O   UNL A   1      50.464  27.309  28.756  1.00  0.00    -0.237 OA
ATOM     49  O   UNL A   1      49.420  28.446  30.675  1.00  0.00    -0.237 OA
ATOM     50  O   UNL A   1      48.580  26.254  29.949  1.00  0.00    -0.744 OA
ENDBRANCH  44  47
ENDBRANCH  26  40
BRANCH  27  51
ATOM     51  C   UNL A   1      37.043  32.468  30.724  1.00  0.00     0.023 A 
ATOM     52  C   UNL A   1      36.515  32.509  32.034  1.00  0.00     0.012 A 
ATOM     53  C   UNL A   1      36.231  32.903  29.663  1.00  0.00     0.148 A 
ATOM     54  C   UNL A   1      35.210  32.941  32.274  1.00  0.00     0.002 A 
ATOM     55  C   UNL A   1      34.955  33.400  29.918  1.00  0.00     0.091 A 
ATOM     56  F   UNL A   1      36.710  32.823  28.412  1.00  0.00    -0.205 F 
ATOM     57  C   UNL A   1      34.433  33.401  31.218  1.00  0.00     0.022 A 
BRANCH  55  58
ATOM     58  S   UNL A   1      33.989  34.167  28.613  1.00  0.00     0.127 S 
ATOM     59  O   UNL A   1      32.717  34.421  29.281  1.00  0.00    -0.237 OA
ATOM     60  O   UNL A   1      34.773  35.362  28.297  1.00  0.00    -0.237 OA
ATOM     61  O   UNL A   1      33.977  33.173  27.545  1.00  0.00    -0.744 OA
ENDBRANCH  55  58
ENDBRANCH  27  51
BRANCH  39  62
ATOM     62  C   UNL A   1      43.243  35.624  30.578  1.00  0.00     0.023 A 
ATOM     63  C   UNL A   1      43.671  35.791  31.911  1.00  0.00     0.012 A 
ATOM     64  C   UNL A   1      43.360  36.696  29.674  1.00  0.00     0.148 A 
ATOM     65  C   UNL A   1      44.186  37.011  32.344  1.00  0.00     0.002 A 
ATOM     66  C   UNL A   1      43.917  37.896  30.102  1.00  0.00     0.091 A 
ATOM     67  F   UNL A   1      42.927  36.524  28.416  1.00  0.00    -0.205 F 
ATOM     68  C   UNL A   1      44.322  38.059  31.437  1.00  0.00     0.022 A 
BRANCH  66  69
ATOM     69  S   UNL A   1      44.222  39.264  28.977  1.00  0.00     0.127 S 
ATOM     70  O   UNL A   1      45.068  40.135  29.790  1.00  0.00    -0.237 OA
ATOM     71  O   UNL A   1      44.910  38.607  27.865  1.00  0.00    -0.237 OA
ATOM     72  O   UNL A   1      42.909  39.799  28.640  1.00  0.00    -0.744 OA
ENDBRANCH  66  69
ENDBRANCH  39  62
ENDBRANCH  13  14
ENDBRANCH   6   8
ENDBRANCH   5   6
ENDBRANCH   4   5
ENDBRANCH   3   4
ENDBRANCH   2   3
ENDBRANCH   1   2
BRANCH   1  73
ATOM     73  C   UNL A   1      34.119  23.194  26.477  1.00  0.00     0.188 C 
BRANCH  73  74
ATOM     74  O   UNL A   1      34.825  24.219  25.781  1.00  0.00    -0.376 OA
BRANCH  74  75
ATOM     75  C   UNL A   1      34.033  25.396  25.586  1.00  0.00     0.202 C 
BRANCH  75  76
ATOM     76  C   UNL A   1      32.939  25.562  26.645  1.00  0.00     0.261 C 
BRANCH  76  77
ATOM     77  O   UNL A   1      31.965  26.580  26.356  1.00  0.00    -0.462 OA
BRANCH  77  78
ATOM     78  C   UNL A   1      32.445  27.730  25.814  1.00  0.00     0.331 C 
ATOM     79  O   UNL A   1      33.329  28.410  26.329  1.00  0.00    -0.250 OA
BRANCH  78  80
ATOM     80  C   UNL A   1      31.774  28.071  24.484  1.00  0.00     0.219 C 
BRANCH  80  81
ATOM     81  C   UNL A   1      31.426  29.542  24.194  1.00  0.00     0.074 C 
BRANCH  81  82
ATOM     82  C   UNL A   1      30.009  29.904  23.807  1.00  0.00    -0.045 A 
ATOM     83  C   UNL A   1      29.224  29.011  23.069  1.00  0.00     0.004 A 
ATOM     84  C   UNL A   1      29.505  31.189  24.043  1.00  0.00     0.004 A 
ATOM     85  C   UNL A   1      27.980  29.394  22.563  1.00  0.00     0.000 A 
ATOM     86  C   UNL A   1      28.264  31.576  23.532  1.00  0.00     0.000 A 
ATOM     87  C   UNL A   1      27.503  30.682  22.787  1.00  0.00     0.000 A 
ENDBRANCH  81  82
ENDBRANCH  80  81
BRANCH  80  88
ATOM     88  N   UNL A   1      32.333  27.388  23.302  1.00  0.00    -0.268 NA
ATOM     89  C   UNL A   1      32.029  26.215  22.870  1.00  0.00     0.110 C 
ATOM     90  C   UNL A   1      30.980  25.290  23.433  1.00  0.00     0.209 C 
ATOM     91  C   UNL A   1      32.819  25.598  21.749  1.00  0.00     0.205 C 
ATOM     92  O   UNL A   1      29.828  25.635  23.580  1.00  0.00    -0.287 OA
ATOM     93  C   UNL A   1      31.396  23.909  23.694  1.00  0.00     0.035 A 
ATOM     94  C   UNL A   1      33.261  24.175  22.031  1.00  0.00     0.187 C 
ATOM     95  Cl  UNL A   1      31.780  25.566  20.297  1.00  0.00    -0.107 Cl
ATOM     96  C   UNL A   1      30.658  23.137  24.598  1.00  0.00     0.013 A 
ATOM     97  C   UNL A   1      32.515  23.385  23.048  1.00  0.00     0.031 A 
ATOM     98  O   UNL A   1      34.155  23.617  21.401  1.00  0.00    -0.292 OA
ATOM     99  C   UNL A   1      31.060  21.833  24.880  1.00  0.00     0.001 A 
ATOM    100  C   UNL A   1      32.914  22.075  23.339  1.00  0.00     0.012 A 
ATOM    101  C   UNL A   1      32.191  21.305  24.256  1.00  0.00     0.001 A 
ENDBRANCH  80  88
ENDBRANCH  78  80
ENDBRANCH  77  78
ENDBRANCH  76  77
ENDBRANCH  75  76
ENDBRANCH  74  75
ENDBRANCH  73  74
ENDBRANCH   1  73
TORSDOF 23
ENDMDL
