MODEL 1
REMARK VINA RESULT:      -7.5      0.000      0.000
REMARK SMILES C[NH2+][C@@]1(C(=O)OCCOCCOCCOC(=O)c2ccc(-c3c4nc(c(-c5cccc(S(=O)(=O)[O-])c5F)c5ccc([nH]5)c(-c5cccc(S(=O)(=O)[O-])c5F)c5nc(c(-c6cccc(S(=O)(=O)[O-])c6F)c6ccc3[nH]6)C=C5)C=C4)cc2)CCC[C@H]1CCSc1nccc(=O)[nH]1
REMARK SMILES IDX 10 1 9 2 8 3 7 4 6 5 4 6 5 7 3 8 81 9 84 10 82 11 83 12 2 13
REMARK SMILES IDX 1 14 85 17 86 18 87 19 88 20 89 21 94 22 90 23 92 24 91 26
REMARK SMILES IDX 93 27 11 28 12 29 13 30 14 31 15 32 16 33 17 34 18 35 19 36
REMARK SMILES IDX 80 37 20 38 79 39 21 40 22 41 23 42 73 43 24 44 78 45 72 46
REMARK SMILES IDX 74 47 25 48 77 49 71 50 70 51 26 53 58 54 38 55 57 56 39 57
REMARK SMILES IDX 42 58 56 59 75 60 40 61 41 62 55 64 76 65 43 66 27 67 28 68
REMARK SMILES IDX 36 69 29 70 31 71 37 72 30 73 32 74 33 75 34 76 35 77 59 78
REMARK SMILES IDX 60 79 68 80 61 81 63 82 69 83 62 84 64 85 65 86 66 87 67 88
REMARK SMILES IDX 44 89 45 90 53 91 46 92 48 93 54 94 47 95 49 96 50 97 51 98
REMARK SMILES IDX 52 99
REMARK H PARENT 2 15 2 16 94 25 74 52 42 63
REMARK Flexibility Score: inf
ROOT
ATOM      1  C   UNL A   1      39.536  20.871  25.550  1.00  0.00     0.188 C 
ENDROOT
BRANCH   1   2
ATOM      2  O   UNL A   1      40.223  20.599  26.908  1.00  0.00    -0.376 OA
BRANCH   2   3
ATOM      3  C   UNL A   1      41.551  21.070  27.255  1.00  0.00     0.202 C 
BRANCH   3   4
ATOM      4  C   UNL A   1      42.016  21.985  26.097  1.00  0.00     0.261 C 
BRANCH   4   5
ATOM      5  O   UNL A   1      42.388  23.284  26.630  1.00  0.00    -0.459 OA
BRANCH   5   6
ATOM      6  C   UNL A   1      43.264  23.941  25.829  1.00  0.00     0.368 C 
ATOM      7  O   UNL A   1      43.321  23.708  24.620  1.00  0.00    -0.245 OA
BRANCH   6   8
ATOM      8  C   UNL A   1      44.237  24.973  26.532  1.00  0.00     0.197 C 
ATOM      9  C   UNL A   1      45.451  25.023  25.587  1.00  0.00     0.081 C 
ATOM     10  C   UNL A   1      44.970  24.623  27.863  1.00  0.00     0.063 C 
ATOM     11  C   UNL A   1      46.287  23.812  26.001  1.00  0.00     0.008 C 
ATOM     12  C   UNL A   1      46.247  23.837  27.512  1.00  0.00     0.011 C 
BRANCH   8  13
ATOM     13  N   UNL A   1      43.584  26.307  26.682  1.00  0.00    -0.334 N 
ATOM     14  C   UNL A   1      43.975  27.370  25.761  1.00  0.00     0.331 C 
ATOM     15  H   UNL A   1      42.579  26.166  26.574  1.00  0.00     0.347 HD
ATOM     16  H   UNL A   1      43.888  26.638  27.597  1.00  0.00     0.347 HD
ENDBRANCH   8  13
BRANCH  10  17
ATOM     17  C   UNL A   1      45.342  25.788  28.822  1.00  0.00     0.022 C 
BRANCH  17  18
ATOM     18  C   UNL A   1      45.253  25.460  30.315  1.00  0.00     0.079 C 
BRANCH  18  19
ATOM     19  S   UNL A   1      45.230  26.986  31.305  1.00  0.00    -0.088 SA
BRANCH  19  20
ATOM     20  C   UNL A   1      44.249  26.561  32.670  1.00  0.00     0.168 A 
ATOM     21  N   UNL A   1      44.258  25.329  33.455  1.00  0.00    -0.233 NA
ATOM     22  N   UNL A   1      43.282  27.882  33.068  1.00  0.00    -0.301 N 
ATOM     23  C   UNL A   1      43.236  24.998  34.846  1.00  0.00     0.120 A 
ATOM     24  C   UNL A   1      42.250  27.913  34.451  1.00  0.00     0.251 A 
ATOM     25  H   UNL A   1      43.306  28.675  32.485  1.00  0.00     0.172 HD
ATOM     26  C   UNL A   1      42.200  26.095  35.352  1.00  0.00     0.091 A 
ATOM     27  O   UNL A   1      42.076  29.058  34.873  1.00  0.00    -0.269 OA
ENDBRANCH  19  20
ENDBRANCH  18  19
ENDBRANCH  17  18
ENDBRANCH  10  17
ENDBRANCH   6   8
ENDBRANCH   5   6
ENDBRANCH   4   5
ENDBRANCH   3   4
ENDBRANCH   2   3
ENDBRANCH   1   2
BRANCH   1  28
ATOM     28  C   UNL A   1      37.452  21.354  25.032  1.00  0.00     0.188 C 
BRANCH  28  29
ATOM     29  O   UNL A   1      36.585  22.710  25.556  1.00  0.00    -0.376 OA
BRANCH  29  30
ATOM     30  C   UNL A   1      37.064  23.945  26.222  1.00  0.00     0.202 C 
BRANCH  30  31
ATOM     31  C   UNL A   1      38.647  24.203  26.740  1.00  0.00     0.261 C 
BRANCH  31  32
ATOM     32  O   UNL A   1      39.057  25.378  27.623  1.00  0.00    -0.460 OA
BRANCH  32  33
ATOM     33  C   UNL A   1      40.086  26.203  27.145  1.00  0.00     0.338 C 
ATOM     34  O   UNL A   1      40.506  26.077  25.997  1.00  0.00    -0.246 OA
BRANCH  33  35
ATOM     35  C   UNL A   1      40.600  27.415  28.005  1.00  0.00     0.060 A 
ATOM     36  C   UNL A   1      40.425  28.789  27.785  1.00  0.00     0.016 A 
ATOM     37  C   UNL A   1      41.432  27.129  29.099  1.00  0.00     0.016 A 
ATOM     38  C   UNL A   1      41.149  29.804  28.484  1.00  0.00     0.010 A 
ATOM     39  C   UNL A   1      42.026  28.142  29.909  1.00  0.00     0.010 A 
ATOM     40  C   UNL A   1      41.921  29.510  29.611  1.00  0.00    -0.014 A 
BRANCH  40  41
ATOM     41  C   UNL A   1      42.534  30.557  30.526  1.00  0.00     0.031 A 
ATOM     42  C   UNL A   1      41.698  31.204  31.619  1.00  0.00     0.074 A 
ATOM     43  C   UNL A   1      43.785  31.044  30.333  1.00  0.00     0.049 A 
ATOM     44  N   UNL A   1      41.847  32.358  32.222  1.00  0.00    -0.248 NA
ATOM     45  C   UNL A   1      40.532  30.438  32.085  1.00  0.00     0.031 C 
ATOM     46  C   UNL A   1      44.780  30.509  29.403  1.00  0.00     0.029 A 
ATOM     47  N   UNL A   1      44.421  32.151  30.871  1.00  0.00    -0.354 N 
ATOM     48  C   UNL A   1      40.738  32.507  33.056  1.00  0.00     0.074 A 
ATOM     49  C   UNL A   1      39.952  31.299  32.913  1.00  0.00     0.031 C 
ATOM     50  C   UNL A   1      45.868  31.292  29.402  1.00  0.00     0.029 A 
ATOM     51  C   UNL A   1      45.619  32.450  30.248  1.00  0.00     0.049 A 
ATOM     52  H   UNL A   1      44.056  32.673  31.622  1.00  0.00     0.167 HD
ATOM     53  C   UNL A   1      40.394  33.557  33.848  1.00  0.00     0.034 A 
ATOM     54  C   UNL A   1      46.397  33.555  30.270  1.00  0.00     0.034 A 
ATOM     55  C   UNL A   1      41.206  34.736  34.022  1.00  0.00     0.049 A 
ATOM     56  C   UNL A   1      45.977  34.734  31.105  1.00  0.00     0.074 A 
ATOM     57  C   UNL A   1      40.959  35.848  34.812  1.00  0.00     0.029 A 
ATOM     58  N   UNL A   1      42.423  34.960  33.396  1.00  0.00    -0.354 N 
ATOM     59  N   UNL A   1      44.923  34.867  31.874  1.00  0.00    -0.248 NA
ATOM     60  C   UNL A   1      46.857  35.913  31.088  1.00  0.00     0.031 C 
ATOM     61  C   UNL A   1      42.005  36.760  34.628  1.00  0.00     0.029 A 
ATOM     62  C   UNL A   1      42.931  36.193  33.769  1.00  0.00     0.049 A 
ATOM     63  H   UNL A   1      42.860  34.333  32.777  1.00  0.00     0.167 HD
ATOM     64  C   UNL A   1      45.033  36.123  32.459  1.00  0.00     0.074 A 
ATOM     65  C   UNL A   1      46.265  36.707  31.970  1.00  0.00     0.031 C 
ATOM     66  C   UNL A   1      44.185  36.741  33.316  1.00  0.00     0.034 A 
BRANCH  53  67
ATOM     67  C   UNL A   1      39.063  33.502  34.565  1.00  0.00     0.023 A 
ATOM     68  C   UNL A   1      37.902  34.028  33.964  1.00  0.00     0.012 A 
ATOM     69  C   UNL A   1      38.958  32.886  35.832  1.00  0.00     0.148 A 
ATOM     70  C   UNL A   1      36.675  33.990  34.630  1.00  0.00     0.002 A 
ATOM     71  C   UNL A   1      37.724  32.808  36.468  1.00  0.00     0.091 A 
ATOM     72  F   UNL A   1      40.070  32.393  36.396  1.00  0.00    -0.205 F 
ATOM     73  C   UNL A   1      36.585  33.377  35.877  1.00  0.00     0.022 A 
BRANCH  71  74
ATOM     74  S   UNL A   1      37.486  31.968  38.039  1.00  0.00     0.127 S 
ATOM     75  O   UNL A   1      37.495  30.564  37.628  1.00  0.00    -0.237 OA
ATOM     76  O   UNL A   1      38.669  32.387  38.792  1.00  0.00    -0.237 OA
ATOM     77  O   UNL A   1      36.221  32.453  38.571  1.00  0.00    -0.744 OA
ENDBRANCH  71  74
ENDBRANCH  53  67
BRANCH  54  78
ATOM     78  C   UNL A   1      47.644  33.623  29.440  1.00  0.00     0.023 A 
ATOM     79  C   UNL A   1      48.844  33.080  29.940  1.00  0.00     0.012 A 
ATOM     80  C   UNL A   1      47.647  34.213  28.158  1.00  0.00     0.148 A 
ATOM     81  C   UNL A   1      50.024  33.144  29.195  1.00  0.00     0.002 A 
ATOM     82  C   UNL A   1      48.812  34.218  27.396  1.00  0.00     0.091 A 
ATOM     83  F   UNL A   1      46.505  34.746  27.702  1.00  0.00    -0.205 F 
ATOM     84  C   UNL A   1      50.005  33.701  27.919  1.00  0.00     0.022 A 
BRANCH  82  85
ATOM     85  S   UNL A   1      48.853  34.794  25.693  1.00  0.00     0.127 S 
ATOM     86  O   UNL A   1      49.146  36.214  25.864  1.00  0.00    -0.237 OA
ATOM     87  O   UNL A   1      49.950  34.001  25.136  1.00  0.00    -0.237 OA
ATOM     88  O   UNL A   1      47.543  34.482  25.137  1.00  0.00    -0.744 OA
ENDBRANCH  82  85
ENDBRANCH  54  78
BRANCH  66  89
ATOM     89  C   UNL A   1      44.587  38.094  33.845  1.00  0.00     0.023 A 
ATOM     90  C   UNL A   1      45.474  38.201  34.933  1.00  0.00     0.012 A 
ATOM     91  C   UNL A   1      44.128  39.265  33.209  1.00  0.00     0.148 A 
ATOM     92  C   UNL A   1      45.872  39.454  35.402  1.00  0.00     0.002 A 
ATOM     93  C   UNL A   1      44.572  40.507  33.645  1.00  0.00     0.091 A 
ATOM     94  F   UNL A   1      43.266  39.142  32.189  1.00  0.00    -0.205 F 
ATOM     95  C   UNL A   1      45.433  40.604  34.751  1.00  0.00     0.022 A 
BRANCH  93  96
ATOM     96  S   UNL A   1      44.141  42.034  32.803  1.00  0.00     0.127 S 
ATOM     97  O   UNL A   1      44.728  41.820  31.481  1.00  0.00    -0.237 OA
ATOM     98  O   UNL A   1      42.678  41.999  32.835  1.00  0.00    -0.237 OA
ATOM     99  O   UNL A   1      44.738  43.109  33.583  1.00  0.00    -0.744 OA
ENDBRANCH  93  96
ENDBRANCH  66  89
ENDBRANCH  40  41
ENDBRANCH  33  35
ENDBRANCH  32  33
ENDBRANCH  31  32
ENDBRANCH  30  31
ENDBRANCH  29  30
ENDBRANCH  28  29
ENDBRANCH   1  28
TORSDOF 25
ENDMDL
MODEL 2
REMARK VINA RESULT:      -7.5      4.937      9.861
REMARK SMILES C[NH2+][C@@]1(C(=O)OCCOCCOCCOC(=O)c2ccc(-c3c4nc(c(-c5cccc(S(=O)(=O)[O-])c5F)c5ccc([nH]5)c(-c5cccc(S(=O)(=O)[O-])c5F)c5nc(c(-c6cccc(S(=O)(=O)[O-])c6F)c6ccc3[nH]6)C=C5)C=C4)cc2)CCC[C@H]1CCSc1nccc(=O)[nH]1
REMARK SMILES IDX 10 1 9 2 8 3 7 4 6 5 4 6 5 7 3 8 81 9 84 10 82 11 83 12 2 13
REMARK SMILES IDX 1 14 85 17 86 18 87 19 88 20 89 21 94 22 90 23 92 24 91 26
REMARK SMILES IDX 93 27 11 28 12 29 13 30 14 31 15 32 16 33 17 34 18 35 19 36
REMARK SMILES IDX 80 37 20 38 79 39 21 40 22 41 23 42 73 43 24 44 78 45 72 46
REMARK SMILES IDX 74 47 25 48 77 49 71 50 70 51 26 53 58 54 38 55 57 56 39 57
REMARK SMILES IDX 42 58 56 59 75 60 40 61 41 62 55 64 76 65 43 66 27 67 28 68
REMARK SMILES IDX 36 69 29 70 31 71 37 72 30 73 32 74 33 75 34 76 35 77 59 78
REMARK SMILES IDX 60 79 68 80 61 81 63 82 69 83 62 84 64 85 65 86 66 87 67 88
REMARK SMILES IDX 44 89 45 90 53 91 46 92 48 93 54 94 47 95 49 96 50 97 51 98
REMARK SMILES IDX 52 99
REMARK H PARENT 2 15 2 16 94 25 74 52 42 63
REMARK Flexibility Score: inf
ROOT
ATOM      1  C   UNL A   1      41.485  28.434  28.784  1.00  0.00     0.188 C 
ENDROOT
BRANCH   1   2
ATOM      2  O   UNL A   1      42.555  29.220  29.577  1.00  0.00    -0.376 OA
BRANCH   2   3
ATOM      3  C   UNL A   1      42.535  29.393  31.017  1.00  0.00     0.202 C 
BRANCH   3   4
ATOM      4  C   UNL A   1      41.047  29.387  31.445  1.00  0.00     0.261 C 
BRANCH   4   5
ATOM      5  O   UNL A   1      40.788  30.532  32.299  1.00  0.00    -0.459 OA
BRANCH   5   6
ATOM      6  C   UNL A   1      39.521  30.539  32.787  1.00  0.00     0.368 C 
ATOM      7  O   UNL A   1      38.847  29.507  32.823  1.00  0.00    -0.245 OA
BRANCH   6   8
ATOM      8  C   UNL A   1      38.942  31.937  33.251  1.00  0.00     0.197 C 
ATOM      9  C   UNL A   1      39.901  32.366  34.377  1.00  0.00     0.081 C 
ATOM     10  C   UNL A   1      37.589  32.042  34.020  1.00  0.00     0.063 C 
ATOM     11  C   UNL A   1      39.369  31.632  35.608  1.00  0.00     0.008 C 
ATOM     12  C   UNL A   1      37.869  31.792  35.513  1.00  0.00     0.011 C 
BRANCH   8  13
ATOM     13  N   UNL A   1      38.928  32.912  32.121  1.00  0.00    -0.334 N 
ATOM     14  C   UNL A   1      39.999  33.901  32.054  1.00  0.00     0.331 C 
ATOM     15  H   UNL A   1      38.958  32.373  31.255  1.00  0.00     0.347 HD
ATOM     16  H   UNL A   1      38.082  33.462  32.270  1.00  0.00     0.347 HD
ENDBRANCH   8  13
BRANCH  10  17
ATOM     17  C   UNL A   1      36.763  33.350  33.871  1.00  0.00     0.022 C 
BRANCH  17  18
ATOM     18  C   UNL A   1      35.246  33.160  33.796  1.00  0.00     0.079 C 
BRANCH  18  19
ATOM     19  S   UNL A   1      34.594  33.836  32.238  1.00  0.00    -0.088 SA
BRANCH  19  20
ATOM     20  C   UNL A   1      35.620  33.126  31.034  1.00  0.00     0.168 A 
ATOM     21  N   UNL A   1      36.605  33.775  30.172  1.00  0.00    -0.233 NA
ATOM     22  N   UNL A   1      35.395  31.456  31.055  1.00  0.00    -0.301 N 
ATOM     23  C   UNL A   1      37.622  32.962  28.992  1.00  0.00     0.120 A 
ATOM     24  C   UNL A   1      36.326  30.367  30.094  1.00  0.00     0.251 A 
ATOM     25  H   UNL A   1      34.699  31.084  31.643  1.00  0.00     0.172 HD
ATOM     26  C   UNL A   1      37.520  31.384  28.806  1.00  0.00     0.091 A 
ATOM     27  O   UNL A   1      36.419  29.253  30.614  1.00  0.00    -0.269 OA
ENDBRANCH  19  20
ENDBRANCH  18  19
ENDBRANCH  17  18
ENDBRANCH  10  17
ENDBRANCH   6   8
ENDBRANCH   5   6
ENDBRANCH   4   5
ENDBRANCH   3   4
ENDBRANCH   2   3
ENDBRANCH   1   2
BRANCH   1  28
ATOM     28  C   UNL A   1      41.263  28.022  26.634  1.00  0.00     0.188 C 
BRANCH  28  29
ATOM     29  O   UNL A   1      40.926  26.517  25.938  1.00  0.00    -0.376 OA
BRANCH  29  30
ATOM     30  C   UNL A   1      40.342  25.298  26.548  1.00  0.00     0.202 C 
BRANCH  30  31
ATOM     31  C   UNL A   1      41.131  24.313  27.666  1.00  0.00     0.261 C 
BRANCH  31  32
ATOM     32  O   UNL A   1      42.300  23.403  27.299  1.00  0.00    -0.460 OA
BRANCH  32  33
ATOM     33  C   UNL A   1      43.052  23.760  26.170  1.00  0.00     0.338 C 
ATOM     34  O   UNL A   1      42.883  23.184  25.098  1.00  0.00    -0.246 OA
BRANCH  33  35
ATOM     35  C   UNL A   1      43.998  25.016  26.207  1.00  0.00     0.060 A 
ATOM     36  C   UNL A   1      44.431  25.825  25.146  1.00  0.00     0.016 A 
ATOM     37  C   UNL A   1      44.586  25.350  27.437  1.00  0.00     0.016 A 
ATOM     38  C   UNL A   1      45.489  26.779  25.257  1.00  0.00     0.010 A 
ATOM     39  C   UNL A   1      45.521  26.417  27.587  1.00  0.00     0.010 A 
ATOM     40  C   UNL A   1      46.018  27.148  26.496  1.00  0.00    -0.014 A 
BRANCH  40  41
ATOM     41  C   UNL A   1      46.981  28.305  26.707  1.00  0.00     0.031 A 
ATOM     42  C   UNL A   1      46.462  29.732  26.768  1.00  0.00     0.074 A 
ATOM     43  C   UNL A   1      48.326  28.134  26.719  1.00  0.00     0.049 A 
ATOM     44  N   UNL A   1      47.078  30.864  26.528  1.00  0.00    -0.248 NA
ATOM     45  C   UNL A   1      45.051  29.895  27.149  1.00  0.00     0.031 C 
ATOM     46  C   UNL A   1      49.028  26.850  26.759  1.00  0.00     0.029 A 
ATOM     47  N   UNL A   1      49.359  29.054  26.637  1.00  0.00    -0.354 N 
ATOM     48  C   UNL A   1      46.107  31.862  26.619  1.00  0.00     0.074 A 
ATOM     49  C   UNL A   1      44.872  31.201  26.985  1.00  0.00     0.031 C 
ATOM     50  C   UNL A   1      50.350  27.052  26.664  1.00  0.00     0.029 A 
ATOM     51  C   UNL A   1      50.598  28.470  26.448  1.00  0.00     0.049 A 
ATOM     52  H   UNL A   1      49.224  30.026  26.707  1.00  0.00     0.167 HD
ATOM     53  C   UNL A   1      46.226  33.198  26.399  1.00  0.00     0.034 A 
ATOM     54  C   UNL A   1      51.787  28.981  26.058  1.00  0.00     0.034 A 
ATOM     55  C   UNL A   1      47.470  33.856  26.080  1.00  0.00     0.049 A 
ATOM     56  C   UNL A   1      51.894  30.452  25.760  1.00  0.00     0.074 A 
ATOM     57  C   UNL A   1      47.703  35.204  25.854  1.00  0.00     0.029 A 
ATOM     58  N   UNL A   1      48.692  33.217  25.943  1.00  0.00    -0.354 N 
ATOM     59  N   UNL A   1      50.969  31.377  25.836  1.00  0.00    -0.248 NA
ATOM     60  C   UNL A   1      53.209  30.954  25.334  1.00  0.00     0.031 C 
ATOM     61  C   UNL A   1      49.056  35.369  25.538  1.00  0.00     0.029 A 
ATOM     62  C   UNL A   1      49.677  34.135  25.621  1.00  0.00     0.049 A 
ATOM     63  H   UNL A   1      48.836  32.250  26.056  1.00  0.00     0.167 HD
ATOM     64  C   UNL A   1      51.597  32.572  25.505  1.00  0.00     0.074 A 
ATOM     65  C   UNL A   1      52.987  32.258  25.246  1.00  0.00     0.031 C 
ATOM     66  C   UNL A   1      51.068  33.817  25.416  1.00  0.00     0.034 A 
BRANCH  53  67
ATOM     67  C   UNL A   1      44.973  34.044  26.454  1.00  0.00     0.023 A 
ATOM     68  C   UNL A   1      44.099  34.107  25.350  1.00  0.00     0.012 A 
ATOM     69  C   UNL A   1      44.639  34.751  27.631  1.00  0.00     0.148 A 
ATOM     70  C   UNL A   1      42.949  34.898  25.396  1.00  0.00     0.002 A 
ATOM     71  C   UNL A   1      43.467  35.497  27.686  1.00  0.00     0.091 A 
ATOM     72  F   UNL A   1      45.480  34.687  28.674  1.00  0.00    -0.205 F 
ATOM     73  C   UNL A   1      42.630  35.587  26.563  1.00  0.00     0.022 A 
BRANCH  71  74
ATOM     74  S   UNL A   1      42.926  36.356  29.170  1.00  0.00     0.127 S 
ATOM     75  O   UNL A   1      42.881  35.266  30.143  1.00  0.00    -0.237 OA
ATOM     76  O   UNL A   1      44.010  37.316  29.381  1.00  0.00    -0.237 OA
ATOM     77  O   UNL A   1      41.638  36.954  28.845  1.00  0.00    -0.744 OA
ENDBRANCH  71  74
ENDBRANCH  53  67
BRANCH  54  78
ATOM     78  C   UNL A   1      52.978  28.086  25.885  1.00  0.00     0.023 A 
ATOM     79  C   UNL A   1      53.182  27.429  24.655  1.00  0.00     0.012 A 
ATOM     80  C   UNL A   1      53.911  27.888  26.924  1.00  0.00     0.148 A 
ATOM     81  C   UNL A   1      54.274  26.577  24.471  1.00  0.00     0.002 A 
ATOM     82  C   UNL A   1      55.030  27.087  26.714  1.00  0.00     0.091 A 
ATOM     83  F   UNL A   1      53.696  28.501  28.096  1.00  0.00    -0.205 F 
ATOM     84  C   UNL A   1      55.204  26.416  25.495  1.00  0.00     0.022 A 
BRANCH  82  85
ATOM     85  S   UNL A   1      56.348  26.925  27.925  1.00  0.00     0.127 S 
ATOM     86  O   UNL A   1      57.122  28.142  27.690  1.00  0.00    -0.237 OA
ATOM     87  O   UNL A   1      55.598  26.906  29.182  1.00  0.00    -0.237 OA
ATOM     88  O   UNL A   1      57.025  25.675  27.611  1.00  0.00    -0.744 OA
ENDBRANCH  82  85
ENDBRANCH  54  78
BRANCH  66  89
ATOM     89  C   UNL A   1      52.004  34.953  25.091  1.00  0.00     0.023 A 
ATOM     90  C   UNL A   1      52.315  35.262  23.753  1.00  0.00     0.012 A 
ATOM     91  C   UNL A   1      52.523  35.758  26.126  1.00  0.00     0.148 A 
ATOM     92  C   UNL A   1      53.156  36.334  23.451  1.00  0.00     0.002 A 
ATOM     93  C   UNL A   1      53.313  36.857  25.815  1.00  0.00     0.091 A 
ATOM     94  F   UNL A   1      52.232  35.433  27.394  1.00  0.00    -0.205 F 
ATOM     95  C   UNL A   1      53.643  37.138  24.479  1.00  0.00     0.022 A 
BRANCH  93  96
ATOM     96  S   UNL A   1      53.898  38.006  27.065  1.00  0.00     0.127 S 
ATOM     97  O   UNL A   1      54.671  38.952  26.260  1.00  0.00    -0.237 OA
ATOM     98  O   UNL A   1      52.646  38.541  27.601  1.00  0.00    -0.237 OA
ATOM     99  O   UNL A   1      54.673  37.215  28.010  1.00  0.00    -0.744 OA
ENDBRANCH  93  96
ENDBRANCH  66  89
ENDBRANCH  40  41
ENDBRANCH  33  35
ENDBRANCH  32  33
ENDBRANCH  31  32
ENDBRANCH  30  31
ENDBRANCH  29  30
ENDBRANCH  28  29
ENDBRANCH   1  28
TORSDOF 25
ENDMDL
MODEL 3
REMARK VINA RESULT:      -7.3      3.035      4.872
REMARK SMILES C[NH2+][C@@]1(C(=O)OCCOCCOCCOC(=O)c2ccc(-c3c4nc(c(-c5cccc(S(=O)(=O)[O-])c5F)c5ccc([nH]5)c(-c5cccc(S(=O)(=O)[O-])c5F)c5nc(c(-c6cccc(S(=O)(=O)[O-])c6F)c6ccc3[nH]6)C=C5)C=C4)cc2)CCC[C@H]1CCSc1nccc(=O)[nH]1
REMARK SMILES IDX 10 1 9 2 8 3 7 4 6 5 4 6 5 7 3 8 81 9 84 10 82 11 83 12 2 13
REMARK SMILES IDX 1 14 85 17 86 18 87 19 88 20 89 21 94 22 90 23 92 24 91 26
REMARK SMILES IDX 93 27 11 28 12 29 13 30 14 31 15 32 16 33 17 34 18 35 19 36
REMARK SMILES IDX 80 37 20 38 79 39 21 40 22 41 23 42 73 43 24 44 78 45 72 46
REMARK SMILES IDX 74 47 25 48 77 49 71 50 70 51 26 53 58 54 38 55 57 56 39 57
REMARK SMILES IDX 42 58 56 59 75 60 40 61 41 62 55 64 76 65 43 66 27 67 28 68
REMARK SMILES IDX 36 69 29 70 31 71 37 72 30 73 32 74 33 75 34 76 35 77 59 78
REMARK SMILES IDX 60 79 68 80 61 81 63 82 69 83 62 84 64 85 65 86 66 87 67 88
REMARK SMILES IDX 44 89 45 90 53 91 46 92 48 93 54 94 47 95 49 96 50 97 51 98
REMARK SMILES IDX 52 99
REMARK H PARENT 2 15 2 16 94 25 74 52 42 63
REMARK Flexibility Score: inf
ROOT
ATOM      1  C   UNL A   1      40.363  21.093  26.114  1.00  0.00     0.188 C 
ENDROOT
BRANCH   1   2
ATOM      2  O   UNL A   1      41.037  21.165  27.504  1.00  0.00    -0.376 OA
BRANCH   2   3
ATOM      3  C   UNL A   1      42.212  21.964  27.797  1.00  0.00     0.202 C 
BRANCH   3   4
ATOM      4  C   UNL A   1      42.282  23.066  26.713  1.00  0.00     0.261 C 
BRANCH   4   5
ATOM      5  O   UNL A   1      42.929  24.244  27.264  1.00  0.00    -0.459 OA
BRANCH   5   6
ATOM      6  C   UNL A   1      43.761  24.842  26.375  1.00  0.00     0.368 C 
ATOM      7  O   UNL A   1      43.464  24.926  25.181  1.00  0.00    -0.245 OA
BRANCH   6   8
ATOM      8  C   UNL A   1      45.142  25.375  26.936  1.00  0.00     0.197 C 
ATOM      9  C   UNL A   1      44.766  25.977  28.302  1.00  0.00     0.081 C 
ATOM     10  C   UNL A   1      45.854  26.611  26.304  1.00  0.00     0.063 C 
ATOM     11  C   UNL A   1      44.260  27.378  27.956  1.00  0.00     0.008 C 
ATOM     12  C   UNL A   1      45.244  27.881  26.925  1.00  0.00     0.011 C 
BRANCH   8  13
ATOM     13  N   UNL A   1      46.132  24.265  27.062  1.00  0.00    -0.334 N 
ATOM     14  C   UNL A   1      46.090  23.192  26.073  1.00  0.00     0.331 C 
ATOM     15  H   UNL A   1      47.062  24.681  27.019  1.00  0.00     0.347 HD
ATOM     16  H   UNL A   1      45.892  23.810  27.942  1.00  0.00     0.347 HD
ENDBRANCH   8  13
BRANCH  10  17
ATOM     17  C   UNL A   1      47.403  26.692  26.404  1.00  0.00     0.022 C 
BRANCH  17  18
ATOM     18  C   UNL A   1      48.072  27.651  25.417  1.00  0.00     0.079 C 
BRANCH  18  19
ATOM     19  S   UNL A   1      49.740  27.067  24.988  1.00  0.00    -0.088 SA
BRANCH  19  20
ATOM     20  C   UNL A   1      49.723  27.051  23.254  1.00  0.00     0.168 A 
ATOM     21  N   UNL A   1      48.576  27.063  22.350  1.00  0.00    -0.233 NA
ATOM     22  N   UNL A   1      51.314  27.125  22.701  1.00  0.00    -0.301 N 
ATOM     23  C   UNL A   1      48.660  27.070  20.594  1.00  0.00     0.120 A 
ATOM     24  C   UNL A   1      51.726  27.259  21.031  1.00  0.00     0.251 A 
ATOM     25  H   UNL A   1      52.042  27.091  23.362  1.00  0.00     0.172 HD
ATOM     26  C   UNL A   1      50.075  27.076  19.865  1.00  0.00     0.091 A 
ATOM     27  O   UNL A   1      52.804  27.833  20.865  1.00  0.00    -0.269 OA
ENDBRANCH  19  20
ENDBRANCH  18  19
ENDBRANCH  17  18
ENDBRANCH  10  17
ENDBRANCH   6   8
ENDBRANCH   5   6
ENDBRANCH   4   5
ENDBRANCH   3   4
ENDBRANCH   2   3
ENDBRANCH   1   2
BRANCH   1  28
ATOM     28  C   UNL A   1      38.248  21.086  25.510  1.00  0.00     0.188 C 
BRANCH  28  29
ATOM     29  O   UNL A   1      37.148  22.356  25.719  1.00  0.00    -0.376 OA
BRANCH  29  30
ATOM     30  C   UNL A   1      37.375  23.740  26.200  1.00  0.00     0.202 C 
BRANCH  30  31
ATOM     31  C   UNL A   1      38.891  24.411  26.509  1.00  0.00     0.261 C 
BRANCH  31  32
ATOM     32  O   UNL A   1      39.103  25.605  27.435  1.00  0.00    -0.460 OA
BRANCH  32  33
ATOM     33  C   UNL A   1      40.166  26.467  27.127  1.00  0.00     0.338 C 
ATOM     34  O   UNL A   1      40.692  26.438  26.017  1.00  0.00    -0.246 OA
BRANCH  33  35
ATOM     35  C   UNL A   1      40.588  27.603  28.129  1.00  0.00     0.060 A 
ATOM     36  C   UNL A   1      40.763  28.973  27.885  1.00  0.00     0.016 A 
ATOM     37  C   UNL A   1      40.937  27.221  29.434  1.00  0.00     0.016 A 
ATOM     38  C   UNL A   1      41.395  29.868  28.804  1.00  0.00     0.010 A 
ATOM     39  C   UNL A   1      41.411  28.144  30.413  1.00  0.00     0.010 A 
ATOM     40  C   UNL A   1      41.676  29.491  30.119  1.00  0.00    -0.014 A 
BRANCH  40  41
ATOM     41  C   UNL A   1      42.139  30.450  31.204  1.00  0.00     0.031 A 
ATOM     42  C   UNL A   1      41.122  31.194  32.055  1.00  0.00     0.074 A 
ATOM     43  C   UNL A   1      43.445  30.775  31.373  1.00  0.00     0.049 A 
ATOM     44  N   UNL A   1      41.240  32.318  32.718  1.00  0.00    -0.248 NA
ATOM     45  C   UNL A   1      39.790  30.581  32.160  1.00  0.00     0.031 C 
ATOM     46  C   UNL A   1      44.583  30.121  30.727  1.00  0.00     0.029 A 
ATOM     47  N   UNL A   1      44.040  31.791  32.104  1.00  0.00    -0.354 N 
ATOM     48  C   UNL A   1      39.972  32.604  33.227  1.00  0.00     0.074 A 
ATOM     49  C   UNL A   1      39.114  31.506  32.832  1.00  0.00     0.031 C 
ATOM     50  C   UNL A   1      45.717  30.760  31.049  1.00  0.00     0.029 A 
ATOM     51  C   UNL A   1      45.389  31.937  31.839  1.00  0.00     0.049 A 
ATOM     52  H   UNL A   1      43.550  32.353  32.748  1.00  0.00     0.167 HD
ATOM     53  C   UNL A   1      39.556  33.686  33.936  1.00  0.00     0.034 A 
ATOM     54  C   UNL A   1      46.259  32.935  32.111  1.00  0.00     0.034 A 
ATOM     55  C   UNL A   1      40.426  34.753  34.366  1.00  0.00     0.049 A 
ATOM     56  C   UNL A   1      45.774  34.155  32.846  1.00  0.00     0.074 A 
ATOM     57  C   UNL A   1      40.110  35.885  35.101  1.00  0.00     0.029 A 
ATOM     58  N   UNL A   1      41.785  34.823  34.100  1.00  0.00    -0.354 N 
ATOM     59  N   UNL A   1      44.575  34.417  33.306  1.00  0.00    -0.248 NA
ATOM     60  C   UNL A   1      46.762  35.213  33.111  1.00  0.00     0.031 C 
ATOM     61  C   UNL A   1      41.270  36.657  35.240  1.00  0.00     0.029 A 
ATOM     62  C   UNL A   1      42.319  35.980  34.642  1.00  0.00     0.049 A 
ATOM     63  H   UNL A   1      42.296  34.147  33.599  1.00  0.00     0.167 HD
ATOM     64  C   UNL A   1      44.673  35.648  33.945  1.00  0.00     0.074 A 
ATOM     65  C   UNL A   1      46.053  36.072  33.829  1.00  0.00     0.031 C 
ATOM     66  C   UNL A   1      43.705  36.367  34.565  1.00  0.00     0.034 A 
BRANCH  53  67
ATOM     67  C   UNL A   1      38.084  33.799  34.265  1.00  0.00     0.023 A 
ATOM     68  C   UNL A   1      37.607  33.470  35.550  1.00  0.00     0.012 A 
ATOM     69  C   UNL A   1      37.170  34.277  33.299  1.00  0.00     0.148 A 
ATOM     70  C   UNL A   1      36.247  33.561  35.851  1.00  0.00     0.002 A 
ATOM     71  C   UNL A   1      35.824  34.412  33.621  1.00  0.00     0.091 A 
ATOM     72  F   UNL A   1      37.634  34.584  32.079  1.00  0.00    -0.205 F 
ATOM     73  C   UNL A   1      35.358  34.037  34.890  1.00  0.00     0.022 A 
BRANCH  71  74
ATOM     74  S   UNL A   1      34.611  35.091  32.481  1.00  0.00     0.127 S 
ATOM     75  O   UNL A   1      34.770  36.528  32.701  1.00  0.00    -0.237 OA
ATOM     76  O   UNL A   1      35.105  34.615  31.189  1.00  0.00    -0.237 OA
ATOM     77  O   UNL A   1      33.325  34.539  32.882  1.00  0.00    -0.744 OA
ENDBRANCH  71  74
ENDBRANCH  53  67
BRANCH  54  78
ATOM     78  C   UNL A   1      47.684  32.846  31.651  1.00  0.00     0.023 A 
ATOM     79  C   UNL A   1      48.652  32.258  32.489  1.00  0.00     0.012 A 
ATOM     80  C   UNL A   1      48.084  33.333  30.388  1.00  0.00     0.148 A 
ATOM     81  C   UNL A   1      49.989  32.178  32.093  1.00  0.00     0.002 A 
ATOM     82  C   UNL A   1      49.406  33.193  29.974  1.00  0.00     0.091 A 
ATOM     83  F   UNL A   1      47.160  33.910  29.608  1.00  0.00    -0.205 F 
ATOM     84  C   UNL A   1      50.363  32.633  30.831  1.00  0.00     0.022 A 
BRANCH  82  85
ATOM     85  S   UNL A   1      49.953  33.629  28.318  1.00  0.00     0.127 S 
ATOM     86  O   UNL A   1      49.977  35.088  28.385  1.00  0.00    -0.237 OA
ATOM     87  O   UNL A   1      51.271  32.994  28.262  1.00  0.00    -0.237 OA
ATOM     88  O   UNL A   1      48.970  33.055  27.411  1.00  0.00    -0.744 OA
ENDBRANCH  82  85
ENDBRANCH  54  78
BRANCH  66  89
ATOM     89  C   UNL A   1      44.109  37.656  35.232  1.00  0.00     0.023 A 
ATOM     90  C   UNL A   1      44.752  37.641  36.485  1.00  0.00     0.012 A 
ATOM     91  C   UNL A   1      43.905  38.886  34.574  1.00  0.00     0.148 A 
ATOM     92  C   UNL A   1      45.155  38.833  37.088  1.00  0.00     0.002 A 
ATOM     93  C   UNL A   1      44.359  40.063  35.155  1.00  0.00     0.091 A 
ATOM     94  F   UNL A   1      43.270  38.880  33.393  1.00  0.00    -0.205 F 
ATOM     95  C   UNL A   1      44.971  40.040  36.419  1.00  0.00     0.022 A 
BRANCH  93  96
ATOM     96  S   UNL A   1      44.258  41.650  34.320  1.00  0.00     0.127 S 
ATOM     97  O   UNL A   1      45.007  41.387  33.091  1.00  0.00    -0.237 OA
ATOM     98  O   UNL A   1      42.815  41.807  34.132  1.00  0.00    -0.237 OA
ATOM     99  O   UNL A   1      44.861  42.621  35.221  1.00  0.00    -0.744 OA
ENDBRANCH  93  96
ENDBRANCH  66  89
ENDBRANCH  40  41
ENDBRANCH  33  35
ENDBRANCH  32  33
ENDBRANCH  31  32
ENDBRANCH  30  31
ENDBRANCH  29  30
ENDBRANCH  28  29
ENDBRANCH   1  28
TORSDOF 25
ENDMDL
