MODEL 1
REMARK VINA RESULT:      -8.1      0.000      0.000
REMARK SMILES C[C@H](CCO)S[C@H]1CC[C@]([NH2+]C2CC2)(C(=O)OCCOCCOCCOC(=O)c2ccc(-c3c4nc(c(-c5cccc(S(=O)(=O)[O-])c5F)c5ccc([nH]5)c(-c5cccc(S(=O)(=O)[O-])c5F)c5nc(c(-c6cccc(S(=O)(=O)[O-])c6F)c6ccc3[nH]6)C=C5)C=C4)cc2)C1
REMARK SMILES IDX 21 1 20 2 19 3 18 4 17 5 15 6 16 7 10 8 7 9 8 10 92 11 9 12
REMARK SMILES IDX 6 13 2 14 1 15 3 16 4 17 5 18 11 20 12 23 13 24 14 25 22 26
REMARK SMILES IDX 23 27 24 28 25 29 26 30 27 31 28 32 29 33 30 34 91 35 31 36
REMARK SMILES IDX 90 37 32 38 33 39 34 40 84 41 35 42 89 43 83 44 85 45 36 46
REMARK SMILES IDX 88 47 82 48 81 49 37 51 69 52 49 53 68 54 50 55 53 56 67 57
REMARK SMILES IDX 86 58 51 59 52 60 66 62 87 63 54 64 38 65 39 66 47 67 40 68
REMARK SMILES IDX 42 69 48 70 41 71 43 72 44 73 45 74 46 75 70 76 71 77 79 78
REMARK SMILES IDX 72 79 74 80 80 81 73 82 75 83 76 84 77 85 78 86 55 87 56 88
REMARK SMILES IDX 64 89 57 90 59 91 65 92 58 93 60 94 61 95 62 96 63 97
REMARK H PARENT 5 19 11 21 11 22 85 50 53 61
REMARK Flexibility Score: inf
ROOT
ATOM      1  C   UNL A   1      41.667  19.334  26.379  1.00  0.00     0.188 C 
ENDROOT
BRANCH   1   2
ATOM      2  O   UNL A   1      40.614  19.219  25.428  1.00  0.00    -0.376 OA
BRANCH   2   3
ATOM      3  C   UNL A   1      39.302  19.562  25.868  1.00  0.00     0.202 C 
BRANCH   3   4
ATOM      4  C   UNL A   1      38.628  20.730  25.135  1.00  0.00     0.261 C 
BRANCH   4   5
ATOM      5  O   UNL A   1      37.182  20.750  25.211  1.00  0.00    -0.459 OA
BRANCH   5   6
ATOM      6  C   UNL A   1      36.636  21.939  25.611  1.00  0.00     0.368 C 
ATOM      7  O   UNL A   1      37.288  22.832  26.144  1.00  0.00    -0.245 OA
BRANCH   6   8
ATOM      8  C   UNL A   1      35.095  22.020  25.353  1.00  0.00     0.195 C 
ATOM      9  C   UNL A   1      33.554  23.967  25.142  1.00  0.00     0.054 C 
ATOM     10  C   UNL A   1      33.448  23.410  26.578  1.00  0.00     0.022 C 
ATOM     11  C   UNL A   1      34.866  23.381  24.659  1.00  0.00     0.095 C 
ATOM     12  C   UNL A   1      34.380  22.192  26.703  1.00  0.00     0.082 C 
BRANCH   9  13
ATOM     13  S   UNL A   1      32.014  23.614  24.228  1.00  0.00    -0.155 SA
BRANCH  13  14
ATOM     14  C   UNL A   1      31.419  25.254  23.576  1.00  0.00     0.046 C 
ATOM     15  C   UNL A   1      32.723  26.001  23.271  1.00  0.00     0.019 C 
BRANCH  14  16
ATOM     16  C   UNL A   1      30.471  26.019  24.523  1.00  0.00     0.042 C 
BRANCH  16  17
ATOM     17  C   UNL A   1      30.569  25.781  26.027  1.00  0.00     0.157 C 
BRANCH  17  18
ATOM     18  O   UNL A   1      29.393  25.179  26.539  1.00  0.00    -0.396 OA
ATOM     19  H   UNL A   1      29.347  25.324  27.498  1.00  0.00     0.210 HD
ENDBRANCH  17  18
ENDBRANCH  16  17
ENDBRANCH  14  16
ENDBRANCH  13  14
ENDBRANCH   9  13
BRANCH   8  20
ATOM     20  N   UNL A   1      34.663  20.829  24.550  1.00  0.00    -0.330 N 
ATOM     21  H   UNL A   1      35.499  20.281  24.347  1.00  0.00     0.347 HD
ATOM     22  H   UNL A   1      34.185  21.230  23.743  1.00  0.00     0.347 HD
BRANCH  20  23
ATOM     23  C   UNL A   1      33.666  19.905  25.145  1.00  0.00     0.183 C 
ATOM     24  C   UNL A   1      32.186  20.071  24.893  1.00  0.00     0.071 C 
ATOM     25  C   UNL A   1      32.921  18.959  24.228  1.00  0.00     0.071 C 
ENDBRANCH  20  23
ENDBRANCH   8  20
ENDBRANCH   6   8
ENDBRANCH   5   6
ENDBRANCH   4   5
ENDBRANCH   3   4
ENDBRANCH   2   3
ENDBRANCH   1   2
BRANCH   1  26
ATOM     26  C   UNL A   1      42.998  18.736  25.929  1.00  0.00     0.188 C 
BRANCH  26  27
ATOM     27  O   UNL A   1      43.590  19.403  24.819  1.00  0.00    -0.376 OA
BRANCH  27  28
ATOM     28  C   UNL A   1      44.829  20.076  25.044  1.00  0.00     0.202 C 
BRANCH  28  29
ATOM     29  C   UNL A   1      44.806  21.616  25.119  1.00  0.00     0.261 C 
BRANCH  29  30
ATOM     30  O   UNL A   1      43.966  22.181  26.143  1.00  0.00    -0.460 OA
BRANCH  30  31
ATOM     31  C   UNL A   1      42.793  22.747  25.770  1.00  0.00     0.338 C 
ATOM     32  O   UNL A   1      41.874  22.185  25.198  1.00  0.00    -0.246 OA
BRANCH  31  33
ATOM     33  C   UNL A   1      42.696  24.085  26.414  1.00  0.00     0.060 A 
ATOM     34  C   UNL A   1      42.577  25.211  25.585  1.00  0.00     0.016 A 
ATOM     35  C   UNL A   1      42.619  24.238  27.803  1.00  0.00     0.016 A 
ATOM     36  C   UNL A   1      42.418  26.485  26.138  1.00  0.00     0.010 A 
ATOM     37  C   UNL A   1      42.472  25.515  28.357  1.00  0.00     0.010 A 
ATOM     38  C   UNL A   1      42.403  26.649  27.529  1.00  0.00    -0.014 A 
BRANCH  38  39
ATOM     39  C   UNL A   1      42.538  28.006  28.118  1.00  0.00     0.031 A 
ATOM     40  C   UNL A   1      43.921  28.594  28.226  1.00  0.00     0.074 A 
ATOM     41  C   UNL A   1      41.477  28.713  28.549  1.00  0.00     0.049 A 
ATOM     42  N   UNL A   1      44.301  29.739  28.727  1.00  0.00    -0.248 NA
ATOM     43  C   UNL A   1      45.023  27.773  27.696  1.00  0.00     0.031 C 
ATOM     44  C   UNL A   1      40.084  28.277  28.492  1.00  0.00     0.029 A 
ATOM     45  N   UNL A   1      41.419  29.952  29.144  1.00  0.00    -0.354 N 
ATOM     46  C   UNL A   1      45.684  29.768  28.594  1.00  0.00     0.074 A 
ATOM     47  C   UNL A   1      46.078  28.520  27.980  1.00  0.00     0.031 C 
ATOM     48  C   UNL A   1      39.309  29.224  29.054  1.00  0.00     0.029 A 
ATOM     49  C   UNL A   1      40.151  30.320  29.531  1.00  0.00     0.049 A 
ATOM     50  H   UNL A   1      42.211  30.521  29.280  1.00  0.00     0.167 HD
ATOM     51  C   UNL A   1      46.551  30.749  28.934  1.00  0.00     0.034 A 
ATOM     52  C   UNL A   1      39.725  31.407  30.208  1.00  0.00     0.034 A 
ATOM     53  C   UNL A   1      46.170  31.998  29.533  1.00  0.00     0.049 A 
ATOM     54  C   UNL A   1      40.719  32.467  30.621  1.00  0.00     0.074 A 
ATOM     55  C   UNL A   1      46.978  33.065  29.882  1.00  0.00     0.029 A 
ATOM     56  N   UNL A   1      44.875  32.343  29.887  1.00  0.00    -0.354 N 
ATOM     57  N   UNL A   1      42.008  32.531  30.387  1.00  0.00    -0.248 NA
ATOM     58  C   UNL A   1      40.193  33.622  31.367  1.00  0.00     0.031 C 
ATOM     59  C   UNL A   1      46.176  34.046  30.473  1.00  0.00     0.029 A 
ATOM     60  C   UNL A   1      44.863  33.603  30.462  1.00  0.00     0.049 A 
ATOM     61  H   UNL A   1      44.081  31.778  29.748  1.00  0.00     0.167 HD
ATOM     62  C   UNL A   1      42.436  33.745  30.920  1.00  0.00     0.074 A 
ATOM     63  C   UNL A   1      41.266  34.393  31.475  1.00  0.00     0.031 C 
ATOM     64  C   UNL A   1      43.686  34.268  30.959  1.00  0.00     0.034 A 
BRANCH  51  65
ATOM     65  C   UNL A   1      48.008  30.516  28.641  1.00  0.00     0.023 A 
ATOM     66  C   UNL A   1      48.551  30.953  27.416  1.00  0.00     0.012 A 
ATOM     67  C   UNL A   1      48.847  29.907  29.594  1.00  0.00     0.148 A 
ATOM     68  C   UNL A   1      49.902  30.760  27.131  1.00  0.00     0.002 A 
ATOM     69  C   UNL A   1      50.200  29.757  29.320  1.00  0.00     0.091 A 
ATOM     70  F   UNL A   1      48.304  29.475  30.742  1.00  0.00    -0.205 F 
ATOM     71  C   UNL A   1      50.727  30.172  28.085  1.00  0.00     0.022 A 
BRANCH  69  72
ATOM     72  S   UNL A   1      51.359  29.082  30.514  1.00  0.00     0.127 S 
ATOM     73  O   UNL A   1      51.172  27.643  30.326  1.00  0.00    -0.237 OA
ATOM     74  O   UNL A   1      52.638  29.599  30.028  1.00  0.00    -0.237 OA
ATOM     75  O   UNL A   1      50.948  29.600  31.811  1.00  0.00    -0.744 OA
ENDBRANCH  69  72
ENDBRANCH  51  65
BRANCH  52  76
ATOM     76  C   UNL A   1      38.276  31.576  30.525  1.00  0.00     0.023 A 
ATOM     77  C   UNL A   1      37.758  31.031  31.717  1.00  0.00     0.012 A 
ATOM     78  C   UNL A   1      37.409  32.256  29.648  1.00  0.00     0.148 A 
ATOM     79  C   UNL A   1      36.398  31.132  32.014  1.00  0.00     0.002 A 
ATOM     80  C   UNL A   1      36.066  32.400  29.977  1.00  0.00     0.091 A 
ATOM     81  F   UNL A   1      37.916  32.747  28.509  1.00  0.00    -0.205 F 
ATOM     82  C   UNL A   1      35.554  31.825  31.149  1.00  0.00     0.022 A 
BRANCH  80  83
ATOM     83  S   UNL A   1      34.926  33.367  28.980  1.00  0.00     0.127 S 
ATOM     84  O   UNL A   1      35.413  34.727  29.201  1.00  0.00    -0.237 OA
ATOM     85  O   UNL A   1      35.171  32.835  27.640  1.00  0.00    -0.237 OA
ATOM     86  O   UNL A   1      33.599  33.081  29.509  1.00  0.00    -0.744 OA
ENDBRANCH  80  83
ENDBRANCH  52  76
BRANCH  64  87
ATOM     87  C   UNL A   1      43.870  35.630  31.581  1.00  0.00     0.023 A 
ATOM     88  C   UNL A   1      44.246  35.740  32.934  1.00  0.00     0.012 A 
ATOM     89  C   UNL A   1      43.760  36.799  30.799  1.00  0.00     0.148 A 
ATOM     90  C   UNL A   1      44.482  36.990  33.507  1.00  0.00     0.002 A 
ATOM     91  C   UNL A   1      44.044  38.038  31.364  1.00  0.00     0.091 A 
ATOM     92  F   UNL A   1      43.389  36.677  29.517  1.00  0.00    -0.205 F 
ATOM     93  C   UNL A   1      44.393  38.136  32.720  1.00  0.00     0.022 A 
BRANCH  91  94
ATOM     94  S   UNL A   1      44.052  39.558  30.406  1.00  0.00     0.127 S 
ATOM     95  O   UNL A   1      43.631  40.542  31.403  1.00  0.00    -0.237 OA
ATOM     96  O   UNL A   1      45.454  39.663  30.001  1.00  0.00    -0.237 OA
ATOM     97  O   UNL A   1      43.120  39.346  29.306  1.00  0.00    -0.744 OA
ENDBRANCH  91  94
ENDBRANCH  64  87
ENDBRANCH  38  39
ENDBRANCH  31  33
ENDBRANCH  30  31
ENDBRANCH  29  30
ENDBRANCH  28  29
ENDBRANCH  27  28
ENDBRANCH  26  27
ENDBRANCH   1  26
TORSDOF 27
ENDMDL
MODEL 2
REMARK VINA RESULT:      -7.7      6.604     11.745
REMARK SMILES C[C@H](CCO)S[C@H]1CC[C@]([NH2+]C2CC2)(C(=O)OCCOCCOCCOC(=O)c2ccc(-c3c4nc(c(-c5cccc(S(=O)(=O)[O-])c5F)c5ccc([nH]5)c(-c5cccc(S(=O)(=O)[O-])c5F)c5nc(c(-c6cccc(S(=O)(=O)[O-])c6F)c6ccc3[nH]6)C=C5)C=C4)cc2)C1
REMARK SMILES IDX 21 1 20 2 19 3 18 4 17 5 15 6 16 7 10 8 7 9 8 10 92 11 9 12
REMARK SMILES IDX 6 13 2 14 1 15 3 16 4 17 5 18 11 20 12 23 13 24 14 25 22 26
REMARK SMILES IDX 23 27 24 28 25 29 26 30 27 31 28 32 29 33 30 34 91 35 31 36
REMARK SMILES IDX 90 37 32 38 33 39 34 40 84 41 35 42 89 43 83 44 85 45 36 46
REMARK SMILES IDX 88 47 82 48 81 49 37 51 69 52 49 53 68 54 50 55 53 56 67 57
REMARK SMILES IDX 86 58 51 59 52 60 66 62 87 63 54 64 38 65 39 66 47 67 40 68
REMARK SMILES IDX 42 69 48 70 41 71 43 72 44 73 45 74 46 75 70 76 71 77 79 78
REMARK SMILES IDX 72 79 74 80 80 81 73 82 75 83 76 84 77 85 78 86 55 87 56 88
REMARK SMILES IDX 64 89 57 90 59 91 65 92 58 93 60 94 61 95 62 96 63 97
REMARK H PARENT 5 19 11 21 11 22 85 50 53 61
REMARK Flexibility Score: inf
ROOT
ATOM      1  C   UNL A   1      35.611  31.649  28.922  1.00  0.00     0.188 C 
ENDROOT
BRANCH   1   2
ATOM      2  O   UNL A   1      35.102  31.513  27.599  1.00  0.00    -0.376 OA
BRANCH   2   3
ATOM      3  C   UNL A   1      33.825  30.896  27.456  1.00  0.00     0.202 C 
BRANCH   3   4
ATOM      4  C   UNL A   1      33.822  29.366  27.349  1.00  0.00     0.261 C 
BRANCH   4   5
ATOM      5  O   UNL A   1      33.036  28.827  26.259  1.00  0.00    -0.459 OA
BRANCH   5   6
ATOM      6  C   UNL A   1      32.122  27.874  26.615  1.00  0.00     0.368 C 
ATOM      7  O   UNL A   1      31.354  28.001  27.564  1.00  0.00    -0.245 OA
BRANCH   6   8
ATOM      8  C   UNL A   1      32.189  26.598  25.713  1.00  0.00     0.195 C 
ATOM      9  C   UNL A   1      31.534  24.232  26.144  1.00  0.00     0.054 C 
ATOM     10  C   UNL A   1      33.058  24.364  26.348  1.00  0.00     0.022 C 
ATOM     11  C   UNL A   1      31.065  25.671  26.228  1.00  0.00     0.095 C 
ATOM     12  C   UNL A   1      33.469  25.818  26.058  1.00  0.00     0.082 C 
BRANCH   9  13
ATOM     13  S   UNL A   1      31.196  23.257  24.638  1.00  0.00    -0.155 SA
BRANCH  13  14
ATOM     14  C   UNL A   1      32.586  22.025  24.505  1.00  0.00     0.046 C 
ATOM     15  C   UNL A   1      33.185  22.323  23.125  1.00  0.00     0.019 C 
BRANCH  14  16
ATOM     16  C   UNL A   1      32.164  20.553  24.695  1.00  0.00     0.042 C 
BRANCH  16  17
ATOM     17  C   UNL A   1      33.208  19.531  25.138  1.00  0.00     0.157 C 
BRANCH  17  18
ATOM     18  O   UNL A   1      33.046  19.172  26.498  1.00  0.00    -0.396 OA
ATOM     19  H   UNL A   1      32.100  19.101  26.703  1.00  0.00     0.210 HD
ENDBRANCH  17  18
ENDBRANCH  16  17
ENDBRANCH  14  16
ENDBRANCH  13  14
ENDBRANCH   9  13
BRANCH   8  20
ATOM     20  N   UNL A   1      32.056  26.999  24.274  1.00  0.00    -0.330 N 
ATOM     21  H   UNL A   1      32.555  26.305  23.718  1.00  0.00     0.347 HD
ATOM     22  H   UNL A   1      32.429  27.948  24.242  1.00  0.00     0.347 HD
BRANCH  20  23
ATOM     23  C   UNL A   1      30.692  27.122  23.702  1.00  0.00     0.183 C 
ATOM     24  C   UNL A   1      30.035  28.467  23.509  1.00  0.00     0.071 C 
ATOM     25  C   UNL A   1      30.539  27.722  22.322  1.00  0.00     0.071 C 
ENDBRANCH  20  23
ENDBRANCH   8  20
ENDBRANCH   6   8
ENDBRANCH   5   6
ENDBRANCH   4   5
ENDBRANCH   3   4
ENDBRANCH   2   3
ENDBRANCH   1   2
BRANCH   1  26
ATOM     26  C   UNL A   1      36.681  32.726  29.084  1.00  0.00     0.188 C 
BRANCH  26  27
ATOM     27  O   UNL A   1      36.255  33.863  29.827  1.00  0.00    -0.376 OA
BRANCH  27  28
ATOM     28  C   UNL A   1      34.888  34.256  29.696  1.00  0.00     0.202 C 
BRANCH  28  29
ATOM     29  C   UNL A   1      34.113  34.601  30.985  1.00  0.00     0.261 C 
BRANCH  29  30
ATOM     30  O   UNL A   1      34.740  34.199  32.218  1.00  0.00    -0.460 OA
BRANCH  30  31
ATOM     31  C   UNL A   1      35.335  35.153  32.974  1.00  0.00     0.338 C 
ATOM     32  O   UNL A   1      34.869  36.245  33.251  1.00  0.00    -0.246 OA
BRANCH  31  33
ATOM     33  C   UNL A   1      36.522  34.546  33.636  1.00  0.00     0.060 A 
ATOM     34  C   UNL A   1      36.327  33.868  34.850  1.00  0.00     0.016 A 
ATOM     35  C   UNL A   1      37.787  34.545  33.039  1.00  0.00     0.016 A 
ATOM     36  C   UNL A   1      37.395  33.224  35.481  1.00  0.00     0.010 A 
ATOM     37  C   UNL A   1      38.860  33.911  33.677  1.00  0.00     0.010 A 
ATOM     38  C   UNL A   1      38.677  33.275  34.918  1.00  0.00    -0.014 A 
BRANCH  38  39
ATOM     39  C   UNL A   1      39.857  32.861  35.720  1.00  0.00     0.031 A 
ATOM     40  C   UNL A   1      40.506  33.894  36.604  1.00  0.00     0.074 A 
ATOM     41  C   UNL A   1      40.353  31.611  35.680  1.00  0.00     0.049 A 
ATOM     42  N   UNL A   1      41.558  33.789  37.371  1.00  0.00    -0.248 NA
ATOM     43  C   UNL A   1      39.878  35.227  36.621  1.00  0.00     0.031 C 
ATOM     44  C   UNL A   1      39.818  30.508  34.884  1.00  0.00     0.029 A 
ATOM     45  N   UNL A   1      41.443  31.068  36.319  1.00  0.00    -0.354 N 
ATOM     46  C   UNL A   1      41.733  35.043  37.944  1.00  0.00     0.074 A 
ATOM     47  C   UNL A   1      40.689  35.897  37.424  1.00  0.00     0.031 C 
ATOM     48  C   UNL A   1      40.598  29.425  35.063  1.00  0.00     0.029 A 
ATOM     49  C   UNL A   1      41.698  29.763  35.965  1.00  0.00     0.049 A 
ATOM     50  H   UNL A   1      41.990  31.567  36.968  1.00  0.00     0.167 HD
ATOM     51  C   UNL A   1      42.666  35.448  38.836  1.00  0.00     0.034 A 
ATOM     52  C   UNL A   1      42.713  28.945  36.315  1.00  0.00     0.034 A 
ATOM     53  C   UNL A   1      43.700  34.605  39.369  1.00  0.00     0.049 A 
ATOM     54  C   UNL A   1      43.771  29.436  37.275  1.00  0.00     0.074 A 
ATOM     55  C   UNL A   1      44.670  34.923  40.303  1.00  0.00     0.029 A 
ATOM     56  N   UNL A   1      43.911  33.285  39.005  1.00  0.00    -0.354 N 
ATOM     57  N   UNL A   1      43.858  30.588  37.895  1.00  0.00    -0.248 NA
ATOM     58  C   UNL A   1      44.857  28.499  37.608  1.00  0.00     0.031 C 
ATOM     59  C   UNL A   1      45.486  33.800  40.484  1.00  0.00     0.029 A 
ATOM     60  C   UNL A   1      45.003  32.775  39.686  1.00  0.00     0.049 A 
ATOM     61  H   UNL A   1      43.363  32.782  38.359  1.00  0.00     0.167 HD
ATOM     62  C   UNL A   1      44.980  30.500  38.715  1.00  0.00     0.074 A 
ATOM     63  C   UNL A   1      45.532  29.175  38.528  1.00  0.00     0.031 C 
ATOM     64  C   UNL A   1      45.512  31.436  39.540  1.00  0.00     0.034 A 
BRANCH  51  65
ATOM     65  C   UNL A   1      42.594  36.873  39.312  1.00  0.00     0.023 A 
ATOM     66  C   UNL A   1      41.670  37.226  40.317  1.00  0.00     0.012 A 
ATOM     67  C   UNL A   1      43.469  37.850  38.800  1.00  0.00     0.148 A 
ATOM     68  C   UNL A   1      41.596  38.538  40.783  1.00  0.00     0.002 A 
ATOM     69  C   UNL A   1      43.419  39.145  39.301  1.00  0.00     0.091 A 
ATOM     70  F   UNL A   1      44.322  37.499  37.827  1.00  0.00    -0.205 F 
ATOM     71  C   UNL A   1      42.476  39.493  40.283  1.00  0.00     0.022 A 
BRANCH  69  72
ATOM     72  S   UNL A   1      44.561  40.428  38.777  1.00  0.00     0.127 S 
ATOM     73  O   UNL A   1      44.226  40.559  37.359  1.00  0.00    -0.237 OA
ATOM     74  O   UNL A   1      44.153  41.561  39.607  1.00  0.00    -0.237 OA
ATOM     75  O   UNL A   1      45.896  39.918  39.059  1.00  0.00    -0.744 OA
ENDBRANCH  69  72
ENDBRANCH  51  65
BRANCH  52  76
ATOM     76  C   UNL A   1      42.777  27.553  35.779  1.00  0.00     0.023 A 
ATOM     77  C   UNL A   1      42.009  26.540  36.385  1.00  0.00     0.012 A 
ATOM     78  C   UNL A   1      43.603  27.227  34.685  1.00  0.00     0.148 A 
ATOM     79  C   UNL A   1      42.086  25.221  35.933  1.00  0.00     0.002 A 
ATOM     80  C   UNL A   1      43.635  25.922  34.207  1.00  0.00     0.091 A 
ATOM     81  F   UNL A   1      44.344  28.200  34.138  1.00  0.00    -0.205 F 
ATOM     82  C   UNL A   1      42.892  24.914  34.839  1.00  0.00     0.022 A 
BRANCH  80  83
ATOM     83  S   UNL A   1      44.558  25.453  32.739  1.00  0.00     0.127 S 
ATOM     84  O   UNL A   1      45.934  25.728  33.149  1.00  0.00    -0.237 OA
ATOM     85  O   UNL A   1      44.224  24.035  32.613  1.00  0.00    -0.237 OA
ATOM     86  O   UNL A   1      44.042  26.292  31.665  1.00  0.00    -0.744 OA
ENDBRANCH  80  83
ENDBRANCH  52  76
BRANCH  64  87
ATOM     87  C   UNL A   1      46.733  31.065  40.345  1.00  0.00     0.023 A 
ATOM     88  C   UNL A   1      48.018  31.385  39.862  1.00  0.00     0.012 A 
ATOM     89  C   UNL A   1      46.602  30.485  41.623  1.00  0.00     0.148 A 
ATOM     90  C   UNL A   1      49.152  31.107  40.624  1.00  0.00     0.002 A 
ATOM     91  C   UNL A   1      47.734  30.255  42.398  1.00  0.00     0.091 A 
ATOM     92  F   UNL A   1      45.373  30.176  42.062  1.00  0.00    -0.205 F 
ATOM     93  C   UNL A   1      49.010  30.554  41.895  1.00  0.00     0.022 A 
BRANCH  91  94
ATOM     94  S   UNL A   1      47.644  29.638  44.083  1.00  0.00     0.127 S 
ATOM     95  O   UNL A   1      47.066  28.309  43.884  1.00  0.00    -0.237 OA
ATOM     96  O   UNL A   1      49.049  29.637  44.489  1.00  0.00    -0.237 OA
ATOM     97  O   UNL A   1      46.805  30.580  44.813  1.00  0.00    -0.744 OA
ENDBRANCH  91  94
ENDBRANCH  64  87
ENDBRANCH  38  39
ENDBRANCH  31  33
ENDBRANCH  30  31
ENDBRANCH  29  30
ENDBRANCH  28  29
ENDBRANCH  27  28
ENDBRANCH  26  27
ENDBRANCH   1  26
TORSDOF 27
ENDMDL
MODEL 3
REMARK VINA RESULT:      -7.7      4.379      9.777
REMARK SMILES C[C@H](CCO)S[C@H]1CC[C@]([NH2+]C2CC2)(C(=O)OCCOCCOCCOC(=O)c2ccc(-c3c4nc(c(-c5cccc(S(=O)(=O)[O-])c5F)c5ccc([nH]5)c(-c5cccc(S(=O)(=O)[O-])c5F)c5nc(c(-c6cccc(S(=O)(=O)[O-])c6F)c6ccc3[nH]6)C=C5)C=C4)cc2)C1
REMARK SMILES IDX 21 1 20 2 19 3 18 4 17 5 15 6 16 7 10 8 7 9 8 10 92 11 9 12
REMARK SMILES IDX 6 13 2 14 1 15 3 16 4 17 5 18 11 20 12 23 13 24 14 25 22 26
REMARK SMILES IDX 23 27 24 28 25 29 26 30 27 31 28 32 29 33 30 34 91 35 31 36
REMARK SMILES IDX 90 37 32 38 33 39 34 40 84 41 35 42 89 43 83 44 85 45 36 46
REMARK SMILES IDX 88 47 82 48 81 49 37 51 69 52 49 53 68 54 50 55 53 56 67 57
REMARK SMILES IDX 86 58 51 59 52 60 66 62 87 63 54 64 38 65 39 66 47 67 40 68
REMARK SMILES IDX 42 69 48 70 41 71 43 72 44 73 45 74 46 75 70 76 71 77 79 78
REMARK SMILES IDX 72 79 74 80 80 81 73 82 75 83 76 84 77 85 78 86 55 87 56 88
REMARK SMILES IDX 64 89 57 90 59 91 65 92 58 93 60 94 61 95 62 96 63 97
REMARK H PARENT 5 19 11 21 11 22 85 50 53 61
REMARK Flexibility Score: inf
ROOT
ATOM      1  C   UNL A   1      39.507  20.968  26.194  1.00  0.00     0.188 C 
ENDROOT
BRANCH   1   2
ATOM      2  O   UNL A   1      38.414  21.496  25.449  1.00  0.00    -0.376 OA
BRANCH   2   3
ATOM      3  C   UNL A   1      37.998  22.823  25.759  1.00  0.00     0.202 C 
BRANCH   3   4
ATOM      4  C   UNL A   1      36.783  23.350  24.982  1.00  0.00     0.261 C 
BRANCH   4   5
ATOM      5  O   UNL A   1      35.561  22.597  25.170  1.00  0.00    -0.459 OA
BRANCH   5   6
ATOM      6  C   UNL A   1      34.678  23.136  26.065  1.00  0.00     0.368 C 
ATOM      7  O   UNL A   1      34.779  22.990  27.280  1.00  0.00    -0.245 OA
BRANCH   6   8
ATOM      8  C   UNL A   1      33.512  23.919  25.376  1.00  0.00     0.195 C 
ATOM      9  C   UNL A   1      32.679  26.249  25.677  1.00  0.00     0.054 C 
ATOM     10  C   UNL A   1      31.775  25.295  26.488  1.00  0.00     0.022 C 
ATOM     11  C   UNL A   1      33.919  25.408  25.446  1.00  0.00     0.095 C 
ATOM     12  C   UNL A   1      32.272  23.853  26.283  1.00  0.00     0.082 C 
BRANCH   9  13
ATOM     13  S   UNL A   1      31.754  26.909  24.249  1.00  0.00    -0.155 SA
BRANCH  13  14
ATOM     14  C   UNL A   1      32.144  28.729  24.185  1.00  0.00     0.046 C 
ATOM     15  C   UNL A   1      33.601  28.757  23.709  1.00  0.00     0.019 C 
BRANCH  14  16
ATOM     16  C   UNL A   1      31.907  29.487  25.508  1.00  0.00     0.042 C 
BRANCH  16  17
ATOM     17  C   UNL A   1      33.109  29.926  26.340  1.00  0.00     0.157 C 
BRANCH  17  18
ATOM     18  O   UNL A   1      33.009  29.479  27.680  1.00  0.00    -0.396 OA
ATOM     19  H   UNL A   1      33.356  28.575  27.746  1.00  0.00     0.210 HD
ENDBRANCH  17  18
ENDBRANCH  16  17
ENDBRANCH  14  16
ENDBRANCH  13  14
ENDBRANCH   9  13
BRANCH   8  20
ATOM     20  N   UNL A   1      33.313  23.391  23.986  1.00  0.00    -0.330 N 
ATOM     21  H   UNL A   1      34.181  22.934  23.709  1.00  0.00     0.347 HD
ATOM     22  H   UNL A   1      33.047  24.212  23.441  1.00  0.00     0.347 HD
BRANCH  20  23
ATOM     23  C   UNL A   1      32.213  22.423  23.753  1.00  0.00     0.183 C 
ATOM     24  C   UNL A   1      32.138  21.604  22.486  1.00  0.00     0.071 C 
ATOM     25  C   UNL A   1      32.538  20.945  23.761  1.00  0.00     0.071 C 
ENDBRANCH  20  23
ENDBRANCH   8  20
ENDBRANCH   6   8
ENDBRANCH   5   6
ENDBRANCH   4   5
ENDBRANCH   3   4
ENDBRANCH   2   3
ENDBRANCH   1   2
BRANCH   1  26
ATOM     26  C   UNL A   1      40.771  21.824  26.160  1.00  0.00     0.188 C 
BRANCH  26  27
ATOM     27  O   UNL A   1      41.847  21.244  25.430  1.00  0.00    -0.376 OA
BRANCH  27  28
ATOM     28  C   UNL A   1      43.056  20.983  26.144  1.00  0.00     0.202 C 
BRANCH  28  29
ATOM     29  C   UNL A   1      44.010  22.168  26.400  1.00  0.00     0.261 C 
BRANCH  29  30
ATOM     30  O   UNL A   1      43.461  23.477  26.154  1.00  0.00    -0.460 OA
BRANCH  30  31
ATOM     31  C   UNL A   1      43.414  24.356  27.184  1.00  0.00     0.338 C 
ATOM     32  O   UNL A   1      42.798  24.208  28.227  1.00  0.00    -0.246 OA
BRANCH  31  33
ATOM     33  C   UNL A   1      44.452  25.397  26.954  1.00  0.00     0.060 A 
ATOM     34  C   UNL A   1      45.102  25.941  28.073  1.00  0.00     0.016 A 
ATOM     35  C   UNL A   1      44.862  25.767  25.669  1.00  0.00     0.016 A 
ATOM     36  C   UNL A   1      46.131  26.874  27.911  1.00  0.00     0.010 A 
ATOM     37  C   UNL A   1      45.883  26.711  25.507  1.00  0.00     0.010 A 
ATOM     38  C   UNL A   1      46.501  27.294  26.628  1.00  0.00    -0.014 A 
BRANCH  38  39
ATOM     39  C   UNL A   1      47.367  28.489  26.459  1.00  0.00     0.031 A 
ATOM     40  C   UNL A   1      46.709  29.844  26.470  1.00  0.00     0.074 A 
ATOM     41  C   UNL A   1      48.700  28.396  26.300  1.00  0.00     0.049 A 
ATOM     42  N   UNL A   1      47.240  31.027  26.312  1.00  0.00    -0.248 NA
ATOM     43  C   UNL A   1      45.252  29.862  26.688  1.00  0.00     0.031 C 
ATOM     44  C   UNL A   1      49.471  27.156  26.286  1.00  0.00     0.029 A 
ATOM     45  N   UNL A   1      49.640  29.380  26.098  1.00  0.00    -0.354 N 
ATOM     46  C   UNL A   1      46.183  31.927  26.388  1.00  0.00     0.074 A 
ATOM     47  C   UNL A   1      44.979  31.153  26.591  1.00  0.00     0.031 C 
ATOM     48  C   UNL A   1      50.765  27.450  26.061  1.00  0.00     0.029 A 
ATOM     49  C   UNL A   1      50.911  28.895  25.892  1.00  0.00     0.049 A 
ATOM     50  H   UNL A   1      49.424  30.340  26.102  1.00  0.00     0.167 HD
ATOM     51  C   UNL A   1      46.209  33.278  26.316  1.00  0.00     0.034 A 
ATOM     52  C   UNL A   1      52.054  29.543  25.583  1.00  0.00     0.034 A 
ATOM     53  C   UNL A   1      47.400  34.058  26.127  1.00  0.00     0.049 A 
ATOM     54  C   UNL A   1      52.049  31.049  25.459  1.00  0.00     0.074 A 
ATOM     55  C   UNL A   1      47.525  35.435  26.073  1.00  0.00     0.029 A 
ATOM     56  N   UNL A   1      48.670  33.533  25.946  1.00  0.00    -0.354 N 
ATOM     57  N   UNL A   1      51.062  31.893  25.645  1.00  0.00    -0.248 NA
ATOM     58  C   UNL A   1      53.324  31.694  25.108  1.00  0.00     0.031 C 
ATOM     59  C   UNL A   1      48.868  35.743  25.832  1.00  0.00     0.029 A 
ATOM     60  C   UNL A   1      49.584  34.558  25.768  1.00  0.00     0.049 A 
ATOM     61  H   UNL A   1      48.890  32.574  25.946  1.00  0.00     0.167 HD
ATOM     62  C   UNL A   1      51.606  33.164  25.475  1.00  0.00     0.074 A 
ATOM     63  C   UNL A   1      53.013  32.981  25.186  1.00  0.00     0.031 C 
ATOM     64  C   UNL A   1      50.993  34.372  25.539  1.00  0.00     0.034 A 
BRANCH  51  65
ATOM     65  C   UNL A   1      44.900  34.003  26.465  1.00  0.00     0.023 A 
ATOM     66  C   UNL A   1      44.133  34.299  25.319  1.00  0.00     0.012 A 
ATOM     67  C   UNL A   1      44.406  34.349  27.738  1.00  0.00     0.148 A 
ATOM     68  C   UNL A   1      42.910  34.958  25.435  1.00  0.00     0.002 A 
ATOM     69  C   UNL A   1      43.167  34.966  27.848  1.00  0.00     0.091 A 
ATOM     70  F   UNL A   1      45.164  34.082  28.811  1.00  0.00    -0.205 F 
ATOM     71  C   UNL A   1      42.423  35.281  26.698  1.00  0.00     0.022 A 
BRANCH  69  72
ATOM     72  S   UNL A   1      42.418  35.353  29.434  1.00  0.00     0.127 S 
ATOM     73  O   UNL A   1      43.128  36.578  29.803  1.00  0.00    -0.237 OA
ATOM     74  O   UNL A   1      41.014  35.548  29.072  1.00  0.00    -0.237 OA
ATOM     75  O   UNL A   1      42.671  34.203  30.290  1.00  0.00    -0.744 OA
ENDBRANCH  69  72
ENDBRANCH  51  65
BRANCH  52  76
ATOM     76  C   UNL A   1      53.323  28.781  25.391  1.00  0.00     0.023 A 
ATOM     77  C   UNL A   1      53.696  28.368  24.097  1.00  0.00     0.012 A 
ATOM     78  C   UNL A   1      54.151  28.451  26.482  1.00  0.00     0.148 A 
ATOM     79  C   UNL A   1      54.853  27.612  23.896  1.00  0.00     0.002 A 
ATOM     80  C   UNL A   1      55.329  27.744  26.268  1.00  0.00     0.091 A 
ATOM     81  F   UNL A   1      53.767  28.833  27.708  1.00  0.00    -0.205 F 
ATOM     82  C   UNL A   1      55.674  27.309  24.980  1.00  0.00     0.022 A 
BRANCH  80  83
ATOM     83  S   UNL A   1      56.503  27.401  27.584  1.00  0.00     0.127 S 
ATOM     84  O   UNL A   1      55.730  26.513  28.451  1.00  0.00    -0.237 OA
ATOM     85  O   UNL A   1      57.593  26.755  26.855  1.00  0.00    -0.237 OA
ATOM     86  O   UNL A   1      56.844  28.697  28.156  1.00  0.00    -0.744 OA
ENDBRANCH  80  83
ENDBRANCH  52  76
BRANCH  64  87
ATOM     87  C   UNL A   1      51.833  35.609  25.338  1.00  0.00     0.023 A 
ATOM     88  C   UNL A   1      52.084  36.084  24.035  1.00  0.00     0.012 A 
ATOM     89  C   UNL A   1      52.295  36.353  26.444  1.00  0.00     0.148 A 
ATOM     90  C   UNL A   1      52.804  37.261  23.836  1.00  0.00     0.002 A 
ATOM     91  C   UNL A   1      52.970  37.551  26.237  1.00  0.00     0.091 A 
ATOM     92  F   UNL A   1      52.058  35.879  27.676  1.00  0.00    -0.205 F 
ATOM     93  C   UNL A   1      53.236  38.001  24.935  1.00  0.00     0.022 A 
BRANCH  91  94
ATOM     94  S   UNL A   1      53.479  38.619  27.590  1.00  0.00     0.127 S 
ATOM     95  O   UNL A   1      52.208  38.865  28.271  1.00  0.00    -0.237 OA
ATOM     96  O   UNL A   1      54.409  37.765  28.328  1.00  0.00    -0.237 OA
ATOM     97  O   UNL A   1      54.092  39.788  26.972  1.00  0.00    -0.744 OA
ENDBRANCH  91  94
ENDBRANCH  64  87
ENDBRANCH  38  39
ENDBRANCH  31  33
ENDBRANCH  30  31
ENDBRANCH  29  30
ENDBRANCH  28  29
ENDBRANCH  27  28
ENDBRANCH  26  27
ENDBRANCH   1  26
TORSDOF 27
ENDMDL
