MODEL 1
REMARK VINA RESULT:     -10.7      0.000      0.000
REMARK SMILES O=C(CC1(CC(=O)OCCOCCOCCOC(=O)c2ccc(-c3c4nc(c(-c5cccc(S(=O)(=O)[O-])c5F)c5ccc([nH]5)c(-c5cccc(S(=O)(=O)[O-])c5F)c5nc(c(-c6cccc(S(=O)(=O)[O-])c6F)c6ccc3[nH]6)C=C5)C=C4)cc2)CCCC1)N[C@H]1CO[C@H]2[C@@H]1OC[C@@H]2n1nnnc1-c1ccccc1
REMARK SMILES IDX 11 1 10 2 9 3 8 4 6 5 7 6 5 7 4 8 83 9 86 10 84 11 85 12
REMARK SMILES IDX 3 13 2 14 1 15 87 16 88 18 89 19 92 20 90 21 91 22 93 23
REMARK SMILES IDX 95 24 94 25 96 26 97 27 100 28 98 29 99 30 101 31 102 32
REMARK SMILES IDX 106 33 103 34 105 35 104 36 12 37 13 38 14 39 15 40 16 41
REMARK SMILES IDX 17 42 18 43 19 44 20 45 21 46 82 47 22 48 81 49 23 50 24 51
REMARK SMILES IDX 25 52 75 53 26 54 80 55 74 56 76 57 27 58 79 59 73 60 72 61
REMARK SMILES IDX 28 63 60 64 40 65 59 66 41 67 44 68 58 69 77 70 42 71 43 72
REMARK SMILES IDX 57 74 78 75 45 76 29 77 30 78 38 79 31 80 33 81 39 82 32 83
REMARK SMILES IDX 34 84 35 85 36 86 37 87 61 88 62 89 70 90 63 91 65 92 71 93
REMARK SMILES IDX 64 94 66 95 67 96 68 97 69 98 46 99 47 100 55 101 48 102
REMARK SMILES IDX 50 103 56 104 49 105 51 106 52 107 53 108 54 109
REMARK H PARENT 87 17 76 62 44 73
REMARK Flexibility Score: inf
ROOT
ATOM      1  O   UNL A   1      35.369  22.539  25.767  1.00  0.00    -0.376 OA
ENDROOT
BRANCH   1   2
ATOM      2  C   UNL A   1      34.930  23.177  26.951  1.00  0.00     0.202 C 
BRANCH   2   3
ATOM      3  C   UNL A   1      33.739  22.493  27.617  1.00  0.00     0.261 C 
BRANCH   3   4
ATOM      4  O   UNL A   1      33.434  21.326  26.844  1.00  0.00    -0.463 OA
BRANCH   4   5
ATOM      5  C   UNL A   1      32.294  21.419  26.125  1.00  0.00     0.306 C 
ATOM      6  O   UNL A   1      31.601  22.424  26.032  1.00  0.00    -0.252 OA
BRANCH   5   7
ATOM      7  C   UNL A   1      32.031  20.184  25.309  1.00  0.00     0.130 C 
BRANCH   7   8
ATOM      8  C   UNL A   1      32.688  19.980  23.905  1.00  0.00    -0.011 C 
ATOM      9  C   UNL A   1      32.231  18.552  23.475  1.00  0.00     0.008 C 
ATOM     10  C   UNL A   1      34.205  19.763  23.947  1.00  0.00     0.008 C 
ATOM     11  C   UNL A   1      33.126  17.596  24.269  1.00  0.00     0.001 C 
ATOM     12  C   UNL A   1      34.410  18.374  24.549  1.00  0.00     0.001 C 
BRANCH   8  13
ATOM     13  C   UNL A   1      32.233  21.036  22.842  1.00  0.00     0.107 C 
BRANCH  13  14
ATOM     14  C   UNL A   1      32.976  22.390  22.697  1.00  0.00     0.220 C 
ATOM     15  O   UNL A   1      33.936  22.685  23.403  1.00  0.00    -0.275 OA
ATOM     16  N   UNL A   1      32.514  23.237  21.707  1.00  0.00    -0.348 N 
ATOM     17  H   UNL A   1      31.708  22.963  21.213  1.00  0.00     0.163 HD
BRANCH  16  18
ATOM     18  C   UNL A   1      33.145  24.531  21.334  1.00  0.00     0.139 C 
ATOM     19  C   UNL A   1      32.620  25.168  20.043  1.00  0.00     0.188 C 
ATOM     20  C   UNL A   1      32.854  25.660  22.329  1.00  0.00     0.174 C 
ATOM     21  O   UNL A   1      31.606  26.150  20.379  1.00  0.00    -0.371 OA
ATOM     22  C   UNL A   1      31.663  26.443  21.789  1.00  0.00     0.176 C 
ATOM     23  O   UNL A   1      33.916  26.622  22.413  1.00  0.00    -0.371 OA
ATOM     24  C   UNL A   1      31.954  27.917  22.011  1.00  0.00     0.169 C 
ATOM     25  C   UNL A   1      33.276  27.862  22.777  1.00  0.00     0.191 C 
BRANCH  24  26
ATOM     26  N   UNL A   1      31.002  28.815  22.638  1.00  0.00    -0.217 N 
ATOM     27  N   UNL A   1      30.108  29.361  21.771  1.00  0.00    -0.044 NA
ATOM     28  C   UNL A   1      30.664  29.225  23.917  1.00  0.00     0.182 A 
ATOM     29  N   UNL A   1      29.245  30.037  22.499  1.00  0.00    -0.023 NA
ATOM     30  N   UNL A   1      29.566  29.959  23.814  1.00  0.00    -0.108 NA
BRANCH  28  31
ATOM     31  C   UNL A   1      31.311  29.060  25.218  1.00  0.00     0.021 A 
ATOM     32  C   UNL A   1      32.245  30.002  25.679  1.00  0.00     0.012 A 
ATOM     33  C   UNL A   1      31.252  27.822  25.868  1.00  0.00     0.012 A 
ATOM     34  C   UNL A   1      33.046  29.734  26.800  1.00  0.00     0.001 A 
ATOM     35  C   UNL A   1      32.047  27.557  26.989  1.00  0.00     0.001 A 
ATOM     36  C   UNL A   1      32.934  28.518  27.465  1.00  0.00     0.000 A 
ENDBRANCH  28  31
ENDBRANCH  24  26
ENDBRANCH  16  18
ENDBRANCH  13  14
ENDBRANCH   8  13
ENDBRANCH   7   8
ENDBRANCH   5   7
ENDBRANCH   4   5
ENDBRANCH   3   4
ENDBRANCH   2   3
ENDBRANCH   1   2
BRANCH   1  37
ATOM     37  C   UNL A   1      36.489  21.667  25.894  1.00  0.00     0.188 C 
BRANCH  37  38
ATOM     38  C   UNL A   1      37.824  22.206  25.370  1.00  0.00     0.188 C 
BRANCH  38  39
ATOM     39  O   UNL A   1      38.968  21.478  25.839  1.00  0.00    -0.376 OA
BRANCH  39  40
ATOM     40  C   UNL A   1      38.951  20.095  25.485  1.00  0.00     0.202 C 
BRANCH  40  41
ATOM     41  C   UNL A   1      40.233  19.319  25.820  1.00  0.00     0.261 C 
BRANCH  41  42
ATOM     42  O   UNL A   1      40.802  19.837  27.015  1.00  0.00    -0.460 OA
BRANCH  42  43
ATOM     43  C   UNL A   1      42.103  20.193  26.840  1.00  0.00     0.338 C 
ATOM     44  O   UNL A   1      42.992  19.511  26.385  1.00  0.00    -0.246 OA
BRANCH  43  45
ATOM     45  C   UNL A   1      42.173  21.656  27.036  1.00  0.00     0.060 A 
ATOM     46  C   UNL A   1      41.918  22.472  25.926  1.00  0.00     0.016 A 
ATOM     47  C   UNL A   1      42.341  22.204  28.314  1.00  0.00     0.016 A 
ATOM     48  C   UNL A   1      41.859  23.850  26.087  1.00  0.00     0.010 A 
ATOM     49  C   UNL A   1      42.268  23.574  28.479  1.00  0.00     0.010 A 
ATOM     50  C   UNL A   1      42.068  24.395  27.359  1.00  0.00    -0.014 A 
BRANCH  50  51
ATOM     51  C   UNL A   1      42.364  25.824  27.512  1.00  0.00     0.031 A 
ATOM     52  C   UNL A   1      43.726  26.271  27.073  1.00  0.00     0.074 A 
ATOM     53  C   UNL A   1      41.488  26.641  28.118  1.00  0.00     0.049 A 
ATOM     54  N   UNL A   1      44.310  27.422  27.232  1.00  0.00    -0.248 NA
ATOM     55  C   UNL A   1      44.555  25.259  26.386  1.00  0.00     0.031 C 
ATOM     56  C   UNL A   1      40.159  26.257  28.592  1.00  0.00     0.029 A 
ATOM     57  N   UNL A   1      41.613  27.954  28.480  1.00  0.00    -0.354 N 
ATOM     58  C   UNL A   1      45.585  27.264  26.704  1.00  0.00     0.074 A 
ATOM     59  C   UNL A   1      45.699  25.905  26.235  1.00  0.00     0.031 C 
ATOM     60  C   UNL A   1      39.603  27.307  29.222  1.00  0.00     0.029 A 
ATOM     61  C   UNL A   1      40.551  28.418  29.219  1.00  0.00     0.049 A 
ATOM     62  H   UNL A   1      42.388  28.511  28.236  1.00  0.00     0.167 HD
ATOM     63  C   UNL A   1      46.571  28.184  26.616  1.00  0.00     0.034 A 
ATOM     64  C   UNL A   1      40.397  29.601  29.842  1.00  0.00     0.034 A 
ATOM     65  C   UNL A   1      46.423  29.525  27.099  1.00  0.00     0.049 A 
ATOM     66  C   UNL A   1      41.508  30.612  29.723  1.00  0.00     0.074 A 
ATOM     67  C   UNL A   1      47.319  30.573  27.027  1.00  0.00     0.029 A 
ATOM     68  N   UNL A   1      45.299  29.996  27.765  1.00  0.00    -0.354 N 
ATOM     69  N   UNL A   1      42.665  30.500  29.112  1.00  0.00    -0.248 NA
ATOM     70  C   UNL A   1      41.285  31.920  30.350  1.00  0.00     0.031 C 
ATOM     71  C   UNL A   1      46.749  31.669  27.681  1.00  0.00     0.029 A 
ATOM     72  C   UNL A   1      45.480  31.316  28.123  1.00  0.00     0.049 A 
ATOM     73  H   UNL A   1      44.492  29.464  27.955  1.00  0.00     0.167 HD
ATOM     74  C   UNL A   1      43.294  31.731  29.250  1.00  0.00     0.074 A 
ATOM     75  C   UNL A   1      42.377  32.580  29.986  1.00  0.00     0.031 C 
ATOM     76  C   UNL A   1      44.518  32.130  28.822  1.00  0.00     0.034 A 
BRANCH  63  77
ATOM     77  C   UNL A   1      47.865  27.758  25.978  1.00  0.00     0.023 A 
ATOM     78  C   UNL A   1      48.938  27.321  26.785  1.00  0.00     0.012 A 
ATOM     79  C   UNL A   1      48.020  27.782  24.579  1.00  0.00     0.148 A 
ATOM     80  C   UNL A   1      50.153  26.950  26.212  1.00  0.00     0.002 A 
ATOM     81  C   UNL A   1      49.218  27.363  24.013  1.00  0.00     0.091 A 
ATOM     82  F   UNL A   1      47.003  28.233  23.832  1.00  0.00    -0.205 F 
ATOM     83  C   UNL A   1      50.290  26.961  24.827  1.00  0.00     0.022 A 
BRANCH  81  84
ATOM     84  S   UNL A   1      49.471  27.269  22.238  1.00  0.00     0.127 S 
ATOM     85  O   UNL A   1      50.877  26.872  22.160  1.00  0.00    -0.237 OA
ATOM     86  O   UNL A   1      48.521  26.227  21.851  1.00  0.00    -0.237 OA
ATOM     87  O   UNL A   1      49.172  28.594  21.716  1.00  0.00    -0.744 OA
ENDBRANCH  81  84
ENDBRANCH  63  77
BRANCH  64  88
ATOM     88  C   UNL A   1      39.144  29.897  30.591  1.00  0.00     0.023 A 
ATOM     89  C   UNL A   1      39.004  29.441  31.917  1.00  0.00     0.012 A 
ATOM     90  C   UNL A   1      38.107  30.655  30.015  1.00  0.00     0.148 A 
ATOM     91  C   UNL A   1      37.842  29.709  32.643  1.00  0.00     0.002 A 
ATOM     92  C   UNL A   1      36.975  30.964  30.762  1.00  0.00     0.091 A 
ATOM     93  F   UNL A   1      38.253  31.071  28.748  1.00  0.00    -0.205 F 
ATOM     94  C   UNL A   1      36.833  30.478  32.070  1.00  0.00     0.022 A 
BRANCH  92  95
ATOM     95  S   UNL A   1      35.687  32.059  30.153  1.00  0.00     0.127 S 
ATOM     96  O   UNL A   1      35.186  31.317  28.999  1.00  0.00    -0.237 OA
ATOM     97  O   UNL A   1      34.774  32.114  31.295  1.00  0.00    -0.237 OA
ATOM     98  O   UNL A   1      36.353  33.320  29.855  1.00  0.00    -0.744 OA
ENDBRANCH  92  95
ENDBRANCH  64  88
BRANCH  76  99
ATOM     99  C   UNL A   1      44.915  33.554  29.104  1.00  0.00     0.023 A 
ATOM    100  C   UNL A   1      44.581  34.572  28.190  1.00  0.00     0.012 A 
ATOM    101  C   UNL A   1      45.544  33.886  30.318  1.00  0.00     0.148 A 
ATOM    102  C   UNL A   1      44.901  35.899  28.467  1.00  0.00     0.002 A 
ATOM    103  C   UNL A   1      45.808  35.216  30.613  1.00  0.00     0.091 A 
ATOM    104  F   UNL A   1      45.864  32.895  31.165  1.00  0.00    -0.205 F 
ATOM    105  C   UNL A   1      45.502  36.222  29.682  1.00  0.00     0.022 A 
BRANCH 103 106
ATOM    106  S   UNL A   1      46.476  35.733  32.196  1.00  0.00     0.127 S 
ATOM    107  O   UNL A   1      47.629  34.844  32.336  1.00  0.00    -0.237 OA
ATOM    108  O   UNL A   1      46.811  37.135  31.947  1.00  0.00    -0.237 OA
ATOM    109  O   UNL A   1      45.412  35.530  33.170  1.00  0.00    -0.744 OA
ENDBRANCH 103 106
ENDBRANCH  76  99
ENDBRANCH  50  51
ENDBRANCH  43  45
ENDBRANCH  42  43
ENDBRANCH  41  42
ENDBRANCH  40  41
ENDBRANCH  39  40
ENDBRANCH  38  39
ENDBRANCH  37  38
ENDBRANCH   1  37
TORSDOF 26
ENDMDL
MODEL 2
REMARK VINA RESULT:     -10.6      1.762      2.010
REMARK SMILES O=C(CC1(CC(=O)OCCOCCOCCOC(=O)c2ccc(-c3c4nc(c(-c5cccc(S(=O)(=O)[O-])c5F)c5ccc([nH]5)c(-c5cccc(S(=O)(=O)[O-])c5F)c5nc(c(-c6cccc(S(=O)(=O)[O-])c6F)c6ccc3[nH]6)C=C5)C=C4)cc2)CCCC1)N[C@H]1CO[C@H]2[C@@H]1OC[C@@H]2n1nnnc1-c1ccccc1
REMARK SMILES IDX 11 1 10 2 9 3 8 4 6 5 7 6 5 7 4 8 83 9 86 10 84 11 85 12
REMARK SMILES IDX 3 13 2 14 1 15 87 16 88 18 89 19 92 20 90 21 91 22 93 23
REMARK SMILES IDX 95 24 94 25 96 26 97 27 100 28 98 29 99 30 101 31 102 32
REMARK SMILES IDX 106 33 103 34 105 35 104 36 12 37 13 38 14 39 15 40 16 41
REMARK SMILES IDX 17 42 18 43 19 44 20 45 21 46 82 47 22 48 81 49 23 50 24 51
REMARK SMILES IDX 25 52 75 53 26 54 80 55 74 56 76 57 27 58 79 59 73 60 72 61
REMARK SMILES IDX 28 63 60 64 40 65 59 66 41 67 44 68 58 69 77 70 42 71 43 72
REMARK SMILES IDX 57 74 78 75 45 76 29 77 30 78 38 79 31 80 33 81 39 82 32 83
REMARK SMILES IDX 34 84 35 85 36 86 37 87 61 88 62 89 70 90 63 91 65 92 71 93
REMARK SMILES IDX 64 94 66 95 67 96 68 97 69 98 46 99 47 100 55 101 48 102
REMARK SMILES IDX 50 103 56 104 49 105 51 106 52 107 53 108 54 109
REMARK H PARENT 87 17 76 62 44 73
REMARK Flexibility Score: inf
ROOT
ATOM      1  O   UNL A   1      35.314  22.437  25.773  1.00  0.00    -0.376 OA
ENDROOT
BRANCH   1   2
ATOM      2  C   UNL A   1      34.875  23.198  26.882  1.00  0.00     0.202 C 
BRANCH   2   3
ATOM      3  C   UNL A   1      33.616  22.651  27.548  1.00  0.00     0.261 C 
BRANCH   3   4
ATOM      4  O   UNL A   1      33.280  21.428  26.880  1.00  0.00    -0.463 OA
BRANCH   4   5
ATOM      5  C   UNL A   1      32.188  21.510  26.089  1.00  0.00     0.306 C 
ATOM      6  O   UNL A   1      31.514  22.518  25.922  1.00  0.00    -0.252 OA
BRANCH   5   7
ATOM      7  C   UNL A   1      31.962  20.253  25.297  1.00  0.00     0.130 C 
BRANCH   7   8
ATOM      8  C   UNL A   1      32.654  20.026  23.913  1.00  0.00    -0.011 C 
ATOM      9  C   UNL A   1      32.202  18.594  23.492  1.00  0.00     0.008 C 
ATOM     10  C   UNL A   1      34.169  19.803  23.998  1.00  0.00     0.008 C 
ATOM     11  C   UNL A   1      33.071  17.645  24.323  1.00  0.00     0.001 C 
ATOM     12  C   UNL A   1      34.352  18.422  24.624  1.00  0.00     0.001 C 
BRANCH   8  13
ATOM     13  C   UNL A   1      32.232  21.068  22.824  1.00  0.00     0.107 C 
BRANCH  13  14
ATOM     14  C   UNL A   1      32.987  22.415  22.676  1.00  0.00     0.220 C 
ATOM     15  O   UNL A   1      33.967  22.691  23.363  1.00  0.00    -0.275 OA
ATOM     16  N   UNL A   1      32.512  23.278  21.707  1.00  0.00    -0.348 N 
ATOM     17  H   UNL A   1      31.692  23.019  21.229  1.00  0.00     0.163 HD
BRANCH  16  18
ATOM     18  C   UNL A   1      33.149  24.569  21.333  1.00  0.00     0.139 C 
ATOM     19  C   UNL A   1      32.636  25.202  20.035  1.00  0.00     0.188 C 
ATOM     20  C   UNL A   1      32.854  25.703  22.321  1.00  0.00     0.174 C 
ATOM     21  O   UNL A   1      31.622  26.188  20.359  1.00  0.00    -0.371 OA
ATOM     22  C   UNL A   1      31.669  26.486  21.769  1.00  0.00     0.176 C 
ATOM     23  O   UNL A   1      33.918  26.662  22.409  1.00  0.00    -0.371 OA
ATOM     24  C   UNL A   1      31.962  27.961  21.987  1.00  0.00     0.169 C 
ATOM     25  C   UNL A   1      33.279  27.906  22.763  1.00  0.00     0.191 C 
BRANCH  24  26
ATOM     26  N   UNL A   1      31.009  28.863  22.603  1.00  0.00    -0.217 N 
ATOM     27  N   UNL A   1      30.196  29.494  21.713  1.00  0.00    -0.044 NA
ATOM     28  C   UNL A   1      30.604  29.218  23.879  1.00  0.00     0.182 A 
ATOM     29  N   UNL A   1      29.315  30.167  22.424  1.00  0.00    -0.023 NA
ATOM     30  N   UNL A   1      29.545  30.004  23.749  1.00  0.00    -0.108 NA
BRANCH  28  31
ATOM     31  C   UNL A   1      31.157  28.954  25.207  1.00  0.00     0.021 A 
ATOM     32  C   UNL A   1      32.014  29.880  25.824  1.00  0.00     0.012 A 
ATOM     33  C   UNL A   1      31.101  27.659  25.735  1.00  0.00     0.012 A 
ATOM     34  C   UNL A   1      32.738  29.536  26.976  1.00  0.00     0.001 A 
ATOM     35  C   UNL A   1      31.819  27.318  26.887  1.00  0.00     0.001 A 
ATOM     36  C   UNL A   1      32.627  28.259  27.517  1.00  0.00     0.000 A 
ENDBRANCH  28  31
ENDBRANCH  24  26
ENDBRANCH  16  18
ENDBRANCH  13  14
ENDBRANCH   8  13
ENDBRANCH   7   8
ENDBRANCH   5   7
ENDBRANCH   4   5
ENDBRANCH   3   4
ENDBRANCH   2   3
ENDBRANCH   1   2
BRANCH   1  37
ATOM     37  C   UNL A   1      36.500  21.670  25.959  1.00  0.00     0.188 C 
BRANCH  37  38
ATOM     38  C   UNL A   1      37.725  22.121  25.157  1.00  0.00     0.188 C 
BRANCH  38  39
ATOM     39  O   UNL A   1      38.943  21.466  25.540  1.00  0.00    -0.376 OA
BRANCH  39  40
ATOM     40  C   UNL A   1      38.889  20.044  25.422  1.00  0.00     0.202 C 
BRANCH  40  41
ATOM     41  C   UNL A   1      40.072  19.291  26.048  1.00  0.00     0.261 C 
BRANCH  41  42
ATOM     42  O   UNL A   1      40.567  20.028  27.159  1.00  0.00    -0.460 OA
BRANCH  42  43
ATOM     43  C   UNL A   1      41.869  20.382  26.988  1.00  0.00     0.338 C 
ATOM     44  O   UNL A   1      42.756  19.705  26.519  1.00  0.00    -0.246 OA
BRANCH  43  45
ATOM     45  C   UNL A   1      41.945  21.841  27.209  1.00  0.00     0.060 A 
ATOM     46  C   UNL A   1      41.669  22.678  26.118  1.00  0.00     0.016 A 
ATOM     47  C   UNL A   1      42.139  22.366  28.492  1.00  0.00     0.016 A 
ATOM     48  C   UNL A   1      41.614  24.052  26.306  1.00  0.00     0.010 A 
ATOM     49  C   UNL A   1      42.071  23.733  28.684  1.00  0.00     0.010 A 
ATOM     50  C   UNL A   1      41.849  24.574  27.583  1.00  0.00    -0.014 A 
BRANCH  50  51
ATOM     51  C   UNL A   1      42.149  26.000  27.756  1.00  0.00     0.031 A 
ATOM     52  C   UNL A   1      43.546  26.429  27.422  1.00  0.00     0.074 A 
ATOM     53  C   UNL A   1      41.239  26.829  28.290  1.00  0.00     0.049 A 
ATOM     54  N   UNL A   1      44.130  27.574  27.624  1.00  0.00    -0.248 NA
ATOM     55  C   UNL A   1      44.414  25.406  26.803  1.00  0.00     0.031 C 
ATOM     56  C   UNL A   1      39.873  26.462  28.662  1.00  0.00     0.029 A 
ATOM     57  N   UNL A   1      41.351  28.141  28.659  1.00  0.00    -0.354 N 
ATOM     58  C   UNL A   1      45.440  27.400  27.197  1.00  0.00     0.074 A 
ATOM     59  C   UNL A   1      45.573  26.038  26.740  1.00  0.00     0.031 C 
ATOM     60  C   UNL A   1      39.282  27.520  29.244  1.00  0.00     0.029 A 
ATOM     61  C   UNL A   1      40.241  28.619  29.312  1.00  0.00     0.049 A 
ATOM     62  H   UNL A   1      42.149  28.688  28.475  1.00  0.00     0.167 HD
ATOM     63  C   UNL A   1      46.441  28.308  27.183  1.00  0.00     0.034 A 
ATOM     64  C   UNL A   1      40.053  29.806  29.919  1.00  0.00     0.034 A 
ATOM     65  C   UNL A   1      46.271  29.652  27.651  1.00  0.00     0.049 A 
ATOM     66  C   UNL A   1      41.182  30.804  29.886  1.00  0.00     0.074 A 
ATOM     67  C   UNL A   1      47.183  30.689  27.646  1.00  0.00     0.029 A 
ATOM     68  N   UNL A   1      45.105  30.138  28.227  1.00  0.00    -0.354 N 
ATOM     69  N   UNL A   1      42.382  30.676  29.366  1.00  0.00    -0.248 NA
ATOM     70  C   UNL A   1      40.927  32.116  30.491  1.00  0.00     0.031 C 
ATOM     71  C   UNL A   1      46.577  31.794  28.253  1.00  0.00     0.029 A 
ATOM     72  C   UNL A   1      45.274  31.457  28.596  1.00  0.00     0.049 A 
ATOM     73  H   UNL A   1      44.280  29.616  28.356  1.00  0.00     0.167 HD
ATOM     74  C   UNL A   1      43.012  31.900  29.550  1.00  0.00     0.074 A 
ATOM     75  C   UNL A   1      42.051  32.762  30.211  1.00  0.00     0.031 C 
ATOM     76  C   UNL A   1      44.271  32.284  29.217  1.00  0.00     0.034 A 
BRANCH  63  77
ATOM     77  C   UNL A   1      47.775  27.865  26.648  1.00  0.00     0.023 A 
ATOM     78  C   UNL A   1      48.022  27.896  25.259  1.00  0.00     0.012 A 
ATOM     79  C   UNL A   1      48.790  27.426  27.519  1.00  0.00     0.148 A 
ATOM     80  C   UNL A   1      49.242  27.462  24.744  1.00  0.00     0.002 A 
ATOM     81  C   UNL A   1      50.021  27.042  27.002  1.00  0.00     0.091 A 
ATOM     82  F   UNL A   1      48.524  27.370  28.832  1.00  0.00    -0.205 F 
ATOM     83  C   UNL A   1      50.245  27.045  25.615  1.00  0.00     0.022 A 
BRANCH  81  84
ATOM     84  S   UNL A   1      51.402  26.560  28.042  1.00  0.00     0.127 S 
ATOM     85  O   UNL A   1      52.023  27.853  28.328  1.00  0.00    -0.237 OA
ATOM     86  O   UNL A   1      50.724  25.944  29.182  1.00  0.00    -0.237 OA
ATOM     87  O   UNL A   1      52.210  25.648  27.245  1.00  0.00    -0.744 OA
ENDBRANCH  81  84
ENDBRANCH  63  77
BRANCH  64  88
ATOM     88  C   UNL A   1      38.750  30.118  30.569  1.00  0.00     0.023 A 
ATOM     89  C   UNL A   1      38.484  29.630  31.863  1.00  0.00     0.012 A 
ATOM     90  C   UNL A   1      37.787  30.924  29.931  1.00  0.00     0.148 A 
ATOM     91  C   UNL A   1      37.272  29.912  32.497  1.00  0.00     0.002 A 
ATOM     92  C   UNL A   1      36.605  31.247  30.589  1.00  0.00     0.091 A 
ATOM     93  F   UNL A   1      38.052  31.373  28.695  1.00  0.00    -0.205 F 
ATOM     94  C   UNL A   1      36.338  30.728  31.865  1.00  0.00     0.022 A 
BRANCH  92  95
ATOM     95  S   UNL A   1      35.405  32.398  29.908  1.00  0.00     0.127 S 
ATOM     96  O   UNL A   1      34.965  31.694  28.706  1.00  0.00    -0.237 OA
ATOM     97  O   UNL A   1      34.413  32.468  30.981  1.00  0.00    -0.237 OA
ATOM     98  O   UNL A   1      36.135  33.638  29.685  1.00  0.00    -0.744 OA
ENDBRANCH  92  95
ENDBRANCH  64  88
BRANCH  76  99
ATOM     99  C   UNL A   1      44.661  33.704  29.526  1.00  0.00     0.023 A 
ATOM    100  C   UNL A   1      45.198  34.027  30.787  1.00  0.00     0.012 A 
ATOM    101  C   UNL A   1      44.572  34.695  28.531  1.00  0.00     0.148 A 
ATOM    102  C   UNL A   1      45.608  35.329  31.065  1.00  0.00     0.002 A 
ATOM    103  C   UNL A   1      45.036  35.975  28.795  1.00  0.00     0.091 A 
ATOM    104  F   UNL A   1      44.045  34.363  27.343  1.00  0.00    -0.205 F 
ATOM    105  C   UNL A   1      45.539  36.299  30.066  1.00  0.00     0.022 A 
BRANCH 103 106
ATOM    106  S   UNL A   1      45.089  37.256  27.538  1.00  0.00     0.127 S 
ATOM    107  O   UNL A   1      45.600  38.396  28.298  1.00  0.00    -0.237 OA
ATOM    108  O   UNL A   1      46.028  36.697  26.567  1.00  0.00    -0.237 OA
ATOM    109  O   UNL A   1      43.724  37.396  27.048  1.00  0.00    -0.744 OA
ENDBRANCH 103 106
ENDBRANCH  76  99
ENDBRANCH  50  51
ENDBRANCH  43  45
ENDBRANCH  42  43
ENDBRANCH  41  42
ENDBRANCH  40  41
ENDBRANCH  39  40
ENDBRANCH  38  39
ENDBRANCH  37  38
ENDBRANCH   1  37
TORSDOF 26
ENDMDL
MODEL 3
REMARK VINA RESULT:     -10.0      1.355      7.179
REMARK SMILES O=C(CC1(CC(=O)OCCOCCOCCOC(=O)c2ccc(-c3c4nc(c(-c5cccc(S(=O)(=O)[O-])c5F)c5ccc([nH]5)c(-c5cccc(S(=O)(=O)[O-])c5F)c5nc(c(-c6cccc(S(=O)(=O)[O-])c6F)c6ccc3[nH]6)C=C5)C=C4)cc2)CCCC1)N[C@H]1CO[C@H]2[C@@H]1OC[C@@H]2n1nnnc1-c1ccccc1
REMARK SMILES IDX 11 1 10 2 9 3 8 4 6 5 7 6 5 7 4 8 83 9 86 10 84 11 85 12
REMARK SMILES IDX 3 13 2 14 1 15 87 16 88 18 89 19 92 20 90 21 91 22 93 23
REMARK SMILES IDX 95 24 94 25 96 26 97 27 100 28 98 29 99 30 101 31 102 32
REMARK SMILES IDX 106 33 103 34 105 35 104 36 12 37 13 38 14 39 15 40 16 41
REMARK SMILES IDX 17 42 18 43 19 44 20 45 21 46 82 47 22 48 81 49 23 50 24 51
REMARK SMILES IDX 25 52 75 53 26 54 80 55 74 56 76 57 27 58 79 59 73 60 72 61
REMARK SMILES IDX 28 63 60 64 40 65 59 66 41 67 44 68 58 69 77 70 42 71 43 72
REMARK SMILES IDX 57 74 78 75 45 76 29 77 30 78 38 79 31 80 33 81 39 82 32 83
REMARK SMILES IDX 34 84 35 85 36 86 37 87 61 88 62 89 70 90 63 91 65 92 71 93
REMARK SMILES IDX 64 94 66 95 67 96 68 97 69 98 46 99 47 100 55 101 48 102
REMARK SMILES IDX 50 103 56 104 49 105 51 106 52 107 53 108 54 109
REMARK H PARENT 87 17 76 62 44 73
REMARK Flexibility Score: inf
ROOT
ATOM      1  O   UNL A   1      35.413  23.067  26.034  1.00  0.00    -0.376 OA
ENDROOT
BRANCH   1   2
ATOM      2  C   UNL A   1      35.024  23.279  27.377  1.00  0.00     0.202 C 
BRANCH   2   3
ATOM      3  C   UNL A   1      33.931  22.329  27.861  1.00  0.00     0.261 C 
BRANCH   3   4
ATOM      4  O   UNL A   1      33.646  21.427  26.785  1.00  0.00    -0.463 OA
BRANCH   4   5
ATOM      5  C   UNL A   1      32.390  21.524  26.298  1.00  0.00     0.306 C 
ATOM      6  O   UNL A   1      31.636  22.471  26.479  1.00  0.00    -0.252 OA
BRANCH   5   7
ATOM      7  C   UNL A   1      32.051  20.396  25.364  1.00  0.00     0.130 C 
BRANCH   7   8
ATOM      8  C   UNL A   1      32.712  20.281  23.952  1.00  0.00    -0.011 C 
ATOM      9  C   UNL A   1      32.515  18.784  23.560  1.00  0.00     0.008 C 
ATOM     10  C   UNL A   1      34.244  20.342  23.969  1.00  0.00     0.008 C 
ATOM     11  C   UNL A   1      33.580  18.024  24.356  1.00  0.00     0.001 C 
ATOM     12  C   UNL A   1      34.707  19.028  24.594  1.00  0.00     0.001 C 
BRANCH   8  13
ATOM     13  C   UNL A   1      32.057  21.212  22.877  1.00  0.00     0.107 C 
BRANCH  13  14
ATOM     14  C   UNL A   1      32.536  22.676  22.694  1.00  0.00     0.220 C 
ATOM     15  O   UNL A   1      32.752  23.415  23.650  1.00  0.00    -0.275 OA
ATOM     16  N   UNL A   1      32.733  23.095  21.392  1.00  0.00    -0.348 N 
ATOM     17  H   UNL A   1      32.490  22.471  20.671  1.00  0.00     0.163 HD
BRANCH  16  18
ATOM     18  C   UNL A   1      33.285  24.420  21.000  1.00  0.00     0.139 C 
ATOM     19  C   UNL A   1      32.668  25.042  19.744  1.00  0.00     0.188 C 
ATOM     20  C   UNL A   1      32.993  25.527  22.020  1.00  0.00     0.174 C 
ATOM     21  O   UNL A   1      31.628  25.974  20.139  1.00  0.00    -0.371 OA
ATOM     22  C   UNL A   1      31.743  26.258  21.548  1.00  0.00     0.176 C 
ATOM     23  O   UNL A   1      34.013  26.536  22.061  1.00  0.00    -0.371 OA
ATOM     24  C   UNL A   1      31.977  27.743  21.770  1.00  0.00     0.169 C 
ATOM     25  C   UNL A   1      33.338  27.743  22.469  1.00  0.00     0.191 C 
BRANCH  24  26
ATOM     26  N   UNL A   1      31.019  28.591  22.452  1.00  0.00    -0.217 N 
ATOM     27  N   UNL A   1      30.077  29.127  21.630  1.00  0.00    -0.044 NA
ATOM     28  C   UNL A   1      30.712  28.958  23.752  1.00  0.00     0.182 A 
ATOM     29  N   UNL A   1      29.217  29.755  22.405  1.00  0.00    -0.023 NA
ATOM     30  N   UNL A   1      29.587  29.656  23.706  1.00  0.00    -0.108 NA
BRANCH  28  31
ATOM     31  C   UNL A   1      31.410  28.784  25.025  1.00  0.00     0.021 A 
ATOM     32  C   UNL A   1      31.361  27.558  25.708  1.00  0.00     0.012 A 
ATOM     33  C   UNL A   1      31.860  29.908  25.727  1.00  0.00     0.012 A 
ATOM     34  C   UNL A   1      31.816  27.451  27.031  1.00  0.00     0.001 A 
ATOM     35  C   UNL A   1      32.318  29.800  27.046  1.00  0.00     0.001 A 
ATOM     36  C   UNL A   1      32.310  28.569  27.694  1.00  0.00     0.000 A 
ENDBRANCH  28  31
ENDBRANCH  24  26
ENDBRANCH  16  18
ENDBRANCH  13  14
ENDBRANCH   8  13
ENDBRANCH   7   8
ENDBRANCH   5   7
ENDBRANCH   4   5
ENDBRANCH   3   4
ENDBRANCH   2   3
ENDBRANCH   1   2
BRANCH   1  37
ATOM     37  C   UNL A   1      36.401  22.066  25.809  1.00  0.00     0.188 C 
BRANCH  37  38
ATOM     38  C   UNL A   1      37.788  22.571  25.397  1.00  0.00     0.188 C 
BRANCH  38  39
ATOM     39  O   UNL A   1      38.850  21.649  25.684  1.00  0.00    -0.376 OA
BRANCH  39  40
ATOM     40  C   UNL A   1      38.514  20.287  25.415  1.00  0.00     0.202 C 
BRANCH  40  41
ATOM     41  C   UNL A   1      39.699  19.311  25.407  1.00  0.00     0.261 C 
BRANCH  41  42
ATOM     42  O   UNL A   1      40.564  19.608  26.496  1.00  0.00    -0.460 OA
BRANCH  42  43
ATOM     43  C   UNL A   1      41.852  19.759  26.089  1.00  0.00     0.338 C 
ATOM     44  O   UNL A   1      42.476  19.031  25.351  1.00  0.00    -0.246 OA
BRANCH  43  45
ATOM     45  C   UNL A   1      42.263  21.125  26.479  1.00  0.00     0.060 A 
ATOM     46  C   UNL A   1      42.227  22.119  25.491  1.00  0.00     0.016 A 
ATOM     47  C   UNL A   1      42.534  21.441  27.815  1.00  0.00     0.016 A 
ATOM     48  C   UNL A   1      42.493  23.437  25.836  1.00  0.00     0.010 A 
ATOM     49  C   UNL A   1      42.784  22.756  28.164  1.00  0.00     0.010 A 
ATOM     50  C   UNL A   1      42.803  23.742  27.166  1.00  0.00    -0.014 A 
BRANCH  50  51
ATOM     51  C   UNL A   1      43.425  25.028  27.505  1.00  0.00     0.031 A 
ATOM     52  C   UNL A   1      42.506  26.091  28.026  1.00  0.00     0.074 A 
ATOM     53  C   UNL A   1      44.723  25.247  27.248  1.00  0.00     0.049 A 
ATOM     54  N   UNL A   1      42.743  27.350  28.255  1.00  0.00    -0.248 NA
ATOM     55  C   UNL A   1      41.113  25.678  28.295  1.00  0.00     0.031 C 
ATOM     56  C   UNL A   1      45.660  24.259  26.714  1.00  0.00     0.029 A 
ATOM     57  N   UNL A   1      45.461  26.393  27.356  1.00  0.00    -0.354 N 
ATOM     58  C   UNL A   1      41.526  27.888  28.653  1.00  0.00     0.074 A 
ATOM     59  C   UNL A   1      40.548  26.828  28.621  1.00  0.00     0.031 C 
ATOM     60  C   UNL A   1      46.846  24.855  26.504  1.00  0.00     0.029 A 
ATOM     61  C   UNL A   1      46.736  26.268  26.859  1.00  0.00     0.049 A 
ATOM     62  H   UNL A   1      45.113  27.225  27.751  1.00  0.00     0.167 HD
ATOM     63  C   UNL A   1      41.256  29.160  29.021  1.00  0.00     0.034 A 
ATOM     64  C   UNL A   1      47.682  27.210  26.687  1.00  0.00     0.034 A 
ATOM     65  C   UNL A   1      42.255  30.189  29.035  1.00  0.00     0.049 A 
ATOM     66  C   UNL A   1      47.359  28.620  27.110  1.00  0.00     0.074 A 
ATOM     67  C   UNL A   1      42.133  31.505  29.435  1.00  0.00     0.029 A 
ATOM     68  N   UNL A   1      43.565  30.012  28.610  1.00  0.00    -0.354 N 
ATOM     69  N   UNL A   1      46.241  29.098  27.607  1.00  0.00    -0.248 NA
ATOM     70  C   UNL A   1      48.432  29.614  26.981  1.00  0.00     0.031 C 
ATOM     71  C   UNL A   1      43.363  32.133  29.217  1.00  0.00     0.029 A 
ATOM     72  C   UNL A   1      44.263  31.197  28.723  1.00  0.00     0.049 A 
ATOM     73  H   UNL A   1      43.940  29.165  28.275  1.00  0.00     0.167 HD
ATOM     74  C   UNL A   1      46.484  30.438  27.881  1.00  0.00     0.074 A 
ATOM     75  C   UNL A   1      47.865  30.688  27.513  1.00  0.00     0.031 C 
ATOM     76  C   UNL A   1      45.649  31.384  28.380  1.00  0.00     0.034 A 
BRANCH  63  77
ATOM     77  C   UNL A   1      39.845  29.483  29.430  1.00  0.00     0.023 A 
ATOM     78  C   UNL A   1      38.883  29.802  28.448  1.00  0.00     0.012 A 
ATOM     79  C   UNL A   1      39.466  29.462  30.785  1.00  0.00     0.148 A 
ATOM     80  C   UNL A   1      37.578  30.132  28.811  1.00  0.00     0.002 A 
ATOM     81  C   UNL A   1      38.151  29.743  31.136  1.00  0.00     0.091 A 
ATOM     82  F   UNL A   1      40.402  29.191  31.706  1.00  0.00    -0.205 F 
ATOM     83  C   UNL A   1      37.210  30.092  30.153  1.00  0.00     0.022 A 
BRANCH  81  84
ATOM     84  S   UNL A   1      37.557  29.647  32.826  1.00  0.00     0.127 S 
ATOM     85  O   UNL A   1      36.294  30.381  32.738  1.00  0.00    -0.237 OA
ATOM     86  O   UNL A   1      37.412  28.205  33.016  1.00  0.00    -0.237 OA
ATOM     87  O   UNL A   1      38.580  30.273  33.651  1.00  0.00    -0.744 OA
ENDBRANCH  81  84
ENDBRANCH  63  77
BRANCH  64  88
ATOM     88  C   UNL A   1      49.013  26.844  26.127  1.00  0.00     0.023 A 
ATOM     89  C   UNL A   1      49.862  25.990  26.857  1.00  0.00     0.012 A 
ATOM     90  C   UNL A   1      49.429  27.307  24.864  1.00  0.00     0.148 A 
ATOM     91  C   UNL A   1      51.113  25.628  26.353  1.00  0.00     0.002 A 
ATOM     92  C   UNL A   1      50.652  26.899  24.343  1.00  0.00     0.091 A 
ATOM     93  F   UNL A   1      48.611  28.128  24.188  1.00  0.00    -0.205 F 
ATOM     94  C   UNL A   1      51.503  26.073  25.092  1.00  0.00     0.022 A 
BRANCH  92  95
ATOM     95  S   UNL A   1      51.177  27.314  22.675  1.00  0.00     0.127 S 
ATOM     96  O   UNL A   1      52.479  26.658  22.600  1.00  0.00    -0.237 OA
ATOM     97  O   UNL A   1      50.126  26.696  21.866  1.00  0.00    -0.237 OA
ATOM     98  O   UNL A   1      51.196  28.770  22.622  1.00  0.00    -0.744 OA
ENDBRANCH  92  95
ENDBRANCH  64  88
BRANCH  76  99
ATOM     99  C   UNL A   1      46.219  32.761  28.593  1.00  0.00     0.023 A 
ATOM    100  C   UNL A   1      46.135  33.723  27.568  1.00  0.00     0.012 A 
ATOM    101  C   UNL A   1      46.760  33.117  29.842  1.00  0.00     0.148 A 
ATOM    102  C   UNL A   1      46.615  35.015  27.775  1.00  0.00     0.002 A 
ATOM    103  C   UNL A   1      47.183  34.420  30.060  1.00  0.00     0.091 A 
ATOM    104  F   UNL A   1      46.841  32.177  30.796  1.00  0.00    -0.205 F 
ATOM    105  C   UNL A   1      47.127  35.366  29.023  1.00  0.00     0.022 A 
BRANCH 103 106
ATOM    106  S   UNL A   1      47.752  34.989  31.664  1.00  0.00     0.127 S 
ATOM    107  O   UNL A   1      46.601  34.683  32.513  1.00  0.00    -0.237 OA
ATOM    108  O   UNL A   1      48.924  34.145  31.894  1.00  0.00    -0.237 OA
ATOM    109  O   UNL A   1      48.049  36.407  31.507  1.00  0.00    -0.744 OA
ENDBRANCH 103 106
ENDBRANCH  76  99
ENDBRANCH  50  51
ENDBRANCH  43  45
ENDBRANCH  42  43
ENDBRANCH  41  42
ENDBRANCH  40  41
ENDBRANCH  39  40
ENDBRANCH  38  39
ENDBRANCH  37  38
ENDBRANCH   1  37
TORSDOF 26
ENDMDL
