MODEL 1
REMARK VINA RESULT:     -10.2      0.000      0.000
REMARK SMILES C[C@H]1[C@H](C)CC[C@@]2(C(=O)OCCOCCOCCOC(=O)c3ccc(-c4c5nc(c(-c6cccc(S(=O)(=O)[O-])c6F)c6ccc([nH]6)c(-c6cccc(S(=O)(=O)[O-])c6F)c6nc(c(-c7cccc(S(=O)(=O)[O-])c7F)c7ccc4[nH]7)C=C6)C=C5)cc3)CC[C@@]3(C)C(=CC[C@@H]4[C@@]5(C)CC[C@H](O)C(C)(C)[C@@H]5CC[C@]43C)[C@H]12
REMARK SMILES IDX 15 1 14 2 13 3 12 4 11 5 10 6 8 7 9 8 7 9 1 10 2 11 3 12
REMARK SMILES IDX 107 13 4 14 5 15 89 16 6 17 85 18 87 19 90 20 86 21 88 22
REMARK SMILES IDX 105 23 91 24 92 25 104 26 106 27 93 28 103 29 94 30 95 31
REMARK SMILES IDX 102 32 96 33 99 34 97 35 100 36 101 37 98 38 16 40 17 41
REMARK SMILES IDX 18 42 19 43 20 44 21 45 22 46 23 47 84 48 24 49 83 50 25 51
REMARK SMILES IDX 26 52 27 53 77 54 28 55 82 56 76 57 78 58 29 59 81 60 75 61
REMARK SMILES IDX 74 62 30 64 62 65 42 66 61 67 43 68 46 69 60 70 79 71 44 72
REMARK SMILES IDX 45 73 59 75 80 76 47 77 31 78 32 79 40 80 33 81 35 82 41 83
REMARK SMILES IDX 34 84 36 85 37 86 38 87 39 88 63 89 64 90 72 91 65 92 67 93
REMARK SMILES IDX 73 94 66 95 68 96 69 97 70 98 71 99 48 100 49 101 57 102
REMARK SMILES IDX 50 103 52 104 58 105 51 106 53 107 54 108 55 109 56 110
REMARK H PARENT 98 39 78 63 46 74
REMARK Flexibility Score: inf
ROOT
ATOM      1  C   UNL A   1      31.506  28.985  27.395  1.00  0.00     0.188 C 
ENDROOT
BRANCH   1   2
ATOM      2  C   UNL A   1      32.319  27.665  27.223  1.00  0.00     0.188 C 
BRANCH   2   3
ATOM      3  O   UNL A   1      31.498  26.544  26.971  1.00  0.00    -0.376 OA
BRANCH   3   4
ATOM      4  C   UNL A   1      32.227  25.350  26.832  1.00  0.00     0.202 C 
BRANCH   4   5
ATOM      5  C   UNL A   1      31.446  24.043  26.916  1.00  0.00     0.261 C 
BRANCH   5   6
ATOM      6  O   UNL A   1      32.058  22.724  26.601  1.00  0.00    -0.463 OA
BRANCH   6   7
ATOM      7  C   UNL A   1      32.047  21.577  25.878  1.00  0.00     0.312 C 
ATOM      8  O   UNL A   1      31.106  21.079  25.268  1.00  0.00    -0.252 OA
BRANCH   7   9
ATOM      9  C   UNL A   1      33.474  20.977  25.780  1.00  0.00     0.075 C 
ATOM     10  C   UNL A   1      33.230  18.437  22.738  1.00  0.00     0.008 C 
ATOM     11  C   UNL A   1      32.909  19.105  24.075  1.00  0.00    -0.003 C 
ATOM     12  C   UNL A   1      32.960  18.072  25.262  1.00  0.00    -0.011 C 
ATOM     13  C   UNL A   1      33.734  20.471  24.328  1.00  0.00     0.036 C 
ATOM     14  C   UNL A   1      31.909  16.948  25.154  1.00  0.00     0.008 C 
ATOM     15  C   UNL A   1      32.722  18.704  26.636  1.00  0.00     0.005 C 
ATOM     16  C   UNL A   1      33.515  21.788  23.457  1.00  0.00    -0.063 C 
ATOM     17  C   UNL A   1      33.604  19.900  26.869  1.00  0.00     0.020 C 
ATOM     18  C   UNL A   1      34.544  22.029  26.152  1.00  0.00     0.020 C 
ATOM     19  C   UNL A   1      34.402  23.064  23.783  1.00  0.00    -0.006 C 
ATOM     20  C   UNL A   1      32.434  21.926  22.663  1.00  0.00    -0.027 C 
ATOM     21  C   UNL A   1      34.471  23.291  25.318  1.00  0.00     0.013 C 
ATOM     22  C   UNL A   1      35.839  22.750  23.299  1.00  0.00     0.017 C 
ATOM     23  C   UNL A   1      33.844  24.452  23.074  1.00  0.00    -0.020 C 
ATOM     24  C   UNL A   1      31.813  23.256  22.315  1.00  0.00     0.032 C 
ATOM     25  C   UNL A   1      32.281  24.431  23.216  1.00  0.00     0.006 C 
ATOM     26  C   UNL A   1      34.394  25.754  23.712  1.00  0.00     0.008 C 
ATOM     27  C   UNL A   1      34.286  24.495  21.580  1.00  0.00     0.012 C 
ATOM     28  C   UNL A   1      31.451  25.801  23.038  1.00  0.00    -0.025 C 
ATOM     29  C   UNL A   1      33.733  27.030  23.161  1.00  0.00     0.005 C 
ATOM     30  C   UNL A   1      30.932  25.889  21.587  1.00  0.00     0.012 C 
ATOM     31  C   UNL A   1      30.185  25.786  23.968  1.00  0.00     0.010 C 
ATOM     32  C   UNL A   1      32.249  27.068  23.545  1.00  0.00     0.003 C 
ATOM     33  C   UNL A   1      29.346  27.074  23.903  1.00  0.00     0.033 C 
ATOM     34  C   UNL A   1      31.510  28.456  23.333  1.00  0.00    -0.006 C 
ATOM     35  C   UNL A   1      30.138  28.377  24.082  1.00  0.00     0.120 C 
ATOM     36  C   UNL A   1      31.380  28.890  21.852  1.00  0.00     0.014 C 
ATOM     37  C   UNL A   1      32.305  29.614  23.997  1.00  0.00     0.014 C 
BRANCH  35  38
ATOM     38  O   UNL A   1      29.269  29.469  23.766  1.00  0.00    -0.393 OA
ATOM     39  H   UNL A   1      28.701  29.225  23.020  1.00  0.00     0.210 HD
ENDBRANCH  35  38
ENDBRANCH   7   9
ENDBRANCH   6   7
ENDBRANCH   5   6
ENDBRANCH   4   5
ENDBRANCH   3   4
ENDBRANCH   2   3
ENDBRANCH   1   2
BRANCH   1  40
ATOM     40  O   UNL A   1      32.164  30.237  27.247  1.00  0.00    -0.376 OA
BRANCH  40  41
ATOM     41  C   UNL A   1      31.462  31.276  26.596  1.00  0.00     0.202 C 
BRANCH  41  42
ATOM     42  C   UNL A   1      31.493  32.661  27.261  1.00  0.00     0.261 C 
BRANCH  42  43
ATOM     43  O   UNL A   1      32.727  33.410  27.128  1.00  0.00    -0.460 OA
BRANCH  43  44
ATOM     44  C   UNL A   1      33.421  33.661  28.273  1.00  0.00     0.338 C 
ATOM     45  O   UNL A   1      32.993  34.274  29.240  1.00  0.00    -0.246 OA
BRANCH  44  46
ATOM     46  C   UNL A   1      34.728  32.926  28.323  1.00  0.00     0.060 A 
ATOM     47  C   UNL A   1      34.704  31.520  28.357  1.00  0.00     0.016 A 
ATOM     48  C   UNL A   1      35.956  33.582  28.416  1.00  0.00     0.016 A 
ATOM     49  C   UNL A   1      35.872  30.779  28.598  1.00  0.00     0.010 A 
ATOM     50  C   UNL A   1      37.124  32.840  28.677  1.00  0.00     0.010 A 
ATOM     51  C   UNL A   1      37.079  31.439  28.845  1.00  0.00    -0.014 A 
BRANCH  51  52
ATOM     52  C   UNL A   1      38.181  30.733  29.574  1.00  0.00     0.031 A 
ATOM     53  C   UNL A   1      38.417  31.106  31.021  1.00  0.00     0.074 A 
ATOM     54  C   UNL A   1      38.961  29.783  29.021  1.00  0.00     0.049 A 
ATOM     55  N   UNL A   1      39.344  30.700  31.852  1.00  0.00    -0.248 NA
ATOM     56  C   UNL A   1      37.474  32.073  31.607  1.00  0.00     0.031 C 
ATOM     57  C   UNL A   1      38.838  29.265  27.664  1.00  0.00     0.029 A 
ATOM     58  N   UNL A   1      40.041  29.102  29.542  1.00  0.00    -0.354 N 
ATOM     59  C   UNL A   1      39.121  31.391  33.038  1.00  0.00     0.074 A 
ATOM     60  C   UNL A   1      37.980  32.252  32.817  1.00  0.00     0.031 C 
ATOM     61  C   UNL A   1      39.836  28.388  27.438  1.00  0.00     0.029 A 
ATOM     62  C   UNL A   1      40.680  28.292  28.630  1.00  0.00     0.049 A 
ATOM     63  H   UNL A   1      40.329  29.188  30.480  1.00  0.00     0.167 HD
ATOM     64  C   UNL A   1      39.785  31.314  34.216  1.00  0.00     0.034 A 
ATOM     65  C   UNL A   1      41.820  27.574  28.733  1.00  0.00     0.034 A 
ATOM     66  C   UNL A   1      40.899  30.443  34.470  1.00  0.00     0.049 A 
ATOM     67  C   UNL A   1      42.574  27.535  30.046  1.00  0.00     0.074 A 
ATOM     68  C   UNL A   1      41.597  30.265  35.653  1.00  0.00     0.029 A 
ATOM     69  N   UNL A   1      41.491  29.617  33.531  1.00  0.00    -0.354 N 
ATOM     70  N   UNL A   1      42.281  28.106  31.189  1.00  0.00    -0.248 NA
ATOM     71  C   UNL A   1      43.799  26.715  30.090  1.00  0.00     0.031 C 
ATOM     72  C   UNL A   1      42.632  29.356  35.419  1.00  0.00     0.029 A 
ATOM     73  C   UNL A   1      42.555  28.937  34.101  1.00  0.00     0.049 A 
ATOM     74  H   UNL A   1      41.199  29.526  32.595  1.00  0.00     0.167 HD
ATOM     75  C   UNL A   1      43.251  27.678  32.094  1.00  0.00     0.074 A 
ATOM     76  C   UNL A   1      44.134  26.788  31.372  1.00  0.00     0.031 C 
ATOM     77  C   UNL A   1      43.398  28.002  33.404  1.00  0.00     0.034 A 
BRANCH  64  78
ATOM     78  C   UNL A   1      39.306  32.195  35.341  1.00  0.00     0.023 A 
ATOM     79  C   UNL A   1      38.341  31.710  36.248  1.00  0.00     0.012 A 
ATOM     80  C   UNL A   1      39.846  33.482  35.526  1.00  0.00     0.148 A 
ATOM     81  C   UNL A   1      37.891  32.510  37.298  1.00  0.00     0.002 A 
ATOM     82  C   UNL A   1      39.427  34.254  36.604  1.00  0.00     0.091 A 
ATOM     83  F   UNL A   1      40.747  33.931  34.641  1.00  0.00    -0.205 F 
ATOM     84  C   UNL A   1      38.441  33.775  37.481  1.00  0.00     0.022 A 
BRANCH  82  85
ATOM     85  S   UNL A   1      40.138  35.861  36.975  1.00  0.00     0.127 S 
ATOM     86  O   UNL A   1      41.561  35.538  37.077  1.00  0.00    -0.237 OA
ATOM     87  O   UNL A   1      39.774  36.639  35.791  1.00  0.00    -0.237 OA
ATOM     88  O   UNL A   1      39.508  36.304  38.211  1.00  0.00    -0.744 OA
ENDBRANCH  82  85
ENDBRANCH  64  78
BRANCH  65  89
ATOM     89  C   UNL A   1      42.327  26.790  27.566  1.00  0.00     0.023 A 
ATOM     90  C   UNL A   1      43.032  27.450  26.540  1.00  0.00     0.012 A 
ATOM     91  C   UNL A   1      42.092  25.405  27.451  1.00  0.00     0.148 A 
ATOM     92  C   UNL A   1      43.458  26.757  25.405  1.00  0.00     0.002 A 
ATOM     93  C   UNL A   1      42.567  24.709  26.345  1.00  0.00     0.091 A 
ATOM     94  F   UNL A   1      41.407  24.796  28.429  1.00  0.00    -0.205 F 
ATOM     95  C   UNL A   1      43.232  25.387  25.311  1.00  0.00     0.022 A 
BRANCH  93  96
ATOM     96  S   UNL A   1      42.420  22.927  26.173  1.00  0.00     0.127 S 
ATOM     97  O   UNL A   1      40.973  22.734  26.246  1.00  0.00    -0.237 OA
ATOM     98  O   UNL A   1      43.003  22.711  24.849  1.00  0.00    -0.237 OA
ATOM     99  O   UNL A   1      43.180  22.352  27.272  1.00  0.00    -0.744 OA
ENDBRANCH  93  96
ENDBRANCH  65  89
BRANCH  77 100
ATOM    100  C   UNL A   1      44.522  27.358  34.181  1.00  0.00     0.023 A 
ATOM    101  C   UNL A   1      45.799  27.953  34.204  1.00  0.00     0.012 A 
ATOM    102  C   UNL A   1      44.289  26.204  34.959  1.00  0.00     0.148 A 
ATOM    103  C   UNL A   1      46.832  27.394  34.959  1.00  0.00     0.002 A 
ATOM    104  C   UNL A   1      45.308  25.681  35.748  1.00  0.00     0.091 A 
ATOM    105  F   UNL A   1      43.073  25.639  34.916  1.00  0.00    -0.205 F 
ATOM    106  C   UNL A   1      46.583  26.266  35.738  1.00  0.00     0.022 A 
BRANCH 104 107
ATOM    107  S   UNL A   1      45.053  24.291  36.859  1.00  0.00     0.127 S 
ATOM    108  O   UNL A   1      43.990  24.795  37.727  1.00  0.00    -0.237 OA
ATOM    109  O   UNL A   1      44.635  23.230  35.940  1.00  0.00    -0.237 OA
ATOM    110  O   UNL A   1      46.334  24.056  37.510  1.00  0.00    -0.744 OA
ENDBRANCH 104 107
ENDBRANCH  77 100
ENDBRANCH  51  52
ENDBRANCH  44  46
ENDBRANCH  43  44
ENDBRANCH  42  43
ENDBRANCH  41  42
ENDBRANCH  40  41
ENDBRANCH   1  40
TORSDOF 21
ENDMDL
MODEL 2
REMARK VINA RESULT:     -10.0      6.644     13.408
REMARK SMILES C[C@H]1[C@H](C)CC[C@@]2(C(=O)OCCOCCOCCOC(=O)c3ccc(-c4c5nc(c(-c6cccc(S(=O)(=O)[O-])c6F)c6ccc([nH]6)c(-c6cccc(S(=O)(=O)[O-])c6F)c6nc(c(-c7cccc(S(=O)(=O)[O-])c7F)c7ccc4[nH]7)C=C6)C=C5)cc3)CC[C@@]3(C)C(=CC[C@@H]4[C@@]5(C)CC[C@H](O)C(C)(C)[C@@H]5CC[C@]43C)[C@H]12
REMARK SMILES IDX 15 1 14 2 13 3 12 4 11 5 10 6 8 7 9 8 7 9 1 10 2 11 3 12
REMARK SMILES IDX 107 13 4 14 5 15 89 16 6 17 85 18 87 19 90 20 86 21 88 22
REMARK SMILES IDX 105 23 91 24 92 25 104 26 106 27 93 28 103 29 94 30 95 31
REMARK SMILES IDX 102 32 96 33 99 34 97 35 100 36 101 37 98 38 16 40 17 41
REMARK SMILES IDX 18 42 19 43 20 44 21 45 22 46 23 47 84 48 24 49 83 50 25 51
REMARK SMILES IDX 26 52 27 53 77 54 28 55 82 56 76 57 78 58 29 59 81 60 75 61
REMARK SMILES IDX 74 62 30 64 62 65 42 66 61 67 43 68 46 69 60 70 79 71 44 72
REMARK SMILES IDX 45 73 59 75 80 76 47 77 31 78 32 79 40 80 33 81 35 82 41 83
REMARK SMILES IDX 34 84 36 85 37 86 38 87 39 88 63 89 64 90 72 91 65 92 67 93
REMARK SMILES IDX 73 94 66 95 68 96 69 97 70 98 71 99 48 100 49 101 57 102
REMARK SMILES IDX 50 103 52 104 58 105 51 106 53 107 54 108 55 109 56 110
REMARK H PARENT 98 39 78 63 46 74
REMARK Flexibility Score: inf
ROOT
ATOM      1  C   UNL A   1      44.035  26.654  32.974  1.00  0.00     0.188 C 
ENDROOT
BRANCH   1   2
ATOM      2  C   UNL A   1      45.258  27.330  32.280  1.00  0.00     0.188 C 
BRANCH   2   3
ATOM      3  O   UNL A   1      44.892  28.418  31.460  1.00  0.00    -0.376 OA
BRANCH   3   4
ATOM      4  C   UNL A   1      45.859  28.722  30.486  1.00  0.00     0.202 C 
BRANCH   4   5
ATOM      5  C   UNL A   1      45.360  29.272  29.155  1.00  0.00     0.261 C 
BRANCH   5   6
ATOM      6  O   UNL A   1      44.213  28.672  28.422  1.00  0.00    -0.463 OA
BRANCH   6   7
ATOM      7  C   UNL A   1      43.297  28.751  27.425  1.00  0.00     0.312 C 
ATOM      8  O   UNL A   1      42.861  29.760  26.878  1.00  0.00    -0.252 OA
BRANCH   7   9
ATOM      9  C   UNL A   1      42.922  27.335  26.912  1.00  0.00     0.075 C 
ATOM     10  C   UNL A   1      44.089  24.923  29.842  1.00  0.00     0.008 C 
ATOM     11  C   UNL A   1      44.163  25.996  28.756  1.00  0.00    -0.003 C 
ATOM     12  C   UNL A   1      45.286  25.674  27.702  1.00  0.00    -0.011 C 
ATOM     13  C   UNL A   1      42.724  26.372  28.122  1.00  0.00     0.036 C 
ATOM     14  C   UNL A   1      46.709  25.657  28.295  1.00  0.00     0.008 C 
ATOM     15  C   UNL A   1      45.351  26.678  26.548  1.00  0.00     0.005 C 
ATOM     16  C   UNL A   1      41.573  27.093  28.956  1.00  0.00    -0.063 C 
ATOM     17  C   UNL A   1      44.005  26.898  25.913  1.00  0.00     0.020 C 
ATOM     18  C   UNL A   1      41.623  27.376  26.075  1.00  0.00     0.020 C 
ATOM     19  C   UNL A   1      40.191  27.391  28.233  1.00  0.00    -0.006 C 
ATOM     20  C   UNL A   1      41.837  27.689  30.136  1.00  0.00    -0.027 C 
ATOM     21  C   UNL A   1      40.442  27.972  26.815  1.00  0.00     0.013 C 
ATOM     22  C   UNL A   1      39.474  26.030  28.053  1.00  0.00     0.017 C 
ATOM     23  C   UNL A   1      39.226  28.446  29.066  1.00  0.00    -0.020 C 
ATOM     24  C   UNL A   1      41.062  28.866  30.674  1.00  0.00     0.032 C 
ATOM     25  C   UNL A   1      40.168  29.573  29.620  1.00  0.00     0.006 C 
ATOM     26  C   UNL A   1      38.109  29.096  28.208  1.00  0.00     0.008 C 
ATOM     27  C   UNL A   1      38.491  27.694  30.216  1.00  0.00     0.012 C 
ATOM     28  C   UNL A   1      39.531  30.976  30.095  1.00  0.00    -0.025 C 
ATOM     29  C   UNL A   1      37.337  30.202  28.948  1.00  0.00     0.005 C 
ATOM     30  C   UNL A   1      39.317  30.939  31.623  1.00  0.00     0.012 C 
ATOM     31  C   UNL A   1      40.538  32.147  29.810  1.00  0.00     0.010 C 
ATOM     32  C   UNL A   1      38.261  31.387  29.248  1.00  0.00     0.003 C 
ATOM     33  C   UNL A   1      40.004  33.538  30.190  1.00  0.00     0.033 C 
ATOM     34  C   UNL A   1      37.548  32.727  29.713  1.00  0.00    -0.006 C 
ATOM     35  C   UNL A   1      38.611  33.874  29.640  1.00  0.00     0.120 C 
ATOM     36  C   UNL A   1      36.841  32.629  31.087  1.00  0.00     0.014 C 
ATOM     37  C   UNL A   1      36.412  33.119  28.729  1.00  0.00     0.014 C 
BRANCH  35  38
ATOM     38  O   UNL A   1      38.167  35.082  30.264  1.00  0.00    -0.393 OA
ATOM     39  H   UNL A   1      38.795  35.337  30.957  1.00  0.00     0.210 HD
ENDBRANCH  35  38
ENDBRANCH   7   9
ENDBRANCH   6   7
ENDBRANCH   5   6
ENDBRANCH   4   5
ENDBRANCH   3   4
ENDBRANCH   2   3
ENDBRANCH   1   2
BRANCH   1  40
ATOM     40  O   UNL A   1      44.221  25.448  33.704  1.00  0.00    -0.376 OA
BRANCH  40  41
ATOM     41  C   UNL A   1      44.521  25.551  35.080  1.00  0.00     0.202 C 
BRANCH  41  42
ATOM     42  C   UNL A   1      43.334  25.526  36.055  1.00  0.00     0.261 C 
BRANCH  42  43
ATOM     43  O   UNL A   1      43.065  26.757  36.771  1.00  0.00    -0.460 OA
BRANCH  43  44
ATOM     44  C   UNL A   1      41.892  27.390  36.486  1.00  0.00     0.338 C 
ATOM     45  O   UNL A   1      40.789  27.046  36.881  1.00  0.00    -0.246 OA
BRANCH  44  46
ATOM     46  C   UNL A   1      42.105  28.700  35.787  1.00  0.00     0.060 A 
ATOM     47  C   UNL A   1      43.424  29.138  35.572  1.00  0.00     0.016 A 
ATOM     48  C   UNL A   1      41.049  29.533  35.413  1.00  0.00     0.016 A 
ATOM     49  C   UNL A   1      43.693  30.433  35.101  1.00  0.00     0.010 A 
ATOM     50  C   UNL A   1      41.319  30.839  34.959  1.00  0.00     0.010 A 
ATOM     51  C   UNL A   1      42.641  31.325  34.872  1.00  0.00    -0.014 A 
BRANCH  51  52
ATOM     52  C   UNL A   1      42.901  32.800  34.861  1.00  0.00     0.031 A 
ATOM     53  C   UNL A   1      43.115  33.465  33.518  1.00  0.00     0.074 A 
ATOM     54  C   UNL A   1      42.941  33.566  35.970  1.00  0.00     0.049 A 
ATOM     55  N   UNL A   1      43.424  34.706  33.236  1.00  0.00    -0.248 NA
ATOM     56  C   UNL A   1      42.958  32.605  32.333  1.00  0.00     0.031 C 
ATOM     57  C   UNL A   1      42.704  33.104  37.332  1.00  0.00     0.029 A 
ATOM     58  N   UNL A   1      43.230  34.906  36.117  1.00  0.00    -0.354 N 
ATOM     59  C   UNL A   1      43.541  34.763  31.852  1.00  0.00     0.074 A 
ATOM     60  C   UNL A   1      43.281  33.432  31.351  1.00  0.00     0.031 C 
ATOM     61  C   UNL A   1      42.909  34.128  38.183  1.00  0.00     0.029 A 
ATOM     62  C   UNL A   1      43.307  35.318  37.429  1.00  0.00     0.049 A 
ATOM     63  H   UNL A   1      43.368  35.514  35.354  1.00  0.00     0.167 HD
ATOM     64  C   UNL A   1      43.819  35.823  31.056  1.00  0.00     0.034 A 
ATOM     65  C   UNL A   1      43.675  36.503  37.963  1.00  0.00     0.034 A 
ATOM     66  C   UNL A   1      44.047  37.161  31.527  1.00  0.00     0.049 A 
ATOM     67  C   UNL A   1      44.026  37.664  37.057  1.00  0.00     0.074 A 
ATOM     68  C   UNL A   1      44.283  38.304  30.782  1.00  0.00     0.029 A 
ATOM     69  N   UNL A   1      44.083  37.538  32.857  1.00  0.00    -0.354 N 
ATOM     70  N   UNL A   1      44.018  37.728  35.748  1.00  0.00    -0.248 NA
ATOM     71  C   UNL A   1      44.400  38.933  37.709  1.00  0.00     0.031 C 
ATOM     72  C   UNL A   1      44.496  39.367  31.665  1.00  0.00     0.029 A 
ATOM     73  C   UNL A   1      44.353  38.893  32.959  1.00  0.00     0.049 A 
ATOM     74  H   UNL A   1      43.938  36.933  33.620  1.00  0.00     0.167 HD
ATOM     75  C   UNL A   1      44.335  39.047  35.424  1.00  0.00     0.074 A 
ATOM     76  C   UNL A   1      44.516  39.753  36.673  1.00  0.00     0.031 C 
ATOM     77  C   UNL A   1      44.471  39.615  34.199  1.00  0.00     0.034 A 
BRANCH  64  78
ATOM     78  C   UNL A   1      43.876  35.578  29.570  1.00  0.00     0.023 A 
ATOM     79  C   UNL A   1      42.721  35.767  28.783  1.00  0.00     0.012 A 
ATOM     80  C   UNL A   1      45.084  35.206  28.949  1.00  0.00     0.148 A 
ATOM     81  C   UNL A   1      42.758  35.550  27.407  1.00  0.00     0.002 A 
ATOM     82  C   UNL A   1      45.124  35.040  27.569  1.00  0.00     0.091 A 
ATOM     83  F   UNL A   1      46.165  35.012  29.716  1.00  0.00    -0.205 F 
ATOM     84  C   UNL A   1      43.960  35.198  26.800  1.00  0.00     0.022 A 
BRANCH  82  85
ATOM     85  S   UNL A   1      46.642  34.671  26.684  1.00  0.00     0.127 S 
ATOM     86  O   UNL A   1      46.134  34.347  25.351  1.00  0.00    -0.237 OA
ATOM     87  O   UNL A   1      47.363  35.941  26.768  1.00  0.00    -0.237 OA
ATOM     88  O   UNL A   1      47.268  33.568  27.399  1.00  0.00    -0.744 OA
ENDBRANCH  82  85
ENDBRANCH  64  78
BRANCH  65  89
ATOM     89  C   UNL A   1      43.708  36.685  39.446  1.00  0.00     0.023 A 
ATOM     90  C   UNL A   1      44.882  36.371  40.158  1.00  0.00     0.012 A 
ATOM     91  C   UNL A   1      42.578  37.141  40.156  1.00  0.00     0.148 A 
ATOM     92  C   UNL A   1      44.920  36.467  41.551  1.00  0.00     0.002 A 
ATOM     93  C   UNL A   1      42.640  37.287  41.538  1.00  0.00     0.091 A 
ATOM     94  F   UNL A   1      41.466  37.422  39.464  1.00  0.00    -0.205 F 
ATOM     95  C   UNL A   1      43.803  36.931  42.239  1.00  0.00     0.022 A 
BRANCH  93  96
ATOM     96  S   UNL A   1      41.294  37.973  42.510  1.00  0.00     0.127 S 
ATOM     97  O   UNL A   1      41.981  38.376  43.736  1.00  0.00    -0.237 OA
ATOM     98  O   UNL A   1      40.851  39.078  41.660  1.00  0.00    -0.237 OA
ATOM     99  O   UNL A   1      40.323  36.900  42.666  1.00  0.00    -0.744 OA
ENDBRANCH  93  96
ENDBRANCH  65  89
BRANCH  77 100
ATOM    100  C   UNL A   1      44.780  41.092  34.123  1.00  0.00     0.023 A 
ATOM    101  C   UNL A   1      46.117  41.536  34.116  1.00  0.00     0.012 A 
ATOM    102  C   UNL A   1      43.742  42.036  33.973  1.00  0.00     0.148 A 
ATOM    103  C   UNL A   1      46.415  42.895  33.995  1.00  0.00     0.002 A 
ATOM    104  C   UNL A   1      44.047  43.382  33.803  1.00  0.00     0.091 A 
ATOM    105  F   UNL A   1      42.473  41.601  33.996  1.00  0.00    -0.205 F 
ATOM    106  C   UNL A   1      45.382  43.815  33.828  1.00  0.00     0.022 A 
BRANCH 104 107
ATOM    107  S   UNL A   1      42.789  44.626  33.483  1.00  0.00     0.127 S 
ATOM    108  O   UNL A   1      41.817  44.344  34.539  1.00  0.00    -0.237 OA
ATOM    109  O   UNL A   1      43.533  45.874  33.658  1.00  0.00    -0.237 OA
ATOM    110  O   UNL A   1      42.324  44.386  32.124  1.00  0.00    -0.744 OA
ENDBRANCH 104 107
ENDBRANCH  77 100
ENDBRANCH  51  52
ENDBRANCH  44  46
ENDBRANCH  43  44
ENDBRANCH  42  43
ENDBRANCH  41  42
ENDBRANCH  40  41
ENDBRANCH   1  40
TORSDOF 21
ENDMDL
MODEL 3
REMARK VINA RESULT:     -10.0      7.095     14.247
REMARK SMILES C[C@H]1[C@H](C)CC[C@@]2(C(=O)OCCOCCOCCOC(=O)c3ccc(-c4c5nc(c(-c6cccc(S(=O)(=O)[O-])c6F)c6ccc([nH]6)c(-c6cccc(S(=O)(=O)[O-])c6F)c6nc(c(-c7cccc(S(=O)(=O)[O-])c7F)c7ccc4[nH]7)C=C6)C=C5)cc3)CC[C@@]3(C)C(=CC[C@@H]4[C@@]5(C)CC[C@H](O)C(C)(C)[C@@H]5CC[C@]43C)[C@H]12
REMARK SMILES IDX 15 1 14 2 13 3 12 4 11 5 10 6 8 7 9 8 7 9 1 10 2 11 3 12
REMARK SMILES IDX 107 13 4 14 5 15 89 16 6 17 85 18 87 19 90 20 86 21 88 22
REMARK SMILES IDX 105 23 91 24 92 25 104 26 106 27 93 28 103 29 94 30 95 31
REMARK SMILES IDX 102 32 96 33 99 34 97 35 100 36 101 37 98 38 16 40 17 41
REMARK SMILES IDX 18 42 19 43 20 44 21 45 22 46 23 47 84 48 24 49 83 50 25 51
REMARK SMILES IDX 26 52 27 53 77 54 28 55 82 56 76 57 78 58 29 59 81 60 75 61
REMARK SMILES IDX 74 62 30 64 62 65 42 66 61 67 43 68 46 69 60 70 79 71 44 72
REMARK SMILES IDX 45 73 59 75 80 76 47 77 31 78 32 79 40 80 33 81 35 82 41 83
REMARK SMILES IDX 34 84 36 85 37 86 38 87 39 88 63 89 64 90 72 91 65 92 67 93
REMARK SMILES IDX 73 94 66 95 68 96 69 97 70 98 71 99 48 100 49 101 57 102
REMARK SMILES IDX 50 103 52 104 58 105 51 106 53 107 54 108 55 109 56 110
REMARK H PARENT 98 39 78 63 46 74
REMARK Flexibility Score: inf
ROOT
ATOM      1  C   UNL A   1      34.062  33.563  33.192  1.00  0.00     0.188 C 
ENDROOT
BRANCH   1   2
ATOM      2  C   UNL A   1      35.244  33.803  34.181  1.00  0.00     0.188 C 
BRANCH   2   3
ATOM      3  O   UNL A   1      36.036  32.652  34.380  1.00  0.00    -0.376 OA
BRANCH   3   4
ATOM      4  C   UNL A   1      37.413  32.906  34.260  1.00  0.00     0.202 C 
BRANCH   4   5
ATOM      5  C   UNL A   1      38.349  32.116  35.168  1.00  0.00     0.261 C 
BRANCH   5   6
ATOM      6  O   UNL A   1      39.754  32.533  35.425  1.00  0.00    -0.463 OA
BRANCH   6   7
ATOM      7  C   UNL A   1      40.646  33.225  36.176  1.00  0.00     0.312 C 
ATOM      8  O   UNL A   1      41.147  32.896  37.247  1.00  0.00    -0.252 OA
BRANCH   7   9
ATOM      9  C   UNL A   1      41.107  34.508  35.436  1.00  0.00     0.075 C 
ATOM     10  C   UNL A   1      43.494  36.307  38.049  1.00  0.00     0.008 C 
ATOM     11  C   UNL A   1      42.240  35.652  37.470  1.00  0.00    -0.003 C 
ATOM     12  C   UNL A   1      40.993  36.607  37.569  1.00  0.00    -0.011 C 
ATOM     13  C   UNL A   1      42.473  34.988  36.015  1.00  0.00     0.036 C 
ATOM     14  C   UNL A   1      40.588  36.953  39.016  1.00  0.00     0.008 C 
ATOM     15  C   UNL A   1      39.726  36.030  36.932  1.00  0.00     0.005 C 
ATOM     16  C   UNL A   1      43.414  33.723  35.782  1.00  0.00    -0.063 C 
ATOM     17  C   UNL A   1      39.971  35.537  35.532  1.00  0.00     0.020 C 
ATOM     18  C   UNL A   1      41.260  34.247  33.919  1.00  0.00     0.020 C 
ATOM     19  C   UNL A   1      43.584  33.171  34.303  1.00  0.00    -0.006 C 
ATOM     20  C   UNL A   1      43.829  32.963  36.817  1.00  0.00    -0.027 C 
ATOM     21  C   UNL A   1      42.206  33.110  33.591  1.00  0.00     0.013 C 
ATOM     22  C   UNL A   1      44.453  34.200  33.536  1.00  0.00     0.017 C 
ATOM     23  C   UNL A   1      44.275  31.669  34.236  1.00  0.00    -0.020 C 
ATOM     24  C   UNL A   1      44.153  31.495  36.703  1.00  0.00     0.032 C 
ATOM     25  C   UNL A   1      43.636  30.830  35.399  1.00  0.00     0.006 C 
ATOM     26  C   UNL A   1      44.049  30.928  32.892  1.00  0.00     0.008 C 
ATOM     27  C   UNL A   1      45.820  31.791  34.396  1.00  0.00     0.012 C 
ATOM     28  C   UNL A   1      43.740  29.221  35.364  1.00  0.00    -0.025 C 
ATOM     29  C   UNL A   1      44.542  29.470  32.909  1.00  0.00     0.005 C 
ATOM     30  C   UNL A   1      44.943  28.777  36.223  1.00  0.00     0.012 C 
ATOM     31  C   UNL A   1      42.461  28.587  36.019  1.00  0.00     0.010 C 
ATOM     32  C   UNL A   1      43.712  28.640  33.895  1.00  0.00     0.003 C 
ATOM     33  C   UNL A   1      42.444  27.049  35.996  1.00  0.00     0.033 C 
ATOM     34  C   UNL A   1      43.879  27.064  33.792  1.00  0.00    -0.006 C 
ATOM     35  C   UNL A   1      42.726  26.415  34.626  1.00  0.00     0.120 C 
ATOM     36  C   UNL A   1      45.287  26.547  34.178  1.00  0.00     0.014 C 
ATOM     37  C   UNL A   1      43.687  26.581  32.328  1.00  0.00     0.014 C 
BRANCH  35  38
ATOM     38  O   UNL A   1      42.904  25.008  34.819  1.00  0.00    -0.393 OA
ATOM     39  H   UNL A   1      42.039  24.583  34.916  1.00  0.00     0.210 HD
ENDBRANCH  35  38
ENDBRANCH   7   9
ENDBRANCH   6   7
ENDBRANCH   5   6
ENDBRANCH   4   5
ENDBRANCH   3   4
ENDBRANCH   2   3
ENDBRANCH   1   2
BRANCH   1  40
ATOM     40  O   UNL A   1      34.106  34.141  31.893  1.00  0.00    -0.376 OA
BRANCH  40  41
ATOM     41  C   UNL A   1      34.410  33.294  30.805  1.00  0.00     0.202 C 
BRANCH  41  42
ATOM     42  C   UNL A   1      35.836  32.725  30.743  1.00  0.00     0.261 C 
BRANCH  42  43
ATOM     43  O   UNL A   1      35.948  31.294  30.542  1.00  0.00    -0.460 OA
BRANCH  43  44
ATOM     44  C   UNL A   1      36.719  30.606  31.431  1.00  0.00     0.338 C 
ATOM     45  O   UNL A   1      36.302  29.994  32.403  1.00  0.00    -0.246 OA
BRANCH  44  46
ATOM     46  C   UNL A   1      38.147  30.499  30.987  1.00  0.00     0.060 A 
ATOM     47  C   UNL A   1      39.160  30.604  31.957  1.00  0.00     0.016 A 
ATOM     48  C   UNL A   1      38.509  30.380  29.644  1.00  0.00     0.016 A 
ATOM     49  C   UNL A   1      40.511  30.707  31.590  1.00  0.00     0.010 A 
ATOM     50  C   UNL A   1      39.863  30.503  29.274  1.00  0.00     0.010 A 
ATOM     51  C   UNL A   1      40.867  30.743  30.238  1.00  0.00    -0.014 A 
BRANCH  51  52
ATOM     52  C   UNL A   1      42.179  31.335  29.826  1.00  0.00     0.031 A 
ATOM     53  C   UNL A   1      43.283  30.383  29.421  1.00  0.00     0.074 A 
ATOM     54  C   UNL A   1      42.426  32.660  29.782  1.00  0.00     0.049 A 
ATOM     55  N   UNL A   1      44.526  30.630  29.093  1.00  0.00    -0.248 NA
ATOM     56  C   UNL A   1      42.930  28.953  29.387  1.00  0.00     0.031 C 
ATOM     57  C   UNL A   1      41.466  33.715  30.083  1.00  0.00     0.029 A 
ATOM     58  N   UNL A   1      43.590  33.339  29.489  1.00  0.00    -0.354 N 
ATOM     59  C   UNL A   1      45.110  29.391  28.856  1.00  0.00     0.074 A 
ATOM     60  C   UNL A   1      44.092  28.392  29.090  1.00  0.00     0.031 C 
ATOM     61  C   UNL A   1      42.091  34.907  30.013  1.00  0.00     0.029 A 
ATOM     62  C   UNL A   1      43.500  34.701  29.676  1.00  0.00     0.049 A 
ATOM     63  H   UNL A   1      44.409  32.893  29.174  1.00  0.00     0.167 HD
ATOM     64  C   UNL A   1      46.372  29.097  28.461  1.00  0.00     0.034 A 
ATOM     65  C   UNL A   1      44.443  35.666  29.607  1.00  0.00     0.034 A 
ATOM     66  C   UNL A   1      47.391  30.072  28.189  1.00  0.00     0.049 A 
ATOM     67  C   UNL A   1      45.860  35.312  29.207  1.00  0.00     0.074 A 
ATOM     68  C   UNL A   1      48.682  29.861  27.733  1.00  0.00     0.029 A 
ATOM     69  N   UNL A   1      47.248  31.438  28.359  1.00  0.00    -0.354 N 
ATOM     70  N   UNL A   1      46.363  34.147  28.875  1.00  0.00    -0.248 NA
ATOM     71  C   UNL A   1      46.831  36.419  29.133  1.00  0.00     0.031 C 
ATOM     72  C   UNL A   1      49.330  31.097  27.661  1.00  0.00     0.029 A 
ATOM     73  C   UNL A   1      48.430  32.083  28.033  1.00  0.00     0.049 A 
ATOM     74  H   UNL A   1      46.427  31.886  28.666  1.00  0.00     0.167 HD
ATOM     75  C   UNL A   1      47.687  34.389  28.510  1.00  0.00     0.074 A 
ATOM     76  C   UNL A   1      47.906  35.812  28.646  1.00  0.00     0.031 C 
ATOM     77  C   UNL A   1      48.634  33.505  28.106  1.00  0.00     0.034 A 
BRANCH  64  78
ATOM     78  C   UNL A   1      46.721  27.642  28.280  1.00  0.00     0.023 A 
ATOM     79  C   UNL A   1      47.245  26.906  29.362  1.00  0.00     0.012 A 
ATOM     80  C   UNL A   1      46.486  26.995  27.051  1.00  0.00     0.148 A 
ATOM     81  C   UNL A   1      47.567  25.558  29.212  1.00  0.00     0.002 A 
ATOM     82  C   UNL A   1      46.764  25.638  26.925  1.00  0.00     0.091 A 
ATOM     83  F   UNL A   1      46.007  27.717  26.029  1.00  0.00    -0.205 F 
ATOM     84  C   UNL A   1      47.317  24.923  28.000  1.00  0.00     0.022 A 
BRANCH  82  85
ATOM     85  S   UNL A   1      46.397  24.711  25.432  1.00  0.00     0.127 S 
ATOM     86  O   UNL A   1      46.708  23.345  25.850  1.00  0.00    -0.237 OA
ATOM     87  O   UNL A   1      44.971  24.981  25.245  1.00  0.00    -0.237 OA
ATOM     88  O   UNL A   1      47.260  25.258  24.395  1.00  0.00    -0.744 OA
ENDBRANCH  82  85
ENDBRANCH  64  78
BRANCH  65  89
ATOM     89  C   UNL A   1      44.089  37.090  29.893  1.00  0.00     0.023 A 
ATOM     90  C   UNL A   1      43.674  37.926  28.838  1.00  0.00     0.012 A 
ATOM     91  C   UNL A   1      44.188  37.627  31.192  1.00  0.00     0.148 A 
ATOM     92  C   UNL A   1      43.401  39.277  29.062  1.00  0.00     0.002 A 
ATOM     93  C   UNL A   1      43.863  38.959  31.420  1.00  0.00     0.091 A 
ATOM     94  F   UNL A   1      44.599  36.820  32.180  1.00  0.00    -0.205 F 
ATOM     95  C   UNL A   1      43.489  39.791  30.352  1.00  0.00     0.022 A 
BRANCH  93  96
ATOM     96  S   UNL A   1      43.843  39.696  33.058  1.00  0.00     0.127 S 
ATOM     97  O   UNL A   1      45.226  39.509  33.490  1.00  0.00    -0.237 OA
ATOM     98  O   UNL A   1      43.475  41.079  32.753  1.00  0.00    -0.237 OA
ATOM     99  O   UNL A   1      42.848  38.956  33.820  1.00  0.00    -0.744 OA
ENDBRANCH  93  96
ENDBRANCH  65  89
BRANCH  77 100
ATOM    100  C   UNL A   1      49.995  34.038  27.721  1.00  0.00     0.023 A 
ATOM    101  C   UNL A   1      50.986  34.225  28.704  1.00  0.00     0.012 A 
ATOM    102  C   UNL A   1      50.318  34.275  26.368  1.00  0.00     0.148 A 
ATOM    103  C   UNL A   1      52.263  34.670  28.353  1.00  0.00     0.002 A 
ATOM    104  C   UNL A   1      51.605  34.669  26.020  1.00  0.00     0.091 A 
ATOM    105  F   UNL A   1      49.360  34.107  25.444  1.00  0.00    -0.205 F 
ATOM    106  C   UNL A   1      52.574  34.880  27.012  1.00  0.00     0.022 A 
BRANCH 104 107
ATOM    107  S   UNL A   1      52.125  34.869  24.310  1.00  0.00     0.127 S 
ATOM    108  O   UNL A   1      51.305  36.000  23.880  1.00  0.00    -0.237 OA
ATOM    109  O   UNL A   1      53.551  35.170  24.452  1.00  0.00    -0.237 OA
ATOM    110  O   UNL A   1      51.839  33.602  23.652  1.00  0.00    -0.744 OA
ENDBRANCH 104 107
ENDBRANCH  77 100
ENDBRANCH  51  52
ENDBRANCH  44  46
ENDBRANCH  43  44
ENDBRANCH  42  43
ENDBRANCH  41  42
ENDBRANCH  40  41
ENDBRANCH   1  40
TORSDOF 21
ENDMDL
