MODEL 1
REMARK VINA RESULT:     -10.8      0.000      0.000
REMARK SMILES COC(=O)c1ccc([C@H]2Nc3c(C(=O)OCCOCCOCCOC(=O)c4ccc(-c5c6nc(c(-c7cccc(S(=O)(=O)[O-])c7F)c7ccc([nH]7)c(-c7cccc(S(=O)(=O)[O-])c7F)c7nc(c(-c8cccc(S(=O)(=O)[O-])c8F)c8ccc5[nH]8)C=C7)C=C6)cc4)cccc3[C@@H]3[C@@H]4CC[C@@H](C4)[C@@H]32)cc1
REMARK SMILES IDX 19 1 18 2 17 3 16 4 15 5 13 6 14 7 12 8 9 9 10 10 100 11
REMARK SMILES IDX 11 12 94 14 98 15 93 16 95 17 97 18 99 19 90 20 92 21 96 22
REMARK SMILES IDX 91 23 8 24 5 25 6 26 102 27 7 28 101 29 3 30 4 31 2 32 1 33
REMARK SMILES IDX 20 34 21 35 22 36 23 37 24 38 25 39 26 40 27 41 28 42 89 43
REMARK SMILES IDX 29 44 88 45 30 46 31 47 32 48 82 49 33 50 87 51 81 52 83 53
REMARK SMILES IDX 34 54 86 55 80 56 79 57 35 59 67 60 47 61 66 62 48 63 51 64
REMARK SMILES IDX 65 65 84 66 49 67 50 68 64 70 85 71 52 72 36 73 37 74 45 75
REMARK SMILES IDX 38 76 40 77 46 78 39 79 41 80 42 81 43 82 44 83 68 84 69 85
REMARK SMILES IDX 77 86 70 87 72 88 78 89 71 90 73 91 74 92 75 93 76 94 53 95
REMARK SMILES IDX 54 96 62 97 55 98 57 99 63 100 56 101 58 102 59 103 60 104
REMARK SMILES IDX 61 105
REMARK H PARENT 10 13 83 58 51 69
REMARK Flexibility Score: inf
ROOT
ATOM      1  C   UNL A   1      36.754  23.282  23.539  1.00  0.00     0.188 C 
ENDROOT
BRANCH   1   2
ATOM      2  O   UNL A   1      35.764  23.086  22.528  1.00  0.00    -0.376 OA
BRANCH   2   3
ATOM      3  C   UNL A   1      34.427  23.245  23.033  1.00  0.00     0.202 C 
BRANCH   3   4
ATOM      4  C   UNL A   1      33.317  23.122  21.974  1.00  0.00     0.261 C 
BRANCH   4   5
ATOM      5  O   UNL A   1      32.348  24.178  22.137  1.00  0.00    -0.460 OA
BRANCH   5   6
ATOM      6  C   UNL A   1      32.655  25.359  21.533  1.00  0.00     0.340 C 
ATOM      7  O   UNL A   1      33.170  25.474  20.431  1.00  0.00    -0.246 OA
BRANCH   6   8
ATOM      8  C   UNL A   1      32.082  26.512  22.296  1.00  0.00     0.083 A 
ATOM      9  C   UNL A   1      32.649  25.445  25.871  1.00  0.00     0.113 C 
ATOM     10  N   UNL A   1      32.289  25.450  24.463  1.00  0.00    -0.377 N 
ATOM     11  C   UNL A   1      31.862  26.533  26.634  1.00  0.00     0.027 C 
ATOM     12  C   UNL A   1      31.901  26.518  23.700  1.00  0.00     0.053 A 
ATOM     13  H   UNL A   1      32.328  24.581  24.004  1.00  0.00     0.161 HD
ATOM     14  C   UNL A   1      31.062  27.592  25.810  1.00  0.00     0.030 C 
ATOM     15  C   UNL A   1      32.704  27.430  27.582  1.00  0.00    -0.005 C 
ATOM     16  C   UNL A   1      31.298  27.616  24.320  1.00  0.00    -0.020 A 
ATOM     17  C   UNL A   1      31.392  28.919  26.562  1.00  0.00    -0.003 C 
ATOM     18  C   UNL A   1      33.697  28.325  26.806  1.00  0.00     0.004 C 
ATOM     19  C   UNL A   1      31.637  28.448  28.000  1.00  0.00     0.008 C 
ATOM     20  C   UNL A   1      31.633  27.593  21.529  1.00  0.00     0.018 A 
ATOM     21  C   UNL A   1      30.812  28.668  23.527  1.00  0.00     0.006 A 
ATOM     22  C   UNL A   1      32.801  29.411  26.199  1.00  0.00     0.004 C 
ATOM     23  C   UNL A   1      30.987  28.662  22.144  1.00  0.00     0.001 A 
BRANCH   9  24
ATOM     24  C   UNL A   1      32.448  23.967  26.280  1.00  0.00    -0.025 A 
ATOM     25  C   UNL A   1      32.641  21.200  25.907  1.00  0.00     0.060 A 
ATOM     26  C   UNL A   1      33.716  21.892  26.466  1.00  0.00     0.016 A 
ATOM     27  C   UNL A   1      31.405  21.844  25.772  1.00  0.00     0.016 A 
ATOM     28  C   UNL A   1      33.601  23.261  26.701  1.00  0.00     0.007 A 
ATOM     29  C   UNL A   1      31.306  23.224  25.969  1.00  0.00     0.007 A 
BRANCH  25  30
ATOM     30  C   UNL A   1      32.899  19.858  25.322  1.00  0.00     0.337 C 
ATOM     31  O   UNL A   1      32.294  18.848  25.644  1.00  0.00    -0.246 OA
BRANCH  30  32
ATOM     32  O   UNL A   1      33.980  19.914  24.504  1.00  0.00    -0.465 OA
ATOM     33  C   UNL A   1      34.946  18.891  24.740  1.00  0.00     0.282 C 
ENDBRANCH  30  32
ENDBRANCH  25  30
ENDBRANCH   9  24
ENDBRANCH   6   8
ENDBRANCH   5   6
ENDBRANCH   4   5
ENDBRANCH   3   4
ENDBRANCH   2   3
ENDBRANCH   1   2
BRANCH   1  34
ATOM     34  C   UNL A   1      36.712  22.296  24.696  1.00  0.00     0.188 C 
BRANCH  34  35
ATOM     35  O   UNL A   1      37.661  21.238  24.623  1.00  0.00    -0.376 OA
BRANCH  35  36
ATOM     36  C   UNL A   1      38.687  21.258  25.617  1.00  0.00     0.202 C 
BRANCH  36  37
ATOM     37  C   UNL A   1      39.250  19.885  26.015  1.00  0.00     0.261 C 
BRANCH  37  38
ATOM     38  O   UNL A   1      40.582  19.661  25.515  1.00  0.00    -0.460 OA
BRANCH  38  39
ATOM     39  C   UNL A   1      41.569  19.659  26.445  1.00  0.00     0.338 C 
ATOM     40  O   UNL A   1      42.081  18.692  26.983  1.00  0.00    -0.246 OA
BRANCH  39  41
ATOM     41  C   UNL A   1      42.081  21.031  26.616  1.00  0.00     0.060 A 
ATOM     42  C   UNL A   1      42.269  21.529  27.914  1.00  0.00     0.016 A 
ATOM     43  C   UNL A   1      42.290  21.846  25.504  1.00  0.00     0.016 A 
ATOM     44  C   UNL A   1      42.660  22.854  28.103  1.00  0.00     0.010 A 
ATOM     45  C   UNL A   1      42.662  23.178  25.696  1.00  0.00     0.010 A 
ATOM     46  C   UNL A   1      42.830  23.693  26.995  1.00  0.00    -0.014 A 
BRANCH  46  47
ATOM     47  C   UNL A   1      43.089  25.139  27.176  1.00  0.00     0.031 A 
ATOM     48  C   UNL A   1      44.416  25.703  26.756  1.00  0.00     0.074 A 
ATOM     49  C   UNL A   1      42.170  25.920  27.772  1.00  0.00     0.049 A 
ATOM     50  N   UNL A   1      44.890  26.909  26.921  1.00  0.00    -0.248 NA
ATOM     51  C   UNL A   1      45.332  24.785  26.058  1.00  0.00     0.031 C 
ATOM     52  C   UNL A   1      40.848  25.479  28.219  1.00  0.00     0.029 A 
ATOM     53  N   UNL A   1      42.230  27.239  28.145  1.00  0.00    -0.354 N 
ATOM     54  C   UNL A   1      46.170  26.890  26.378  1.00  0.00     0.074 A 
ATOM     55  C   UNL A   1      46.397  25.554  25.871  1.00  0.00     0.031 C 
ATOM     56  C   UNL A   1      40.241  26.497  28.853  1.00  0.00     0.029 A 
ATOM     57  C   UNL A   1      41.140  27.648  28.878  1.00  0.00     0.049 A 
ATOM     58  H   UNL A   1      42.978  27.834  27.911  1.00  0.00     0.167 HD
ATOM     59  C   UNL A   1      47.069  27.899  26.305  1.00  0.00     0.034 A 
ATOM     60  C   UNL A   1      40.915  28.808  29.527  1.00  0.00     0.034 A 
ATOM     61  C   UNL A   1      46.832  29.228  26.796  1.00  0.00     0.049 A 
ATOM     62  C   UNL A   1      41.954  29.899  29.462  1.00  0.00     0.074 A 
ATOM     63  C   UNL A   1      47.652  30.338  26.704  1.00  0.00     0.029 A 
ATOM     64  N   UNL A   1      45.700  29.622  27.491  1.00  0.00    -0.354 N 
ATOM     65  N   UNL A   1      43.095  29.916  28.815  1.00  0.00    -0.248 NA
ATOM     66  C   UNL A   1      41.663  31.139  30.198  1.00  0.00     0.031 C 
ATOM     67  C   UNL A   1      47.025  31.399  27.366  1.00  0.00     0.029 A 
ATOM     68  C   UNL A   1      45.808  30.952  27.856  1.00  0.00     0.049 A 
ATOM     69  H   UNL A   1      44.931  29.042  27.695  1.00  0.00     0.167 HD
ATOM     70  C   UNL A   1      43.645  31.173  29.045  1.00  0.00     0.074 A 
ATOM     71  C   UNL A   1      42.699  31.898  29.868  1.00  0.00     0.031 C 
ATOM     72  C   UNL A   1      44.834  31.676  28.632  1.00  0.00     0.034 A 
BRANCH  59  73
ATOM     73  C   UNL A   1      48.389  27.618  25.641  1.00  0.00     0.023 A 
ATOM     74  C   UNL A   1      49.492  27.237  26.429  1.00  0.00     0.012 A 
ATOM     75  C   UNL A   1      48.516  27.652  24.238  1.00  0.00     0.148 A 
ATOM     76  C   UNL A   1      50.709  26.906  25.833  1.00  0.00     0.002 A 
ATOM     77  C   UNL A   1      49.722  27.290  23.649  1.00  0.00     0.091 A 
ATOM     78  F   UNL A   1      47.459  28.039  23.511  1.00  0.00    -0.205 F 
ATOM     79  C   UNL A   1      50.820  26.923  24.445  1.00  0.00     0.022 A 
BRANCH  77  80
ATOM     80  S   UNL A   1      49.952  27.218  21.869  1.00  0.00     0.127 S 
ATOM     81  O   UNL A   1      49.758  28.617  21.491  1.00  0.00    -0.237 OA
ATOM     82  O   UNL A   1      51.331  26.742  21.757  1.00  0.00    -0.237 OA
ATOM     83  O   UNL A   1      48.945  26.293  21.369  1.00  0.00    -0.744 OA
ENDBRANCH  77  80
ENDBRANCH  59  73
BRANCH  60  84
ATOM     84  C   UNL A   1      39.649  29.010  30.287  1.00  0.00     0.023 A 
ATOM     85  C   UNL A   1      39.457  28.327  31.503  1.00  0.00     0.012 A 
ATOM     86  C   UNL A   1      38.636  29.867  29.814  1.00  0.00     0.148 A 
ATOM     87  C   UNL A   1      38.268  28.471  32.219  1.00  0.00     0.002 A 
ATOM     88  C   UNL A   1      37.473  30.044  30.558  1.00  0.00     0.091 A 
ATOM     89  F   UNL A   1      38.821  30.487  28.639  1.00  0.00    -0.205 F 
ATOM     90  C   UNL A   1      37.281  29.336  31.754  1.00  0.00     0.022 A 
BRANCH  88  91
ATOM     91  S   UNL A   1      36.210  31.226  30.074  1.00  0.00     0.127 S 
ATOM     92  O   UNL A   1      37.007  32.409  29.765  1.00  0.00    -0.237 OA
ATOM     93  O   UNL A   1      35.601  30.575  28.913  1.00  0.00    -0.237 OA
ATOM     94  O   UNL A   1      35.325  31.332  31.228  1.00  0.00    -0.744 OA
ENDBRANCH  88  91
ENDBRANCH  60  84
BRANCH  72  95
ATOM     95  C   UNL A   1      45.183  33.080  29.047  1.00  0.00     0.023 A 
ATOM     96  C   UNL A   1      45.844  33.294  30.273  1.00  0.00     0.012 A 
ATOM     97  C   UNL A   1      44.934  34.173  28.194  1.00  0.00     0.148 A 
ATOM     98  C   UNL A   1      46.230  34.578  30.655  1.00  0.00     0.002 A 
ATOM     99  C   UNL A   1      45.363  35.444  28.561  1.00  0.00     0.091 A 
ATOM    100  F   UNL A   1      44.288  33.951  27.041  1.00  0.00    -0.205 F 
ATOM    101  C   UNL A   1      46.002  35.650  29.795  1.00  0.00     0.022 A 
BRANCH  99 102
ATOM    102  S   UNL A   1      45.194  36.865  27.473  1.00  0.00     0.127 S 
ATOM    103  O   UNL A   1      43.744  36.942  27.307  1.00  0.00    -0.237 OA
ATOM    104  O   UNL A   1      45.775  37.943  28.274  1.00  0.00    -0.237 OA
ATOM    105  O   UNL A   1      45.948  36.537  26.270  1.00  0.00    -0.744 OA
ENDBRANCH  99 102
ENDBRANCH  72  95
ENDBRANCH  46  47
ENDBRANCH  39  41
ENDBRANCH  38  39
ENDBRANCH  37  38
ENDBRANCH  36  37
ENDBRANCH  35  36
ENDBRANCH  34  35
ENDBRANCH   1  34
TORSDOF 23
ENDMDL
MODEL 2
REMARK VINA RESULT:     -10.6      5.743     11.539
REMARK SMILES COC(=O)c1ccc([C@H]2Nc3c(C(=O)OCCOCCOCCOC(=O)c4ccc(-c5c6nc(c(-c7cccc(S(=O)(=O)[O-])c7F)c7ccc([nH]7)c(-c7cccc(S(=O)(=O)[O-])c7F)c7nc(c(-c8cccc(S(=O)(=O)[O-])c8F)c8ccc5[nH]8)C=C7)C=C6)cc4)cccc3[C@@H]3[C@@H]4CC[C@@H](C4)[C@@H]32)cc1
REMARK SMILES IDX 19 1 18 2 17 3 16 4 15 5 13 6 14 7 12 8 9 9 10 10 100 11
REMARK SMILES IDX 11 12 94 14 98 15 93 16 95 17 97 18 99 19 90 20 92 21 96 22
REMARK SMILES IDX 91 23 8 24 5 25 6 26 102 27 7 28 101 29 3 30 4 31 2 32 1 33
REMARK SMILES IDX 20 34 21 35 22 36 23 37 24 38 25 39 26 40 27 41 28 42 89 43
REMARK SMILES IDX 29 44 88 45 30 46 31 47 32 48 82 49 33 50 87 51 81 52 83 53
REMARK SMILES IDX 34 54 86 55 80 56 79 57 35 59 67 60 47 61 66 62 48 63 51 64
REMARK SMILES IDX 65 65 84 66 49 67 50 68 64 70 85 71 52 72 36 73 37 74 45 75
REMARK SMILES IDX 38 76 40 77 46 78 39 79 41 80 42 81 43 82 44 83 68 84 69 85
REMARK SMILES IDX 77 86 70 87 72 88 78 89 71 90 73 91 74 92 75 93 76 94 53 95
REMARK SMILES IDX 54 96 62 97 55 98 57 99 63 100 56 101 58 102 59 103 60 104
REMARK SMILES IDX 61 105
REMARK H PARENT 10 13 83 58 51 69
REMARK Flexibility Score: inf
ROOT
ATOM      1  C   UNL A   1      35.341  33.078  32.600  1.00  0.00     0.188 C 
ENDROOT
BRANCH   1   2
ATOM      2  O   UNL A   1      34.035  33.462  32.170  1.00  0.00    -0.376 OA
BRANCH   2   3
ATOM      3  C   UNL A   1      33.965  34.849  31.798  1.00  0.00     0.202 C 
BRANCH   3   4
ATOM      4  C   UNL A   1      33.399  35.114  30.392  1.00  0.00     0.261 C 
BRANCH   4   5
ATOM      5  O   UNL A   1      33.626  33.974  29.537  1.00  0.00    -0.460 OA
BRANCH   5   6
ATOM      6  C   UNL A   1      34.809  33.968  28.862  1.00  0.00     0.340 C 
ATOM      7  O   UNL A   1      35.531  34.939  28.699  1.00  0.00    -0.246 OA
BRANCH   6   8
ATOM      8  C   UNL A   1      35.222  32.570  28.527  1.00  0.00     0.083 A 
ATOM      9  C   UNL A   1      38.654  32.370  30.084  1.00  0.00     0.113 C 
ATOM     10  N   UNL A   1      37.490  32.821  29.340  1.00  0.00    -0.377 N 
ATOM     11  C   UNL A   1      39.147  31.010  29.543  1.00  0.00     0.027 C 
ATOM     12  C   UNL A   1      36.521  32.055  28.750  1.00  0.00     0.053 A 
ATOM     13  H   UNL A   1      37.385  33.796  29.249  1.00  0.00     0.161 HD
ATOM     14  C   UNL A   1      38.237  30.231  28.540  1.00  0.00     0.030 C 
ATOM     15  C   UNL A   1      39.444  29.928  30.617  1.00  0.00    -0.005 C 
ATOM     16  C   UNL A   1      36.835  30.754  28.345  1.00  0.00    -0.020 A 
ATOM     17  C   UNL A   1      38.337  28.765  29.067  1.00  0.00    -0.003 C 
ATOM     18  C   UNL A   1      38.163  29.467  31.347  1.00  0.00     0.004 C 
ATOM     19  C   UNL A   1      39.728  28.726  29.709  1.00  0.00     0.008 C 
ATOM     20  C   UNL A   1      34.262  31.785  27.877  1.00  0.00     0.018 A 
ATOM     21  C   UNL A   1      35.872  30.002  27.652  1.00  0.00     0.006 A 
ATOM     22  C   UNL A   1      37.461  28.577  30.315  1.00  0.00     0.004 C 
ATOM     23  C   UNL A   1      34.592  30.510  27.429  1.00  0.00     0.001 A 
BRANCH   9  24
ATOM     24  C   UNL A   1      39.610  33.583  30.010  1.00  0.00    -0.025 A 
ATOM     25  C   UNL A   1      41.379  35.322  28.715  1.00  0.00     0.060 A 
ATOM     26  C   UNL A   1      40.008  35.568  28.650  1.00  0.00     0.016 A 
ATOM     27  C   UNL A   1      41.865  34.369  29.619  1.00  0.00     0.016 A 
ATOM     28  C   UNL A   1      39.129  34.732  29.337  1.00  0.00     0.007 A 
ATOM     29  C   UNL A   1      40.981  33.508  30.275  1.00  0.00     0.007 A 
BRANCH  25  30
ATOM     30  C   UNL A   1      42.256  35.965  27.701  1.00  0.00     0.337 C 
ATOM     31  O   UNL A   1      41.926  36.161  26.543  1.00  0.00    -0.246 OA
BRANCH  30  32
ATOM     32  O   UNL A   1      43.494  36.159  28.221  1.00  0.00    -0.465 OA
ATOM     33  C   UNL A   1      44.454  36.643  27.284  1.00  0.00     0.282 C 
ENDBRANCH  30  32
ENDBRANCH  25  30
ENDBRANCH   9  24
ENDBRANCH   6   8
ENDBRANCH   5   6
ENDBRANCH   4   5
ENDBRANCH   3   4
ENDBRANCH   2   3
ENDBRANCH   1   2
BRANCH   1  34
ATOM     34  C   UNL A   1      36.383  34.187  32.594  1.00  0.00     0.188 C 
BRANCH  34  35
ATOM     35  O   UNL A   1      36.660  34.762  33.866  1.00  0.00    -0.376 OA
BRANCH  35  36
ATOM     36  C   UNL A   1      35.919  34.224  34.963  1.00  0.00     0.202 C 
BRANCH  36  37
ATOM     37  C   UNL A   1      36.760  33.681  36.127  1.00  0.00     0.261 C 
BRANCH  37  38
ATOM     38  O   UNL A   1      37.110  32.293  35.963  1.00  0.00    -0.460 OA
BRANCH  38  39
ATOM     39  C   UNL A   1      38.250  31.895  36.580  1.00  0.00     0.338 C 
ATOM     40  O   UNL A   1      38.366  31.436  37.704  1.00  0.00    -0.246 OA
BRANCH  39  41
ATOM     41  C   UNL A   1      39.367  31.938  35.618  1.00  0.00     0.060 A 
ATOM     42  C   UNL A   1      40.681  31.843  36.099  1.00  0.00     0.016 A 
ATOM     43  C   UNL A   1      39.119  32.160  34.264  1.00  0.00     0.016 A 
ATOM     44  C   UNL A   1      41.757  31.977  35.222  1.00  0.00     0.010 A 
ATOM     45  C   UNL A   1      40.198  32.315  33.391  1.00  0.00     0.010 A 
ATOM     46  C   UNL A   1      41.519  32.244  33.868  1.00  0.00    -0.014 A 
BRANCH  46  47
ATOM     47  C   UNL A   1      42.640  32.548  32.951  1.00  0.00     0.031 A 
ATOM     48  C   UNL A   1      43.237  33.926  32.956  1.00  0.00     0.074 A 
ATOM     49  C   UNL A   1      43.069  31.618  32.078  1.00  0.00     0.049 A 
ATOM     50  N   UNL A   1      44.146  34.435  32.167  1.00  0.00    -0.248 NA
ATOM     51  C   UNL A   1      42.743  34.855  33.986  1.00  0.00     0.031 C 
ATOM     52  C   UNL A   1      42.563  30.248  31.986  1.00  0.00     0.029 A 
ATOM     53  N   UNL A   1      43.999  31.703  31.072  1.00  0.00    -0.354 N 
ATOM     54  C   UNL A   1      44.312  35.751  32.581  1.00  0.00     0.074 A 
ATOM     55  C   UNL A   1      43.416  35.962  33.698  1.00  0.00     0.031 C 
ATOM     56  C   UNL A   1      43.151  29.636  30.944  1.00  0.00     0.029 A 
ATOM     57  C   UNL A   1      44.053  30.576  30.283  1.00  0.00     0.049 A 
ATOM     58  H   UNL A   1      44.570  32.491  30.929  1.00  0.00     0.167 HD
ATOM     59  C   UNL A   1      45.143  36.695  32.079  1.00  0.00     0.034 A 
ATOM     60  C   UNL A   1      44.725  30.350  29.138  1.00  0.00     0.034 A 
ATOM     61  C   UNL A   1      46.042  36.475  30.980  1.00  0.00     0.049 A 
ATOM     62  C   UNL A   1      45.611  31.435  28.580  1.00  0.00     0.074 A 
ATOM     63  C   UNL A   1      46.975  37.345  30.445  1.00  0.00     0.029 A 
ATOM     64  N   UNL A   1      46.106  35.309  30.234  1.00  0.00    -0.354 N 
ATOM     65  N   UNL A   1      45.873  32.622  29.070  1.00  0.00    -0.248 NA
ATOM     66  C   UNL A   1      46.312  31.139  27.321  1.00  0.00     0.031 C 
ATOM     67  C   UNL A   1      47.587  36.712  29.358  1.00  0.00     0.029 A 
ATOM     68  C   UNL A   1      47.045  35.443  29.227  1.00  0.00     0.049 A 
ATOM     69  H   UNL A   1      45.564  34.503  30.397  1.00  0.00     0.167 HD
ATOM     70  C   UNL A   1      46.785  33.204  28.197  1.00  0.00     0.074 A 
ATOM     71  C   UNL A   1      47.052  32.228  27.161  1.00  0.00     0.031 C 
ATOM     72  C   UNL A   1      47.337  34.442  28.234  1.00  0.00     0.034 A 
BRANCH  59  73
ATOM     73  C   UNL A   1      45.145  38.050  32.731  1.00  0.00     0.023 A 
ATOM     74  C   UNL A   1      46.078  38.325  33.750  1.00  0.00     0.012 A 
ATOM     75  C   UNL A   1      44.285  39.071  32.282  1.00  0.00     0.148 A 
ATOM     76  C   UNL A   1      46.147  39.595  34.324  1.00  0.00     0.002 A 
ATOM     77  C   UNL A   1      44.381  40.342  32.836  1.00  0.00     0.091 A 
ATOM     78  F   UNL A   1      43.392  38.779  31.327  1.00  0.00    -0.205 F 
ATOM     79  C   UNL A   1      45.306  40.604  33.861  1.00  0.00     0.022 A 
BRANCH  77  80
ATOM     80  S   UNL A   1      43.388  41.727  32.269  1.00  0.00     0.127 S 
ATOM     81  O   UNL A   1      42.049  41.325  32.695  1.00  0.00    -0.237 OA
ATOM     82  O   UNL A   1      43.958  42.844  33.024  1.00  0.00    -0.237 OA
ATOM     83  O   UNL A   1      43.586  41.803  30.828  1.00  0.00    -0.744 OA
ENDBRANCH  77  80
ENDBRANCH  59  73
BRANCH  60  84
ATOM     84  C   UNL A   1      44.603  29.037  28.442  1.00  0.00     0.023 A 
ATOM     85  C   UNL A   1      45.515  28.008  28.743  1.00  0.00     0.012 A 
ATOM     86  C   UNL A   1      43.596  28.803  27.486  1.00  0.00     0.148 A 
ATOM     87  C   UNL A   1      45.445  26.780  28.083  1.00  0.00     0.002 A 
ATOM     88  C   UNL A   1      43.501  27.561  26.867  1.00  0.00     0.091 A 
ATOM     89  F   UNL A   1      42.753  29.803  27.188  1.00  0.00    -0.205 F 
ATOM     90  C   UNL A   1      44.434  26.552  27.154  1.00  0.00     0.022 A 
BRANCH  88  91
ATOM     91  S   UNL A   1      42.158  27.160  25.743  1.00  0.00     0.127 S 
ATOM     92  O   UNL A   1      42.422  25.756  25.448  1.00  0.00    -0.237 OA
ATOM     93  O   UNL A   1      40.975  27.403  26.572  1.00  0.00    -0.237 OA
ATOM     94  O   UNL A   1      42.303  28.088  24.629  1.00  0.00    -0.744 OA
ENDBRANCH  88  91
ENDBRANCH  60  84
BRANCH  72  95
ATOM     95  C   UNL A   1      48.295  34.815  27.134  1.00  0.00     0.023 A 
ATOM     96  C   UNL A   1      47.809  35.477  25.990  1.00  0.00     0.012 A 
ATOM     97  C   UNL A   1      49.679  34.588  27.268  1.00  0.00     0.148 A 
ATOM     98  C   UNL A   1      48.684  35.886  24.983  1.00  0.00     0.002 A 
ATOM     99  C   UNL A   1      50.549  35.038  26.282  1.00  0.00     0.091 A 
ATOM    100  F   UNL A   1      50.119  33.939  28.356  1.00  0.00    -0.205 F 
ATOM    101  C   UNL A   1      50.052  35.678  25.134  1.00  0.00     0.022 A 
BRANCH  99 102
ATOM    102  S   UNL A   1      52.334  34.896  26.438  1.00  0.00     0.127 S 
ATOM    103  O   UNL A   1      52.794  35.558  25.219  1.00  0.00    -0.237 OA
ATOM    104  O   UNL A   1      52.600  35.635  27.673  1.00  0.00    -0.237 OA
ATOM    105  O   UNL A   1      52.613  33.468  26.521  1.00  0.00    -0.744 OA
ENDBRANCH  99 102
ENDBRANCH  72  95
ENDBRANCH  46  47
ENDBRANCH  39  41
ENDBRANCH  38  39
ENDBRANCH  37  38
ENDBRANCH  36  37
ENDBRANCH  35  36
ENDBRANCH  34  35
ENDBRANCH   1  34
TORSDOF 23
ENDMDL
MODEL 3
REMARK VINA RESULT:     -10.4      1.971      8.287
REMARK SMILES COC(=O)c1ccc([C@H]2Nc3c(C(=O)OCCOCCOCCOC(=O)c4ccc(-c5c6nc(c(-c7cccc(S(=O)(=O)[O-])c7F)c7ccc([nH]7)c(-c7cccc(S(=O)(=O)[O-])c7F)c7nc(c(-c8cccc(S(=O)(=O)[O-])c8F)c8ccc5[nH]8)C=C7)C=C6)cc4)cccc3[C@@H]3[C@@H]4CC[C@@H](C4)[C@@H]32)cc1
REMARK SMILES IDX 19 1 18 2 17 3 16 4 15 5 13 6 14 7 12 8 9 9 10 10 100 11
REMARK SMILES IDX 11 12 94 14 98 15 93 16 95 17 97 18 99 19 90 20 92 21 96 22
REMARK SMILES IDX 91 23 8 24 5 25 6 26 102 27 7 28 101 29 3 30 4 31 2 32 1 33
REMARK SMILES IDX 20 34 21 35 22 36 23 37 24 38 25 39 26 40 27 41 28 42 89 43
REMARK SMILES IDX 29 44 88 45 30 46 31 47 32 48 82 49 33 50 87 51 81 52 83 53
REMARK SMILES IDX 34 54 86 55 80 56 79 57 35 59 67 60 47 61 66 62 48 63 51 64
REMARK SMILES IDX 65 65 84 66 49 67 50 68 64 70 85 71 52 72 36 73 37 74 45 75
REMARK SMILES IDX 38 76 40 77 46 78 39 79 41 80 42 81 43 82 44 83 68 84 69 85
REMARK SMILES IDX 77 86 70 87 72 88 78 89 71 90 73 91 74 92 75 93 76 94 53 95
REMARK SMILES IDX 54 96 62 97 55 98 57 99 63 100 56 101 58 102 59 103 60 104
REMARK SMILES IDX 61 105
REMARK H PARENT 10 13 83 58 51 69
REMARK Flexibility Score: inf
ROOT
ATOM      1  C   UNL A   1      37.295  21.534  24.198  1.00  0.00     0.188 C 
ENDROOT
BRANCH   1   2
ATOM      2  O   UNL A   1      35.888  21.781  24.206  1.00  0.00    -0.376 OA
BRANCH   2   3
ATOM      3  C   UNL A   1      35.575  23.171  24.007  1.00  0.00     0.202 C 
BRANCH   3   4
ATOM      4  C   UNL A   1      36.062  24.110  25.125  1.00  0.00     0.261 C 
BRANCH   4   5
ATOM      5  O   UNL A   1      34.952  24.848  25.679  1.00  0.00    -0.460 OA
BRANCH   5   6
ATOM      6  C   UNL A   1      33.927  24.095  26.166  1.00  0.00     0.340 C 
ATOM      7  O   UNL A   1      33.977  23.406  27.174  1.00  0.00    -0.246 OA
BRANCH   6   8
ATOM      8  C   UNL A   1      32.657  24.385  25.430  1.00  0.00     0.083 A 
ATOM      9  C   UNL A   1      32.630  28.158  25.367  1.00  0.00     0.113 C 
ATOM     10  N   UNL A   1      32.740  26.776  25.805  1.00  0.00    -0.377 N 
ATOM     11  C   UNL A   1      31.219  28.435  24.804  1.00  0.00     0.027 C 
ATOM     12  C   UNL A   1      32.103  25.680  25.290  1.00  0.00     0.053 A 
ATOM     13  H   UNL A   1      33.346  26.610  26.562  1.00  0.00     0.161 HD
ATOM     14  C   UNL A   1      30.268  27.224  24.541  1.00  0.00     0.030 C 
ATOM     15  C   UNL A   1      31.174  29.183  23.444  1.00  0.00    -0.005 C 
ATOM     16  C   UNL A   1      30.877  25.846  24.640  1.00  0.00    -0.020 A 
ATOM     17  C   UNL A   1      29.645  27.583  23.155  1.00  0.00    -0.003 C 
ATOM     18  C   UNL A   1      31.748  28.328  22.291  1.00  0.00     0.004 C 
ATOM     19  C   UNL A   1      29.670  29.115  23.154  1.00  0.00     0.008 C 
ATOM     20  C   UNL A   1      31.964  23.272  24.941  1.00  0.00     0.018 A 
ATOM     21  C   UNL A   1      30.176  24.712  24.199  1.00  0.00     0.006 A 
ATOM     22  C   UNL A   1      30.644  27.299  22.023  1.00  0.00     0.004 C 
ATOM     23  C   UNL A   1      30.720  23.436  24.339  1.00  0.00     0.001 A 
BRANCH   9  24
ATOM     24  C   UNL A   1      33.100  28.957  26.604  1.00  0.00    -0.025 A 
ATOM     25  C   UNL A   1      34.225  31.170  27.897  1.00  0.00     0.060 A 
ATOM     26  C   UNL A   1      32.863  31.172  27.598  1.00  0.00     0.016 A 
ATOM     27  C   UNL A   1      34.953  29.980  27.776  1.00  0.00     0.016 A 
ATOM     28  C   UNL A   1      32.291  30.049  27.002  1.00  0.00     0.007 A 
ATOM     29  C   UNL A   1      34.388  28.871  27.141  1.00  0.00     0.007 A 
BRANCH  25  30
ATOM     30  C   UNL A   1      34.885  32.473  28.173  1.00  0.00     0.337 C 
ATOM     31  O   UNL A   1      35.772  32.946  27.481  1.00  0.00    -0.246 OA
BRANCH  30  32
ATOM     32  O   UNL A   1      34.451  32.964  29.361  1.00  0.00    -0.465 OA
ATOM     33  C   UNL A   1      35.248  34.028  29.880  1.00  0.00     0.282 C 
ENDBRANCH  30  32
ENDBRANCH  25  30
ENDBRANCH   9  24
ENDBRANCH   6   8
ENDBRANCH   5   6
ENDBRANCH   4   5
ENDBRANCH   3   4
ENDBRANCH   2   3
ENDBRANCH   1   2
BRANCH   1  34
ATOM     34  C   UNL A   1      37.852  20.884  25.457  1.00  0.00     0.188 C 
BRANCH  34  35
ATOM     35  O   UNL A   1      38.629  21.742  26.285  1.00  0.00    -0.376 OA
BRANCH  35  36
ATOM     36  C   UNL A   1      40.027  21.454  26.334  1.00  0.00     0.202 C 
BRANCH  36  37
ATOM     37  C   UNL A   1      40.405  19.976  26.156  1.00  0.00     0.261 C 
BRANCH  37  38
ATOM     38  O   UNL A   1      41.732  19.677  26.628  1.00  0.00    -0.460 OA
BRANCH  38  39
ATOM     39  C   UNL A   1      42.744  19.979  25.776  1.00  0.00     0.338 C 
ATOM     40  O   UNL A   1      43.038  19.406  24.741  1.00  0.00    -0.246 OA
BRANCH  39  41
ATOM     41  C   UNL A   1      43.374  21.244  26.195  1.00  0.00     0.060 A 
ATOM     42  C   UNL A   1      43.587  21.476  27.562  1.00  0.00     0.016 A 
ATOM     43  C   UNL A   1      43.670  22.227  25.252  1.00  0.00     0.016 A 
ATOM     44  C   UNL A   1      44.092  22.704  27.991  1.00  0.00     0.010 A 
ATOM     45  C   UNL A   1      44.156  23.463  25.685  1.00  0.00     0.010 A 
ATOM     46  C   UNL A   1      44.351  23.713  27.056  1.00  0.00    -0.014 A 
BRANCH  46  47
ATOM     47  C   UNL A   1      44.736  25.072  27.499  1.00  0.00     0.031 A 
ATOM     48  C   UNL A   1      43.669  26.014  27.978  1.00  0.00     0.074 A 
ATOM     49  C   UNL A   1      46.016  25.475  27.407  1.00  0.00     0.049 A 
ATOM     50  N   UNL A   1      43.768  27.275  28.308  1.00  0.00    -0.248 NA
ATOM     51  C   UNL A   1      42.308  25.464  28.101  1.00  0.00     0.031 C 
ATOM     52  C   UNL A   1      47.133  24.644  26.957  1.00  0.00     0.029 A 
ATOM     53  N   UNL A   1      46.582  26.702  27.646  1.00  0.00    -0.354 N 
ATOM     54  C   UNL A   1      42.482  27.680  28.646  1.00  0.00     0.074 A 
ATOM     55  C   UNL A   1      41.619  26.529  28.490  1.00  0.00     0.031 C 
ATOM     56  C   UNL A   1      48.243  25.399  26.903  1.00  0.00     0.029 A 
ATOM     57  C   UNL A   1      47.909  26.769  27.287  1.00  0.00     0.049 A 
ATOM     58  H   UNL A   1      46.088  27.459  28.035  1.00  0.00     0.167 HD
ATOM     59  C   UNL A   1      42.063  28.899  29.057  1.00  0.00     0.034 A 
ATOM     60  C   UNL A   1      48.744  27.826  27.240  1.00  0.00     0.034 A 
ATOM     61  C   UNL A   1      42.927  30.035  29.226  1.00  0.00     0.049 A 
ATOM     62  C   UNL A   1      48.237  29.181  27.664  1.00  0.00     0.074 A 
ATOM     63  C   UNL A   1      42.611  31.293  29.705  1.00  0.00     0.029 A 
ATOM     64  N   UNL A   1      44.274  30.056  28.899  1.00  0.00    -0.354 N 
ATOM     65  N   UNL A   1      47.055  29.514  28.126  1.00  0.00    -0.248 NA
ATOM     66  C   UNL A   1      49.186  30.302  27.580  1.00  0.00     0.031 C 
ATOM     67  C   UNL A   1      43.764  32.083  29.647  1.00  0.00     0.029 A 
ATOM     68  C   UNL A   1      44.799  31.312  29.144  1.00  0.00     0.049 A 
ATOM     69  H   UNL A   1      44.783  29.290  28.546  1.00  0.00     0.167 HD
ATOM     70  C   UNL A   1      47.127  30.873  28.412  1.00  0.00     0.074 A 
ATOM     71  C   UNL A   1      48.475  31.296  28.097  1.00  0.00     0.031 C 
ATOM     72  C   UNL A   1      46.159  31.704  28.873  1.00  0.00     0.034 A 
BRANCH  59  73
ATOM     73  C   UNL A   1      40.605  29.069  29.385  1.00  0.00     0.023 A 
ATOM     74  C   UNL A   1      39.685  29.303  28.344  1.00  0.00     0.012 A 
ATOM     75  C   UNL A   1      40.137  28.917  30.704  1.00  0.00     0.148 A 
ATOM     76  C   UNL A   1      38.320  29.397  28.612  1.00  0.00     0.002 A 
ATOM     77  C   UNL A   1      38.772  28.980  30.960  1.00  0.00     0.091 A 
ATOM     78  F   UNL A   1      41.033  28.717  31.681  1.00  0.00    -0.205 F 
ATOM     79  C   UNL A   1      37.864  29.226  29.917  1.00  0.00     0.022 A 
BRANCH  77  80
ATOM     80  S   UNL A   1      38.076  28.712  32.594  1.00  0.00     0.127 S 
ATOM     81  O   UNL A   1      38.965  29.518  33.430  1.00  0.00    -0.237 OA
ATOM     82  O   UNL A   1      36.724  29.253  32.445  1.00  0.00    -0.237 OA
ATOM     83  O   UNL A   1      38.135  27.276  32.828  1.00  0.00    -0.744 OA
ENDBRANCH  77  80
ENDBRANCH  59  73
BRANCH  60  84
ATOM     84  C   UNL A   1      50.152  27.650  26.786  1.00  0.00     0.023 A 
ATOM     85  C   UNL A   1      51.148  27.338  27.731  1.00  0.00     0.012 A 
ATOM     86  C   UNL A   1      50.512  27.794  25.432  1.00  0.00     0.148 A 
ATOM     87  C   UNL A   1      52.481  27.201  27.341  1.00  0.00     0.002 A 
ATOM     88  C   UNL A   1      51.835  27.608  25.042  1.00  0.00     0.091 A 
ATOM     89  F   UNL A   1      49.558  28.122  24.549  1.00  0.00    -0.205 F 
ATOM     90  C   UNL A   1      52.823  27.325  25.997  1.00  0.00     0.022 A 
BRANCH  88  91
ATOM     91  S   UNL A   1      52.328  27.643  23.315  1.00  0.00     0.127 S 
ATOM     92  O   UNL A   1      53.662  27.055  23.371  1.00  0.00    -0.237 OA
ATOM     93  O   UNL A   1      51.311  26.800  22.683  1.00  0.00    -0.237 OA
ATOM     94  O   UNL A   1      52.261  29.046  22.927  1.00  0.00    -0.744 OA
ENDBRANCH  88  91
ENDBRANCH  60  84
BRANCH  72  95
ATOM     95  C   UNL A   1      46.518  33.151  29.079  1.00  0.00     0.023 A 
ATOM     96  C   UNL A   1      46.962  33.579  30.346  1.00  0.00     0.012 A 
ATOM     97  C   UNL A   1      46.496  34.065  28.007  1.00  0.00     0.148 A 
ATOM     98  C   UNL A   1      47.356  34.902  30.548  1.00  0.00     0.002 A 
ATOM     99  C   UNL A   1      46.933  35.369  28.206  1.00  0.00     0.091 A 
ATOM    100  F   UNL A   1      46.052  33.642  26.815  1.00  0.00    -0.205 F 
ATOM    101  C   UNL A   1      47.353  35.792  29.477  1.00  0.00     0.022 A 
BRANCH  99 102
ATOM    102  S   UNL A   1      47.051  36.557  26.862  1.00  0.00     0.127 S 
ATOM    103  O   UNL A   1      48.047  35.930  25.996  1.00  0.00    -0.237 OA
ATOM    104  O   UNL A   1      45.690  36.560  26.326  1.00  0.00    -0.237 OA
ATOM    105  O   UNL A   1      47.457  37.814  27.477  1.00  0.00    -0.744 OA
ENDBRANCH  99 102
ENDBRANCH  72  95
ENDBRANCH  46  47
ENDBRANCH  39  41
ENDBRANCH  38  39
ENDBRANCH  37  38
ENDBRANCH  36  37
ENDBRANCH  35  36
ENDBRANCH  34  35
ENDBRANCH   1  34
TORSDOF 23
ENDMDL
