MODEL 1
REMARK VINA RESULT:     -10.7      0.000      0.000
REMARK SMILES CCN(CC)C(=O)[C@@H]1CC=CC[C@H]1C(=O)Nc1ccc(C(=O)OCCOCCOCCOC(=O)c2ccc(-c3c4nc(c(-c5cccc(S(=O)(=O)[O-])c5F)c5ccc([nH]5)c(-c5cccc(S(=O)(=O)[O-])c5F)c5nc(c(-c6cccc(S(=O)(=O)[O-])c6F)c6ccc3[nH]6)C=C5)C=C4)cc2)cc1
REMARK SMILES IDX 27 1 26 2 25 3 24 4 23 5 21 6 22 7 20 8 17 9 18 10 99 11
REMARK SMILES IDX 19 12 98 13 16 14 14 15 15 16 13 18 8 19 9 20 10 21 12 22
REMARK SMILES IDX 11 23 6 24 3 25 7 26 2 27 1 28 4 29 5 30 28 31 29 32 30 33
REMARK SMILES IDX 31 34 32 35 33 36 34 37 35 38 36 39 97 40 37 41 96 42 38 43
REMARK SMILES IDX 39 44 40 45 90 46 41 47 95 48 89 49 91 50 42 51 94 52 88 53
REMARK SMILES IDX 87 54 43 56 75 57 55 58 74 59 56 60 59 61 73 62 92 63 57 64
REMARK SMILES IDX 58 65 72 67 93 68 60 69 44 70 45 71 53 72 46 73 48 74 54 75
REMARK SMILES IDX 47 76 49 77 50 78 51 79 52 80 76 81 77 82 85 83 78 84 80 85
REMARK SMILES IDX 86 86 79 87 81 88 82 89 83 90 84 91 61 92 62 93 70 94 63 95
REMARK SMILES IDX 65 96 71 97 64 98 66 99 67 100 68 101 69 102
REMARK H PARENT 16 17 91 55 59 66
REMARK Flexibility Score: inf
ROOT
ATOM      1  C   UNL A   1      31.693  29.023  25.534  1.00  0.00     0.188 C 
ENDROOT
BRANCH   1   2
ATOM      2  O   UNL A   1      30.838  29.714  24.645  1.00  0.00    -0.376 OA
BRANCH   2   3
ATOM      3  C   UNL A   1      30.676  29.292  23.302  1.00  0.00     0.202 C 
BRANCH   3   4
ATOM      4  C   UNL A   1      29.641  28.256  22.829  1.00  0.00     0.261 C 
BRANCH   4   5
ATOM      5  O   UNL A   1      29.649  27.012  23.527  1.00  0.00    -0.460 OA
BRANCH   5   6
ATOM      6  C   UNL A   1      30.618  26.143  23.150  1.00  0.00     0.338 C 
ATOM      7  O   UNL A   1      31.379  26.259  22.201  1.00  0.00    -0.246 OA
BRANCH   6   8
ATOM      8  C   UNL A   1      30.737  25.061  24.149  1.00  0.00     0.060 A 
ATOM      9  C   UNL A   1      31.276  23.138  26.059  1.00  0.00     0.041 A 
ATOM     10  C   UNL A   1      30.960  24.430  26.475  1.00  0.00     0.027 A 
ATOM     11  C   UNL A   1      31.061  22.750  24.745  1.00  0.00     0.027 A 
ATOM     12  C   UNL A   1      30.710  25.402  25.507  1.00  0.00     0.018 A 
ATOM     13  C   UNL A   1      30.850  23.719  23.770  1.00  0.00     0.018 A 
BRANCH   9  14
ATOM     14  N   UNL A   1      31.970  22.306  26.935  1.00  0.00    -0.326 N 
ATOM     15  C   UNL A   1      33.328  22.079  26.949  1.00  0.00     0.228 C 
ATOM     16  O   UNL A   1      33.785  21.530  27.961  1.00  0.00    -0.274 OA
ATOM     17  H   UNL A   1      31.436  21.832  27.614  1.00  0.00     0.169 HD
BRANCH  15  18
ATOM     18  C   UNL A   1      34.319  22.637  25.887  1.00  0.00     0.095 C 
ATOM     19  C   UNL A   1      34.478  21.929  24.501  1.00  0.00     0.095 C 
ATOM     20  C   UNL A   1      35.534  22.661  23.659  1.00  0.00     0.041 C 
ATOM     21  C   UNL A   1      35.379  24.152  23.646  1.00  0.00    -0.030 C 
ATOM     22  C   UNL A   1      34.148  24.170  25.809  1.00  0.00     0.041 C 
ATOM     23  C   UNL A   1      34.729  24.824  24.599  1.00  0.00    -0.030 C 
BRANCH  19  24
ATOM     24  C   UNL A   1      34.639  20.402  24.695  1.00  0.00     0.226 C 
ATOM     25  N   UNL A   1      33.674  19.464  24.339  1.00  0.00    -0.343 N 
ATOM     26  O   UNL A   1      35.629  19.998  25.316  1.00  0.00    -0.275 OA
BRANCH  25  27
ATOM     27  C   UNL A   1      33.946  18.067  24.720  1.00  0.00     0.116 C 
ATOM     28  C   UNL A   1      32.824  17.433  25.537  1.00  0.00     0.027 C 
ENDBRANCH  25  27
BRANCH  25  29
ATOM     29  C   UNL A   1      32.367  19.712  23.732  1.00  0.00     0.116 C 
ATOM     30  C   UNL A   1      32.205  19.032  22.382  1.00  0.00     0.027 C 
ENDBRANCH  25  29
ENDBRANCH  19  24
ENDBRANCH  15  18
ENDBRANCH   9  14
ENDBRANCH   6   8
ENDBRANCH   5   6
ENDBRANCH   4   5
ENDBRANCH   3   4
ENDBRANCH   2   3
ENDBRANCH   1   2
BRANCH   1  31
ATOM     31  C   UNL A   1      33.173  29.435  25.617  1.00  0.00     0.188 C 
BRANCH  31  32
ATOM     32  O   UNL A   1      33.614  30.136  26.754  1.00  0.00    -0.376 OA
BRANCH  32  33
ATOM     33  C   UNL A   1      32.858  31.238  27.230  1.00  0.00     0.202 C 
BRANCH  33  34
ATOM     34  C   UNL A   1      33.405  32.643  27.570  1.00  0.00     0.261 C 
BRANCH  34  35
ATOM     35  O   UNL A   1      32.517  33.614  28.132  1.00  0.00    -0.460 OA
BRANCH  35  36
ATOM     36  C   UNL A   1      33.114  34.689  28.707  1.00  0.00     0.338 C 
ATOM     37  O   UNL A   1      32.698  35.834  28.727  1.00  0.00    -0.246 OA
BRANCH  36  38
ATOM     38  C   UNL A   1      34.267  34.229  29.510  1.00  0.00     0.060 A 
ATOM     39  C   UNL A   1      35.560  34.527  29.056  1.00  0.00     0.016 A 
ATOM     40  C   UNL A   1      34.080  33.477  30.670  1.00  0.00     0.016 A 
ATOM     41  C   UNL A   1      36.670  34.042  29.744  1.00  0.00     0.010 A 
ATOM     42  C   UNL A   1      35.197  32.975  31.348  1.00  0.00     0.010 A 
ATOM     43  C   UNL A   1      36.496  33.225  30.868  1.00  0.00    -0.014 A 
BRANCH  43  44
ATOM     44  C   UNL A   1      37.669  32.518  31.442  1.00  0.00     0.031 A 
ATOM     45  C   UNL A   1      38.235  32.990  32.755  1.00  0.00     0.074 A 
ATOM     46  C   UNL A   1      38.209  31.456  30.820  1.00  0.00     0.049 A 
ATOM     47  N   UNL A   1      39.235  32.510  33.447  1.00  0.00    -0.248 NA
ATOM     48  C   UNL A   1      37.588  34.161  33.370  1.00  0.00     0.031 C 
ATOM     49  C   UNL A   1      37.756  30.903  29.544  1.00  0.00     0.029 A 
ATOM     50  N   UNL A   1      39.272  30.662  31.173  1.00  0.00    -0.354 N 
ATOM     51  C   UNL A   1      39.355  33.330  34.562  1.00  0.00     0.074 A 
ATOM     52  C   UNL A   1      38.336  34.350  34.447  1.00  0.00     0.031 C 
ATOM     53  C   UNL A   1      38.551  29.872  29.210  1.00  0.00     0.029 A 
ATOM     54  C   UNL A   1      39.580  29.705  30.236  1.00  0.00     0.049 A 
ATOM     55  H   UNL A   1      39.768  30.769  32.017  1.00  0.00     0.167 HD
ATOM     56  C   UNL A   1      40.225  33.237  35.596  1.00  0.00     0.034 A 
ATOM     57  C   UNL A   1      40.585  28.808  30.202  1.00  0.00     0.034 A 
ATOM     58  C   UNL A   1      41.233  32.217  35.716  1.00  0.00     0.049 A 
ATOM     59  C   UNL A   1      41.550  28.734  31.358  1.00  0.00     0.074 A 
ATOM     60  C   UNL A   1      42.132  32.013  36.748  1.00  0.00     0.029 A 
ATOM     61  N   UNL A   1      41.490  31.241  34.766  1.00  0.00    -0.354 N 
ATOM     62  N   UNL A   1      41.577  29.444  32.460  1.00  0.00    -0.248 NA
ATOM     63  C   UNL A   1      42.596  27.704  31.284  1.00  0.00     0.031 C 
ATOM     64  C   UNL A   1      42.956  30.936  36.405  1.00  0.00     0.029 A 
ATOM     65  C   UNL A   1      42.540  30.438  35.182  1.00  0.00     0.049 A 
ATOM     66  H   UNL A   1      40.997  31.133  33.920  1.00  0.00     0.167 HD
ATOM     67  C   UNL A   1      42.611  28.919  33.228  1.00  0.00     0.074 A 
ATOM     68  C   UNL A   1      43.173  27.819  32.473  1.00  0.00     0.031 C 
ATOM     69  C   UNL A   1      43.061  29.315  34.445  1.00  0.00     0.034 A 
BRANCH  56  70
ATOM     70  C   UNL A   1      40.117  34.262  36.696  1.00  0.00     0.023 A 
ATOM     71  C   UNL A   1      40.496  35.598  36.452  1.00  0.00     0.012 A 
ATOM     72  C   UNL A   1      39.586  33.915  37.954  1.00  0.00     0.148 A 
ATOM     73  C   UNL A   1      40.383  36.564  37.451  1.00  0.00     0.002 A 
ATOM     74  C   UNL A   1      39.431  34.893  38.929  1.00  0.00     0.091 A 
ATOM     75  F   UNL A   1      39.251  32.637  38.176  1.00  0.00    -0.205 F 
ATOM     76  C   UNL A   1      39.840  36.215  38.685  1.00  0.00     0.022 A 
BRANCH  74  77
ATOM     77  S   UNL A   1      38.665  34.562  40.520  1.00  0.00     0.127 S 
ATOM     78  O   UNL A   1      39.634  33.652  41.130  1.00  0.00    -0.237 OA
ATOM     79  O   UNL A   1      38.619  35.895  41.122  1.00  0.00    -0.237 OA
ATOM     80  O   UNL A   1      37.363  33.981  40.228  1.00  0.00    -0.744 OA
ENDBRANCH  74  77
ENDBRANCH  56  70
BRANCH  57  81
ATOM     81  C   UNL A   1      40.716  27.877  29.045  1.00  0.00     0.023 A 
ATOM     82  C   UNL A   1      39.937  26.703  29.000  1.00  0.00     0.012 A 
ATOM     83  C   UNL A   1      41.608  28.149  27.990  1.00  0.00     0.148 A 
ATOM     84  C   UNL A   1      40.069  25.802  27.943  1.00  0.00     0.002 A 
ATOM     85  C   UNL A   1      41.693  27.277  26.913  1.00  0.00     0.091 A 
ATOM     86  F   UNL A   1      42.351  29.262  28.060  1.00  0.00    -0.205 F 
ATOM     87  C   UNL A   1      40.939  26.093  26.896  1.00  0.00     0.022 A 
BRANCH  85  88
ATOM     88  S   UNL A   1      42.690  27.631  25.462  1.00  0.00     0.127 S 
ATOM     89  O   UNL A   1      44.014  27.825  26.048  1.00  0.00    -0.237 OA
ATOM     90  O   UNL A   1      42.532  26.402  24.683  1.00  0.00    -0.237 OA
ATOM     91  O   UNL A   1      42.092  28.811  24.851  1.00  0.00    -0.744 OA
ENDBRANCH  85  88
ENDBRANCH  57  81
BRANCH  69  92
ATOM     92  C   UNL A   1      44.182  28.521  35.070  1.00  0.00     0.023 A 
ATOM     93  C   UNL A   1      45.525  28.879  34.839  1.00  0.00     0.012 A 
ATOM     94  C   UNL A   1      43.897  27.436  35.926  1.00  0.00     0.148 A 
ATOM     95  C   UNL A   1      46.565  28.142  35.405  1.00  0.00     0.002 A 
ATOM     96  C   UNL A   1      44.937  26.742  36.532  1.00  0.00     0.091 A 
ATOM     97  F   UNL A   1      42.615  27.096  36.123  1.00  0.00    -0.205 F 
ATOM     98  C   UNL A   1      46.272  27.081  36.258  1.00  0.00     0.022 A 
BRANCH  96  99
ATOM     99  S   UNL A   1      44.650  25.427  37.721  1.00  0.00     0.127 S 
ATOM    100  O   UNL A   1      46.004  25.154  38.198  1.00  0.00    -0.237 OA
ATOM    101  O   UNL A   1      43.778  26.079  38.700  1.00  0.00    -0.237 OA
ATOM    102  O   UNL A   1      44.016  24.347  36.977  1.00  0.00    -0.744 OA
ENDBRANCH  96  99
ENDBRANCH  69  92
ENDBRANCH  43  44
ENDBRANCH  36  38
ENDBRANCH  35  36
ENDBRANCH  34  35
ENDBRANCH  33  34
ENDBRANCH  32  33
ENDBRANCH  31  32
ENDBRANCH   1  31
TORSDOF 25
ENDMDL
MODEL 2
REMARK VINA RESULT:     -10.3      2.865      9.377
REMARK SMILES CCN(CC)C(=O)[C@@H]1CC=CC[C@H]1C(=O)Nc1ccc(C(=O)OCCOCCOCCOC(=O)c2ccc(-c3c4nc(c(-c5cccc(S(=O)(=O)[O-])c5F)c5ccc([nH]5)c(-c5cccc(S(=O)(=O)[O-])c5F)c5nc(c(-c6cccc(S(=O)(=O)[O-])c6F)c6ccc3[nH]6)C=C5)C=C4)cc2)cc1
REMARK SMILES IDX 27 1 26 2 25 3 24 4 23 5 21 6 22 7 20 8 17 9 18 10 99 11
REMARK SMILES IDX 19 12 98 13 16 14 14 15 15 16 13 18 8 19 9 20 10 21 12 22
REMARK SMILES IDX 11 23 6 24 3 25 7 26 2 27 1 28 4 29 5 30 28 31 29 32 30 33
REMARK SMILES IDX 31 34 32 35 33 36 34 37 35 38 36 39 97 40 37 41 96 42 38 43
REMARK SMILES IDX 39 44 40 45 90 46 41 47 95 48 89 49 91 50 42 51 94 52 88 53
REMARK SMILES IDX 87 54 43 56 75 57 55 58 74 59 56 60 59 61 73 62 92 63 57 64
REMARK SMILES IDX 58 65 72 67 93 68 60 69 44 70 45 71 53 72 46 73 48 74 54 75
REMARK SMILES IDX 47 76 49 77 50 78 51 79 52 80 76 81 77 82 85 83 78 84 80 85
REMARK SMILES IDX 86 86 79 87 81 88 82 89 83 90 84 91 61 92 62 93 70 94 63 95
REMARK SMILES IDX 65 96 71 97 64 98 66 99 67 100 68 101 69 102
REMARK H PARENT 16 17 91 55 59 66
REMARK Flexibility Score: inf
ROOT
ATOM      1  C   UNL A   1      41.518  19.582  26.178  1.00  0.00     0.188 C 
ENDROOT
BRANCH   1   2
ATOM      2  O   UNL A   1      41.179  20.884  26.609  1.00  0.00    -0.376 OA
BRANCH   2   3
ATOM      3  C   UNL A   1      40.262  21.684  25.883  1.00  0.00     0.202 C 
BRANCH   3   4
ATOM      4  C   UNL A   1      38.733  21.636  26.051  1.00  0.00     0.261 C 
BRANCH   4   5
ATOM      5  O   UNL A   1      38.001  21.177  24.915  1.00  0.00    -0.460 OA
BRANCH   5   6
ATOM      6  C   UNL A   1      37.048  22.026  24.460  1.00  0.00     0.338 C 
ATOM      7  O   UNL A   1      36.994  22.544  23.355  1.00  0.00    -0.246 OA
BRANCH   6   8
ATOM      8  C   UNL A   1      35.966  22.145  25.459  1.00  0.00     0.060 A 
ATOM      9  C   UNL A   1      33.732  22.388  27.067  1.00  0.00     0.041 A 
ATOM     10  C   UNL A   1      34.046  21.138  26.535  1.00  0.00     0.027 A 
ATOM     11  C   UNL A   1      34.654  23.422  27.023  1.00  0.00     0.027 A 
ATOM     12  C   UNL A   1      35.162  21.025  25.707  1.00  0.00     0.018 A 
ATOM     13  C   UNL A   1      35.748  23.330  26.170  1.00  0.00     0.018 A 
BRANCH   9  14
ATOM     14  N   UNL A   1      32.422  22.626  27.480  1.00  0.00    -0.326 N 
ATOM     15  C   UNL A   1      31.364  22.993  26.680  1.00  0.00     0.228 C 
ATOM     16  O   UNL A   1      30.235  22.893  27.181  1.00  0.00    -0.274 OA
ATOM     17  H   UNL A   1      32.235  22.523  28.441  1.00  0.00     0.169 HD
BRANCH  15  18
ATOM     18  C   UNL A   1      31.486  23.323  25.165  1.00  0.00     0.095 C 
ATOM     19  C   UNL A   1      32.282  24.583  24.689  1.00  0.00     0.095 C 
ATOM     20  C   UNL A   1      32.221  24.691  23.158  1.00  0.00     0.041 C 
ATOM     21  C   UNL A   1      32.498  23.403  22.442  1.00  0.00    -0.030 C 
ATOM     22  C   UNL A   1      31.824  22.024  24.402  1.00  0.00     0.041 C 
ATOM     23  C   UNL A   1      32.348  22.206  23.015  1.00  0.00    -0.030 C 
BRANCH  19  24
ATOM     24  C   UNL A   1      31.869  25.823  25.519  1.00  0.00     0.226 C 
ATOM     25  N   UNL A   1      31.722  27.101  24.990  1.00  0.00    -0.343 N 
ATOM     26  O   UNL A   1      31.785  25.696  26.746  1.00  0.00    -0.275 OA
BRANCH  25  27
ATOM     27  C   UNL A   1      31.454  28.182  25.955  1.00  0.00     0.116 C 
ATOM     28  C   UNL A   1      31.539  29.577  25.342  1.00  0.00     0.027 C 
ENDBRANCH  25  27
BRANCH  25  29
ATOM     29  C   UNL A   1      31.915  27.524  23.605  1.00  0.00     0.116 C 
ATOM     30  C   UNL A   1      33.304  28.089  23.349  1.00  0.00     0.027 C 
ENDBRANCH  25  29
ENDBRANCH  19  24
ENDBRANCH  15  18
ENDBRANCH   9  14
ENDBRANCH   6   8
ENDBRANCH   5   6
ENDBRANCH   4   5
ENDBRANCH   3   4
ENDBRANCH   2   3
ENDBRANCH   1   2
BRANCH   1  31
ATOM     31  C   UNL A   1      42.970  19.290  25.758  1.00  0.00     0.188 C 
BRANCH  31  32
ATOM     32  O   UNL A   1      43.610  20.183  24.879  1.00  0.00    -0.376 OA
BRANCH  32  33
ATOM     33  C   UNL A   1      44.880  20.712  25.226  1.00  0.00     0.202 C 
BRANCH  33  34
ATOM     34  C   UNL A   1      45.251  22.209  25.323  1.00  0.00     0.261 C 
BRANCH  34  35
ATOM     35  O   UNL A   1      44.440  23.072  26.126  1.00  0.00    -0.460 OA
BRANCH  35  36
ATOM     36  C   UNL A   1      43.522  23.808  25.448  1.00  0.00     0.338 C 
ATOM     37  O   UNL A   1      43.160  23.647  24.295  1.00  0.00    -0.246 OA
BRANCH  36  38
ATOM     38  C   UNL A   1      42.846  24.725  26.390  1.00  0.00     0.060 A 
ATOM     39  C   UNL A   1      43.259  26.064  26.433  1.00  0.00     0.016 A 
ATOM     40  C   UNL A   1      41.851  24.263  27.253  1.00  0.00     0.016 A 
ATOM     41  C   UNL A   1      42.701  26.938  27.364  1.00  0.00     0.010 A 
ATOM     42  C   UNL A   1      41.306  25.138  28.199  1.00  0.00     0.010 A 
ATOM     43  C   UNL A   1      41.753  26.469  28.283  1.00  0.00    -0.014 A 
BRANCH  43  44
ATOM     44  C   UNL A   1      41.351  27.338  29.418  1.00  0.00     0.031 A 
ATOM     45  C   UNL A   1      40.069  28.122  29.319  1.00  0.00     0.074 A 
ATOM     46  C   UNL A   1      42.099  27.411  30.532  1.00  0.00     0.049 A 
ATOM     47  N   UNL A   1      39.516  28.919  30.194  1.00  0.00    -0.248 NA
ATOM     48  C   UNL A   1      39.310  27.988  28.064  1.00  0.00     0.031 C 
ATOM     49  C   UNL A   1      43.361  26.705  30.751  1.00  0.00     0.029 A 
ATOM     50  N   UNL A   1      41.911  28.132  31.686  1.00  0.00    -0.354 N 
ATOM     51  C   UNL A   1      38.361  29.404  29.591  1.00  0.00     0.074 A 
ATOM     52  C   UNL A   1      38.301  28.822  28.268  1.00  0.00     0.031 C 
ATOM     53  C   UNL A   1      43.846  27.045  31.958  1.00  0.00     0.029 A 
ATOM     54  C   UNL A   1      42.941  28.007  32.587  1.00  0.00     0.049 A 
ATOM     55  H   UNL A   1      41.114  28.686  31.851  1.00  0.00     0.167 HD
ATOM     56  C   UNL A   1      37.427  30.245  30.096  1.00  0.00     0.034 A 
ATOM     57  C   UNL A   1      43.139  28.611  33.776  1.00  0.00     0.034 A 
ATOM     58  C   UNL A   1      37.481  30.816  31.415  1.00  0.00     0.049 A 
ATOM     59  C   UNL A   1      42.092  29.555  34.309  1.00  0.00     0.074 A 
ATOM     60  C   UNL A   1      36.560  31.644  32.033  1.00  0.00     0.029 A 
ATOM     61  N   UNL A   1      38.521  30.637  32.315  1.00  0.00    -0.354 N 
ATOM     62  N   UNL A   1      40.949  29.911  33.774  1.00  0.00    -0.248 NA
ATOM     63  C   UNL A   1      42.344  30.146  35.631  1.00  0.00     0.031 C 
ATOM     64  C   UNL A   1      37.061  31.994  33.292  1.00  0.00     0.029 A 
ATOM     65  C   UNL A   1      38.270  31.346  33.478  1.00  0.00     0.049 A 
ATOM     66  H   UNL A   1      39.320  30.085  32.151  1.00  0.00     0.167 HD
ATOM     67  C   UNL A   1      40.327  30.730  34.711  1.00  0.00     0.074 A 
ATOM     68  C   UNL A   1      41.212  30.800  35.855  1.00  0.00     0.031 C 
ATOM     69  C   UNL A   1      39.134  31.372  34.630  1.00  0.00     0.034 A 
BRANCH  56  70
ATOM     70  C   UNL A   1      36.250  30.590  29.220  1.00  0.00     0.023 A 
ATOM     71  C   UNL A   1      35.533  29.565  28.570  1.00  0.00     0.012 A 
ATOM     72  C   UNL A   1      35.820  31.925  29.084  1.00  0.00     0.148 A 
ATOM     73  C   UNL A   1      34.429  29.865  27.772  1.00  0.00     0.002 A 
ATOM     74  C   UNL A   1      34.690  32.212  28.327  1.00  0.00     0.091 A 
ATOM     75  F   UNL A   1      36.527  32.889  29.691  1.00  0.00    -0.205 F 
ATOM     76  C   UNL A   1      34.001  31.185  27.659  1.00  0.00     0.022 A 
BRANCH  74  77
ATOM     77  S   UNL A   1      34.011  33.868  28.188  1.00  0.00     0.127 S 
ATOM     78  O   UNL A   1      32.678  33.597  27.651  1.00  0.00    -0.237 OA
ATOM     79  O   UNL A   1      34.026  34.323  29.579  1.00  0.00    -0.237 OA
ATOM     80  O   UNL A   1      34.904  34.598  27.300  1.00  0.00    -0.744 OA
ENDBRANCH  74  77
ENDBRANCH  56  70
BRANCH  57  81
ATOM     81  C   UNL A   1      44.368  28.317  34.567  1.00  0.00     0.023 A 
ATOM     82  C   UNL A   1      45.536  29.075  34.352  1.00  0.00     0.012 A 
ATOM     83  C   UNL A   1      44.384  27.291  35.530  1.00  0.00     0.148 A 
ATOM     84  C   UNL A   1      46.707  28.793  35.058  1.00  0.00     0.002 A 
ATOM     85  C   UNL A   1      45.535  27.053  36.270  1.00  0.00     0.091 A 
ATOM     86  F   UNL A   1      43.267  26.571  35.708  1.00  0.00    -0.205 F 
ATOM     87  C   UNL A   1      46.703  27.790  36.023  1.00  0.00     0.022 A 
BRANCH  85  88
ATOM     88  S   UNL A   1      45.586  25.869  37.620  1.00  0.00     0.127 S 
ATOM     89  O   UNL A   1      47.019  25.788  37.892  1.00  0.00    -0.237 OA
ATOM     90  O   UNL A   1      44.800  26.553  38.648  1.00  0.00    -0.237 OA
ATOM     91  O   UNL A   1      44.973  24.654  37.102  1.00  0.00    -0.744 OA
ENDBRANCH  85  88
ENDBRANCH  57  81
BRANCH  69  92
ATOM     92  C   UNL A   1      38.682  32.163  35.833  1.00  0.00     0.023 A 
ATOM     93  C   UNL A   1      38.809  33.567  35.852  1.00  0.00     0.012 A 
ATOM     94  C   UNL A   1      38.090  31.512  36.935  1.00  0.00     0.148 A 
ATOM     95  C   UNL A   1      38.403  34.303  36.966  1.00  0.00     0.002 A 
ATOM     96  C   UNL A   1      37.636  32.257  38.017  1.00  0.00     0.091 A 
ATOM     97  F   UNL A   1      37.991  30.175  36.910  1.00  0.00    -0.205 F 
ATOM     98  C   UNL A   1      37.809  33.649  38.042  1.00  0.00     0.022 A 
BRANCH  96  99
ATOM     99  S   UNL A   1      36.769  31.509  39.401  1.00  0.00     0.127 S 
ATOM    100  O   UNL A   1      35.873  32.589  39.810  1.00  0.00    -0.237 OA
ATOM    101  O   UNL A   1      36.101  30.370  38.770  1.00  0.00    -0.237 OA
ATOM    102  O   UNL A   1      37.796  31.145  40.367  1.00  0.00    -0.744 OA
ENDBRANCH  96  99
ENDBRANCH  69  92
ENDBRANCH  43  44
ENDBRANCH  36  38
ENDBRANCH  35  36
ENDBRANCH  34  35
ENDBRANCH  33  34
ENDBRANCH  32  33
ENDBRANCH  31  32
ENDBRANCH   1  31
TORSDOF 25
ENDMDL
MODEL 3
REMARK VINA RESULT:      -9.6      4.648     10.173
REMARK SMILES CCN(CC)C(=O)[C@@H]1CC=CC[C@H]1C(=O)Nc1ccc(C(=O)OCCOCCOCCOC(=O)c2ccc(-c3c4nc(c(-c5cccc(S(=O)(=O)[O-])c5F)c5ccc([nH]5)c(-c5cccc(S(=O)(=O)[O-])c5F)c5nc(c(-c6cccc(S(=O)(=O)[O-])c6F)c6ccc3[nH]6)C=C5)C=C4)cc2)cc1
REMARK SMILES IDX 27 1 26 2 25 3 24 4 23 5 21 6 22 7 20 8 17 9 18 10 99 11
REMARK SMILES IDX 19 12 98 13 16 14 14 15 15 16 13 18 8 19 9 20 10 21 12 22
REMARK SMILES IDX 11 23 6 24 3 25 7 26 2 27 1 28 4 29 5 30 28 31 29 32 30 33
REMARK SMILES IDX 31 34 32 35 33 36 34 37 35 38 36 39 97 40 37 41 96 42 38 43
REMARK SMILES IDX 39 44 40 45 90 46 41 47 95 48 89 49 91 50 42 51 94 52 88 53
REMARK SMILES IDX 87 54 43 56 75 57 55 58 74 59 56 60 59 61 73 62 92 63 57 64
REMARK SMILES IDX 58 65 72 67 93 68 60 69 44 70 45 71 53 72 46 73 48 74 54 75
REMARK SMILES IDX 47 76 49 77 50 78 51 79 52 80 76 81 77 82 85 83 78 84 80 85
REMARK SMILES IDX 86 86 79 87 81 88 82 89 83 90 84 91 61 92 62 93 70 94 63 95
REMARK SMILES IDX 65 96 71 97 64 98 66 99 67 100 68 101 69 102
REMARK H PARENT 16 17 91 55 59 66
REMARK Flexibility Score: inf
ROOT
ATOM      1  C   UNL A   1      41.569  20.335  27.338  1.00  0.00     0.188 C 
ENDROOT
BRANCH   1   2
ATOM      2  O   UNL A   1      41.507  21.597  26.707  1.00  0.00    -0.376 OA
BRANCH   2   3
ATOM      3  C   UNL A   1      40.464  21.918  25.802  1.00  0.00     0.202 C 
BRANCH   3   4
ATOM      4  C   UNL A   1      38.987  22.093  26.196  1.00  0.00     0.261 C 
BRANCH   4   5
ATOM      5  O   UNL A   1      38.056  21.282  25.479  1.00  0.00    -0.460 OA
BRANCH   5   6
ATOM      6  C   UNL A   1      37.156  21.961  24.728  1.00  0.00     0.338 C 
ATOM      7  O   UNL A   1      37.191  22.132  23.518  1.00  0.00    -0.246 OA
BRANCH   6   8
ATOM      8  C   UNL A   1      36.010  22.369  25.566  1.00  0.00     0.060 A 
ATOM      9  C   UNL A   1      33.673  23.046  26.876  1.00  0.00     0.041 A 
ATOM     10  C   UNL A   1      34.063  21.708  26.843  1.00  0.00     0.027 A 
ATOM     11  C   UNL A   1      34.559  24.046  26.505  1.00  0.00     0.027 A 
ATOM     12  C   UNL A   1      35.232  21.368  26.163  1.00  0.00     0.018 A 
ATOM     13  C   UNL A   1      35.707  23.715  25.793  1.00  0.00     0.018 A 
BRANCH   9  14
ATOM     14  N   UNL A   1      32.332  23.344  27.115  1.00  0.00    -0.326 N 
ATOM     15  C   UNL A   1      31.349  23.515  26.168  1.00  0.00     0.228 C 
ATOM     16  O   UNL A   1      30.180  23.503  26.580  1.00  0.00    -0.274 OA
ATOM     17  H   UNL A   1      32.062  23.442  28.057  1.00  0.00     0.169 HD
BRANCH  15  18
ATOM     18  C   UNL A   1      31.603  23.519  24.633  1.00  0.00     0.095 C 
ATOM     19  C   UNL A   1      32.500  24.622  23.981  1.00  0.00     0.095 C 
ATOM     20  C   UNL A   1      32.561  24.413  22.460  1.00  0.00     0.041 C 
ATOM     21  C   UNL A   1      32.821  22.995  22.048  1.00  0.00    -0.030 C 
ATOM     22  C   UNL A   1      31.927  22.078  24.182  1.00  0.00     0.041 C 
ATOM     23  C   UNL A   1      32.563  21.950  22.837  1.00  0.00    -0.030 C 
BRANCH  19  24
ATOM     24  C   UNL A   1      32.093  26.021  24.503  1.00  0.00     0.226 C 
ATOM     25  N   UNL A   1      30.854  26.610  24.272  1.00  0.00    -0.343 N 
ATOM     26  O   UNL A   1      32.962  26.709  25.053  1.00  0.00    -0.275 OA
BRANCH  25  27
ATOM     27  C   UNL A   1      30.693  28.001  24.733  1.00  0.00     0.116 C 
ATOM     28  C   UNL A   1      31.151  29.035  23.709  1.00  0.00     0.027 C 
ENDBRANCH  25  27
BRANCH  25  29
ATOM     29  C   UNL A   1      29.727  26.057  23.524  1.00  0.00     0.116 C 
ATOM     30  C   UNL A   1      28.392  26.655  23.941  1.00  0.00     0.027 C 
ENDBRANCH  25  29
ENDBRANCH  19  24
ENDBRANCH  15  18
ENDBRANCH   9  14
ENDBRANCH   6   8
ENDBRANCH   5   6
ENDBRANCH   4   5
ENDBRANCH   3   4
ENDBRANCH   2   3
ENDBRANCH   1   2
BRANCH   1  31
ATOM     31  C   UNL A   1      42.380  19.208  26.674  1.00  0.00     0.188 C 
BRANCH  31  32
ATOM     32  O   UNL A   1      42.686  19.315  25.305  1.00  0.00    -0.376 OA
BRANCH  32  33
ATOM     33  C   UNL A   1      43.971  18.925  24.847  1.00  0.00     0.202 C 
BRANCH  33  34
ATOM     34  C   UNL A   1      45.008  19.836  24.151  1.00  0.00     0.261 C 
BRANCH  34  35
ATOM     35  O   UNL A   1      45.327  21.099  24.743  1.00  0.00    -0.460 OA
BRANCH  35  36
ATOM     36  C   UNL A   1      44.852  22.188  24.086  1.00  0.00     0.338 C 
ATOM     37  O   UNL A   1      44.352  22.213  22.974  1.00  0.00    -0.246 OA
BRANCH  36  38
ATOM     38  C   UNL A   1      44.831  23.340  25.011  1.00  0.00     0.060 A 
ATOM     39  C   UNL A   1      46.046  23.795  25.543  1.00  0.00     0.016 A 
ATOM     40  C   UNL A   1      43.627  23.937  25.387  1.00  0.00     0.016 A 
ATOM     41  C   UNL A   1      46.057  24.826  26.480  1.00  0.00     0.010 A 
ATOM     42  C   UNL A   1      43.639  24.960  26.343  1.00  0.00     0.010 A 
ATOM     43  C   UNL A   1      44.850  25.385  26.919  1.00  0.00    -0.014 A 
BRANCH  43  44
ATOM     44  C   UNL A   1      44.857  26.302  28.087  1.00  0.00     0.031 A 
ATOM     45  C   UNL A   1      44.938  27.787  27.848  1.00  0.00     0.074 A 
ATOM     46  C   UNL A   1      44.768  25.827  29.341  1.00  0.00     0.049 A 
ATOM     47  N   UNL A   1      44.935  28.767  28.713  1.00  0.00    -0.248 NA
ATOM     48  C   UNL A   1      45.036  28.225  26.445  1.00  0.00     0.031 C 
ATOM     49  C   UNL A   1      44.687  24.413  29.706  1.00  0.00     0.029 A 
ATOM     50  N   UNL A   1      44.748  26.488  30.545  1.00  0.00    -0.354 N 
ATOM     51  C   UNL A   1      45.056  29.933  27.968  1.00  0.00     0.074 A 
ATOM     52  C   UNL A   1      45.147  29.538  26.579  1.00  0.00     0.031 C 
ATOM     53  C   UNL A   1      44.648  24.311  31.046  1.00  0.00     0.029 A 
ATOM     54  C   UNL A   1      44.722  25.649  31.633  1.00  0.00     0.049 A 
ATOM     55  H   UNL A   1      44.751  27.469  30.621  1.00  0.00     0.167 HD
ATOM     56  C   UNL A   1      45.076  31.218  28.396  1.00  0.00     0.034 A 
ATOM     57  C   UNL A   1      44.768  25.927  32.951  1.00  0.00     0.034 A 
ATOM     58  C   UNL A   1      44.976  31.612  29.776  1.00  0.00     0.049 A 
ATOM     59  C   UNL A   1      44.805  27.365  33.402  1.00  0.00     0.074 A 
ATOM     60  C   UNL A   1      44.942  32.890  30.306  1.00  0.00     0.029 A 
ATOM     61  N   UNL A   1      44.912  30.736  30.848  1.00  0.00    -0.354 N 
ATOM     62  N   UNL A   1      44.803  28.459  32.681  1.00  0.00    -0.248 NA
ATOM     63  C   UNL A   1      44.808  27.604  34.853  1.00  0.00     0.031 C 
ATOM     64  C   UNL A   1      44.896  32.786  31.700  1.00  0.00     0.029 A 
ATOM     65  C   UNL A   1      44.850  31.444  32.037  1.00  0.00     0.049 A 
ATOM     66  H   UNL A   1      44.910  29.754  30.775  1.00  0.00     0.167 HD
ATOM     67  C   UNL A   1      44.758  29.514  33.586  1.00  0.00     0.074 A 
ATOM     68  C   UNL A   1      44.715  28.926  34.909  1.00  0.00     0.031 C 
ATOM     69  C   UNL A   1      44.760  30.850  33.347  1.00  0.00     0.034 A 
BRANCH  56  70
ATOM     70  C   UNL A   1      45.198  32.301  27.354  1.00  0.00     0.023 A 
ATOM     71  C   UNL A   1      44.082  32.645  26.565  1.00  0.00     0.012 A 
ATOM     72  C   UNL A   1      46.402  33.016  27.196  1.00  0.00     0.148 A 
ATOM     73  C   UNL A   1      44.170  33.659  25.610  1.00  0.00     0.002 A 
ATOM     74  C   UNL A   1      46.468  34.057  26.277  1.00  0.00     0.091 A 
ATOM     75  F   UNL A   1      47.459  32.661  27.939  1.00  0.00    -0.205 F 
ATOM     76  C   UNL A   1      45.359  34.371  25.475  1.00  0.00     0.022 A 
BRANCH  74  77
ATOM     77  S   UNL A   1      47.926  35.089  26.087  1.00  0.00     0.127 S 
ATOM     78  O   UNL A   1      48.712  34.315  25.126  1.00  0.00    -0.237 OA
ATOM     79  O   UNL A   1      47.358  36.327  25.552  1.00  0.00    -0.237 OA
ATOM     80  O   UNL A   1      48.510  35.211  27.414  1.00  0.00    -0.744 OA
ENDBRANCH  74  77
ENDBRANCH  56  70
BRANCH  57  81
ATOM     81  C   UNL A   1      44.747  24.819  33.949  1.00  0.00     0.023 A 
ATOM     82  C   UNL A   1      43.526  24.424  34.529  1.00  0.00     0.012 A 
ATOM     83  C   UNL A   1      45.931  24.156  34.323  1.00  0.00     0.148 A 
ATOM     84  C   UNL A   1      43.489  23.412  35.490  1.00  0.00     0.002 A 
ATOM     85  C   UNL A   1      45.880  23.112  35.237  1.00  0.00     0.091 A 
ATOM     86  F   UNL A   1      47.084  24.558  33.771  1.00  0.00    -0.205 F 
ATOM     87  C   UNL A   1      44.664  22.750  35.836  1.00  0.00     0.022 A 
BRANCH  85  88
ATOM     88  S   UNL A   1      47.320  22.119  35.649  1.00  0.00     0.127 S 
ATOM     89  O   UNL A   1      48.144  23.077  36.381  1.00  0.00    -0.237 OA
ATOM     90  O   UNL A   1      46.728  21.060  36.467  1.00  0.00    -0.237 OA
ATOM     91  O   UNL A   1      47.862  21.665  34.375  1.00  0.00    -0.744 OA
ENDBRANCH  85  88
ENDBRANCH  57  81
BRANCH  69  92
ATOM     92  C   UNL A   1      44.655  31.774  34.535  1.00  0.00     0.023 A 
ATOM     93  C   UNL A   1      45.818  32.258  35.167  1.00  0.00     0.012 A 
ATOM     94  C   UNL A   1      43.393  32.198  35.000  1.00  0.00     0.148 A 
ATOM     95  C   UNL A   1      45.727  33.104  36.273  1.00  0.00     0.002 A 
ATOM     96  C   UNL A   1      43.311  33.086  36.066  1.00  0.00     0.091 A 
ATOM     97  F   UNL A   1      42.295  31.717  34.400  1.00  0.00    -0.205 F 
ATOM     98  C   UNL A   1      44.476  33.525  36.715  1.00  0.00     0.022 A 
BRANCH  96  99
ATOM     99  S   UNL A   1      41.747  33.759  36.638  1.00  0.00     0.127 S 
ATOM    100  O   UNL A   1      41.203  32.640  37.404  1.00  0.00    -0.237 OA
ATOM    101  O   UNL A   1      42.177  34.900  37.447  1.00  0.00    -0.237 OA
ATOM    102  O   UNL A   1      41.004  34.119  35.437  1.00  0.00    -0.744 OA
ENDBRANCH  96  99
ENDBRANCH  69  92
ENDBRANCH  43  44
ENDBRANCH  36  38
ENDBRANCH  35  36
ENDBRANCH  34  35
ENDBRANCH  33  34
ENDBRANCH  32  33
ENDBRANCH  31  32
ENDBRANCH   1  31
TORSDOF 25
ENDMDL
