MODEL 1
REMARK VINA RESULT:      -9.7      0.000      0.000
REMARK SMILES O=C(OCCOCCOCCOC(=O)c1ccc(N2C(=O)[C@@H]3N=NC(c4ccccc4)=C3[C@H]2c2cccc(Br)c2)cc1)c1ccc(-c2c3nc(c(-c4cccc(S(=O)(=O)[O-])c4F)c4ccc([nH]4)c(-c4cccc(S(=O)(=O)[O-])c4F)c4nc(c(-c5cccc(S(=O)(=O)[O-])c5F)c5ccc2[nH]5)C=C4)C=C3)cc1
REMARK SMILES IDX 7 1 6 2 5 3 4 4 3 5 2 6 1 7 43 8 44 9 105 10 45 11 104 12
REMARK SMILES IDX 46 13 47 14 48 15 98 16 49 17 103 18 97 19 99 20 50 21
REMARK SMILES IDX 102 22 96 23 95 24 51 26 83 27 63 28 82 29 64 30 67 31 81 32
REMARK SMILES IDX 100 33 65 34 66 35 80 37 101 38 68 39 52 40 53 41 61 42
REMARK SMILES IDX 54 43 56 44 62 45 55 46 57 47 58 48 59 49 60 50 84 51 85 52
REMARK SMILES IDX 93 53 86 54 88 55 94 56 87 57 89 58 90 59 91 60 92 61 69 62
REMARK SMILES IDX 70 63 78 64 71 65 73 66 79 67 72 68 74 69 75 70 76 71 77 72
REMARK SMILES IDX 8 73 9 74 10 75 11 76 12 77 13 78 14 79 15 80 16 81 42 82
REMARK SMILES IDX 17 83 41 84 18 85 19 86 20 87 33 88 22 89 21 90 32 91 23 92
REMARK SMILES IDX 25 93 24 94 34 95 35 96 40 97 36 98 38 99 37 100 39 101
REMARK SMILES IDX 26 102 27 103 31 104 28 105 30 106 29 107
REMARK H PARENT 99 25 67 36
REMARK Flexibility Score: inf
ROOT
ATOM      1  C   UNL A   1      33.855  22.204  23.970  1.00  0.00     0.188 C 
ENDROOT
BRANCH   1   2
ATOM      2  O   UNL A   1      35.248  22.473  23.888  1.00  0.00    -0.376 OA
BRANCH   2   3
ATOM      3  C   UNL A   1      36.067  21.788  24.818  1.00  0.00     0.202 C 
BRANCH   3   4
ATOM      4  C   UNL A   1      37.488  22.342  24.941  1.00  0.00     0.261 C 
BRANCH   4   5
ATOM      5  O   UNL A   1      38.285  21.805  26.011  1.00  0.00    -0.460 OA
BRANCH   5   6
ATOM      6  C   UNL A   1      39.614  21.748  26.215  1.00  0.00     0.338 C 
ATOM      7  O   UNL A   1      40.160  20.646  26.249  1.00  0.00    -0.246 OA
BRANCH   6   8
ATOM      8  C   UNL A   1      40.437  22.935  26.551  1.00  0.00     0.060 A 
ATOM      9  C   UNL A   1      41.772  23.107  26.190  1.00  0.00     0.016 A 
ATOM     10  C   UNL A   1      39.819  23.892  27.383  1.00  0.00     0.016 A 
ATOM     11  C   UNL A   1      42.508  24.150  26.732  1.00  0.00     0.010 A 
ATOM     12  C   UNL A   1      40.553  24.931  27.934  1.00  0.00     0.010 A 
ATOM     13  C   UNL A   1      41.913  25.004  27.661  1.00  0.00    -0.014 A 
BRANCH  13  14
ATOM     14  C   UNL A   1      42.798  25.891  28.401  1.00  0.00     0.031 A 
ATOM     15  C   UNL A   1      42.775  27.323  28.018  1.00  0.00     0.074 A 
ATOM     16  C   UNL A   1      43.578  25.420  29.395  1.00  0.00     0.049 A 
ATOM     17  N   UNL A   1      43.739  28.031  27.524  1.00  0.00    -0.248 NA
ATOM     18  C   UNL A   1      41.489  28.027  28.101  1.00  0.00     0.031 C 
ATOM     19  C   UNL A   1      43.496  24.101  30.034  1.00  0.00     0.029 A 
ATOM     20  N   UNL A   1      44.512  26.074  30.143  1.00  0.00    -0.354 N 
ATOM     21  C   UNL A   1      43.245  29.335  27.454  1.00  0.00     0.074 A 
ATOM     22  C   UNL A   1      41.823  29.235  27.650  1.00  0.00     0.031 C 
ATOM     23  C   UNL A   1      44.136  24.150  31.222  1.00  0.00     0.029 A 
ATOM     24  C   UNL A   1      44.777  25.445  31.354  1.00  0.00     0.049 A 
ATOM     25  H   UNL A   1      44.953  26.905  29.855  1.00  0.00     0.167 HD
ATOM     26  C   UNL A   1      44.076  30.414  27.491  1.00  0.00     0.034 A 
ATOM     27  C   UNL A   1      45.390  25.990  32.431  1.00  0.00     0.034 A 
ATOM     28  C   UNL A   1      45.432  30.055  27.158  1.00  0.00     0.049 A 
ATOM     29  C   UNL A   1      46.169  27.158  31.966  1.00  0.00     0.074 A 
ATOM     30  C   UNL A   1      46.064  29.475  26.077  1.00  0.00     0.029 A 
ATOM     31  N   UNL A   1      46.344  30.031  28.183  1.00  0.00    -0.354 N 
ATOM     32  N   UNL A   1      47.232  27.073  31.215  1.00  0.00    -0.248 NA
ATOM     33  C   UNL A   1      45.553  28.472  32.033  1.00  0.00     0.031 C 
ATOM     34  C   UNL A   1      47.152  28.738  26.631  1.00  0.00     0.029 A 
ATOM     35  C   UNL A   1      47.135  28.931  28.013  1.00  0.00     0.049 A 
ATOM     36  H   UNL A   1      46.417  30.690  28.910  1.00  0.00     0.167 HD
ATOM     37  C   UNL A   1      47.157  28.182  30.382  1.00  0.00     0.074 A 
ATOM     38  C   UNL A   1      46.190  29.069  31.023  1.00  0.00     0.031 C 
ATOM     39  C   UNL A   1      47.656  28.145  29.110  1.00  0.00     0.034 A 
BRANCH  26  40
ATOM     40  C   UNL A   1      43.773  31.716  28.218  1.00  0.00     0.023 A 
ATOM     41  C   UNL A   1      44.023  32.916  27.509  1.00  0.00     0.012 A 
ATOM     42  C   UNL A   1      43.577  31.836  29.613  1.00  0.00     0.148 A 
ATOM     43  C   UNL A   1      44.192  34.141  28.165  1.00  0.00     0.002 A 
ATOM     44  C   UNL A   1      43.677  33.069  30.252  1.00  0.00     0.091 A 
ATOM     45  F   UNL A   1      43.417  30.751  30.372  1.00  0.00    -0.205 F 
ATOM     46  C   UNL A   1      44.025  34.216  29.540  1.00  0.00     0.022 A 
BRANCH  44  47
ATOM     47  S   UNL A   1      43.425  33.227  32.025  1.00  0.00     0.127 S 
ATOM     48  O   UNL A   1      44.519  32.412  32.546  1.00  0.00    -0.237 OA
ATOM     49  O   UNL A   1      43.576  34.669  32.224  1.00  0.00    -0.237 OA
ATOM     50  O   UNL A   1      42.076  32.733  32.270  1.00  0.00    -0.744 OA
ENDBRANCH  44  47
ENDBRANCH  26  40
BRANCH  27  51
ATOM     51  C   UNL A   1      45.149  25.711  33.864  1.00  0.00     0.023 A 
ATOM     52  C   UNL A   1      46.197  25.221  34.666  1.00  0.00     0.012 A 
ATOM     53  C   UNL A   1      43.968  26.151  34.506  1.00  0.00     0.148 A 
ATOM     54  C   UNL A   1      46.081  25.187  36.061  1.00  0.00     0.002 A 
ATOM     55  C   UNL A   1      43.848  26.095  35.890  1.00  0.00     0.091 A 
ATOM     56  F   UNL A   1      42.998  26.709  33.770  1.00  0.00    -0.205 F 
ATOM     57  C   UNL A   1      44.909  25.625  36.673  1.00  0.00     0.022 A 
BRANCH  55  58
ATOM     58  S   UNL A   1      42.358  26.636  36.741  1.00  0.00     0.127 S 
ATOM     59  O   UNL A   1      41.322  25.848  36.071  1.00  0.00    -0.237 OA
ATOM     60  O   UNL A   1      42.633  26.238  38.118  1.00  0.00    -0.237 OA
ATOM     61  O   UNL A   1      42.264  28.069  36.497  1.00  0.00    -0.744 OA
ENDBRANCH  55  58
ENDBRANCH  27  51
BRANCH  39  62
ATOM     62  C   UNL A   1      48.573  27.010  28.731  1.00  0.00     0.023 A 
ATOM     63  C   UNL A   1      48.076  25.762  28.306  1.00  0.00     0.012 A 
ATOM     64  C   UNL A   1      49.952  27.266  28.621  1.00  0.00     0.148 A 
ATOM     65  C   UNL A   1      48.935  24.781  27.806  1.00  0.00     0.002 A 
ATOM     66  C   UNL A   1      50.797  26.306  28.077  1.00  0.00     0.091 A 
ATOM     67  F   UNL A   1      50.413  28.462  29.021  1.00  0.00    -0.205 F 
ATOM     68  C   UNL A   1      50.294  25.058  27.678  1.00  0.00     0.022 A 
BRANCH  66  69
ATOM     69  S   UNL A   1      52.528  26.655  27.753  1.00  0.00     0.127 S 
ATOM     70  O   UNL A   1      52.454  27.910  27.008  1.00  0.00    -0.237 OA
ATOM     71  O   UNL A   1      53.086  26.775  29.101  1.00  0.00    -0.237 OA
ATOM     72  O   UNL A   1      53.031  25.507  27.006  1.00  0.00    -0.744 OA
ENDBRANCH  66  69
ENDBRANCH  39  62
ENDBRANCH  13  14
ENDBRANCH   6   8
ENDBRANCH   5   6
ENDBRANCH   4   5
ENDBRANCH   3   4
ENDBRANCH   2   3
ENDBRANCH   1   2
BRANCH   1  73
ATOM     73  C   UNL A   1      32.955  23.462  23.952  1.00  0.00     0.188 C 
BRANCH  73  74
ATOM     74  O   UNL A   1      33.398  24.728  24.430  1.00  0.00    -0.376 OA
BRANCH  74  75
ATOM     75  C   UNL A   1      32.700  25.904  24.077  1.00  0.00     0.202 C 
BRANCH  75  76
ATOM     76  C   UNL A   1      33.482  27.223  24.105  1.00  0.00     0.261 C 
BRANCH  76  77
ATOM     77  O   UNL A   1      33.661  27.822  25.399  1.00  0.00    -0.460 OA
BRANCH  77  78
ATOM     78  C   UNL A   1      33.030  29.000  25.590  1.00  0.00     0.338 C 
ATOM     79  O   UNL A   1      32.077  29.447  24.954  1.00  0.00    -0.246 OA
BRANCH  78  80
ATOM     80  C   UNL A   1      33.634  29.743  26.708  1.00  0.00     0.060 A 
ATOM     81  C   UNL A   1      33.097  30.973  27.098  1.00  0.00     0.018 A 
ATOM     82  C   UNL A   1      34.818  29.286  27.286  1.00  0.00     0.018 A 
ATOM     83  C   UNL A   1      33.761  31.758  28.046  1.00  0.00     0.027 A 
ATOM     84  C   UNL A   1      35.495  30.093  28.210  1.00  0.00     0.027 A 
ATOM     85  C   UNL A   1      34.994  31.350  28.566  1.00  0.00     0.045 A 
BRANCH  85  86
ATOM     86  N   UNL A   1      35.725  32.225  29.415  1.00  0.00    -0.299 N 
ATOM     87  C   UNL A   1      36.778  33.022  28.869  1.00  0.00     0.259 C 
ATOM     88  C   UNL A   1      36.012  31.852  30.819  1.00  0.00     0.152 C 
ATOM     89  C   UNL A   1      37.765  33.296  29.978  1.00  0.00     0.248 C 
ATOM     90  O   UNL A   1      36.862  33.391  27.707  1.00  0.00    -0.271 OA
ATOM     91  C   UNL A   1      37.482  32.068  30.768  1.00  0.00     0.021 C 
ATOM     92  N   UNL A   1      39.176  33.132  29.622  1.00  0.00    -0.170 NA
ATOM     93  C   UNL A   1      38.647  31.421  30.863  1.00  0.00     0.097 C 
ATOM     94  N   UNL A   1      39.652  32.145  30.249  1.00  0.00    -0.154 NA
BRANCH  88  95
ATOM     95  C   UNL A   1      35.321  32.802  31.822  1.00  0.00    -0.020 A 
ATOM     96  C   UNL A   1      35.599  32.768  33.206  1.00  0.00     0.006 A 
ATOM     97  C   UNL A   1      34.413  33.780  31.388  1.00  0.00     0.022 A 
ATOM     98  C   UNL A   1      35.101  33.739  34.081  1.00  0.00     0.002 A 
ATOM     99  C   UNL A   1      33.918  34.755  32.263  1.00  0.00     0.018 A 
ATOM    100  C   UNL A   1      34.277  34.751  33.605  1.00  0.00     0.016 A 
ATOM    101  Br  UNL A   1      32.773  36.111  31.607  1.00  0.00    -0.051 Br
ENDBRANCH  88  95
BRANCH  93 102
ATOM    102  C   UNL A   1      38.966  30.024  31.179  1.00  0.00     0.002 A 
ATOM    103  C   UNL A   1      40.146  29.683  31.854  1.00  0.00     0.010 A 
ATOM    104  C   UNL A   1      38.252  29.016  30.509  1.00  0.00     0.010 A 
ATOM    105  C   UNL A   1      40.630  28.369  31.807  1.00  0.00     0.001 A 
ATOM    106  C   UNL A   1      38.740  27.709  30.459  1.00  0.00     0.001 A 
ATOM    107  C   UNL A   1      39.938  27.389  31.093  1.00  0.00     0.000 A 
ENDBRANCH  93 102
ENDBRANCH  85  86
ENDBRANCH  78  80
ENDBRANCH  77  78
ENDBRANCH  76  77
ENDBRANCH  75  76
ENDBRANCH  74  75
ENDBRANCH  73  74
ENDBRANCH   1  73
TORSDOF 23
ENDMDL
MODEL 2
REMARK VINA RESULT:      -9.3      3.442      8.788
REMARK SMILES O=C(OCCOCCOCCOC(=O)c1ccc(N2C(=O)[C@@H]3N=NC(c4ccccc4)=C3[C@H]2c2cccc(Br)c2)cc1)c1ccc(-c2c3nc(c(-c4cccc(S(=O)(=O)[O-])c4F)c4ccc([nH]4)c(-c4cccc(S(=O)(=O)[O-])c4F)c4nc(c(-c5cccc(S(=O)(=O)[O-])c5F)c5ccc2[nH]5)C=C4)C=C3)cc1
REMARK SMILES IDX 7 1 6 2 5 3 4 4 3 5 2 6 1 7 43 8 44 9 105 10 45 11 104 12
REMARK SMILES IDX 46 13 47 14 48 15 98 16 49 17 103 18 97 19 99 20 50 21
REMARK SMILES IDX 102 22 96 23 95 24 51 26 83 27 63 28 82 29 64 30 67 31 81 32
REMARK SMILES IDX 100 33 65 34 66 35 80 37 101 38 68 39 52 40 53 41 61 42
REMARK SMILES IDX 54 43 56 44 62 45 55 46 57 47 58 48 59 49 60 50 84 51 85 52
REMARK SMILES IDX 93 53 86 54 88 55 94 56 87 57 89 58 90 59 91 60 92 61 69 62
REMARK SMILES IDX 70 63 78 64 71 65 73 66 79 67 72 68 74 69 75 70 76 71 77 72
REMARK SMILES IDX 8 73 9 74 10 75 11 76 12 77 13 78 14 79 15 80 16 81 42 82
REMARK SMILES IDX 17 83 41 84 18 85 19 86 20 87 33 88 22 89 21 90 32 91 23 92
REMARK SMILES IDX 25 93 24 94 34 95 35 96 40 97 36 98 38 99 37 100 39 101
REMARK SMILES IDX 26 102 27 103 31 104 28 105 30 106 29 107
REMARK H PARENT 99 25 67 36
REMARK Flexibility Score: inf
ROOT
ATOM      1  C   UNL A   1      39.713  34.116  30.131  1.00  0.00     0.188 C 
ENDROOT
BRANCH   1   2
ATOM      2  O   UNL A   1      40.971  33.747  30.678  1.00  0.00    -0.376 OA
BRANCH   2   3
ATOM      3  C   UNL A   1      42.105  34.067  29.894  1.00  0.00     0.202 C 
BRANCH   3   4
ATOM      4  C   UNL A   1      41.892  35.218  28.909  1.00  0.00     0.261 C 
BRANCH   4   5
ATOM      5  O   UNL A   1      42.533  35.082  27.629  1.00  0.00    -0.460 OA
BRANCH   5   6
ATOM      6  C   UNL A   1      43.820  35.160  27.243  1.00  0.00     0.338 C 
ATOM      7  O   UNL A   1      44.236  36.223  26.783  1.00  0.00    -0.246 OA
BRANCH   6   8
ATOM      8  C   UNL A   1      44.730  33.989  27.205  1.00  0.00     0.060 A 
ATOM      9  C   UNL A   1      44.724  33.008  26.215  1.00  0.00     0.016 A 
ATOM     10  C   UNL A   1      45.581  33.839  28.319  1.00  0.00     0.016 A 
ATOM     11  C   UNL A   1      45.467  31.849  26.384  1.00  0.00     0.010 A 
ATOM     12  C   UNL A   1      46.319  32.680  28.497  1.00  0.00     0.010 A 
ATOM     13  C   UNL A   1      46.195  31.661  27.560  1.00  0.00    -0.014 A 
BRANCH  13  14
ATOM     14  C   UNL A   1      46.717  30.325  27.804  1.00  0.00     0.031 A 
ATOM     15  C   UNL A   1      48.108  30.065  27.360  1.00  0.00     0.074 A 
ATOM     16  C   UNL A   1      45.968  29.390  28.422  1.00  0.00     0.049 A 
ATOM     17  N   UNL A   1      48.514  29.225  26.463  1.00  0.00    -0.248 NA
ATOM     18  C   UNL A   1      49.167  30.919  27.911  1.00  0.00     0.031 C 
ATOM     19  C   UNL A   1      44.702  29.600  29.134  1.00  0.00     0.029 A 
ATOM     20  N   UNL A   1      46.254  28.080  28.671  1.00  0.00    -0.354 N 
ATOM     21  C   UNL A   1      49.908  29.279  26.506  1.00  0.00     0.074 A 
ATOM     22  C   UNL A   1      50.240  30.449  27.275  1.00  0.00     0.031 C 
ATOM     23  C   UNL A   1      44.476  28.547  29.947  1.00  0.00     0.029 A 
ATOM     24  C   UNL A   1      45.499  27.546  29.709  1.00  0.00     0.049 A 
ATOM     25  H   UNL A   1      46.925  27.566  28.167  1.00  0.00     0.167 HD
ATOM     26  C   UNL A   1      50.673  28.221  26.120  1.00  0.00     0.034 A 
ATOM     27  C   UNL A   1      45.761  26.409  30.396  1.00  0.00     0.034 A 
ATOM     28  C   UNL A   1      49.935  27.304  25.287  1.00  0.00     0.049 A 
ATOM     29  C   UNL A   1      46.658  25.575  29.567  1.00  0.00     0.074 A 
ATOM     30  C   UNL A   1      49.257  27.384  24.087  1.00  0.00     0.029 A 
ATOM     31  N   UNL A   1      49.568  26.106  25.845  1.00  0.00    -0.354 N 
ATOM     32  N   UNL A   1      46.297  24.998  28.455  1.00  0.00    -0.248 NA
ATOM     33  C   UNL A   1      48.091  25.674  29.785  1.00  0.00     0.031 C 
ATOM     34  C   UNL A   1      48.188  26.448  24.198  1.00  0.00     0.029 A 
ATOM     35  C   UNL A   1      48.290  25.834  25.447  1.00  0.00     0.049 A 
ATOM     36  H   UNL A   1      50.126  25.542  26.429  1.00  0.00     0.167 HD
ATOM     37  C   UNL A   1      47.424  25.068  27.647  1.00  0.00     0.074 A 
ATOM     38  C   UNL A   1      48.525  25.362  28.561  1.00  0.00     0.031 C 
ATOM     39  C   UNL A   1      47.315  25.175  26.289  1.00  0.00     0.034 A 
BRANCH  26  40
ATOM     40  C   UNL A   1      51.958  27.782  26.809  1.00  0.00     0.023 A 
ATOM     41  C   UNL A   1      52.993  27.290  25.977  1.00  0.00     0.012 A 
ATOM     42  C   UNL A   1      52.085  27.527  28.193  1.00  0.00     0.148 A 
ATOM     43  C   UNL A   1      54.023  26.485  26.477  1.00  0.00     0.002 A 
ATOM     44  C   UNL A   1      53.151  26.786  28.695  1.00  0.00     0.091 A 
ATOM     45  F   UNL A   1      51.118  27.883  29.041  1.00  0.00    -0.205 F 
ATOM     46  C   UNL A   1      54.099  26.228  27.838  1.00  0.00     0.022 A 
BRANCH  44  47
ATOM     47  S   UNL A   1      53.319  26.462  30.456  1.00  0.00     0.127 S 
ATOM     48  O   UNL A   1      53.294  27.815  31.002  1.00  0.00    -0.237 OA
ATOM     49  O   UNL A   1      52.126  25.660  30.729  1.00  0.00    -0.237 OA
ATOM     50  O   UNL A   1      54.570  25.729  30.597  1.00  0.00    -0.744 OA
ENDBRANCH  44  47
ENDBRANCH  26  40
BRANCH  27  51
ATOM     51  C   UNL A   1      45.481  26.111  31.818  1.00  0.00     0.023 A 
ATOM     52  C   UNL A   1      44.850  24.902  32.166  1.00  0.00     0.012 A 
ATOM     53  C   UNL A   1      46.046  26.891  32.854  1.00  0.00     0.148 A 
ATOM     54  C   UNL A   1      44.800  24.474  33.499  1.00  0.00     0.002 A 
ATOM     55  C   UNL A   1      45.974  26.473  34.178  1.00  0.00     0.091 A 
ATOM     56  F   UNL A   1      46.733  27.995  32.534  1.00  0.00    -0.205 F 
ATOM     57  C   UNL A   1      45.362  25.258  34.503  1.00  0.00     0.022 A 
BRANCH  55  58
ATOM     58  S   UNL A   1      46.671  27.444  35.523  1.00  0.00     0.127 S 
ATOM     59  O   UNL A   1      48.104  27.388  35.229  1.00  0.00    -0.237 OA
ATOM     60  O   UNL A   1      46.053  28.749  35.308  1.00  0.00    -0.237 OA
ATOM     61  O   UNL A   1      46.289  26.751  36.747  1.00  0.00    -0.744 OA
ENDBRANCH  55  58
ENDBRANCH  27  51
BRANCH  39  62
ATOM     62  C   UNL A   1      45.978  24.891  25.652  1.00  0.00     0.023 A 
ATOM     63  C   UNL A   1      45.622  23.598  25.217  1.00  0.00     0.012 A 
ATOM     64  C   UNL A   1      44.997  25.899  25.665  1.00  0.00     0.148 A 
ATOM     65  C   UNL A   1      44.325  23.322  24.780  1.00  0.00     0.002 A 
ATOM     66  C   UNL A   1      43.695  25.608  25.276  1.00  0.00     0.091 A 
ATOM     67  F   UNL A   1      45.347  27.123  26.089  1.00  0.00    -0.205 F 
ATOM     68  C   UNL A   1      43.357  24.323  24.823  1.00  0.00     0.022 A 
BRANCH  66  69
ATOM     69  S   UNL A   1      42.374  26.812  25.446  1.00  0.00     0.127 S 
ATOM     70  O   UNL A   1      41.182  25.991  25.249  1.00  0.00    -0.237 OA
ATOM     71  O   UNL A   1      42.563  27.300  26.813  1.00  0.00    -0.237 OA
ATOM     72  O   UNL A   1      42.623  27.819  24.420  1.00  0.00    -0.744 OA
ENDBRANCH  66  69
ENDBRANCH  39  62
ENDBRANCH  13  14
ENDBRANCH   6   8
ENDBRANCH   5   6
ENDBRANCH   4   5
ENDBRANCH   3   4
ENDBRANCH   2   3
ENDBRANCH   1   2
BRANCH   1  73
ATOM     73  C   UNL A   1      38.656  34.541  31.177  1.00  0.00     0.188 C 
BRANCH  73  74
ATOM     74  O   UNL A   1      37.257  34.426  30.942  1.00  0.00    -0.376 OA
BRANCH  74  75
ATOM     75  C   UNL A   1      36.552  33.289  31.397  1.00  0.00     0.202 C 
BRANCH  75  76
ATOM     76  C   UNL A   1      36.368  32.132  30.407  1.00  0.00     0.261 C 
BRANCH  76  77
ATOM     77  O   UNL A   1      35.957  32.499  29.079  1.00  0.00    -0.460 OA
BRANCH  77  78
ATOM     78  C   UNL A   1      36.222  31.592  28.115  1.00  0.00     0.338 C 
ATOM     79  O   UNL A   1      37.287  31.420  27.525  1.00  0.00    -0.246 OA
BRANCH  78  80
ATOM     80  C   UNL A   1      35.033  30.774  27.823  1.00  0.00     0.060 A 
ATOM     81  C   UNL A   1      35.141  29.381  27.773  1.00  0.00     0.018 A 
ATOM     82  C   UNL A   1      33.836  31.393  27.466  1.00  0.00     0.018 A 
ATOM     83  C   UNL A   1      34.059  28.610  27.337  1.00  0.00     0.027 A 
ATOM     84  C   UNL A   1      32.767  30.616  26.997  1.00  0.00     0.027 A 
ATOM     85  C   UNL A   1      32.884  29.226  26.891  1.00  0.00     0.045 A 
BRANCH  85  86
ATOM     86  N   UNL A   1      31.851  28.438  26.315  1.00  0.00    -0.299 N 
ATOM     87  C   UNL A   1      31.144  27.499  27.125  1.00  0.00     0.259 C 
ATOM     88  C   UNL A   1      31.953  27.963  24.915  1.00  0.00     0.152 C 
ATOM     89  C   UNL A   1      30.647  26.397  26.222  1.00  0.00     0.248 C 
ATOM     90  O   UNL A   1      30.992  27.576  28.337  1.00  0.00    -0.271 OA
ATOM     91  C   UNL A   1      31.716  26.522  25.195  1.00  0.00     0.021 C 
ATOM     92  N   UNL A   1      30.840  25.034  26.723  1.00  0.00    -0.170 NA
ATOM     93  C   UNL A   1      32.307  25.325  25.137  1.00  0.00     0.097 C 
ATOM     94  N   UNL A   1      31.685  24.439  25.996  1.00  0.00    -0.154 NA
BRANCH  88  95
ATOM     95  C   UNL A   1      30.852  28.568  24.017  1.00  0.00    -0.020 A 
ATOM     96  C   UNL A   1      30.084  27.781  23.132  1.00  0.00     0.006 A 
ATOM     97  C   UNL A   1      30.534  29.934  24.080  1.00  0.00     0.022 A 
ATOM     98  C   UNL A   1      28.979  28.305  22.451  1.00  0.00     0.002 A 
ATOM     99  C   UNL A   1      29.426  30.457  23.402  1.00  0.00     0.018 A 
ATOM    100  C   UNL A   1      28.633  29.641  22.605  1.00  0.00     0.016 A 
ATOM    101  Br  UNL A   1      28.983  32.286  23.596  1.00  0.00    -0.051 Br
ENDBRANCH  88  95
BRANCH  93 102
ATOM    102  C   UNL A   1      33.614  24.905  24.620  1.00  0.00     0.002 A 
ATOM    103  C   UNL A   1      33.728  24.220  23.403  1.00  0.00     0.010 A 
ATOM    104  C   UNL A   1      34.703  24.895  25.508  1.00  0.00     0.010 A 
ATOM    105  C   UNL A   1      34.888  23.492  23.110  1.00  0.00     0.001 A 
ATOM    106  C   UNL A   1      35.856  24.165  25.216  1.00  0.00     0.001 A 
ATOM    107  C   UNL A   1      35.942  23.448  24.025  1.00  0.00     0.000 A 
ENDBRANCH  93 102
ENDBRANCH  85  86
ENDBRANCH  78  80
ENDBRANCH  77  78
ENDBRANCH  76  77
ENDBRANCH  75  76
ENDBRANCH  74  75
ENDBRANCH  73  74
ENDBRANCH   1  73
TORSDOF 23
ENDMDL
MODEL 3
REMARK VINA RESULT:      -9.2      5.588     11.426
REMARK SMILES O=C(OCCOCCOCCOC(=O)c1ccc(N2C(=O)[C@@H]3N=NC(c4ccccc4)=C3[C@H]2c2cccc(Br)c2)cc1)c1ccc(-c2c3nc(c(-c4cccc(S(=O)(=O)[O-])c4F)c4ccc([nH]4)c(-c4cccc(S(=O)(=O)[O-])c4F)c4nc(c(-c5cccc(S(=O)(=O)[O-])c5F)c5ccc2[nH]5)C=C4)C=C3)cc1
REMARK SMILES IDX 7 1 6 2 5 3 4 4 3 5 2 6 1 7 43 8 44 9 105 10 45 11 104 12
REMARK SMILES IDX 46 13 47 14 48 15 98 16 49 17 103 18 97 19 99 20 50 21
REMARK SMILES IDX 102 22 96 23 95 24 51 26 83 27 63 28 82 29 64 30 67 31 81 32
REMARK SMILES IDX 100 33 65 34 66 35 80 37 101 38 68 39 52 40 53 41 61 42
REMARK SMILES IDX 54 43 56 44 62 45 55 46 57 47 58 48 59 49 60 50 84 51 85 52
REMARK SMILES IDX 93 53 86 54 88 55 94 56 87 57 89 58 90 59 91 60 92 61 69 62
REMARK SMILES IDX 70 63 78 64 71 65 73 66 79 67 72 68 74 69 75 70 76 71 77 72
REMARK SMILES IDX 8 73 9 74 10 75 11 76 12 77 13 78 14 79 15 80 16 81 42 82
REMARK SMILES IDX 17 83 41 84 18 85 19 86 20 87 33 88 22 89 21 90 32 91 23 92
REMARK SMILES IDX 25 93 24 94 34 95 35 96 40 97 36 98 38 99 37 100 39 101
REMARK SMILES IDX 26 102 27 103 31 104 28 105 30 106 29 107
REMARK H PARENT 99 25 67 36
REMARK Flexibility Score: inf
ROOT
ATOM      1  C   UNL A   1      38.150  28.844  28.856  1.00  0.00     0.188 C 
ENDROOT
BRANCH   1   2
ATOM      2  O   UNL A   1      37.795  30.099  28.293  1.00  0.00    -0.376 OA
BRANCH   2   3
ATOM      3  C   UNL A   1      37.511  31.134  29.216  1.00  0.00     0.202 C 
BRANCH   3   4
ATOM      4  C   UNL A   1      36.034  31.256  29.597  1.00  0.00     0.261 C 
BRANCH   4   5
ATOM      5  O   UNL A   1      35.530  32.595  29.753  1.00  0.00    -0.460 OA
BRANCH   5   6
ATOM      6  C   UNL A   1      35.102  33.286  30.825  1.00  0.00     0.338 C 
ATOM      7  O   UNL A   1      34.052  33.922  30.737  1.00  0.00    -0.246 OA
BRANCH   6   8
ATOM      8  C   UNL A   1      35.903  33.447  32.063  1.00  0.00     0.060 A 
ATOM      9  C   UNL A   1      36.825  34.467  32.289  1.00  0.00     0.016 A 
ATOM     10  C   UNL A   1      35.768  32.416  33.016  1.00  0.00     0.016 A 
ATOM     11  C   UNL A   1      37.672  34.405  33.386  1.00  0.00     0.010 A 
ATOM     12  C   UNL A   1      36.618  32.345  34.109  1.00  0.00     0.010 A 
ATOM     13  C   UNL A   1      37.614  33.305  34.241  1.00  0.00    -0.014 A 
BRANCH  13  14
ATOM     14  C   UNL A   1      38.702  33.155  35.197  1.00  0.00     0.031 A 
ATOM     15  C   UNL A   1      38.444  33.635  36.576  1.00  0.00     0.074 A 
ATOM     16  C   UNL A   1      39.871  32.590  34.833  1.00  0.00     0.049 A 
ATOM     17  N   UNL A   1      39.042  34.590  37.212  1.00  0.00    -0.248 NA
ATOM     18  C   UNL A   1      37.311  33.044  37.299  1.00  0.00     0.031 C 
ATOM     19  C   UNL A   1      40.148  31.848  33.598  1.00  0.00     0.029 A 
ATOM     20  N   UNL A   1      41.015  32.431  35.558  1.00  0.00    -0.354 N 
ATOM     21  C   UNL A   1      38.516  34.563  38.505  1.00  0.00     0.074 A 
ATOM     22  C   UNL A   1      37.349  33.724  38.444  1.00  0.00     0.031 C 
ATOM     23  C   UNL A   1      41.259  31.103  33.774  1.00  0.00     0.029 A 
ATOM     24  C   UNL A   1      41.833  31.420  35.068  1.00  0.00     0.049 A 
ATOM     25  H   UNL A   1      41.238  32.977  36.345  1.00  0.00     0.167 HD
ATOM     26  C   UNL A   1      39.224  35.029  39.571  1.00  0.00     0.034 A 
ATOM     27  C   UNL A   1      42.848  30.812  35.726  1.00  0.00     0.034 A 
ATOM     28  C   UNL A   1      40.290  35.910  39.161  1.00  0.00     0.049 A 
ATOM     29  C   UNL A   1      43.276  31.706  36.824  1.00  0.00     0.074 A 
ATOM     30  C   UNL A   1      40.378  37.092  38.454  1.00  0.00     0.029 A 
ATOM     31  N   UNL A   1      41.570  35.425  39.244  1.00  0.00    -0.354 N 
ATOM     32  N   UNL A   1      43.878  32.849  36.642  1.00  0.00    -0.248 NA
ATOM     33  C   UNL A   1      42.704  31.502  38.144  1.00  0.00     0.031 C 
ATOM     34  C   UNL A   1      41.629  37.027  37.773  1.00  0.00     0.029 A 
ATOM     35  C   UNL A   1      42.241  35.823  38.123  1.00  0.00     0.049 A 
ATOM     36  H   UNL A   1      41.941  34.888  39.981  1.00  0.00     0.167 HD
ATOM     37  C   UNL A   1      43.381  33.666  37.649  1.00  0.00     0.074 A 
ATOM     38  C   UNL A   1      42.780  32.750  38.614  1.00  0.00     0.031 C 
ATOM     39  C   UNL A   1      43.241  35.013  37.461  1.00  0.00     0.034 A 
BRANCH  26  40
ATOM     40  C   UNL A   1      39.234  34.388  40.951  1.00  0.00     0.023 A 
ATOM     41  C   UNL A   1      39.193  35.264  42.063  1.00  0.00     0.012 A 
ATOM     42  C   UNL A   1      39.597  33.047  41.217  1.00  0.00     0.148 A 
ATOM     43  C   UNL A   1      39.610  34.862  43.337  1.00  0.00     0.002 A 
ATOM     44  C   UNL A   1      39.942  32.635  42.501  1.00  0.00     0.091 A 
ATOM     45  F   UNL A   1      39.739  32.173  40.220  1.00  0.00    -0.205 F 
ATOM     46  C   UNL A   1      39.992  33.547  43.555  1.00  0.00     0.022 A 
BRANCH  44  47
ATOM     47  S   UNL A   1      40.401  30.930  42.844  1.00  0.00     0.127 S 
ATOM     48  O   UNL A   1      41.717  30.854  42.217  1.00  0.00    -0.237 OA
ATOM     49  O   UNL A   1      40.409  30.910  44.307  1.00  0.00    -0.237 OA
ATOM     50  O   UNL A   1      39.350  30.119  42.245  1.00  0.00    -0.744 OA
ENDBRANCH  44  47
ENDBRANCH  26  40
BRANCH  27  51
ATOM     51  C   UNL A   1      43.305  29.409  35.615  1.00  0.00     0.023 A 
ATOM     52  C   UNL A   1      44.678  29.131  35.478  1.00  0.00     0.012 A 
ATOM     53  C   UNL A   1      42.430  28.332  35.887  1.00  0.00     0.148 A 
ATOM     54  C   UNL A   1      45.166  27.827  35.626  1.00  0.00     0.002 A 
ATOM     55  C   UNL A   1      42.916  27.035  36.011  1.00  0.00     0.091 A 
ATOM     56  F   UNL A   1      41.135  28.589  36.117  1.00  0.00    -0.205 F 
ATOM     57  C   UNL A   1      44.286  26.780  35.893  1.00  0.00     0.022 A 
BRANCH  55  58
ATOM     58  S   UNL A   1      41.832  25.639  36.346  1.00  0.00     0.127 S 
ATOM     59  O   UNL A   1      41.292  25.981  37.662  1.00  0.00    -0.237 OA
ATOM     60  O   UNL A   1      40.873  25.729  35.249  1.00  0.00    -0.237 OA
ATOM     61  O   UNL A   1      42.693  24.463  36.345  1.00  0.00    -0.744 OA
ENDBRANCH  55  58
ENDBRANCH  27  51
BRANCH  39  62
ATOM     62  C   UNL A   1      43.929  35.648  36.280  1.00  0.00     0.023 A 
ATOM     63  C   UNL A   1      43.341  35.669  35.000  1.00  0.00     0.012 A 
ATOM     64  C   UNL A   1      45.096  36.402  36.505  1.00  0.00     0.148 A 
ATOM     65  C   UNL A   1      43.916  36.401  33.959  1.00  0.00     0.002 A 
ATOM     66  C   UNL A   1      45.638  37.168  35.480  1.00  0.00     0.091 A 
ATOM     67  F   UNL A   1      45.642  36.381  37.731  1.00  0.00    -0.205 F 
ATOM     68  C   UNL A   1      45.057  37.162  34.202  1.00  0.00     0.022 A 
BRANCH  66  69
ATOM     69  S   UNL A   1      47.017  38.280  35.770  1.00  0.00     0.127 S 
ATOM     70  O   UNL A   1      48.092  37.352  36.114  1.00  0.00    -0.237 OA
ATOM     71  O   UNL A   1      47.172  38.940  34.472  1.00  0.00    -0.237 OA
ATOM     72  O   UNL A   1      46.588  39.174  36.840  1.00  0.00    -0.744 OA
ENDBRANCH  66  69
ENDBRANCH  39  62
ENDBRANCH  13  14
ENDBRANCH   6   8
ENDBRANCH   5   6
ENDBRANCH   4   5
ENDBRANCH   3   4
ENDBRANCH   2   3
ENDBRANCH   1   2
BRANCH   1  73
ATOM     73  C   UNL A   1      39.616  28.748  29.342  1.00  0.00     0.188 C 
BRANCH  73  74
ATOM     74  O   UNL A   1      40.636  28.115  28.577  1.00  0.00    -0.376 OA
BRANCH  74  75
ATOM     75  C   UNL A   1      40.312  27.053  27.703  1.00  0.00     0.202 C 
BRANCH  75  76
ATOM     76  C   UNL A   1      41.272  25.858  27.661  1.00  0.00     0.261 C 
BRANCH  76  77
ATOM     77  O   UNL A   1      40.763  24.622  28.192  1.00  0.00    -0.460 OA
BRANCH  77  78
ATOM     78  C   UNL A   1      40.816  23.562  27.358  1.00  0.00     0.338 C 
ATOM     79  O   UNL A   1      41.809  22.907  27.047  1.00  0.00    -0.246 OA
BRANCH  78  80
ATOM     80  C   UNL A   1      39.481  23.247  26.825  1.00  0.00     0.060 A 
ATOM     81  C   UNL A   1      39.262  22.035  26.165  1.00  0.00     0.018 A 
ATOM     82  C   UNL A   1      38.475  24.213  26.859  1.00  0.00     0.018 A 
ATOM     83  C   UNL A   1      38.046  21.801  25.516  1.00  0.00     0.027 A 
ATOM     84  C   UNL A   1      37.272  23.985  26.176  1.00  0.00     0.027 A 
ATOM     85  C   UNL A   1      37.064  22.797  25.468  1.00  0.00     0.045 A 
BRANCH  85  86
ATOM     86  N   UNL A   1      35.897  22.598  24.681  1.00  0.00    -0.299 N 
ATOM     87  C   UNL A   1      35.842  23.125  23.355  1.00  0.00     0.259 C 
ATOM     88  C   UNL A   1      34.555  22.591  25.307  1.00  0.00     0.152 C 
ATOM     89  C   UNL A   1      34.392  23.380  23.023  1.00  0.00     0.248 C 
ATOM     90  O   UNL A   1      36.806  23.343  22.634  1.00  0.00    -0.271 OA
ATOM     91  C   UNL A   1      33.935  23.610  24.420  1.00  0.00     0.021 C 
ATOM     92  N   UNL A   1      34.108  24.663  22.376  1.00  0.00    -0.170 NA
ATOM     93  C   UNL A   1      33.405  24.837  24.432  1.00  0.00     0.097 C 
ATOM     94  N   UNL A   1      33.439  25.389  23.165  1.00  0.00    -0.154 NA
BRANCH  88  95
ATOM     95  C   UNL A   1      33.865  21.215  25.180  1.00  0.00    -0.020 A 
ATOM     96  C   UNL A   1      32.461  21.072  25.193  1.00  0.00     0.006 A 
ATOM     97  C   UNL A   1      34.614  20.042  24.999  1.00  0.00     0.022 A 
ATOM     98  C   UNL A   1      31.843  19.849  24.907  1.00  0.00     0.002 A 
ATOM     99  C   UNL A   1      33.996  18.820  24.708  1.00  0.00     0.018 A 
ATOM    100  C   UNL A   1      32.612  18.724  24.640  1.00  0.00     0.016 A 
ATOM    101  Br  UNL A   1      35.055  17.287  24.375  1.00  0.00    -0.051 Br
ENDBRANCH  88  95
BRANCH  93 102
ATOM    102  C   UNL A   1      33.124  25.770  25.529  1.00  0.00     0.002 A 
ATOM    103  C   UNL A   1      31.865  25.813  26.141  1.00  0.00     0.010 A 
ATOM    104  C   UNL A   1      34.013  26.840  25.729  1.00  0.00     0.010 A 
ATOM    105  C   UNL A   1      31.485  26.934  26.891  1.00  0.00     0.001 A 
ATOM    106  C   UNL A   1      33.629  27.957  26.472  1.00  0.00     0.001 A 
ATOM    107  C   UNL A   1      32.358  28.013  27.038  1.00  0.00     0.000 A 
ENDBRANCH  93 102
ENDBRANCH  85  86
ENDBRANCH  78  80
ENDBRANCH  77  78
ENDBRANCH  76  77
ENDBRANCH  75  76
ENDBRANCH  74  75
ENDBRANCH  73  74
ENDBRANCH   1  73
TORSDOF 23
ENDMDL
