MODEL 1
REMARK VINA RESULT:     -11.0      0.000      0.000
REMARK SMILES Cc1ccc(-c2nc(NC(=O)[C@H]3[C@@H](C(=O)OCCOCCOCCOC(=O)c4ccc(-c5c6nc(c(-c7cccc(S(=O)(=O)[O-])c7F)c7ccc([nH]7)c(-c7cccc(S(=O)(=O)[O-])c7F)c7nc(c(-c8cccc(S(=O)(=O)[O-])c8F)c8ccc5[nH]8)C=C7)C=C6)cc4)[C@@H]4CC[C@H]3O4)sc2C)cc1
REMARK SMILES IDX 20 1 19 2 18 3 17 4 16 5 14 6 15 7 13 8 12 9 94 10 91 11
REMARK SMILES IDX 93 12 95 13 92 14 10 15 9 16 11 18 8 19 6 20 7 21 97 22
REMARK SMILES IDX 96 23 98 24 5 25 1 26 2 27 3 28 100 29 4 30 99 31 21 32
REMARK SMILES IDX 22 33 23 34 24 35 25 36 26 37 27 38 28 39 29 40 90 41 30 42
REMARK SMILES IDX 89 43 31 44 32 45 33 46 83 47 34 48 88 49 82 50 84 51 35 52
REMARK SMILES IDX 87 53 81 54 80 55 36 57 68 58 48 59 67 60 49 61 52 62 66 63
REMARK SMILES IDX 85 64 50 65 51 66 65 68 86 69 53 70 37 71 38 72 46 73 39 74
REMARK SMILES IDX 41 75 47 76 40 77 42 78 43 79 44 80 45 81 69 82 70 83 78 84
REMARK SMILES IDX 71 85 73 86 79 87 72 88 74 89 75 90 76 91 77 92 54 93 55 94
REMARK SMILES IDX 63 95 56 96 58 97 64 98 57 99 59 100 60 101 61 102 62 103
REMARK H PARENT 9 17 84 56 52 67
REMARK Flexibility Score: inf
ROOT
ATOM      1  C   UNL A   1      34.862  31.828  28.136  1.00  0.00     0.188 C 
ENDROOT
BRANCH   1   2
ATOM      2  O   UNL A   1      34.759  30.680  27.302  1.00  0.00    -0.376 OA
BRANCH   2   3
ATOM      3  C   UNL A   1      33.583  29.885  27.401  1.00  0.00     0.202 C 
BRANCH   3   4
ATOM      4  C   UNL A   1      33.490  28.411  26.965  1.00  0.00     0.261 C 
BRANCH   4   5
ATOM      5  O   UNL A   1      34.136  27.847  25.781  1.00  0.00    -0.463 OA
BRANCH   5   6
ATOM      6  C   UNL A   1      33.547  28.261  24.635  1.00  0.00     0.312 C 
ATOM      7  O   UNL A   1      34.128  29.092  23.955  1.00  0.00    -0.252 OA
BRANCH   6   8
ATOM      8  C   UNL A   1      32.099  27.887  24.252  1.00  0.00     0.143 C 
ATOM      9  C   UNL A   1      31.822  26.957  23.084  1.00  0.00     0.124 C 
ATOM     10  C   UNL A   1      30.955  27.928  22.186  1.00  0.00     0.132 C 
ATOM     11  C   UNL A   1      31.152  29.083  23.985  1.00  0.00     0.133 C 
ATOM     12  C   UNL A   1      29.490  28.046  22.655  1.00  0.00     0.035 C 
ATOM     13  O   UNL A   1      31.401  29.258  22.590  1.00  0.00    -0.373 OA
ATOM     14  C   UNL A   1      29.648  28.740  23.996  1.00  0.00     0.036 C 
BRANCH   9  15
ATOM     15  C   UNL A   1      33.039  26.313  22.375  1.00  0.00     0.232 C 
ATOM     16  N   UNL A   1      33.596  25.059  22.570  1.00  0.00    -0.302 N 
ATOM     17  H   UNL A   1      34.284  24.859  21.894  1.00  0.00     0.172 HD
ATOM     18  O   UNL A   1      33.638  27.003  21.533  1.00  0.00    -0.274 OA
BRANCH  16  19
ATOM     19  C   UNL A   1      33.441  24.013  23.469  1.00  0.00     0.190 A 
ATOM     20  C   UNL A   1      33.426  21.935  24.391  1.00  0.00     0.086 A 
ATOM     21  N   UNL A   1      33.371  22.700  23.189  1.00  0.00    -0.220 NA
ATOM     22  C   UNL A   1      33.557  22.737  25.500  1.00  0.00     0.031 A 
ATOM     23  S   UNL A   1      33.525  24.363  25.088  1.00  0.00    -0.101 S 
ATOM     24  C   UNL A   1      33.665  22.324  26.896  1.00  0.00     0.059 C 
BRANCH  20  25
ATOM     25  C   UNL A   1      33.444  20.455  24.632  1.00  0.00     0.001 A 
ATOM     26  C   UNL A   1      34.018  16.132  24.035  1.00  0.00     0.044 C 
ATOM     27  C   UNL A   1      33.803  17.601  24.281  1.00  0.00    -0.051 A 
ATOM     28  C   UNL A   1      32.545  18.215  24.159  1.00  0.00     0.004 A 
ATOM     29  C   UNL A   1      34.884  18.420  24.577  1.00  0.00     0.004 A 
ATOM     30  C   UNL A   1      32.369  19.621  24.314  1.00  0.00     0.010 A 
ATOM     31  C   UNL A   1      34.686  19.798  24.783  1.00  0.00     0.010 A 
ENDBRANCH  20  25
ENDBRANCH  16  19
ENDBRANCH   9  15
ENDBRANCH   6   8
ENDBRANCH   5   6
ENDBRANCH   4   5
ENDBRANCH   3   4
ENDBRANCH   2   3
ENDBRANCH   1   2
BRANCH   1  32
ATOM     32  C   UNL A   1      33.743  32.796  27.766  1.00  0.00     0.188 C 
BRANCH  32  33
ATOM     33  O   UNL A   1      33.977  34.068  28.357  1.00  0.00    -0.376 OA
BRANCH  33  34
ATOM     34  C   UNL A   1      32.865  34.942  28.451  1.00  0.00     0.202 C 
BRANCH  34  35
ATOM     35  C   UNL A   1      33.106  35.980  29.546  1.00  0.00     0.261 C 
BRANCH  35  36
ATOM     36  O   UNL A   1      32.696  35.403  30.813  1.00  0.00    -0.460 OA
BRANCH  36  37
ATOM     37  C   UNL A   1      33.531  35.634  31.871  1.00  0.00     0.338 C 
ATOM     38  O   UNL A   1      33.807  36.765  32.270  1.00  0.00    -0.246 OA
BRANCH  37  39
ATOM     39  C   UNL A   1      34.176  34.352  32.370  1.00  0.00     0.060 A 
ATOM     40  C   UNL A   1      34.580  34.153  33.691  1.00  0.00     0.016 A 
ATOM     41  C   UNL A   1      34.636  33.405  31.476  1.00  0.00     0.016 A 
ATOM     42  C   UNL A   1      35.554  33.138  34.042  1.00  0.00     0.010 A 
ATOM     43  C   UNL A   1      35.621  32.446  31.866  1.00  0.00     0.010 A 
ATOM     44  C   UNL A   1      36.196  32.301  33.104  1.00  0.00    -0.014 A 
BRANCH  44  45
ATOM     45  C   UNL A   1      37.610  31.661  33.296  1.00  0.00     0.031 A 
ATOM     46  C   UNL A   1      38.489  30.580  32.436  1.00  0.00     0.074 A 
ATOM     47  C   UNL A   1      38.431  32.609  33.786  1.00  0.00     0.049 A 
ATOM     48  N   UNL A   1      39.809  30.419  32.336  1.00  0.00    -0.248 NA
ATOM     49  C   UNL A   1      37.852  29.512  31.658  1.00  0.00     0.031 C 
ATOM     50  C   UNL A   1      38.833  33.866  33.158  1.00  0.00     0.029 A 
ATOM     51  N   UNL A   1      39.038  32.633  35.011  1.00  0.00    -0.354 N 
ATOM     52  C   UNL A   1      40.139  29.513  31.270  1.00  0.00     0.074 A 
ATOM     53  C   UNL A   1      38.850  28.956  30.939  1.00  0.00     0.031 C 
ATOM     54  C   UNL A   1      39.636  34.562  33.972  1.00  0.00     0.029 A 
ATOM     55  C   UNL A   1      39.846  33.736  35.133  1.00  0.00     0.049 A 
ATOM     56  H   UNL A   1      38.912  31.952  35.710  1.00  0.00     0.167 HD
ATOM     57  C   UNL A   1      41.399  29.362  30.665  1.00  0.00     0.034 A 
ATOM     58  C   UNL A   1      40.678  34.089  36.118  1.00  0.00     0.034 A 
ATOM     59  C   UNL A   1      42.534  29.938  31.430  1.00  0.00     0.049 A 
ATOM     60  C   UNL A   1      41.786  33.073  36.192  1.00  0.00     0.074 A 
ATOM     61  C   UNL A   1      43.685  30.643  31.082  1.00  0.00     0.029 A 
ATOM     62  N   UNL A   1      42.606  29.786  32.809  1.00  0.00    -0.354 N 
ATOM     63  N   UNL A   1      42.348  32.504  35.137  1.00  0.00    -0.248 NA
ATOM     64  C   UNL A   1      42.439  32.679  37.429  1.00  0.00     0.031 C 
ATOM     65  C   UNL A   1      44.428  30.910  32.260  1.00  0.00     0.029 A 
ATOM     66  C   UNL A   1      43.651  30.531  33.344  1.00  0.00     0.049 A 
ATOM     67  H   UNL A   1      41.997  29.222  33.339  1.00  0.00     0.167 HD
ATOM     68  C   UNL A   1      43.273  31.557  35.552  1.00  0.00     0.074 A 
ATOM     69  C   UNL A   1      43.364  31.809  36.986  1.00  0.00     0.031 C 
ATOM     70  C   UNL A   1      43.852  30.567  34.782  1.00  0.00     0.034 A 
BRANCH  57  71
ATOM     71  C   UNL A   1      41.781  28.842  29.170  1.00  0.00     0.023 A 
ATOM     72  C   UNL A   1      42.193  29.817  28.201  1.00  0.00     0.012 A 
ATOM     73  C   UNL A   1      41.578  27.558  28.603  1.00  0.00     0.148 A 
ATOM     74  C   UNL A   1      42.206  29.618  26.802  1.00  0.00     0.002 A 
ATOM     75  C   UNL A   1      41.688  27.328  27.198  1.00  0.00     0.091 A 
ATOM     76  F   UNL A   1      41.267  26.539  29.408  1.00  0.00    -0.205 F 
ATOM     77  C   UNL A   1      41.940  28.367  26.295  1.00  0.00     0.022 A 
BRANCH  75  78
ATOM     78  S   UNL A   1      41.550  25.699  26.417  1.00  0.00     0.127 S 
ATOM     79  O   UNL A   1      42.838  25.084  26.736  1.00  0.00    -0.237 OA
ATOM     80  O   UNL A   1      40.411  25.113  27.124  1.00  0.00    -0.237 OA
ATOM     81  O   UNL A   1      41.332  25.966  25.001  1.00  0.00    -0.744 OA
ENDBRANCH  75  78
ENDBRANCH  57  71
BRANCH  58  82
ATOM     82  C   UNL A   1      39.874  34.991  37.020  1.00  0.00     0.023 A 
ATOM     83  C   UNL A   1      38.987  34.310  37.896  1.00  0.00     0.012 A 
ATOM     84  C   UNL A   1      40.524  36.142  37.533  1.00  0.00     0.148 A 
ATOM     85  C   UNL A   1      38.940  34.615  39.269  1.00  0.00     0.002 A 
ATOM     86  C   UNL A   1      40.506  36.413  38.909  1.00  0.00     0.091 A 
ATOM     87  F   UNL A   1      41.332  36.827  36.709  1.00  0.00    -0.205 F 
ATOM     88  C   UNL A   1      39.744  35.630  39.785  1.00  0.00     0.022 A 
BRANCH  86  89
ATOM     89  S   UNL A   1      41.685  37.590  39.599  1.00  0.00     0.127 S 
ATOM     90  O   UNL A   1      42.170  36.888  40.782  1.00  0.00    -0.237 OA
ATOM     91  O   UNL A   1      42.675  37.745  38.533  1.00  0.00    -0.237 OA
ATOM     92  O   UNL A   1      40.879  38.781  39.848  1.00  0.00    -0.744 OA
ENDBRANCH  86  89
ENDBRANCH  58  82
BRANCH  70  93
ATOM     93  C   UNL A   1      44.566  29.333  35.318  1.00  0.00     0.023 A 
ATOM     94  C   UNL A   1      45.886  29.423  35.781  1.00  0.00     0.012 A 
ATOM     95  C   UNL A   1      43.824  28.182  35.708  1.00  0.00     0.148 A 
ATOM     96  C   UNL A   1      46.442  28.436  36.596  1.00  0.00     0.002 A 
ATOM     97  C   UNL A   1      44.327  27.296  36.650  1.00  0.00     0.091 A 
ATOM     98  F   UNL A   1      42.615  27.935  35.181  1.00  0.00    -0.205 F 
ATOM     99  C   UNL A   1      45.649  27.401  37.074  1.00  0.00     0.022 A 
BRANCH  97 100
ATOM    100  S   UNL A   1      43.204  26.193  37.528  1.00  0.00     0.127 S 
ATOM    101  O   UNL A   1      41.920  26.873  37.382  1.00  0.00    -0.237 OA
ATOM    102  O   UNL A   1      43.324  24.946  36.770  1.00  0.00    -0.237 OA
ATOM    103  O   UNL A   1      43.749  26.120  38.879  1.00  0.00    -0.744 OA
ENDBRANCH  97 100
ENDBRANCH  70  93
ENDBRANCH  44  45
ENDBRANCH  37  39
ENDBRANCH  36  37
ENDBRANCH  35  36
ENDBRANCH  34  35
ENDBRANCH  33  34
ENDBRANCH  32  33
ENDBRANCH   1  32
TORSDOF 23
ENDMDL
MODEL 2
REMARK VINA RESULT:     -10.9      4.464     10.876
REMARK SMILES Cc1ccc(-c2nc(NC(=O)[C@H]3[C@@H](C(=O)OCCOCCOCCOC(=O)c4ccc(-c5c6nc(c(-c7cccc(S(=O)(=O)[O-])c7F)c7ccc([nH]7)c(-c7cccc(S(=O)(=O)[O-])c7F)c7nc(c(-c8cccc(S(=O)(=O)[O-])c8F)c8ccc5[nH]8)C=C7)C=C6)cc4)[C@@H]4CC[C@H]3O4)sc2C)cc1
REMARK SMILES IDX 20 1 19 2 18 3 17 4 16 5 14 6 15 7 13 8 12 9 94 10 91 11
REMARK SMILES IDX 93 12 95 13 92 14 10 15 9 16 11 18 8 19 6 20 7 21 97 22
REMARK SMILES IDX 96 23 98 24 5 25 1 26 2 27 3 28 100 29 4 30 99 31 21 32
REMARK SMILES IDX 22 33 23 34 24 35 25 36 26 37 27 38 28 39 29 40 90 41 30 42
REMARK SMILES IDX 89 43 31 44 32 45 33 46 83 47 34 48 88 49 82 50 84 51 35 52
REMARK SMILES IDX 87 53 81 54 80 55 36 57 68 58 48 59 67 60 49 61 52 62 66 63
REMARK SMILES IDX 85 64 50 65 51 66 65 68 86 69 53 70 37 71 38 72 46 73 39 74
REMARK SMILES IDX 41 75 47 76 40 77 42 78 43 79 44 80 45 81 69 82 70 83 78 84
REMARK SMILES IDX 71 85 73 86 79 87 72 88 74 89 75 90 76 91 77 92 54 93 55 94
REMARK SMILES IDX 63 95 56 96 58 97 64 98 57 99 59 100 60 101 61 102 62 103
REMARK H PARENT 9 17 84 56 52 67
REMARK Flexibility Score: inf
ROOT
ATOM      1  C   UNL A   1      40.009  22.212  26.608  1.00  0.00     0.188 C 
ENDROOT
BRANCH   1   2
ATOM      2  O   UNL A   1      38.597  22.187  26.433  1.00  0.00    -0.376 OA
BRANCH   2   3
ATOM      3  C   UNL A   1      38.077  21.514  25.292  1.00  0.00     0.202 C 
BRANCH   3   4
ATOM      4  C   UNL A   1      37.160  22.166  24.241  1.00  0.00     0.261 C 
BRANCH   4   5
ATOM      5  O   UNL A   1      35.779  21.767  23.974  1.00  0.00    -0.463 OA
BRANCH   5   6
ATOM      6  C   UNL A   1      34.892  22.704  24.384  1.00  0.00     0.312 C 
ATOM      7  O   UNL A   1      35.152  23.878  24.170  1.00  0.00    -0.252 OA
BRANCH   6   8
ATOM      8  C   UNL A   1      33.676  22.378  25.276  1.00  0.00     0.143 C 
ATOM      9  C   UNL A   1      32.270  22.374  24.701  1.00  0.00     0.124 C 
ATOM     10  C   UNL A   1      31.621  23.493  25.611  1.00  0.00     0.132 C 
ATOM     11  C   UNL A   1      33.535  23.245  26.552  1.00  0.00     0.133 C 
ATOM     12  C   UNL A   1      31.227  22.985  27.014  1.00  0.00     0.035 C 
ATOM     13  O   UNL A   1      32.760  24.315  26.010  1.00  0.00    -0.373 OA
ATOM     14  C   UNL A   1      32.582  22.678  27.625  1.00  0.00     0.036 C 
BRANCH   9  15
ATOM     15  C   UNL A   1      32.119  22.594  23.176  1.00  0.00     0.232 C 
ATOM     16  N   UNL A   1      32.163  23.780  22.459  1.00  0.00    -0.302 N 
ATOM     17  H   UNL A   1      32.167  23.617  21.488  1.00  0.00     0.172 HD
ATOM     18  O   UNL A   1      31.893  21.593  22.475  1.00  0.00    -0.274 OA
BRANCH  16  19
ATOM     19  C   UNL A   1      32.203  25.137  22.752  1.00  0.00     0.190 A 
ATOM     20  C   UNL A   1      31.958  27.129  23.818  1.00  0.00     0.086 A 
ATOM     21  N   UNL A   1      31.480  25.793  23.675  1.00  0.00    -0.220 NA
ATOM     22  C   UNL A   1      33.033  27.376  22.998  1.00  0.00     0.031 A 
ATOM     23  S   UNL A   1      33.384  26.051  22.031  1.00  0.00    -0.101 S 
ATOM     24  C   UNL A   1      33.802  28.611  22.878  1.00  0.00     0.059 C 
BRANCH  20  25
ATOM     25  C   UNL A   1      31.548  28.242  24.736  1.00  0.00     0.001 A 
ATOM     26  C   UNL A   1      31.343  32.176  26.700  1.00  0.00     0.044 C 
ATOM     27  C   UNL A   1      31.380  30.815  26.058  1.00  0.00    -0.051 A 
ATOM     28  C   UNL A   1      32.048  29.723  26.636  1.00  0.00     0.004 A 
ATOM     29  C   UNL A   1      30.798  30.619  24.814  1.00  0.00     0.004 A 
ATOM     30  C   UNL A   1      32.147  28.461  25.979  1.00  0.00     0.010 A 
ATOM     31  C   UNL A   1      30.855  29.352  24.203  1.00  0.00     0.010 A 
ENDBRANCH  20  25
ENDBRANCH  16  19
ENDBRANCH   9  15
ENDBRANCH   6   8
ENDBRANCH   5   6
ENDBRANCH   4   5
ENDBRANCH   3   4
ENDBRANCH   2   3
ENDBRANCH   1   2
BRANCH   1  32
ATOM     32  C   UNL A   1      40.556  20.816  26.333  1.00  0.00     0.188 C 
BRANCH  32  33
ATOM     33  O   UNL A   1      41.907  20.721  26.766  1.00  0.00    -0.376 OA
BRANCH  33  34
ATOM     34  C   UNL A   1      42.857  20.300  25.803  1.00  0.00     0.202 C 
BRANCH  34  35
ATOM     35  C   UNL A   1      43.822  21.442  25.485  1.00  0.00     0.261 C 
BRANCH  35  36
ATOM     36  O   UNL A   1      43.440  22.591  26.286  1.00  0.00    -0.460 OA
BRANCH  36  37
ATOM     37  C   UNL A   1      43.408  23.791  25.629  1.00  0.00     0.338 C 
ATOM     38  O   UNL A   1      44.048  24.006  24.600  1.00  0.00    -0.246 OA
BRANCH  37  39
ATOM     39  C   UNL A   1      42.625  24.836  26.404  1.00  0.00     0.060 A 
ATOM     40  C   UNL A   1      41.813  25.799  25.801  1.00  0.00     0.016 A 
ATOM     41  C   UNL A   1      42.883  25.054  27.744  1.00  0.00     0.016 A 
ATOM     42  C   UNL A   1      41.437  27.016  26.494  1.00  0.00     0.010 A 
ATOM     43  C   UNL A   1      42.518  26.286  28.369  1.00  0.00     0.010 A 
ATOM     44  C   UNL A   1      41.872  27.352  27.794  1.00  0.00    -0.014 A 
BRANCH  44  45
ATOM     45  C   UNL A   1      42.024  28.811  28.338  1.00  0.00     0.031 A 
ATOM     46  C   UNL A   1      41.031  29.822  29.158  1.00  0.00     0.074 A 
ATOM     47  C   UNL A   1      43.280  28.951  28.801  1.00  0.00     0.049 A 
ATOM     48  N   UNL A   1      41.310  30.815  30.002  1.00  0.00    -0.248 NA
ATOM     49  C   UNL A   1      39.576  29.790  28.976  1.00  0.00     0.031 C 
ATOM     50  C   UNL A   1      43.922  28.231  29.900  1.00  0.00     0.029 A 
ATOM     51  N   UNL A   1      44.261  29.770  28.314  1.00  0.00    -0.354 N 
ATOM     52  C   UNL A   1      40.125  31.263  30.681  1.00  0.00     0.074 A 
ATOM     53  C   UNL A   1      39.082  30.600  29.936  1.00  0.00     0.031 C 
ATOM     54  C   UNL A   1      45.193  28.626  30.041  1.00  0.00     0.029 A 
ATOM     55  C   UNL A   1      45.396  29.681  29.081  1.00  0.00     0.049 A 
ATOM     56  H   UNL A   1      44.166  30.344  27.520  1.00  0.00     0.167 HD
ATOM     57  C   UNL A   1      40.080  32.040  31.852  1.00  0.00     0.034 A 
ATOM     58  C   UNL A   1      46.539  30.371  29.010  1.00  0.00     0.034 A 
ATOM     59  C   UNL A   1      41.350  32.726  32.198  1.00  0.00     0.049 A 
ATOM     60  C   UNL A   1      46.246  31.812  29.327  1.00  0.00     0.074 A 
ATOM     61  C   UNL A   1      42.031  32.973  33.389  1.00  0.00     0.029 A 
ATOM     62  N   UNL A   1      42.116  33.333  31.211  1.00  0.00    -0.354 N 
ATOM     63  N   UNL A   1      45.387  32.213  30.250  1.00  0.00    -0.248 NA
ATOM     64  C   UNL A   1      46.955  32.930  28.727  1.00  0.00     0.031 C 
ATOM     65  C   UNL A   1      43.202  33.718  33.097  1.00  0.00     0.029 A 
ATOM     66  C   UNL A   1      43.334  33.774  31.718  1.00  0.00     0.049 A 
ATOM     67  H   UNL A   1      41.834  33.438  30.273  1.00  0.00     0.167 HD
ATOM     68  C   UNL A   1      45.291  33.597  30.231  1.00  0.00     0.074 A 
ATOM     69  C   UNL A   1      46.384  33.980  29.344  1.00  0.00     0.031 C 
ATOM     70  C   UNL A   1      44.314  34.371  30.828  1.00  0.00     0.034 A 
BRANCH  57  71
ATOM     71  C   UNL A   1      38.921  32.137  32.993  1.00  0.00     0.023 A 
ATOM     72  C   UNL A   1      37.720  32.857  32.676  1.00  0.00     0.012 A 
ATOM     73  C   UNL A   1      38.997  31.773  34.362  1.00  0.00     0.148 A 
ATOM     74  C   UNL A   1      36.795  33.350  33.622  1.00  0.00     0.002 A 
ATOM     75  C   UNL A   1      38.009  32.185  35.308  1.00  0.00     0.091 A 
ATOM     76  F   UNL A   1      40.028  31.032  34.777  1.00  0.00    -0.205 F 
ATOM     77  C   UNL A   1      36.946  33.022  34.950  1.00  0.00     0.022 A 
BRANCH  75  78
ATOM     78  S   UNL A   1      37.983  31.671  37.044  1.00  0.00     0.127 S 
ATOM     79  O   UNL A   1      37.791  30.224  36.943  1.00  0.00    -0.237 OA
ATOM     80  O   UNL A   1      39.311  32.072  37.506  1.00  0.00    -0.237 OA
ATOM     81  O   UNL A   1      36.870  32.395  37.645  1.00  0.00    -0.744 OA
ENDBRANCH  75  78
ENDBRANCH  57  71
BRANCH  58  82
ATOM     82  C   UNL A   1      47.457  29.539  28.150  1.00  0.00     0.023 A 
ATOM     83  C   UNL A   1      48.081  28.457  28.828  1.00  0.00     0.012 A 
ATOM     84  C   UNL A   1      47.058  29.310  26.808  1.00  0.00     0.148 A 
ATOM     85  C   UNL A   1      48.085  27.159  28.283  1.00  0.00     0.002 A 
ATOM     86  C   UNL A   1      47.026  28.007  26.290  1.00  0.00     0.091 A 
ATOM     87  F   UNL A   1      46.507  30.332  26.134  1.00  0.00    -0.205 F 
ATOM     88  C   UNL A   1      47.505  26.925  27.037  1.00  0.00     0.022 A 
BRANCH  86  89
ATOM     89  S   UNL A   1      46.106  27.677  24.774  1.00  0.00     0.127 S 
ATOM     90  O   UNL A   1      44.734  27.969  25.173  1.00  0.00    -0.237 OA
ATOM     91  O   UNL A   1      46.678  28.623  23.816  1.00  0.00    -0.237 OA
ATOM     92  O   UNL A   1      46.404  26.277  24.487  1.00  0.00    -0.744 OA
ENDBRANCH  86  89
ENDBRANCH  58  82
BRANCH  70  93
ATOM     93  C   UNL A   1      44.016  35.828  30.501  1.00  0.00     0.023 A 
ATOM     94  C   UNL A   1      44.693  36.858  31.169  1.00  0.00     0.012 A 
ATOM     95  C   UNL A   1      43.352  36.175  29.290  1.00  0.00     0.148 A 
ATOM     96  C   UNL A   1      44.724  38.159  30.664  1.00  0.00     0.002 A 
ATOM     97  C   UNL A   1      43.528  37.424  28.713  1.00  0.00     0.091 A 
ATOM     98  F   UNL A   1      42.549  35.294  28.673  1.00  0.00    -0.205 F 
ATOM     99  C   UNL A   1      44.188  38.431  29.411  1.00  0.00     0.022 A 
BRANCH  97 100
ATOM    100  S   UNL A   1      43.157  37.661  26.965  1.00  0.00     0.127 S 
ATOM    101  O   UNL A   1      41.711  37.864  26.976  1.00  0.00    -0.237 OA
ATOM    102  O   UNL A   1      43.939  38.853  26.631  1.00  0.00    -0.237 OA
ATOM    103  O   UNL A   1      43.635  36.441  26.324  1.00  0.00    -0.744 OA
ENDBRANCH  97 100
ENDBRANCH  70  93
ENDBRANCH  44  45
ENDBRANCH  37  39
ENDBRANCH  36  37
ENDBRANCH  35  36
ENDBRANCH  34  35
ENDBRANCH  33  34
ENDBRANCH  32  33
ENDBRANCH   1  32
TORSDOF 23
ENDMDL
MODEL 3
REMARK VINA RESULT:     -10.7      5.393     11.704
REMARK SMILES Cc1ccc(-c2nc(NC(=O)[C@H]3[C@@H](C(=O)OCCOCCOCCOC(=O)c4ccc(-c5c6nc(c(-c7cccc(S(=O)(=O)[O-])c7F)c7ccc([nH]7)c(-c7cccc(S(=O)(=O)[O-])c7F)c7nc(c(-c8cccc(S(=O)(=O)[O-])c8F)c8ccc5[nH]8)C=C7)C=C6)cc4)[C@@H]4CC[C@H]3O4)sc2C)cc1
REMARK SMILES IDX 20 1 19 2 18 3 17 4 16 5 14 6 15 7 13 8 12 9 94 10 91 11
REMARK SMILES IDX 93 12 95 13 92 14 10 15 9 16 11 18 8 19 6 20 7 21 97 22
REMARK SMILES IDX 96 23 98 24 5 25 1 26 2 27 3 28 100 29 4 30 99 31 21 32
REMARK SMILES IDX 22 33 23 34 24 35 25 36 26 37 27 38 28 39 29 40 90 41 30 42
REMARK SMILES IDX 89 43 31 44 32 45 33 46 83 47 34 48 88 49 82 50 84 51 35 52
REMARK SMILES IDX 87 53 81 54 80 55 36 57 68 58 48 59 67 60 49 61 52 62 66 63
REMARK SMILES IDX 85 64 50 65 51 66 65 68 86 69 53 70 37 71 38 72 46 73 39 74
REMARK SMILES IDX 41 75 47 76 40 77 42 78 43 79 44 80 45 81 69 82 70 83 78 84
REMARK SMILES IDX 71 85 73 86 79 87 72 88 74 89 75 90 76 91 77 92 54 93 55 94
REMARK SMILES IDX 63 95 56 96 58 97 64 98 57 99 59 100 60 101 61 102 62 103
REMARK H PARENT 9 17 84 56 52 67
REMARK Flexibility Score: inf
ROOT
ATOM      1  C   UNL A   1      40.491  22.138  26.632  1.00  0.00     0.188 C 
ENDROOT
BRANCH   1   2
ATOM      2  O   UNL A   1      39.108  22.291  26.334  1.00  0.00    -0.376 OA
BRANCH   2   3
ATOM      3  C   UNL A   1      38.423  21.186  25.755  1.00  0.00     0.202 C 
BRANCH   3   4
ATOM      4  C   UNL A   1      37.283  21.310  24.727  1.00  0.00     0.261 C 
BRANCH   4   5
ATOM      5  O   UNL A   1      35.947  20.740  24.886  1.00  0.00    -0.463 OA
BRANCH   5   6
ATOM      6  C   UNL A   1      34.975  21.652  24.654  1.00  0.00     0.312 C 
ATOM      7  O   UNL A   1      35.202  22.548  23.856  1.00  0.00    -0.252 OA
BRANCH   6   8
ATOM      8  C   UNL A   1      33.678  21.729  25.488  1.00  0.00     0.143 C 
ATOM      9  C   UNL A   1      32.330  21.904  24.812  1.00  0.00     0.124 C 
ATOM     10  C   UNL A   1      31.887  23.268  25.479  1.00  0.00     0.132 C 
ATOM     11  C   UNL A   1      33.663  22.813  26.595  1.00  0.00     0.133 C 
ATOM     12  C   UNL A   1      31.334  23.096  26.909  1.00  0.00     0.035 C 
ATOM     13  O   UNL A   1      33.152  23.905  25.830  1.00  0.00    -0.373 OA
ATOM     14  C   UNL A   1      32.567  22.638  27.665  1.00  0.00     0.036 C 
BRANCH   9  15
ATOM     15  C   UNL A   1      32.295  21.884  23.264  1.00  0.00     0.232 C 
ATOM     16  N   UNL A   1      32.336  22.951  22.379  1.00  0.00    -0.302 N 
ATOM     17  H   UNL A   1      32.430  22.646  21.448  1.00  0.00     0.172 HD
ATOM     18  O   UNL A   1      32.184  20.777  22.711  1.00  0.00    -0.274 OA
BRANCH  16  19
ATOM     19  C   UNL A   1      32.277  24.336  22.463  1.00  0.00     0.190 A 
ATOM     20  C   UNL A   1      31.523  26.454  22.795  1.00  0.00     0.086 A 
ATOM     21  N   UNL A   1      31.175  25.105  22.490  1.00  0.00    -0.220 NA
ATOM     22  C   UNL A   1      32.875  26.598  22.997  1.00  0.00     0.031 A 
ATOM     23  S   UNL A   1      33.692  25.156  22.739  1.00  0.00    -0.101 S 
ATOM     24  C   UNL A   1      33.603  27.815  23.345  1.00  0.00     0.059 C 
BRANCH  20  25
ATOM     25  C   UNL A   1      30.682  27.679  22.999  1.00  0.00     0.001 A 
ATOM     26  C   UNL A   1      27.651  30.814  22.397  1.00  0.00     0.044 C 
ATOM     27  C   UNL A   1      28.702  29.765  22.642  1.00  0.00    -0.051 A 
ATOM     28  C   UNL A   1      30.059  29.964  22.335  1.00  0.00     0.004 A 
ATOM     29  C   UNL A   1      28.337  28.516  23.126  1.00  0.00     0.004 A 
ATOM     30  C   UNL A   1      31.031  28.933  22.494  1.00  0.00     0.010 A 
ATOM     31  C   UNL A   1      29.316  27.527  23.331  1.00  0.00     0.010 A 
ENDBRANCH  20  25
ENDBRANCH  16  19
ENDBRANCH   9  15
ENDBRANCH   6   8
ENDBRANCH   5   6
ENDBRANCH   4   5
ENDBRANCH   3   4
ENDBRANCH   2   3
ENDBRANCH   1   2
BRANCH   1  32
ATOM     32  C   UNL A   1      40.853  20.663  26.502  1.00  0.00     0.188 C 
BRANCH  32  33
ATOM     33  O   UNL A   1      42.252  20.515  26.295  1.00  0.00    -0.376 OA
BRANCH  33  34
ATOM     34  C   UNL A   1      42.691  19.276  25.766  1.00  0.00     0.202 C 
BRANCH  34  35
ATOM     35  C   UNL A   1      44.145  19.389  25.305  1.00  0.00     0.261 C 
BRANCH  35  36
ATOM     36  O   UNL A   1      44.657  20.675  25.741  1.00  0.00    -0.460 OA
BRANCH  36  37
ATOM     37  C   UNL A   1      45.693  21.184  25.007  1.00  0.00     0.338 C 
ATOM     38  O   UNL A   1      46.707  20.537  24.746  1.00  0.00    -0.246 OA
BRANCH  37  39
ATOM     39  C   UNL A   1      45.498  22.659  24.704  1.00  0.00     0.060 A 
ATOM     40  C   UNL A   1      46.551  23.555  24.511  1.00  0.00     0.016 A 
ATOM     41  C   UNL A   1      44.259  23.248  24.859  1.00  0.00     0.016 A 
ATOM     42  C   UNL A   1      46.365  24.986  24.655  1.00  0.00     0.010 A 
ATOM     43  C   UNL A   1      44.135  24.662  25.028  1.00  0.00     0.010 A 
ATOM     44  C   UNL A   1      45.146  25.591  25.026  1.00  0.00    -0.014 A 
BRANCH  44  45
ATOM     45  C   UNL A   1      45.016  26.964  25.764  1.00  0.00     0.031 A 
ATOM     46  C   UNL A   1      43.749  27.815  26.357  1.00  0.00     0.074 A 
ATOM     47  C   UNL A   1      46.061  27.084  26.603  1.00  0.00     0.049 A 
ATOM     48  N   UNL A   1      43.686  28.690  27.361  1.00  0.00    -0.248 NA
ATOM     49  C   UNL A   1      42.422  27.756  25.736  1.00  0.00     0.031 C 
ATOM     50  C   UNL A   1      46.400  26.241  27.749  1.00  0.00     0.029 A 
ATOM     51  N   UNL A   1      47.077  27.997  26.543  1.00  0.00    -0.354 N 
ATOM     52  C   UNL A   1      42.322  28.995  27.694  1.00  0.00     0.074 A 
ATOM     53  C   UNL A   1      41.603  28.406  26.590  1.00  0.00     0.031 C 
ATOM     54  C   UNL A   1      47.536  26.659  28.320  1.00  0.00     0.029 A 
ATOM     55  C   UNL A   1      47.934  27.844  27.605  1.00  0.00     0.049 A 
ATOM     56  H   UNL A   1      47.180  28.673  25.835  1.00  0.00     0.167 HD
ATOM     57  C   UNL A   1      41.869  29.599  28.881  1.00  0.00     0.034 A 
ATOM     58  C   UNL A   1      48.991  28.577  27.972  1.00  0.00     0.034 A 
ATOM     59  C   UNL A   1      42.921  30.276  29.679  1.00  0.00     0.049 A 
ATOM     60  C   UNL A   1      48.507  29.949  28.357  1.00  0.00     0.074 A 
ATOM     61  C   UNL A   1      43.194  30.378  31.043  1.00  0.00     0.029 A 
ATOM     62  N   UNL A   1      43.899  31.042  29.056  1.00  0.00    -0.354 N 
ATOM     63  N   UNL A   1      47.383  30.186  29.014  1.00  0.00    -0.248 NA
ATOM     64  C   UNL A   1      49.274  31.165  28.144  1.00  0.00     0.031 C 
ATOM     65  C   UNL A   1      44.338  31.199  31.217  1.00  0.00     0.029 A 
ATOM     66  C   UNL A   1      44.871  31.451  29.962  1.00  0.00     0.049 A 
ATOM     67  H   UNL A   1      43.902  31.266  28.098  1.00  0.00     0.167 HD
ATOM     68  C   UNL A   1      47.191  31.554  29.136  1.00  0.00     0.074 A 
ATOM     69  C   UNL A   1      48.466  32.097  28.681  1.00  0.00     0.031 C 
ATOM     70  C   UNL A   1      46.024  32.202  29.495  1.00  0.00     0.034 A 
BRANCH  57  71
ATOM     71  C   UNL A   1      40.419  29.494  29.614  1.00  0.00     0.023 A 
ATOM     72  C   UNL A   1      39.871  28.187  29.844  1.00  0.00     0.012 A 
ATOM     73  C   UNL A   1      39.495  30.533  29.898  1.00  0.00     0.148 A 
ATOM     74  C   UNL A   1      38.513  27.912  30.119  1.00  0.00     0.002 A 
ATOM     75  C   UNL A   1      38.145  30.260  30.275  1.00  0.00     0.091 A 
ATOM     76  F   UNL A   1      39.901  31.802  29.800  1.00  0.00    -0.205 F 
ATOM     77  C   UNL A   1      37.640  28.955  30.324  1.00  0.00     0.022 A 
BRANCH  75  78
ATOM     78  S   UNL A   1      36.944  31.528  30.755  1.00  0.00     0.127 S 
ATOM     79  O   UNL A   1      36.538  32.085  29.465  1.00  0.00    -0.237 OA
ATOM     80  O   UNL A   1      35.910  30.737  31.422  1.00  0.00    -0.237 OA
ATOM     81  O   UNL A   1      37.676  32.448  31.616  1.00  0.00    -0.744 OA
ENDBRANCH  75  78
ENDBRANCH  57  71
BRANCH  58  82
ATOM     82  C   UNL A   1      50.184  27.907  27.339  1.00  0.00     0.023 A 
ATOM     83  C   UNL A   1      50.339  26.536  27.678  1.00  0.00     0.012 A 
ATOM     84  C   UNL A   1      50.508  28.279  26.010  1.00  0.00     0.148 A 
ATOM     85  C   UNL A   1      50.568  25.561  26.689  1.00  0.00     0.002 A 
ATOM     86  C   UNL A   1      50.692  27.299  25.023  1.00  0.00     0.091 A 
ATOM     87  F   UNL A   1      50.412  29.577  25.680  1.00  0.00    -0.205 F 
ATOM     88  C   UNL A   1      50.687  25.938  25.353  1.00  0.00     0.022 A 
BRANCH  86  89
ATOM     89  S   UNL A   1      50.651  27.771  23.284  1.00  0.00     0.127 S 
ATOM     90  O   UNL A   1      49.220  27.830  23.011  1.00  0.00    -0.237 OA
ATOM     91  O   UNL A   1      51.328  29.068  23.266  1.00  0.00    -0.237 OA
ATOM     92  O   UNL A   1      51.386  26.701  22.617  1.00  0.00    -0.744 OA
ENDBRANCH  86  89
ENDBRANCH  58  82
BRANCH  70  93
ATOM     93  C   UNL A   1      45.726  33.679  29.272  1.00  0.00     0.023 A 
ATOM     94  C   UNL A   1      45.070  34.102  28.108  1.00  0.00     0.012 A 
ATOM     95  C   UNL A   1      45.757  34.594  30.363  1.00  0.00     0.148 A 
ATOM     96  C   UNL A   1      44.465  35.357  28.027  1.00  0.00     0.002 A 
ATOM     97  C   UNL A   1      45.013  35.764  30.332  1.00  0.00     0.091 A 
ATOM     98  F   UNL A   1      46.499  34.338  31.451  1.00  0.00    -0.205 F 
ATOM     99  C   UNL A   1      44.389  36.166  29.154  1.00  0.00     0.022 A 
BRANCH  97 100
ATOM    100  S   UNL A   1      44.620  36.614  31.872  1.00  0.00     0.127 S 
ATOM    101  O   UNL A   1      43.789  37.724  31.415  1.00  0.00    -0.237 OA
ATOM    102  O   UNL A   1      43.903  35.586  32.630  1.00  0.00    -0.237 OA
ATOM    103  O   UNL A   1      45.919  36.965  32.434  1.00  0.00    -0.744 OA
ENDBRANCH  97 100
ENDBRANCH  70  93
ENDBRANCH  44  45
ENDBRANCH  37  39
ENDBRANCH  36  37
ENDBRANCH  35  36
ENDBRANCH  34  35
ENDBRANCH  33  34
ENDBRANCH  32  33
ENDBRANCH   1  32
TORSDOF 23
ENDMDL
