MODEL 1
REMARK VINA RESULT:      -9.4      0.000      0.000
REMARK SMILES CCCC[C@H](CC)Cn1ccc(C(=O)OCCOCCOCCOC(=O)c2ccc(-c3c4nc(c(-c5cccc(S(=O)(=O)[O-])c5F)c5ccc([nH]5)c(-c5cccc(S(=O)(=O)[O-])c5F)c5nc(c(-c6cccc(S(=O)(=O)[O-])c6F)c6ccc3[nH]6)C=C5)C=C4)cc2)c1
REMARK SMILES IDX 19 1 18 2 17 3 16 4 15 5 13 6 14 7 12 8 9 9 10 10 90 11
REMARK SMILES IDX 11 12 8 13 5 14 4 15 3 16 2 17 1 18 6 19 7 20 20 21 21 22
REMARK SMILES IDX 22 23 23 24 24 25 25 26 26 27 27 28 28 29 89 30 29 31 88 32
REMARK SMILES IDX 30 33 31 34 32 35 82 36 33 37 87 38 81 39 83 40 34 41 86 42
REMARK SMILES IDX 80 43 79 44 35 46 67 47 47 48 66 49 48 50 51 51 65 52 84 53
REMARK SMILES IDX 49 54 50 55 64 57 85 58 52 59 36 60 37 61 45 62 38 63 40 64
REMARK SMILES IDX 46 65 39 66 41 67 42 68 43 69 44 70 68 71 69 72 77 73 70 74
REMARK SMILES IDX 72 75 78 76 71 77 73 78 74 79 75 80 76 81 53 82 54 83 62 84
REMARK SMILES IDX 55 85 57 86 63 87 56 88 58 89 59 90 60 91 61 92
REMARK H PARENT 83 45 51 56
REMARK Flexibility Score: inf
ROOT
ATOM      1  C   UNL A   1      34.604  20.639  25.021  1.00  0.00     0.188 C 
ENDROOT
BRANCH   1   2
ATOM      2  O   UNL A   1      34.059  21.771  24.355  1.00  0.00    -0.376 OA
BRANCH   2   3
ATOM      3  C   UNL A   1      32.731  21.753  23.864  1.00  0.00     0.202 C 
BRANCH   3   4
ATOM      4  C   UNL A   1      31.565  21.878  24.861  1.00  0.00     0.261 C 
BRANCH   4   5
ATOM      5  O   UNL A   1      31.921  22.286  26.191  1.00  0.00    -0.460 OA
BRANCH   5   6
ATOM      6  C   UNL A   1      31.482  23.526  26.573  1.00  0.00     0.339 C 
ATOM      7  O   UNL A   1      30.560  23.733  27.331  1.00  0.00    -0.246 OA
BRANCH   6   8
ATOM      8  C   UNL A   1      32.341  24.598  26.057  1.00  0.00     0.077 A 
ATOM      9  N   UNL A   1      33.100  26.448  25.037  1.00  0.00    -0.353 N 
ATOM     10  C   UNL A   1      34.199  25.783  25.500  1.00  0.00     0.086 A 
ATOM     11  C   UNL A   1      31.972  25.704  25.313  1.00  0.00     0.101 A 
ATOM     12  C   UNL A   1      33.761  24.659  26.167  1.00  0.00     0.035 A 
BRANCH   9  13
ATOM     13  C   UNL A   1      33.022  27.810  24.530  1.00  0.00     0.125 C 
BRANCH  13  14
ATOM     14  C   UNL A   1      31.701  28.597  24.624  1.00  0.00     0.008 C 
BRANCH  14  15
ATOM     15  C   UNL A   1      30.854  28.491  23.324  1.00  0.00     0.005 C 
BRANCH  15  16
ATOM     16  C   UNL A   1      29.323  28.349  23.447  1.00  0.00     0.000 C 
BRANCH  16  17
ATOM     17  C   UNL A   1      28.439  29.392  22.738  1.00  0.00    -0.003 C 
ATOM     18  C   UNL A   1      28.445  30.776  23.369  1.00  0.00     0.004 C 
ENDBRANCH  16  17
ENDBRANCH  15  16
ENDBRANCH  14  15
BRANCH  14  19
ATOM     19  C   UNL A   1      31.911  30.037  25.165  1.00  0.00     0.002 C 
ATOM     20  C   UNL A   1      31.769  30.261  26.663  1.00  0.00     0.004 C 
ENDBRANCH  14  19
ENDBRANCH  13  14
ENDBRANCH   9  13
ENDBRANCH   6   8
ENDBRANCH   5   6
ENDBRANCH   4   5
ENDBRANCH   3   4
ENDBRANCH   2   3
ENDBRANCH   1   2
BRANCH   1  21
ATOM     21  C   UNL A   1      36.120  20.320  25.012  1.00  0.00     0.188 C 
BRANCH  21  22
ATOM     22  O   UNL A   1      36.985  21.399  24.689  1.00  0.00    -0.376 OA
BRANCH  22  23
ATOM     23  C   UNL A   1      38.194  21.525  25.426  1.00  0.00     0.202 C 
BRANCH  23  24
ATOM     24  C   UNL A   1      39.114  20.304  25.458  1.00  0.00     0.261 C 
BRANCH  24  25
ATOM     25  O   UNL A   1      40.082  20.346  26.492  1.00  0.00    -0.460 OA
BRANCH  25  26
ATOM     26  C   UNL A   1      41.215  19.685  26.191  1.00  0.00     0.338 C 
ATOM     27  O   UNL A   1      41.329  18.553  25.749  1.00  0.00    -0.246 OA
BRANCH  26  28
ATOM     28  C   UNL A   1      42.346  20.508  26.582  1.00  0.00     0.060 A 
ATOM     29  C   UNL A   1      42.320  20.986  27.896  1.00  0.00     0.016 A 
ATOM     30  C   UNL A   1      42.884  21.218  25.511  1.00  0.00     0.016 A 
ATOM     31  C   UNL A   1      42.595  22.316  28.088  1.00  0.00     0.010 A 
ATOM     32  C   UNL A   1      43.033  22.563  25.685  1.00  0.00     0.010 A 
ATOM     33  C   UNL A   1      42.863  23.103  26.962  1.00  0.00    -0.014 A 
BRANCH  33  34
ATOM     34  C   UNL A   1      43.176  24.512  27.154  1.00  0.00     0.031 A 
ATOM     35  C   UNL A   1      41.859  25.277  27.388  1.00  0.00     0.074 A 
ATOM     36  C   UNL A   1      44.505  24.835  27.057  1.00  0.00     0.049 A 
ATOM     37  N   UNL A   1      41.542  26.493  27.068  1.00  0.00    -0.248 NA
ATOM     38  C   UNL A   1      40.662  24.554  27.924  1.00  0.00     0.031 C 
ATOM     39  C   UNL A   1      45.619  23.870  26.850  1.00  0.00     0.029 A 
ATOM     40  N   UNL A   1      45.202  26.020  27.114  1.00  0.00    -0.354 N 
ATOM     41  C   UNL A   1      40.263  26.738  27.623  1.00  0.00     0.074 A 
ATOM     42  C   UNL A   1      39.701  25.475  27.956  1.00  0.00     0.031 C 
ATOM     43  C   UNL A   1      46.804  24.512  26.710  1.00  0.00     0.029 A 
ATOM     44  C   UNL A   1      46.597  25.940  26.855  1.00  0.00     0.049 A 
ATOM     45  H   UNL A   1      44.760  26.875  27.322  1.00  0.00     0.167 HD
ATOM     46  C   UNL A   1      39.842  27.988  27.970  1.00  0.00     0.034 A 
ATOM     47  C   UNL A   1      47.500  26.967  26.737  1.00  0.00     0.034 A 
ATOM     48  C   UNL A   1      40.880  28.918  27.672  1.00  0.00     0.049 A 
ATOM     49  C   UNL A   1      46.767  28.156  27.185  1.00  0.00     0.074 A 
ATOM     50  C   UNL A   1      41.380  29.384  26.486  1.00  0.00     0.029 A 
ATOM     51  N   UNL A   1      41.800  29.101  28.680  1.00  0.00    -0.354 N 
ATOM     52  N   UNL A   1      46.437  28.388  28.419  1.00  0.00    -0.248 NA
ATOM     53  C   UNL A   1      46.268  29.102  26.181  1.00  0.00     0.031 C 
ATOM     54  C   UNL A   1      42.767  29.413  26.724  1.00  0.00     0.029 A 
ATOM     55  C   UNL A   1      43.027  29.227  28.090  1.00  0.00     0.049 A 
ATOM     56  H   UNL A   1      41.610  29.134  29.646  1.00  0.00     0.167 HD
ATOM     57  C   UNL A   1      45.386  29.255  28.267  1.00  0.00     0.074 A 
ATOM     58  C   UNL A   1      45.566  29.897  26.982  1.00  0.00     0.031 C 
ATOM     59  C   UNL A   1      44.205  28.974  28.881  1.00  0.00     0.034 A 
BRANCH  46  60
ATOM     60  C   UNL A   1      38.713  28.507  28.819  1.00  0.00     0.023 A 
ATOM     61  C   UNL A   1      37.743  29.271  28.110  1.00  0.00     0.012 A 
ATOM     62  C   UNL A   1      38.703  28.583  30.221  1.00  0.00     0.148 A 
ATOM     63  C   UNL A   1      36.908  30.184  28.744  1.00  0.00     0.002 A 
ATOM     64  C   UNL A   1      37.819  29.460  30.857  1.00  0.00     0.091 A 
ATOM     65  F   UNL A   1      39.597  27.889  30.931  1.00  0.00    -0.205 F 
ATOM     66  C   UNL A   1      36.960  30.290  30.121  1.00  0.00     0.022 A 
BRANCH  64  67
ATOM     67  S   UNL A   1      37.717  29.617  32.644  1.00  0.00     0.127 S 
ATOM     68  O   UNL A   1      36.609  30.554  32.804  1.00  0.00    -0.237 OA
ATOM     69  O   UNL A   1      37.410  28.242  33.047  1.00  0.00    -0.237 OA
ATOM     70  O   UNL A   1      39.029  30.079  33.074  1.00  0.00    -0.744 OA
ENDBRANCH  64  67
ENDBRANCH  46  60
BRANCH  47  71
ATOM     71  C   UNL A   1      48.903  27.214  26.220  1.00  0.00     0.023 A 
ATOM     72  C   UNL A   1      49.245  27.363  24.871  1.00  0.00     0.012 A 
ATOM     73  C   UNL A   1      49.954  27.477  27.158  1.00  0.00     0.148 A 
ATOM     74  C   UNL A   1      50.517  27.850  24.492  1.00  0.00     0.002 A 
ATOM     75  C   UNL A   1      51.140  28.101  26.795  1.00  0.00     0.091 A 
ATOM     76  F   UNL A   1      49.817  27.100  28.434  1.00  0.00    -0.205 F 
ATOM     77  C   UNL A   1      51.439  28.274  25.451  1.00  0.00     0.022 A 
BRANCH  75  78
ATOM     78  S   UNL A   1      52.216  28.873  28.024  1.00  0.00     0.127 S 
ATOM     79  O   UNL A   1      51.316  29.816  28.683  1.00  0.00    -0.237 OA
ATOM     80  O   UNL A   1      52.599  27.718  28.838  1.00  0.00    -0.237 OA
ATOM     81  O   UNL A   1      53.316  29.483  27.288  1.00  0.00    -0.744 OA
ENDBRANCH  75  78
ENDBRANCH  47  71
BRANCH  59  82
ATOM     82  C   UNL A   1      44.326  28.155  30.172  1.00  0.00     0.023 A 
ATOM     83  C   UNL A   1      44.074  26.771  30.061  1.00  0.00     0.012 A 
ATOM     84  C   UNL A   1      44.554  28.656  31.478  1.00  0.00     0.148 A 
ATOM     85  C   UNL A   1      44.015  25.929  31.175  1.00  0.00     0.002 A 
ATOM     86  C   UNL A   1      44.484  27.813  32.599  1.00  0.00     0.091 A 
ATOM     87  F   UNL A   1      44.831  29.951  31.629  1.00  0.00    -0.205 F 
ATOM     88  C   UNL A   1      44.216  26.449  32.444  1.00  0.00     0.022 A 
BRANCH  86  89
ATOM     89  S   UNL A   1      44.679  28.364  34.309  1.00  0.00     0.127 S 
ATOM     90  O   UNL A   1      44.568  27.111  35.060  1.00  0.00    -0.237 OA
ATOM     91  O   UNL A   1      46.023  28.937  34.302  1.00  0.00    -0.237 OA
ATOM     92  O   UNL A   1      43.603  29.313  34.557  1.00  0.00    -0.744 OA
ENDBRANCH  86  89
ENDBRANCH  59  82
ENDBRANCH  33  34
ENDBRANCH  26  28
ENDBRANCH  25  26
ENDBRANCH  24  25
ENDBRANCH  23  24
ENDBRANCH  22  23
ENDBRANCH  21  22
ENDBRANCH   1  21
TORSDOF 26
ENDMDL
MODEL 2
REMARK VINA RESULT:      -9.3      1.430      2.469
REMARK SMILES CCCC[C@H](CC)Cn1ccc(C(=O)OCCOCCOCCOC(=O)c2ccc(-c3c4nc(c(-c5cccc(S(=O)(=O)[O-])c5F)c5ccc([nH]5)c(-c5cccc(S(=O)(=O)[O-])c5F)c5nc(c(-c6cccc(S(=O)(=O)[O-])c6F)c6ccc3[nH]6)C=C5)C=C4)cc2)c1
REMARK SMILES IDX 19 1 18 2 17 3 16 4 15 5 13 6 14 7 12 8 9 9 10 10 90 11
REMARK SMILES IDX 11 12 8 13 5 14 4 15 3 16 2 17 1 18 6 19 7 20 20 21 21 22
REMARK SMILES IDX 22 23 23 24 24 25 25 26 26 27 27 28 28 29 89 30 29 31 88 32
REMARK SMILES IDX 30 33 31 34 32 35 82 36 33 37 87 38 81 39 83 40 34 41 86 42
REMARK SMILES IDX 80 43 79 44 35 46 67 47 47 48 66 49 48 50 51 51 65 52 84 53
REMARK SMILES IDX 49 54 50 55 64 57 85 58 52 59 36 60 37 61 45 62 38 63 40 64
REMARK SMILES IDX 46 65 39 66 41 67 42 68 43 69 44 70 68 71 69 72 77 73 70 74
REMARK SMILES IDX 72 75 78 76 71 77 73 78 74 79 75 80 76 81 53 82 54 83 62 84
REMARK SMILES IDX 55 85 57 86 63 87 56 88 58 89 59 90 60 91 61 92
REMARK H PARENT 83 45 51 56
REMARK Flexibility Score: inf
ROOT
ATOM      1  C   UNL A   1      33.754  21.817  24.980  1.00  0.00     0.188 C 
ENDROOT
BRANCH   1   2
ATOM      2  O   UNL A   1      33.814  23.178  25.389  1.00  0.00    -0.376 OA
BRANCH   2   3
ATOM      3  C   UNL A   1      34.013  24.211  24.441  1.00  0.00     0.202 C 
BRANCH   3   4
ATOM      4  C   UNL A   1      33.837  23.894  22.945  1.00  0.00     0.261 C 
BRANCH   4   5
ATOM      5  O   UNL A   1      32.627  24.378  22.341  1.00  0.00    -0.460 OA
BRANCH   5   6
ATOM      6  C   UNL A   1      32.745  25.532  21.612  1.00  0.00     0.339 C 
ATOM      7  O   UNL A   1      33.091  25.588  20.452  1.00  0.00    -0.246 OA
BRANCH   6   8
ATOM      8  C   UNL A   1      32.275  26.705  22.357  1.00  0.00     0.077 A 
ATOM      9  N   UNL A   1      32.153  28.483  23.723  1.00  0.00    -0.353 N 
ATOM     10  C   UNL A   1      30.896  28.287  23.230  1.00  0.00     0.086 A 
ATOM     11  C   UNL A   1      32.984  27.488  23.250  1.00  0.00     0.101 A 
ATOM     12  C   UNL A   1      30.947  27.224  22.355  1.00  0.00     0.035 A 
BRANCH   9  13
ATOM     13  C   UNL A   1      32.665  29.638  24.446  1.00  0.00     0.125 C 
BRANCH  13  14
ATOM     14  C   UNL A   1      32.925  29.549  25.962  1.00  0.00     0.008 C 
BRANCH  14  15
ATOM     15  C   UNL A   1      34.242  28.791  26.295  1.00  0.00     0.005 C 
BRANCH  15  16
ATOM     16  C   UNL A   1      35.314  29.507  27.141  1.00  0.00     0.000 C 
BRANCH  16  17
ATOM     17  C   UNL A   1      34.841  30.499  28.221  1.00  0.00    -0.003 C 
ATOM     18  C   UNL A   1      35.008  31.968  27.862  1.00  0.00     0.004 C 
ENDBRANCH  16  17
ENDBRANCH  15  16
ENDBRANCH  14  15
BRANCH  14  19
ATOM     19  C   UNL A   1      31.671  29.077  26.747  1.00  0.00     0.002 C 
ATOM     20  C   UNL A   1      31.480  27.581  26.948  1.00  0.00     0.004 C 
ENDBRANCH  14  19
ENDBRANCH  13  14
ENDBRANCH   9  13
ENDBRANCH   6   8
ENDBRANCH   5   6
ENDBRANCH   4   5
ENDBRANCH   3   4
ENDBRANCH   2   3
ENDBRANCH   1   2
BRANCH   1  21
ATOM     21  C   UNL A   1      35.007  20.907  24.935  1.00  0.00     0.188 C 
BRANCH  21  22
ATOM     22  O   UNL A   1      36.175  21.477  24.362  1.00  0.00    -0.376 OA
BRANCH  22  23
ATOM     23  C   UNL A   1      37.277  21.741  25.222  1.00  0.00     0.202 C 
BRANCH  23  24
ATOM     24  C   UNL A   1      38.247  20.586  25.474  1.00  0.00     0.261 C 
BRANCH  24  25
ATOM     25  O   UNL A   1      39.457  20.984  26.094  1.00  0.00    -0.460 OA
BRANCH  25  26
ATOM     26  C   UNL A   1      40.417  20.041  26.048  1.00  0.00     0.338 C 
ATOM     27  O   UNL A   1      40.290  18.852  25.807  1.00  0.00    -0.246 OA
BRANCH  26  28
ATOM     28  C   UNL A   1      41.676  20.646  26.448  1.00  0.00     0.060 A 
ATOM     29  C   UNL A   1      41.772  21.007  27.796  1.00  0.00     0.016 A 
ATOM     30  C   UNL A   1      42.279  21.356  25.411  1.00  0.00     0.016 A 
ATOM     31  C   UNL A   1      42.257  22.259  28.079  1.00  0.00     0.010 A 
ATOM     32  C   UNL A   1      42.642  22.642  25.685  1.00  0.00     0.010 A 
ATOM     33  C   UNL A   1      42.605  23.089  27.007  1.00  0.00    -0.014 A 
BRANCH  33  34
ATOM     34  C   UNL A   1      43.140  24.413  27.296  1.00  0.00     0.031 A 
ATOM     35  C   UNL A   1      41.961  25.372  27.547  1.00  0.00     0.074 A 
ATOM     36  C   UNL A   1      44.506  24.513  27.250  1.00  0.00     0.049 A 
ATOM     37  N   UNL A   1      41.860  26.640  27.298  1.00  0.00    -0.248 NA
ATOM     38  C   UNL A   1      40.643  24.829  28.008  1.00  0.00     0.031 C 
ATOM     39  C   UNL A   1      45.452  23.390  27.008  1.00  0.00     0.029 A 
ATOM     40  N   UNL A   1      45.388  25.560  27.399  1.00  0.00    -0.354 N 
ATOM     41  C   UNL A   1      40.622  27.064  27.838  1.00  0.00     0.074 A 
ATOM     42  C   UNL A   1      39.847  25.895  28.077  1.00  0.00     0.031 C 
ATOM     43  C   UNL A   1      46.730  23.831  26.937  1.00  0.00     0.029 A 
ATOM     44  C   UNL A   1      46.758  25.263  27.167  1.00  0.00     0.049 A 
ATOM     45  H   UNL A   1      45.087  26.463  27.650  1.00  0.00     0.167 HD
ATOM     46  C   UNL A   1      40.402  28.343  28.253  1.00  0.00     0.034 A 
ATOM     47  C   UNL A   1      47.822  26.130  27.136  1.00  0.00     0.034 A 
ATOM     48  C   UNL A   1      41.589  29.102  28.039  1.00  0.00     0.049 A 
ATOM     49  C   UNL A   1      47.281  27.396  27.641  1.00  0.00     0.074 A 
ATOM     50  C   UNL A   1      42.199  29.547  26.897  1.00  0.00     0.029 A 
ATOM     51  N   UNL A   1      42.492  29.070  29.078  1.00  0.00    -0.354 N 
ATOM     52  N   UNL A   1      46.954  27.608  28.880  1.00  0.00    -0.248 NA
ATOM     53  C   UNL A   1      46.980  28.469  26.687  1.00  0.00     0.031 C 
ATOM     54  C   UNL A   1      43.563  29.330  27.169  1.00  0.00     0.029 A 
ATOM     55  C   UNL A   1      43.742  29.023  28.525  1.00  0.00     0.049 A 
ATOM     56  H   UNL A   1      42.279  29.077  30.039  1.00  0.00     0.167 HD
ATOM     57  C   UNL A   1      46.066  28.645  28.758  1.00  0.00     0.074 A 
ATOM     58  C   UNL A   1      46.393  29.323  27.521  1.00  0.00     0.031 C 
ATOM     59  C   UNL A   1      44.835  28.530  29.326  1.00  0.00     0.034 A 
BRANCH  46  60
ATOM     60  C   UNL A   1      39.346  28.993  29.107  1.00  0.00     0.023 A 
ATOM     61  C   UNL A   1      38.777  30.172  28.549  1.00  0.00     0.012 A 
ATOM     62  C   UNL A   1      39.121  28.745  30.470  1.00  0.00     0.148 A 
ATOM     63  C   UNL A   1      38.151  31.137  29.330  1.00  0.00     0.002 A 
ATOM     64  C   UNL A   1      38.437  29.692  31.240  1.00  0.00     0.091 A 
ATOM     65  F   UNL A   1      39.639  27.654  31.042  1.00  0.00    -0.205 F 
ATOM     66  C   UNL A   1      37.996  30.901  30.682  1.00  0.00     0.022 A 
BRANCH  64  67
ATOM     67  S   UNL A   1      38.083  29.460  32.985  1.00  0.00     0.127 S 
ATOM     68  O   UNL A   1      39.418  29.511  33.575  1.00  0.00    -0.237 OA
ATOM     69  O   UNL A   1      37.247  30.627  33.277  1.00  0.00    -0.237 OA
ATOM     70  O   UNL A   1      37.377  28.190  33.079  1.00  0.00    -0.744 OA
ENDBRANCH  64  67
ENDBRANCH  46  60
BRANCH  47  71
ATOM     71  C   UNL A   1      49.263  26.168  26.668  1.00  0.00     0.023 A 
ATOM     72  C   UNL A   1      49.671  26.177  25.329  1.00  0.00     0.012 A 
ATOM     73  C   UNL A   1      50.303  26.371  27.633  1.00  0.00     0.148 A 
ATOM     74  C   UNL A   1      51.006  26.479  24.977  1.00  0.00     0.002 A 
ATOM     75  C   UNL A   1      51.569  26.819  27.284  1.00  0.00     0.091 A 
ATOM     76  F   UNL A   1      50.073  26.105  28.924  1.00  0.00    -0.205 F 
ATOM     77  C   UNL A   1      51.937  26.857  25.946  1.00  0.00     0.022 A 
BRANCH  75  78
ATOM     78  S   UNL A   1      52.686  27.543  28.507  1.00  0.00     0.127 S 
ATOM     79  O   UNL A   1      53.771  28.058  27.676  1.00  0.00    -0.237 OA
ATOM     80  O   UNL A   1      51.831  28.567  29.107  1.00  0.00    -0.237 OA
ATOM     81  O   UNL A   1      53.063  26.465  29.412  1.00  0.00    -0.744 OA
ENDBRANCH  75  78
ENDBRANCH  47  71
BRANCH  59  82
ATOM     82  C   UNL A   1      44.776  27.629  30.565  1.00  0.00     0.023 A 
ATOM     83  C   UNL A   1      44.732  26.238  30.325  1.00  0.00     0.012 A 
ATOM     84  C   UNL A   1      44.649  28.045  31.914  1.00  0.00     0.148 A 
ATOM     85  C   UNL A   1      44.540  25.307  31.350  1.00  0.00     0.002 A 
ATOM     86  C   UNL A   1      44.445  27.111  32.943  1.00  0.00     0.091 A 
ATOM     87  F   UNL A   1      44.720  29.345  32.193  1.00  0.00    -0.205 F 
ATOM     88  C   UNL A   1      44.392  25.742  32.658  1.00  0.00     0.022 A 
BRANCH  86  89
ATOM     89  S   UNL A   1      44.192  27.540  34.680  1.00  0.00     0.127 S 
ATOM     90  O   UNL A   1      43.499  26.359  35.200  1.00  0.00    -0.237 OA
ATOM     91  O   UNL A   1      45.561  27.691  35.168  1.00  0.00    -0.237 OA
ATOM     92  O   UNL A   1      43.395  28.758  34.687  1.00  0.00    -0.744 OA
ENDBRANCH  86  89
ENDBRANCH  59  82
ENDBRANCH  33  34
ENDBRANCH  26  28
ENDBRANCH  25  26
ENDBRANCH  24  25
ENDBRANCH  23  24
ENDBRANCH  22  23
ENDBRANCH  21  22
ENDBRANCH   1  21
TORSDOF 26
ENDMDL
MODEL 3
REMARK VINA RESULT:      -8.8      1.274      2.059
REMARK SMILES CCCC[C@H](CC)Cn1ccc(C(=O)OCCOCCOCCOC(=O)c2ccc(-c3c4nc(c(-c5cccc(S(=O)(=O)[O-])c5F)c5ccc([nH]5)c(-c5cccc(S(=O)(=O)[O-])c5F)c5nc(c(-c6cccc(S(=O)(=O)[O-])c6F)c6ccc3[nH]6)C=C5)C=C4)cc2)c1
REMARK SMILES IDX 19 1 18 2 17 3 16 4 15 5 13 6 14 7 12 8 9 9 10 10 90 11
REMARK SMILES IDX 11 12 8 13 5 14 4 15 3 16 2 17 1 18 6 19 7 20 20 21 21 22
REMARK SMILES IDX 22 23 23 24 24 25 25 26 26 27 27 28 28 29 89 30 29 31 88 32
REMARK SMILES IDX 30 33 31 34 32 35 82 36 33 37 87 38 81 39 83 40 34 41 86 42
REMARK SMILES IDX 80 43 79 44 35 46 67 47 47 48 66 49 48 50 51 51 65 52 84 53
REMARK SMILES IDX 49 54 50 55 64 57 85 58 52 59 36 60 37 61 45 62 38 63 40 64
REMARK SMILES IDX 46 65 39 66 41 67 42 68 43 69 44 70 68 71 69 72 77 73 70 74
REMARK SMILES IDX 72 75 78 76 71 77 73 78 74 79 75 80 76 81 53 82 54 83 62 84
REMARK SMILES IDX 55 85 57 86 63 87 56 88 58 89 59 90 60 91 61 92
REMARK H PARENT 83 45 51 56
REMARK Flexibility Score: inf
ROOT
ATOM      1  C   UNL A   1      35.901  21.739  24.449  1.00  0.00     0.188 C 
ENDROOT
BRANCH   1   2
ATOM      2  O   UNL A   1      35.127  21.004  25.391  1.00  0.00    -0.376 OA
BRANCH   2   3
ATOM      3  C   UNL A   1      34.325  19.915  24.975  1.00  0.00     0.202 C 
BRANCH   3   4
ATOM      4  C   UNL A   1      32.974  19.674  25.673  1.00  0.00     0.261 C 
BRANCH   4   5
ATOM      5  O   UNL A   1      31.817  20.173  24.985  1.00  0.00    -0.460 OA
BRANCH   5   6
ATOM      6  C   UNL A   1      31.998  21.329  24.273  1.00  0.00     0.339 C 
ATOM      7  O   UNL A   1      32.507  21.397  23.177  1.00  0.00    -0.246 OA
BRANCH   6   8
ATOM      8  C   UNL A   1      31.382  22.485  24.936  1.00  0.00     0.077 A 
ATOM      9  N   UNL A   1      30.645  24.549  25.423  1.00  0.00    -0.353 N 
ATOM     10  C   UNL A   1      30.397  23.780  26.523  1.00  0.00     0.086 A 
ATOM     11  C   UNL A   1      31.302  23.788  24.479  1.00  0.00     0.101 A 
ATOM     12  C   UNL A   1      30.803  22.494  26.239  1.00  0.00     0.035 A 
BRANCH   9  13
ATOM     13  C   UNL A   1      30.142  25.882  25.127  1.00  0.00     0.125 C 
BRANCH  13  14
ATOM     14  C   UNL A   1      31.053  26.918  24.439  1.00  0.00     0.008 C 
BRANCH  14  15
ATOM     15  C   UNL A   1      31.232  28.207  25.291  1.00  0.00     0.005 C 
BRANCH  15  16
ATOM     16  C   UNL A   1      32.027  28.118  26.610  1.00  0.00     0.000 C 
BRANCH  16  17
ATOM     17  C   UNL A   1      33.491  28.596  26.606  1.00  0.00    -0.003 C 
ATOM     18  C   UNL A   1      33.725  29.956  27.247  1.00  0.00     0.004 C 
ENDBRANCH  16  17
ENDBRANCH  15  16
ENDBRANCH  14  15
BRANCH  14  19
ATOM     19  C   UNL A   1      30.661  27.152  22.955  1.00  0.00     0.002 C 
ATOM     20  C   UNL A   1      31.583  26.594  21.881  1.00  0.00     0.004 C 
ENDBRANCH  14  19
ENDBRANCH  13  14
ENDBRANCH   9  13
ENDBRANCH   6   8
ENDBRANCH   5   6
ENDBRANCH   4   5
ENDBRANCH   3   4
ENDBRANCH   2   3
ENDBRANCH   1   2
BRANCH   1  21
ATOM     21  C   UNL A   1      37.425  21.959  24.618  1.00  0.00     0.188 C 
BRANCH  21  22
ATOM     22  O   UNL A   1      37.884  22.171  25.945  1.00  0.00    -0.376 OA
BRANCH  22  23
ATOM     23  C   UNL A   1      39.282  22.074  26.188  1.00  0.00     0.202 C 
BRANCH  23  24
ATOM     24  C   UNL A   1      39.848  20.671  26.410  1.00  0.00     0.261 C 
BRANCH  24  25
ATOM     25  O   UNL A   1      40.796  20.278  25.434  1.00  0.00    -0.460 OA
BRANCH  25  26
ATOM     26  C   UNL A   1      41.786  19.511  25.927  1.00  0.00     0.338 C 
ATOM     27  O   UNL A   1      41.808  18.296  26.043  1.00  0.00    -0.246 OA
BRANCH  26  28
ATOM     28  C   UNL A   1      42.839  20.381  26.423  1.00  0.00     0.060 A 
ATOM     29  C   UNL A   1      42.644  20.893  27.709  1.00  0.00     0.016 A 
ATOM     30  C   UNL A   1      43.480  21.077  25.401  1.00  0.00     0.016 A 
ATOM     31  C   UNL A   1      42.856  22.236  27.891  1.00  0.00     0.010 A 
ATOM     32  C   UNL A   1      43.570  22.430  25.550  1.00  0.00     0.010 A 
ATOM     33  C   UNL A   1      43.234  22.999  26.780  1.00  0.00    -0.014 A 
BRANCH  33  34
ATOM     34  C   UNL A   1      43.482  24.423  26.964  1.00  0.00     0.031 A 
ATOM     35  C   UNL A   1      42.133  25.125  27.214  1.00  0.00     0.074 A 
ATOM     36  C   UNL A   1      44.792  24.808  26.847  1.00  0.00     0.049 A 
ATOM     37  N   UNL A   1      41.754  26.323  26.896  1.00  0.00    -0.248 NA
ATOM     38  C   UNL A   1      40.980  24.347  27.768  1.00  0.00     0.031 C 
ATOM     39  C   UNL A   1      45.949  23.897  26.628  1.00  0.00     0.029 A 
ATOM     40  N   UNL A   1      45.433  26.026  26.892  1.00  0.00    -0.354 N 
ATOM     41  C   UNL A   1      40.472  26.509  27.468  1.00  0.00     0.074 A 
ATOM     42  C   UNL A   1      39.976  25.222  27.812  1.00  0.00     0.031 C 
ATOM     43  C   UNL A   1      47.099  24.594  26.470  1.00  0.00     0.029 A 
ATOM     44  C   UNL A   1      46.827  26.011  26.614  1.00  0.00     0.049 A 
ATOM     45  H   UNL A   1      44.953  26.859  27.103  1.00  0.00     0.167 HD
ATOM     46  C   UNL A   1      39.996  27.738  27.816  1.00  0.00     0.034 A 
ATOM     47  C   UNL A   1      47.677  27.080  26.480  1.00  0.00     0.034 A 
ATOM     48  C   UNL A   1      40.985  28.716  27.501  1.00  0.00     0.049 A 
ATOM     49  C   UNL A   1      46.894  28.234  26.935  1.00  0.00     0.074 A 
ATOM     50  C   UNL A   1      41.446  29.201  26.307  1.00  0.00     0.029 A 
ATOM     51  N   UNL A   1      41.909  28.946  28.496  1.00  0.00    -0.354 N 
ATOM     52  N   UNL A   1      46.571  28.455  28.173  1.00  0.00    -0.248 NA
ATOM     53  C   UNL A   1      46.337  29.151  25.935  1.00  0.00     0.031 C 
ATOM     54  C   UNL A   1      42.833  29.297  26.526  1.00  0.00     0.029 A 
ATOM     55  C   UNL A   1      43.120  29.129  27.889  1.00  0.00     0.049 A 
ATOM     56  H   UNL A   1      41.731  28.974  29.464  1.00  0.00     0.167 HD
ATOM     57  C   UNL A   1      45.478  29.269  28.033  1.00  0.00     0.074 A 
ATOM     58  C   UNL A   1      45.609  29.915  26.743  1.00  0.00     0.031 C 
ATOM     59  C   UNL A   1      44.320  28.935  28.665  1.00  0.00     0.034 A 
BRANCH  46  60
ATOM     60  C   UNL A   1      38.856  28.205  28.679  1.00  0.00     0.023 A 
ATOM     61  C   UNL A   1      37.885  28.994  28.000  1.00  0.00     0.012 A 
ATOM     62  C   UNL A   1      38.834  28.215  30.083  1.00  0.00     0.148 A 
ATOM     63  C   UNL A   1      37.036  29.868  28.670  1.00  0.00     0.002 A 
ATOM     64  C   UNL A   1      37.936  29.052  30.753  1.00  0.00     0.091 A 
ATOM     65  F   UNL A   1      39.729  27.495  30.767  1.00  0.00    -0.205 F 
ATOM     66  C   UNL A   1      37.076  29.908  30.051  1.00  0.00     0.022 A 
BRANCH  64  67
ATOM     67  S   UNL A   1      37.818  29.122  32.544  1.00  0.00     0.127 S 
ATOM     68  O   UNL A   1      37.744  27.708  32.900  1.00  0.00    -0.237 OA
ATOM     69  O   UNL A   1      39.084  29.770  32.901  1.00  0.00    -0.237 OA
ATOM     70  O   UNL A   1      36.641  29.929  32.831  1.00  0.00    -0.744 OA
ENDBRANCH  64  67
ENDBRANCH  46  60
BRANCH  47  71
ATOM     71  C   UNL A   1      49.060  27.392  25.943  1.00  0.00     0.023 A 
ATOM     72  C   UNL A   1      49.479  27.163  24.628  1.00  0.00     0.012 A 
ATOM     73  C   UNL A   1      49.979  28.118  26.768  1.00  0.00     0.148 A 
ATOM     74  C   UNL A   1      50.683  27.719  24.140  1.00  0.00     0.002 A 
ATOM     75  C   UNL A   1      51.077  28.792  26.249  1.00  0.00     0.091 A 
ATOM     76  F   UNL A   1      49.804  28.146  28.094  1.00  0.00    -0.205 F 
ATOM     77  C   UNL A   1      51.449  28.579  24.929  1.00  0.00     0.022 A 
BRANCH  75  78
ATOM     78  S   UNL A   1      51.918  30.089  27.185  1.00  0.00     0.127 S 
ATOM     79  O   UNL A   1      52.716  30.752  26.156  1.00  0.00    -0.237 OA
ATOM     80  O   UNL A   1      50.784  30.869  27.681  1.00  0.00    -0.237 OA
ATOM     81  O   UNL A   1      52.688  29.417  28.223  1.00  0.00    -0.744 OA
ENDBRANCH  75  78
ENDBRANCH  47  71
BRANCH  59  82
ATOM     82  C   UNL A   1      44.497  28.127  29.956  1.00  0.00     0.023 A 
ATOM     83  C   UNL A   1      44.146  26.761  29.893  1.00  0.00     0.012 A 
ATOM     84  C   UNL A   1      44.871  28.629  31.228  1.00  0.00     0.148 A 
ATOM     85  C   UNL A   1      44.127  25.940  31.024  1.00  0.00     0.002 A 
ATOM     86  C   UNL A   1      44.842  27.808  32.367  1.00  0.00     0.091 A 
ATOM     87  F   UNL A   1      45.245  29.904  31.329  1.00  0.00    -0.205 F 
ATOM     88  C   UNL A   1      44.471  26.463  32.261  1.00  0.00     0.022 A 
BRANCH  86  89
ATOM     89  S   UNL A   1      45.221  28.367  34.042  1.00  0.00     0.127 S 
ATOM     90  O   UNL A   1      44.207  29.402  34.267  1.00  0.00    -0.237 OA
ATOM     91  O   UNL A   1      45.018  27.154  34.831  1.00  0.00    -0.237 OA
ATOM     92  O   UNL A   1      46.589  28.863  34.008  1.00  0.00    -0.744 OA
ENDBRANCH  86  89
ENDBRANCH  59  82
ENDBRANCH  33  34
ENDBRANCH  26  28
ENDBRANCH  25  26
ENDBRANCH  24  25
ENDBRANCH  23  24
ENDBRANCH  22  23
ENDBRANCH  21  22
ENDBRANCH   1  21
TORSDOF 26
ENDMDL
