MODEL 1
REMARK VINA RESULT:     -10.8      0.000      0.000
REMARK SMILES CC(C)CSc1cc2c(cc1Cl)C=C(C(=O)OCCOCCOCCOC(=O)c1ccc(-c3c4nc(c(-c5cccc(S(=O)(=O)[O-])c5F)c5ccc([nH]5)c(-c5cccc(S(=O)(=O)[O-])c5F)c5nc(c(-c6cccc(S(=O)(=O)[O-])c6F)c6ccc3[nH]6)C=C5)C=C4)cc1)[C@H](C(F)(F)F)O2
REMARK SMILES IDX 21 1 20 2 19 3 18 4 17 5 15 6 16 7 14 8 6 9 7 10 11 11 8 12
REMARK SMILES IDX 10 13 12 14 9 15 97 16 13 17 92 18 5 19 4 20 2 21 1 22 3 23
REMARK SMILES IDX 93 24 94 25 95 26 96 27 22 28 23 29 24 30 25 31 26 32 27 33
REMARK SMILES IDX 28 34 29 35 30 36 91 37 31 38 90 39 32 40 33 41 34 42 84 43
REMARK SMILES IDX 35 44 89 45 83 46 85 47 36 48 88 49 82 50 81 51 37 53 69 54
REMARK SMILES IDX 49 55 68 56 50 57 53 58 67 59 86 60 51 61 52 62 66 64 87 65
REMARK SMILES IDX 54 66 38 67 39 68 47 69 40 70 42 71 48 72 41 73 43 74 44 75
REMARK SMILES IDX 45 76 46 77 70 78 71 79 79 80 72 81 74 82 80 83 73 84 75 85
REMARK SMILES IDX 76 86 77 87 78 88 55 89 56 90 64 91 57 92 59 93 65 94 58 95
REMARK SMILES IDX 60 96 61 97 62 98 63 99
REMARK H PARENT 85 52 53 63
REMARK Flexibility Score: inf
ROOT
ATOM      1  C   UNL A   1      31.782  24.289  26.921  1.00  0.00     0.188 C 
ENDROOT
BRANCH   1   2
ATOM      2  O   UNL A   1      33.112  23.811  26.988  1.00  0.00    -0.376 OA
BRANCH   2   3
ATOM      3  C   UNL A   1      33.452  22.721  27.831  1.00  0.00     0.202 C 
BRANCH   3   4
ATOM      4  C   UNL A   1      33.948  21.391  27.261  1.00  0.00     0.261 C 
BRANCH   4   5
ATOM      5  O   UNL A   1      35.204  21.483  26.576  1.00  0.00    -0.460 OA
BRANCH   5   6
ATOM      6  C   UNL A   1      35.193  21.015  25.310  1.00  0.00     0.338 C 
ATOM      7  O   UNL A   1      35.777  20.024  24.902  1.00  0.00    -0.246 OA
BRANCH   6   8
ATOM      8  C   UNL A   1      34.281  21.800  24.461  1.00  0.00     0.087 C 
ATOM      9  C   UNL A   1      32.026  25.861  22.530  1.00  0.00     0.030 A 
ATOM     10  C   UNL A   1      31.589  24.586  22.921  1.00  0.00     0.063 A 
ATOM     11  C   UNL A   1      33.388  26.176  22.665  1.00  0.00     0.055 A 
ATOM     12  C   UNL A   1      32.492  23.640  23.415  1.00  0.00     0.129 A 
ATOM     13  C   UNL A   1      34.298  25.208  23.104  1.00  0.00     0.033 A 
ATOM     14  Cl  UNL A   1      34.019  27.750  22.325  1.00  0.00    -0.083 Cl
ATOM     15  C   UNL A   1      33.852  23.938  23.480  1.00  0.00     0.019 A 
ATOM     16  O   UNL A   1      31.951  22.474  23.879  1.00  0.00    -0.475 OA
ATOM     17  C   UNL A   1      34.777  22.974  24.050  1.00  0.00     0.027 C 
ATOM     18  C   UNL A   1      32.833  21.407  24.336  1.00  0.00     0.316 C 
BRANCH   9  19
ATOM     19  S   UNL A   1      30.792  27.042  21.993  1.00  0.00    -0.124 SA
BRANCH  19  20
ATOM     20  C   UNL A   1      29.663  27.084  23.439  1.00  0.00     0.078 C 
BRANCH  20  21
ATOM     21  C   UNL A   1      28.992  28.448  23.692  1.00  0.00    -0.007 C 
ATOM     22  C   UNL A   1      29.950  29.614  23.435  1.00  0.00     0.008 C 
ATOM     23  C   UNL A   1      27.774  28.619  22.775  1.00  0.00     0.008 C 
ENDBRANCH  20  21
ENDBRANCH  19  20
ENDBRANCH   9  19
BRANCH  18  24
ATOM     24  C   UNL A   1      32.538  20.174  23.464  1.00  0.00     0.430 C 
ATOM     25  F   UNL A   1      33.607  19.359  23.339  1.00  0.00    -0.167 F 
ATOM     26  F   UNL A   1      31.559  19.419  24.030  1.00  0.00    -0.167 F 
ATOM     27  F   UNL A   1      32.112  20.510  22.227  1.00  0.00    -0.167 F 
ENDBRANCH  18  24
ENDBRANCH   6   8
ENDBRANCH   5   6
ENDBRANCH   4   5
ENDBRANCH   3   4
ENDBRANCH   2   3
ENDBRANCH   1   2
BRANCH   1  28
ATOM     28  C   UNL A   1      31.471  25.674  26.319  1.00  0.00     0.188 C 
BRANCH  28  29
ATOM     29  O   UNL A   1      31.597  26.852  27.093  1.00  0.00    -0.376 OA
BRANCH  29  30
ATOM     30  C   UNL A   1      31.592  28.111  26.438  1.00  0.00     0.202 C 
BRANCH  30  31
ATOM     31  C   UNL A   1      31.972  29.374  27.213  1.00  0.00     0.261 C 
BRANCH  31  32
ATOM     32  O   UNL A   1      32.952  30.172  26.534  1.00  0.00    -0.460 OA
BRANCH  32  33
ATOM     33  C   UNL A   1      33.410  31.241  27.233  1.00  0.00     0.338 C 
ATOM     34  O   UNL A   1      32.786  32.239  27.550  1.00  0.00    -0.246 OA
BRANCH  33  35
ATOM     35  C   UNL A   1      34.753  30.918  27.745  1.00  0.00     0.060 A 
ATOM     36  C   UNL A   1      35.626  31.932  28.146  1.00  0.00     0.016 A 
ATOM     37  C   UNL A   1      35.135  29.572  27.820  1.00  0.00     0.016 A 
ATOM     38  C   UNL A   1      36.877  31.589  28.657  1.00  0.00     0.010 A 
ATOM     39  C   UNL A   1      36.394  29.232  28.311  1.00  0.00     0.010 A 
ATOM     40  C   UNL A   1      37.263  30.239  28.757  1.00  0.00    -0.014 A 
BRANCH  40  41
ATOM     41  C   UNL A   1      38.476  29.881  29.523  1.00  0.00     0.031 A 
ATOM     42  C   UNL A   1      38.760  30.440  30.880  1.00  0.00     0.074 A 
ATOM     43  C   UNL A   1      39.346  29.036  28.939  1.00  0.00     0.049 A 
ATOM     44  N   UNL A   1      39.723  30.121  31.704  1.00  0.00    -0.248 NA
ATOM     45  C   UNL A   1      37.861  31.491  31.378  1.00  0.00     0.031 C 
ATOM     46  C   UNL A   1      39.200  28.488  27.588  1.00  0.00     0.029 A 
ATOM     47  N   UNL A   1      40.519  28.495  29.396  1.00  0.00    -0.354 N 
ATOM     48  C   UNL A   1      39.555  30.928  32.820  1.00  0.00     0.074 A 
ATOM     49  C   UNL A   1      38.403  31.768  32.560  1.00  0.00     0.031 C 
ATOM     50  C   UNL A   1      40.237  27.679  27.331  1.00  0.00     0.029 A 
ATOM     51  C   UNL A   1      41.120  27.653  28.493  1.00  0.00     0.049 A 
ATOM     52  H   UNL A   1      40.893  28.692  30.286  1.00  0.00     0.167 HD
ATOM     53  C   UNL A   1      40.284  30.943  33.961  1.00  0.00     0.034 A 
ATOM     54  C   UNL A   1      42.246  26.923  28.593  1.00  0.00     0.034 A 
ATOM     55  C   UNL A   1      41.420  30.094  34.210  1.00  0.00     0.049 A 
ATOM     56  C   UNL A   1      43.018  26.935  29.878  1.00  0.00     0.074 A 
ATOM     57  C   UNL A   1      42.170  29.983  35.369  1.00  0.00     0.029 A 
ATOM     58  N   UNL A   1      41.983  29.225  33.287  1.00  0.00    -0.354 N 
ATOM     59  N   UNL A   1      42.751  27.584  30.985  1.00  0.00    -0.248 NA
ATOM     60  C   UNL A   1      44.219  26.094  29.943  1.00  0.00     0.031 C 
ATOM     61  C   UNL A   1      43.197  29.062  35.141  1.00  0.00     0.029 A 
ATOM     62  C   UNL A   1      43.077  28.585  33.845  1.00  0.00     0.049 A 
ATOM     63  H   UNL A   1      41.654  29.085  32.370  1.00  0.00     0.167 HD
ATOM     64  C   UNL A   1      43.738  27.214  31.888  1.00  0.00     0.074 A 
ATOM     65  C   UNL A   1      44.603  26.276  31.202  1.00  0.00     0.031 C 
ATOM     66  C   UNL A   1      43.912  27.626  33.166  1.00  0.00     0.034 A 
BRANCH  53  67
ATOM     67  C   UNL A   1      39.844  31.856  35.072  1.00  0.00     0.023 A 
ATOM     68  C   UNL A   1      40.168  33.226  34.996  1.00  0.00     0.012 A 
ATOM     69  C   UNL A   1      39.016  31.395  36.112  1.00  0.00     0.148 A 
ATOM     70  C   UNL A   1      39.680  34.123  35.945  1.00  0.00     0.002 A 
ATOM     71  C   UNL A   1      38.510  32.299  37.039  1.00  0.00     0.091 A 
ATOM     72  F   UNL A   1      38.731  30.085  36.169  1.00  0.00    -0.205 F 
ATOM     73  C   UNL A   1      38.844  33.662  36.959  1.00  0.00     0.022 A 
BRANCH  71  74
ATOM     74  S   UNL A   1      37.378  31.822  38.350  1.00  0.00     0.127 S 
ATOM     75  O   UNL A   1      38.196  32.053  39.541  1.00  0.00    -0.237 OA
ATOM     76  O   UNL A   1      36.281  32.772  38.170  1.00  0.00    -0.237 OA
ATOM     77  O   UNL A   1      37.031  30.431  38.096  1.00  0.00    -0.744 OA
ENDBRANCH  71  74
ENDBRANCH  53  67
BRANCH  54  78
ATOM     78  C   UNL A   1      42.630  26.051  27.454  1.00  0.00     0.023 A 
ATOM     79  C   UNL A   1      43.589  26.511  26.532  1.00  0.00     0.012 A 
ATOM     80  C   UNL A   1      42.145  24.733  27.354  1.00  0.00     0.148 A 
ATOM     81  C   UNL A   1      44.061  25.669  25.525  1.00  0.00     0.002 A 
ATOM     82  C   UNL A   1      42.647  23.889  26.374  1.00  0.00     0.091 A 
ATOM     83  F   UNL A   1      41.239  24.324  28.254  1.00  0.00    -0.205 F 
ATOM     84  C   UNL A   1      43.599  24.356  25.454  1.00  0.00     0.022 A 
BRANCH  82  85
ATOM     85  S   UNL A   1      42.200  22.153  26.268  1.00  0.00     0.127 S 
ATOM     86  O   UNL A   1      42.996  21.709  25.125  1.00  0.00    -0.237 OA
ATOM     87  O   UNL A   1      42.652  21.650  27.565  1.00  0.00    -0.237 OA
ATOM     88  O   UNL A   1      40.758  22.123  26.072  1.00  0.00    -0.744 OA
ENDBRANCH  82  85
ENDBRANCH  54  78
BRANCH  66  89
ATOM     89  C   UNL A   1      45.082  27.072  33.932  1.00  0.00     0.023 A 
ATOM     90  C   UNL A   1      46.293  27.790  33.959  1.00  0.00     0.012 A 
ATOM     91  C   UNL A   1      44.943  25.909  34.715  1.00  0.00     0.148 A 
ATOM     92  C   UNL A   1      47.355  27.354  34.750  1.00  0.00     0.002 A 
ATOM     93  C   UNL A   1      45.995  25.500  35.527  1.00  0.00     0.091 A 
ATOM     94  F   UNL A   1      43.784  25.239  34.663  1.00  0.00    -0.205 F 
ATOM     95  C   UNL A   1      47.202  26.218  35.542  1.00  0.00     0.022 A 
BRANCH  93  96
ATOM     96  S   UNL A   1      45.871  24.093  36.637  1.00  0.00     0.127 S 
ATOM     97  O   UNL A   1      47.108  24.214  37.410  1.00  0.00    -0.237 OA
ATOM     98  O   UNL A   1      44.652  24.397  37.386  1.00  0.00    -0.237 OA
ATOM     99  O   UNL A   1      45.786  22.912  35.789  1.00  0.00    -0.744 OA
ENDBRANCH  93  96
ENDBRANCH  66  89
ENDBRANCH  40  41
ENDBRANCH  33  35
ENDBRANCH  32  33
ENDBRANCH  31  32
ENDBRANCH  30  31
ENDBRANCH  29  30
ENDBRANCH  28  29
ENDBRANCH   1  28
TORSDOF 24
ENDMDL
MODEL 2
REMARK VINA RESULT:     -10.4      2.571      3.200
REMARK SMILES CC(C)CSc1cc2c(cc1Cl)C=C(C(=O)OCCOCCOCCOC(=O)c1ccc(-c3c4nc(c(-c5cccc(S(=O)(=O)[O-])c5F)c5ccc([nH]5)c(-c5cccc(S(=O)(=O)[O-])c5F)c5nc(c(-c6cccc(S(=O)(=O)[O-])c6F)c6ccc3[nH]6)C=C5)C=C4)cc1)[C@H](C(F)(F)F)O2
REMARK SMILES IDX 21 1 20 2 19 3 18 4 17 5 15 6 16 7 14 8 6 9 7 10 11 11 8 12
REMARK SMILES IDX 10 13 12 14 9 15 97 16 13 17 92 18 5 19 4 20 2 21 1 22 3 23
REMARK SMILES IDX 93 24 94 25 95 26 96 27 22 28 23 29 24 30 25 31 26 32 27 33
REMARK SMILES IDX 28 34 29 35 30 36 91 37 31 38 90 39 32 40 33 41 34 42 84 43
REMARK SMILES IDX 35 44 89 45 83 46 85 47 36 48 88 49 82 50 81 51 37 53 69 54
REMARK SMILES IDX 49 55 68 56 50 57 53 58 67 59 86 60 51 61 52 62 66 64 87 65
REMARK SMILES IDX 54 66 38 67 39 68 47 69 40 70 42 71 48 72 41 73 43 74 44 75
REMARK SMILES IDX 45 76 46 77 70 78 71 79 79 80 72 81 74 82 80 83 73 84 75 85
REMARK SMILES IDX 76 86 77 87 78 88 55 89 56 90 64 91 57 92 59 93 65 94 58 95
REMARK SMILES IDX 60 96 61 97 62 98 63 99
REMARK H PARENT 85 52 53 63
REMARK Flexibility Score: inf
ROOT
ATOM      1  C   UNL A   1      32.048  24.105  26.962  1.00  0.00     0.188 C 
ENDROOT
BRANCH   1   2
ATOM      2  O   UNL A   1      32.976  23.063  27.198  1.00  0.00    -0.376 OA
BRANCH   2   3
ATOM      3  C   UNL A   1      32.729  21.748  26.725  1.00  0.00     0.202 C 
BRANCH   3   4
ATOM      4  C   UNL A   1      31.875  21.489  25.482  1.00  0.00     0.261 C 
BRANCH   4   5
ATOM      5  O   UNL A   1      32.635  21.186  24.306  1.00  0.00    -0.460 OA
BRANCH   5   6
ATOM      6  C   UNL A   1      32.133  21.695  23.161  1.00  0.00     0.338 C 
ATOM      7  O   UNL A   1      31.632  21.060  22.247  1.00  0.00    -0.246 OA
BRANCH   6   8
ATOM      8  C   UNL A   1      32.162  23.168  23.177  1.00  0.00     0.087 C 
ATOM      9  C   UNL A   1      30.489  27.882  22.644  1.00  0.00     0.030 A 
ATOM     10  C   UNL A   1      31.695  27.227  22.349  1.00  0.00     0.063 A 
ATOM     11  C   UNL A   1      29.447  27.142  23.227  1.00  0.00     0.055 A 
ATOM     12  C   UNL A   1      31.865  25.871  22.647  1.00  0.00     0.129 A 
ATOM     13  C   UNL A   1      29.640  25.802  23.578  1.00  0.00     0.033 A 
ATOM     14  Cl  UNL A   1      27.882  27.814  23.529  1.00  0.00    -0.083 Cl
ATOM     15  C   UNL A   1      30.849  25.164  23.289  1.00  0.00     0.019 A 
ATOM     16  O   UNL A   1      33.027  25.300  22.213  1.00  0.00    -0.475 OA
ATOM     17  C   UNL A   1      31.009  23.742  23.542  1.00  0.00     0.027 C 
ATOM     18  C   UNL A   1      33.313  23.911  22.555  1.00  0.00     0.316 C 
BRANCH   9  19
ATOM     19  S   UNL A   1      30.321  29.594  22.149  1.00  0.00    -0.124 SA
BRANCH  19  20
ATOM     20  C   UNL A   1      29.470  30.321  23.604  1.00  0.00     0.078 C 
BRANCH  20  21
ATOM     21  C   UNL A   1      28.343  31.315  23.260  1.00  0.00    -0.007 C 
ATOM     22  C   UNL A   1      28.859  32.752  23.155  1.00  0.00     0.008 C 
ATOM     23  C   UNL A   1      27.696  30.940  21.921  1.00  0.00     0.008 C 
ENDBRANCH  20  21
ENDBRANCH  19  20
ENDBRANCH   9  19
BRANCH  18  24
ATOM     24  C   UNL A   1      34.632  23.905  23.347  1.00  0.00     0.430 C 
ATOM     25  F   UNL A   1      35.164  25.139  23.477  1.00  0.00    -0.167 F 
ATOM     26  F   UNL A   1      34.421  23.455  24.612  1.00  0.00    -0.167 F 
ATOM     27  F   UNL A   1      35.561  23.097  22.791  1.00  0.00    -0.167 F 
ENDBRANCH  18  24
ENDBRANCH   6   8
ENDBRANCH   5   6
ENDBRANCH   4   5
ENDBRANCH   3   4
ENDBRANCH   2   3
ENDBRANCH   1   2
BRANCH   1  28
ATOM     28  C   UNL A   1      32.504  25.440  26.340  1.00  0.00     0.188 C 
BRANCH  28  29
ATOM     29  O   UNL A   1      31.764  26.630  26.542  1.00  0.00    -0.376 OA
BRANCH  29  30
ATOM     30  C   UNL A   1      32.231  27.838  25.962  1.00  0.00     0.202 C 
BRANCH  30  31
ATOM     31  C   UNL A   1      32.611  29.017  26.860  1.00  0.00     0.261 C 
BRANCH  31  32
ATOM     32  O   UNL A   1      34.022  29.269  26.882  1.00  0.00    -0.460 OA
BRANCH  32  33
ATOM     33  C   UNL A   1      34.399  30.388  27.550  1.00  0.00     0.338 C 
ATOM     34  O   UNL A   1      33.729  31.386  27.757  1.00  0.00    -0.246 OA
BRANCH  33  35
ATOM     35  C   UNL A   1      35.703  30.132  28.185  1.00  0.00     0.060 A 
ATOM     36  C   UNL A   1      35.778  29.695  29.509  1.00  0.00     0.016 A 
ATOM     37  C   UNL A   1      36.866  30.338  27.431  1.00  0.00     0.016 A 
ATOM     38  C   UNL A   1      37.028  29.432  30.068  1.00  0.00     0.010 A 
ATOM     39  C   UNL A   1      38.115  30.094  27.999  1.00  0.00     0.010 A 
ATOM     40  C   UNL A   1      38.201  29.614  29.313  1.00  0.00    -0.014 A 
BRANCH  40  41
ATOM     41  C   UNL A   1      39.488  29.098  29.828  1.00  0.00     0.031 A 
ATOM     42  C   UNL A   1      40.160  29.679  31.031  1.00  0.00     0.074 A 
ATOM     43  C   UNL A   1      40.059  28.083  29.154  1.00  0.00     0.049 A 
ATOM     44  N   UNL A   1      41.226  29.249  31.652  1.00  0.00    -0.248 NA
ATOM     45  C   UNL A   1      39.573  30.897  31.608  1.00  0.00     0.031 C 
ATOM     46  C   UNL A   1      39.523  27.488  27.927  1.00  0.00     0.029 A 
ATOM     47  N   UNL A   1      41.207  27.376  29.395  1.00  0.00    -0.354 N 
ATOM     48  C   UNL A   1      41.446  30.137  32.695  1.00  0.00     0.074 A 
ATOM     49  C   UNL A   1      40.409  31.146  32.611  1.00  0.00     0.031 C 
ATOM     50  C   UNL A   1      40.335  26.499  27.529  1.00  0.00     0.029 A 
ATOM     51  C   UNL A   1      41.447  26.391  28.469  1.00  0.00     0.049 A 
ATOM     52  H   UNL A   1      41.802  27.558  30.159  1.00  0.00     0.167 HD
ATOM     53  C   UNL A   1      42.411  30.094  33.644  1.00  0.00     0.034 A 
ATOM     54  C   UNL A   1      42.439  25.485  28.391  1.00  0.00     0.034 A 
ATOM     55  C   UNL A   1      43.429  29.078  33.721  1.00  0.00     0.049 A 
ATOM     56  C   UNL A   1      43.478  25.440  29.471  1.00  0.00     0.074 A 
ATOM     57  C   UNL A   1      44.399  28.909  34.693  1.00  0.00     0.029 A 
ATOM     58  N   UNL A   1      43.623  28.073  32.786  1.00  0.00    -0.354 N 
ATOM     59  N   UNL A   1      43.577  26.189  30.542  1.00  0.00    -0.248 NA
ATOM     60  C   UNL A   1      44.518  24.410  29.355  1.00  0.00     0.031 C 
ATOM     61  C   UNL A   1      45.191  27.813  34.338  1.00  0.00     0.029 A 
ATOM     62  C   UNL A   1      44.704  27.288  33.152  1.00  0.00     0.049 A 
ATOM     63  H   UNL A   1      43.075  27.937  31.980  1.00  0.00     0.167 HD
ATOM     64  C   UNL A   1      44.677  25.710  31.239  1.00  0.00     0.074 A 
ATOM     65  C   UNL A   1      45.205  24.598  30.477  1.00  0.00     0.031 C 
ATOM     66  C   UNL A   1      45.202  26.161  32.404  1.00  0.00     0.034 A 
BRANCH  53  67
ATOM     67  C   UNL A   1      42.386  31.134  34.730  1.00  0.00     0.023 A 
ATOM     68  C   UNL A   1      41.802  30.809  35.970  1.00  0.00     0.012 A 
ATOM     69  C   UNL A   1      43.042  32.370  34.572  1.00  0.00     0.148 A 
ATOM     70  C   UNL A   1      41.863  31.704  37.038  1.00  0.00     0.002 A 
ATOM     71  C   UNL A   1      43.123  33.245  35.650  1.00  0.00     0.091 A 
ATOM     72  F   UNL A   1      43.580  32.659  33.379  1.00  0.00    -0.205 F 
ATOM     73  C   UNL A   1      42.531  32.915  36.881  1.00  0.00     0.022 A 
BRANCH  71  74
ATOM     74  S   UNL A   1      44.010  34.805  35.573  1.00  0.00     0.127 S 
ATOM     75  O   UNL A   1      45.389  34.349  35.400  1.00  0.00    -0.237 OA
ATOM     76  O   UNL A   1      43.423  35.435  34.390  1.00  0.00    -0.237 OA
ATOM     77  O   UNL A   1      43.734  35.488  36.829  1.00  0.00    -0.744 OA
ENDBRANCH  71  74
ENDBRANCH  53  67
BRANCH  54  78
ATOM     78  C   UNL A   1      42.411  24.494  27.286  1.00  0.00     0.023 A 
ATOM     79  C   UNL A   1      43.272  24.669  26.186  1.00  0.00     0.012 A 
ATOM     80  C   UNL A   1      41.632  23.325  27.380  1.00  0.00     0.148 A 
ATOM     81  C   UNL A   1      43.358  23.693  25.194  1.00  0.00     0.002 A 
ATOM     82  C   UNL A   1      41.753  22.340  26.410  1.00  0.00     0.091 A 
ATOM     83  F   UNL A   1      40.831  23.184  28.446  1.00  0.00    -0.205 F 
ATOM     84  C   UNL A   1      42.608  22.525  25.312  1.00  0.00     0.022 A 
BRANCH  82  85
ATOM     85  S   UNL A   1      40.915  20.755  26.528  1.00  0.00     0.127 S 
ATOM     86  O   UNL A   1      39.585  21.082  26.016  1.00  0.00    -0.237 OA
ATOM     87  O   UNL A   1      41.729  19.923  25.641  1.00  0.00    -0.237 OA
ATOM     88  O   UNL A   1      40.967  20.380  27.933  1.00  0.00    -0.744 OA
ENDBRANCH  82  85
ENDBRANCH  54  78
BRANCH  66  89
ATOM     89  C   UNL A   1      46.417  25.460  32.947  1.00  0.00     0.023 A 
ATOM     90  C   UNL A   1      47.696  25.978  32.669  1.00  0.00     0.012 A 
ATOM     91  C   UNL A   1      46.284  24.365  33.823  1.00  0.00     0.148 A 
ATOM     92  C   UNL A   1      48.829  25.412  33.250  1.00  0.00     0.002 A 
ATOM     93  C   UNL A   1      47.415  23.827  34.426  1.00  0.00     0.091 A 
ATOM     94  F   UNL A   1      45.056  23.884  34.062  1.00  0.00    -0.205 F 
ATOM     95  C   UNL A   1      48.688  24.346  34.137  1.00  0.00     0.022 A 
BRANCH  93  96
ATOM     96  S   UNL A   1      47.332  22.502  35.636  1.00  0.00     0.127 S 
ATOM     97  O   UNL A   1      48.728  22.401  36.062  1.00  0.00    -0.237 OA
ATOM     98  O   UNL A   1      46.426  23.058  36.640  1.00  0.00    -0.237 OA
ATOM     99  O   UNL A   1      46.817  21.338  34.928  1.00  0.00    -0.744 OA
ENDBRANCH  93  96
ENDBRANCH  66  89
ENDBRANCH  40  41
ENDBRANCH  33  35
ENDBRANCH  32  33
ENDBRANCH  31  32
ENDBRANCH  30  31
ENDBRANCH  29  30
ENDBRANCH  28  29
ENDBRANCH   1  28
TORSDOF 24
ENDMDL
MODEL 3
REMARK VINA RESULT:     -10.2      2.293      7.710
REMARK SMILES CC(C)CSc1cc2c(cc1Cl)C=C(C(=O)OCCOCCOCCOC(=O)c1ccc(-c3c4nc(c(-c5cccc(S(=O)(=O)[O-])c5F)c5ccc([nH]5)c(-c5cccc(S(=O)(=O)[O-])c5F)c5nc(c(-c6cccc(S(=O)(=O)[O-])c6F)c6ccc3[nH]6)C=C5)C=C4)cc1)[C@H](C(F)(F)F)O2
REMARK SMILES IDX 21 1 20 2 19 3 18 4 17 5 15 6 16 7 14 8 6 9 7 10 11 11 8 12
REMARK SMILES IDX 10 13 12 14 9 15 97 16 13 17 92 18 5 19 4 20 2 21 1 22 3 23
REMARK SMILES IDX 93 24 94 25 95 26 96 27 22 28 23 29 24 30 25 31 26 32 27 33
REMARK SMILES IDX 28 34 29 35 30 36 91 37 31 38 90 39 32 40 33 41 34 42 84 43
REMARK SMILES IDX 35 44 89 45 83 46 85 47 36 48 88 49 82 50 81 51 37 53 69 54
REMARK SMILES IDX 49 55 68 56 50 57 53 58 67 59 86 60 51 61 52 62 66 64 87 65
REMARK SMILES IDX 54 66 38 67 39 68 47 69 40 70 42 71 48 72 41 73 43 74 44 75
REMARK SMILES IDX 45 76 46 77 70 78 71 79 79 80 72 81 74 82 80 83 73 84 75 85
REMARK SMILES IDX 76 86 77 87 78 88 55 89 56 90 64 91 57 92 59 93 65 94 58 95
REMARK SMILES IDX 60 96 61 97 62 98 63 99
REMARK H PARENT 85 52 53 63
REMARK Flexibility Score: inf
ROOT
ATOM      1  C   UNL A   1      32.118  24.694  26.678  1.00  0.00     0.188 C 
ENDROOT
BRANCH   1   2
ATOM      2  O   UNL A   1      33.046  23.637  26.824  1.00  0.00    -0.376 OA
BRANCH   2   3
ATOM      3  C   UNL A   1      32.641  22.286  26.665  1.00  0.00     0.202 C 
BRANCH   3   4
ATOM      4  C   UNL A   1      31.712  21.856  25.527  1.00  0.00     0.261 C 
BRANCH   4   5
ATOM      5  O   UNL A   1      32.375  21.156  24.466  1.00  0.00    -0.460 OA
BRANCH   5   6
ATOM      6  C   UNL A   1      32.156  21.658  23.233  1.00  0.00     0.338 C 
ATOM      7  O   UNL A   1      31.865  21.019  22.235  1.00  0.00    -0.246 OA
BRANCH   6   8
ATOM      8  C   UNL A   1      32.206  23.130  23.242  1.00  0.00     0.087 C 
ATOM      9  C   UNL A   1      30.630  27.864  22.602  1.00  0.00     0.030 A 
ATOM     10  C   UNL A   1      31.839  27.190  22.368  1.00  0.00     0.063 A 
ATOM     11  C   UNL A   1      29.550  27.144  23.139  1.00  0.00     0.055 A 
ATOM     12  C   UNL A   1      31.974  25.834  22.682  1.00  0.00     0.129 A 
ATOM     13  C   UNL A   1      29.707  25.803  23.506  1.00  0.00     0.033 A 
ATOM     14  Cl  UNL A   1      27.983  27.840  23.361  1.00  0.00    -0.083 Cl
ATOM     15  C   UNL A   1      30.919  25.145  23.279  1.00  0.00     0.019 A 
ATOM     16  O   UNL A   1      33.148  25.243  22.307  1.00  0.00    -0.475 OA
ATOM     17  C   UNL A   1      31.045  23.724  23.548  1.00  0.00     0.027 C 
ATOM     18  C   UNL A   1      33.397  23.852  22.671  1.00  0.00     0.316 C 
BRANCH   9  19
ATOM     19  S   UNL A   1      30.512  29.575  22.089  1.00  0.00    -0.124 SA
BRANCH  19  20
ATOM     20  C   UNL A   1      29.500  30.299  23.439  1.00  0.00     0.078 C 
BRANCH  20  21
ATOM     21  C   UNL A   1      28.452  31.330  22.975  1.00  0.00    -0.007 C 
ATOM     22  C   UNL A   1      27.234  31.366  23.902  1.00  0.00     0.008 C 
ATOM     23  C   UNL A   1      29.068  32.734  22.941  1.00  0.00     0.008 C 
ENDBRANCH  20  21
ENDBRANCH  19  20
ENDBRANCH   9  19
BRANCH  18  24
ATOM     24  C   UNL A   1      34.676  23.832  23.525  1.00  0.00     0.430 C 
ATOM     25  F   UNL A   1      34.771  24.903  24.342  1.00  0.00    -0.167 F 
ATOM     26  F   UNL A   1      34.684  22.742  24.337  1.00  0.00    -0.167 F 
ATOM     27  F   UNL A   1      35.795  23.771  22.772  1.00  0.00    -0.167 F 
ENDBRANCH  18  24
ENDBRANCH   6   8
ENDBRANCH   5   6
ENDBRANCH   4   5
ENDBRANCH   3   4
ENDBRANCH   2   3
ENDBRANCH   1   2
BRANCH   1  28
ATOM     28  C   UNL A   1      32.597  26.123  26.348  1.00  0.00     0.188 C 
BRANCH  28  29
ATOM     29  O   UNL A   1      31.970  27.254  26.922  1.00  0.00    -0.376 OA
BRANCH  29  30
ATOM     30  C   UNL A   1      31.759  28.406  26.119  1.00  0.00     0.202 C 
BRANCH  30  31
ATOM     31  C   UNL A   1      31.796  29.796  26.757  1.00  0.00     0.261 C 
BRANCH  31  32
ATOM     32  O   UNL A   1      32.868  30.609  26.261  1.00  0.00    -0.460 OA
BRANCH  32  33
ATOM     33  C   UNL A   1      33.311  31.564  27.117  1.00  0.00     0.338 C 
ATOM     34  O   UNL A   1      32.698  32.540  27.517  1.00  0.00    -0.246 OA
BRANCH  33  35
ATOM     35  C   UNL A   1      34.605  31.127  27.669  1.00  0.00     0.060 A 
ATOM     36  C   UNL A   1      35.566  32.063  28.059  1.00  0.00     0.016 A 
ATOM     37  C   UNL A   1      34.851  29.753  27.792  1.00  0.00     0.016 A 
ATOM     38  C   UNL A   1      36.767  31.615  28.608  1.00  0.00     0.010 A 
ATOM     39  C   UNL A   1      36.061  29.307  28.320  1.00  0.00     0.010 A 
ATOM     40  C   UNL A   1      37.015  30.237  28.756  1.00  0.00    -0.014 A 
BRANCH  40  41
ATOM     41  C   UNL A   1      38.172  29.786  29.559  1.00  0.00     0.031 A 
ATOM     42  C   UNL A   1      39.183  28.818  29.034  1.00  0.00     0.074 A 
ATOM     43  C   UNL A   1      38.278  30.267  30.812  1.00  0.00     0.049 A 
ATOM     44  N   UNL A   1      40.301  28.431  29.588  1.00  0.00    -0.248 NA
ATOM     45  C   UNL A   1      38.908  28.198  27.730  1.00  0.00     0.031 C 
ATOM     46  C   UNL A   1      37.308  31.163  31.448  1.00  0.00     0.029 A 
ATOM     47  N   UNL A   1      39.235  30.073  31.772  1.00  0.00    -0.354 N 
ATOM     48  C   UNL A   1      40.870  27.522  28.708  1.00  0.00     0.074 A 
ATOM     49  C   UNL A   1      39.961  27.400  27.587  1.00  0.00     0.031 C 
ATOM     50  C   UNL A   1      37.726  31.449  32.688  1.00  0.00     0.029 A 
ATOM     51  C   UNL A   1      38.988  30.759  32.936  1.00  0.00     0.049 A 
ATOM     52  H   UNL A   1      40.023  29.497  31.640  1.00  0.00     0.167 HD
ATOM     53  C   UNL A   1      42.053  26.873  28.822  1.00  0.00     0.034 A 
ATOM     54  C   UNL A   1      39.705  30.843  34.072  1.00  0.00     0.034 A 
ATOM     55  C   UNL A   1      42.952  27.013  29.939  1.00  0.00     0.049 A 
ATOM     56  C   UNL A   1      41.025  30.138  34.160  1.00  0.00     0.074 A 
ATOM     57  C   UNL A   1      44.209  26.456  30.102  1.00  0.00     0.029 A 
ATOM     58  N   UNL A   1      42.688  27.744  31.087  1.00  0.00    -0.354 N 
ATOM     59  N   UNL A   1      41.625  29.410  33.250  1.00  0.00    -0.248 NA
ATOM     60  C   UNL A   1      41.782  30.291  35.409  1.00  0.00     0.031 C 
ATOM     61  C   UNL A   1      44.697  26.835  31.356  1.00  0.00     0.029 A 
ATOM     62  C   UNL A   1      43.752  27.643  31.968  1.00  0.00     0.049 A 
ATOM     63  H   UNL A   1      41.866  28.259  31.252  1.00  0.00     0.167 HD
ATOM     64  C   UNL A   1      42.840  29.034  33.806  1.00  0.00     0.074 A 
ATOM     65  C   UNL A   1      42.896  29.624  35.128  1.00  0.00     0.031 C 
ATOM     66  C   UNL A   1      43.814  28.261  33.268  1.00  0.00     0.034 A 
BRANCH  53  67
ATOM     67  C   UNL A   1      42.495  25.997  27.682  1.00  0.00     0.023 A 
ATOM     68  C   UNL A   1      43.452  26.492  26.774  1.00  0.00     0.012 A 
ATOM     69  C   UNL A   1      42.068  24.659  27.582  1.00  0.00     0.148 A 
ATOM     70  C   UNL A   1      43.971  25.670  25.775  1.00  0.00     0.002 A 
ATOM     71  C   UNL A   1      42.611  23.838  26.600  1.00  0.00     0.091 A 
ATOM     72  F   UNL A   1      41.148  24.215  28.452  1.00  0.00    -0.205 F 
ATOM     73  C   UNL A   1      43.559  24.342  25.695  1.00  0.00     0.022 A 
BRANCH  71  74
ATOM     74  S   UNL A   1      42.194  22.098  26.446  1.00  0.00     0.127 S 
ATOM     75  O   UNL A   1      42.622  21.577  27.744  1.00  0.00    -0.237 OA
ATOM     76  O   UNL A   1      40.744  22.144  26.255  1.00  0.00    -0.237 OA
ATOM     77  O   UNL A   1      42.945  21.603  25.300  1.00  0.00    -0.744 OA
ENDBRANCH  71  74
ENDBRANCH  53  67
BRANCH  54  78
ATOM     78  C   UNL A   1      39.206  31.716  35.164  1.00  0.00     0.023 A 
ATOM     79  C   UNL A   1      38.376  31.164  36.158  1.00  0.00     0.012 A 
ATOM     80  C   UNL A   1      39.649  33.047  35.288  1.00  0.00     0.148 A 
ATOM     81  C   UNL A   1      37.994  31.925  37.261  1.00  0.00     0.002 A 
ATOM     82  C   UNL A   1      39.296  33.786  36.408  1.00  0.00     0.091 A 
ATOM     83  F   UNL A   1      40.446  33.539  34.329  1.00  0.00    -0.205 F 
ATOM     84  C   UNL A   1      38.462  33.231  37.392  1.00  0.00     0.022 A 
BRANCH  82  85
ATOM     85  S   UNL A   1      39.936  35.434  36.723  1.00  0.00     0.127 S 
ATOM     86  O   UNL A   1      39.322  35.753  38.010  1.00  0.00    -0.237 OA
ATOM     87  O   UNL A   1      41.378  35.188  36.773  1.00  0.00    -0.237 OA
ATOM     88  O   UNL A   1      39.497  36.254  35.603  1.00  0.00    -0.744 OA
ENDBRANCH  82  85
ENDBRANCH  54  78
BRANCH  66  89
ATOM     89  C   UNL A   1      45.041  27.997  34.096  1.00  0.00     0.023 A 
ATOM     90  C   UNL A   1      45.107  26.830  34.881  1.00  0.00     0.012 A 
ATOM     91  C   UNL A   1      46.167  28.839  34.002  1.00  0.00     0.148 A 
ATOM     92  C   UNL A   1      46.275  26.507  35.570  1.00  0.00     0.002 A 
ATOM     93  C   UNL A   1      47.339  28.493  34.665  1.00  0.00     0.091 A 
ATOM     94  F   UNL A   1      46.074  29.949  33.257  1.00  0.00    -0.205 F 
ATOM     95  C   UNL A   1      47.393  27.330  35.452  1.00  0.00     0.022 A 
BRANCH  93  96
ATOM     96  S   UNL A   1      48.854  29.447  34.518  1.00  0.00     0.127 S 
ATOM     97  O   UNL A   1      49.142  29.766  35.917  1.00  0.00    -0.237 OA
ATOM     98  O   UNL A   1      49.770  28.483  33.911  1.00  0.00    -0.237 OA
ATOM     99  O   UNL A   1      48.531  30.594  33.678  1.00  0.00    -0.744 OA
ENDBRANCH  93  96
ENDBRANCH  66  89
ENDBRANCH  40  41
ENDBRANCH  33  35
ENDBRANCH  32  33
ENDBRANCH  31  32
ENDBRANCH  30  31
ENDBRANCH  29  30
ENDBRANCH  28  29
ENDBRANCH   1  28
TORSDOF 24
ENDMDL
