MODEL 1
REMARK VINA RESULT:     -10.5      0.000      0.000
REMARK SMILES Cc1nccn1CCC[NH+]1CCC2(CC1)[C@@H](C(=O)OCCOCCOCCOC(=O)c1ccc(-c3c4nc(c(-c5cccc(S(=O)(=O)[O-])c5F)c5ccc([nH]5)c(-c5cccc(S(=O)(=O)[O-])c5F)c5nc(c(-c6cccc(S(=O)(=O)[O-])c6F)c6ccc3[nH]6)C=C5)C=C4)cc1)CC(=O)N2C
REMARK SMILES IDX 23 1 22 2 21 3 20 4 19 5 17 6 18 7 16 8 10 9 11 10 15 11
REMARK SMILES IDX 12 13 14 14 13 15 97 16 94 17 95 18 98 19 96 20 9 21 8 22
REMARK SMILES IDX 7 23 6 24 1 25 2 26 3 27 4 28 5 29 24 30 25 31 26 32 27 33
REMARK SMILES IDX 28 34 29 35 30 36 31 37 32 38 93 39 33 40 92 41 34 42 35 43
REMARK SMILES IDX 36 44 86 45 37 46 91 47 85 48 87 49 38 50 90 51 84 52 83 53
REMARK SMILES IDX 39 55 71 56 51 57 70 58 52 59 55 60 69 61 88 62 53 63 54 64
REMARK SMILES IDX 68 66 89 67 56 68 40 69 41 70 49 71 42 72 44 73 50 74 43 75
REMARK SMILES IDX 45 76 46 77 47 78 48 79 72 80 73 81 81 82 74 83 76 84 82 85
REMARK SMILES IDX 75 86 77 87 78 88 79 89 80 90 57 91 58 92 66 93 59 94 61 95
REMARK SMILES IDX 67 96 60 97 62 98 63 99 64 100 65 101
REMARK H PARENT 10 12 87 54 55 65
REMARK Flexibility Score: inf
ROOT
ATOM      1  C   UNL A   1      41.649  20.582  26.868  1.00  0.00     0.188 C 
ENDROOT
BRANCH   1   2
ATOM      2  O   UNL A   1      40.305  20.976  27.044  1.00  0.00    -0.376 OA
BRANCH   2   3
ATOM      3  C   UNL A   1      39.562  21.380  25.906  1.00  0.00     0.202 C 
BRANCH   3   4
ATOM      4  C   UNL A   1      38.228  22.097  26.120  1.00  0.00     0.261 C 
BRANCH   4   5
ATOM      5  O   UNL A   1      37.167  21.544  25.319  1.00  0.00    -0.463 OA
BRANCH   5   6
ATOM      6  C   UNL A   1      35.879  21.824  25.681  1.00  0.00     0.311 C 
ATOM      7  O   UNL A   1      35.512  22.123  26.808  1.00  0.00    -0.252 OA
BRANCH   6   8
ATOM      8  C   UNL A   1      34.964  21.638  24.484  1.00  0.00     0.134 C 
ATOM      9  N   UNL A   1      32.789  25.205  23.051  1.00  0.00    -0.335 N 
ATOM     10  C   UNL A   1      32.553  23.910  22.420  1.00  0.00     0.264 C 
ATOM     11  C   UNL A   1      32.975  25.092  24.505  1.00  0.00     0.264 C 
ATOM     12  H   UNL A   1      31.923  25.715  22.879  1.00  0.00     0.348 HD
ATOM     13  C   UNL A   1      33.570  22.832  22.787  1.00  0.00     0.091 C 
ATOM     14  C   UNL A   1      33.974  24.013  24.954  1.00  0.00     0.091 C 
ATOM     15  C   UNL A   1      33.765  22.626  24.315  1.00  0.00     0.067 C 
ATOM     16  N   UNL A   1      32.659  21.847  24.903  1.00  0.00    -0.339 N 
ATOM     17  C   UNL A   1      34.345  20.243  24.581  1.00  0.00     0.118 C 
ATOM     18  C   UNL A   1      32.941  20.496  25.038  1.00  0.00     0.223 C 
ATOM     19  C   UNL A   1      31.406  22.395  25.388  1.00  0.00     0.147 C 
ATOM     20  O   UNL A   1      32.181  19.626  25.435  1.00  0.00    -0.275 OA
BRANCH   9  21
ATOM     21  C   UNL A   1      33.823  26.040  22.429  1.00  0.00     0.264 C 
BRANCH  21  22
ATOM     22  C   UNL A   1      33.486  27.521  22.201  1.00  0.00     0.083 C 
BRANCH  22  23
ATOM     23  C   UNL A   1      32.087  27.945  22.659  1.00  0.00     0.129 C 
BRANCH  23  24
ATOM     24  N   UNL A   1      32.061  28.813  23.820  1.00  0.00    -0.335 N 
ATOM     25  C   UNL A   1      29.655  29.620  23.663  1.00  0.00     0.087 C 
ATOM     26  C   UNL A   1      31.000  29.557  24.287  1.00  0.00     0.105 A 
ATOM     27  N   UNL A   1      31.343  30.207  25.378  1.00  0.00    -0.242 NA
ATOM     28  C   UNL A   1      32.640  29.870  25.640  1.00  0.00     0.131 A 
ATOM     29  C   UNL A   1      33.093  28.968  24.710  1.00  0.00     0.107 A 
ENDBRANCH  23  24
ENDBRANCH  22  23
ENDBRANCH  21  22
ENDBRANCH   9  21
ENDBRANCH   6   8
ENDBRANCH   5   6
ENDBRANCH   4   5
ENDBRANCH   3   4
ENDBRANCH   2   3
ENDBRANCH   1   2
BRANCH   1  30
ATOM     30  C   UNL A   1      41.984  19.327  26.035  1.00  0.00     0.188 C 
BRANCH  30  31
ATOM     31  O   UNL A   1      42.878  19.354  24.938  1.00  0.00    -0.376 OA
BRANCH  31  32
ATOM     32  C   UNL A   1      44.273  19.562  25.107  1.00  0.00     0.202 C 
BRANCH  32  33
ATOM     33  C   UNL A   1      45.037  20.512  24.198  1.00  0.00     0.261 C 
BRANCH  33  34
ATOM     34  O   UNL A   1      44.239  21.593  23.735  1.00  0.00    -0.460 OA
BRANCH  34  35
ATOM     35  C   UNL A   1      44.663  22.773  24.220  1.00  0.00     0.338 C 
ATOM     36  O   UNL A   1      45.634  23.419  23.851  1.00  0.00    -0.246 OA
BRANCH  35  37
ATOM     37  C   UNL A   1      43.795  23.245  25.293  1.00  0.00     0.060 A 
ATOM     38  C   UNL A   1      42.998  24.332  24.941  1.00  0.00     0.016 A 
ATOM     39  C   UNL A   1      44.111  22.943  26.614  1.00  0.00     0.016 A 
ATOM     40  C   UNL A   1      42.798  25.322  25.864  1.00  0.00     0.010 A 
ATOM     41  C   UNL A   1      43.848  23.910  27.561  1.00  0.00     0.010 A 
ATOM     42  C   UNL A   1      43.337  25.146  27.136  1.00  0.00    -0.014 A 
BRANCH  42  43
ATOM     43  C   UNL A   1      43.416  26.330  27.982  1.00  0.00     0.031 A 
ATOM     44  C   UNL A   1      44.660  27.133  27.841  1.00  0.00     0.074 A 
ATOM     45  C   UNL A   1      42.360  26.679  28.746  1.00  0.00     0.049 A 
ATOM     46  N   UNL A   1      45.372  27.698  28.763  1.00  0.00    -0.248 NA
ATOM     47  C   UNL A   1      45.237  27.239  26.489  1.00  0.00     0.031 C 
ATOM     48  C   UNL A   1      41.039  26.034  28.775  1.00  0.00     0.029 A 
ATOM     49  N   UNL A   1      42.167  27.808  29.488  1.00  0.00    -0.354 N 
ATOM     50  C   UNL A   1      46.362  28.403  28.083  1.00  0.00     0.074 A 
ATOM     51  C   UNL A   1      46.325  27.968  26.714  1.00  0.00     0.031 C 
ATOM     52  C   UNL A   1      40.126  26.935  29.184  1.00  0.00     0.029 A 
ATOM     53  C   UNL A   1      40.820  28.156  29.552  1.00  0.00     0.049 A 
ATOM     54  H   UNL A   1      42.890  28.315  29.925  1.00  0.00     0.167 HD
ATOM     55  C   UNL A   1      46.992  29.477  28.627  1.00  0.00     0.034 A 
ATOM     56  C   UNL A   1      40.307  29.395  29.731  1.00  0.00     0.034 A 
ATOM     57  C   UNL A   1      46.971  29.463  30.061  1.00  0.00     0.049 A 
ATOM     58  C   UNL A   1      41.374  30.255  30.286  1.00  0.00     0.074 A 
ATOM     59  C   UNL A   1      47.421  28.589  31.032  1.00  0.00     0.029 A 
ATOM     60  N   UNL A   1      46.141  30.344  30.707  1.00  0.00    -0.354 N 
ATOM     61  N   UNL A   1      41.868  30.129  31.486  1.00  0.00    -0.248 NA
ATOM     62  C   UNL A   1      42.174  31.036  29.358  1.00  0.00     0.031 C 
ATOM     63  C   UNL A   1      46.485  28.701  32.098  1.00  0.00     0.029 A 
ATOM     64  C   UNL A   1      45.538  29.655  31.725  1.00  0.00     0.049 A 
ATOM     65  H   UNL A   1      46.005  31.292  30.481  1.00  0.00     0.167 HD
ATOM     66  C   UNL A   1      43.216  30.436  31.341  1.00  0.00     0.074 A 
ATOM     67  C   UNL A   1      43.314  31.107  30.048  1.00  0.00     0.031 C 
ATOM     68  C   UNL A   1      44.166  29.859  32.136  1.00  0.00     0.034 A 
BRANCH  55  69
ATOM     69  C   UNL A   1      47.348  30.708  27.831  1.00  0.00     0.023 A 
ATOM     70  C   UNL A   1      48.681  31.166  27.888  1.00  0.00     0.012 A 
ATOM     71  C   UNL A   1      46.395  31.577  27.249  1.00  0.00     0.148 A 
ATOM     72  C   UNL A   1      49.037  32.438  27.423  1.00  0.00     0.002 A 
ATOM     73  C   UNL A   1      46.770  32.799  26.706  1.00  0.00     0.091 A 
ATOM     74  F   UNL A   1      45.089  31.299  27.327  1.00  0.00    -0.205 F 
ATOM     75  C   UNL A   1      48.084  33.250  26.818  1.00  0.00     0.022 A 
BRANCH  73  76
ATOM     76  S   UNL A   1      45.571  33.827  25.850  1.00  0.00     0.127 S 
ATOM     77  O   UNL A   1      46.435  34.724  25.092  1.00  0.00    -0.237 OA
ATOM     78  O   UNL A   1      44.839  32.846  25.048  1.00  0.00    -0.237 OA
ATOM     79  O   UNL A   1      44.773  34.432  26.912  1.00  0.00    -0.744 OA
ENDBRANCH  73  76
ENDBRANCH  55  69
BRANCH  56  80
ATOM     80  C   UNL A   1      39.043  29.939  29.183  1.00  0.00     0.023 A 
ATOM     81  C   UNL A   1      38.582  29.496  27.931  1.00  0.00     0.012 A 
ATOM     82  C   UNL A   1      38.177  30.739  29.968  1.00  0.00     0.148 A 
ATOM     83  C   UNL A   1      37.303  29.840  27.473  1.00  0.00     0.002 A 
ATOM     84  C   UNL A   1      36.922  31.106  29.494  1.00  0.00     0.091 A 
ATOM     85  F   UNL A   1      38.542  31.066  31.215  1.00  0.00    -0.205 F 
ATOM     86  C   UNL A   1      36.477  30.649  28.250  1.00  0.00     0.022 A 
BRANCH  84  87
ATOM     87  S   UNL A   1      35.830  32.178  30.439  1.00  0.00     0.127 S 
ATOM     88  O   UNL A   1      35.575  31.379  31.639  1.00  0.00    -0.237 OA
ATOM     89  O   UNL A   1      36.666  33.354  30.654  1.00  0.00    -0.237 OA
ATOM     90  O   UNL A   1      34.653  32.374  29.599  1.00  0.00    -0.744 OA
ENDBRANCH  84  87
ENDBRANCH  56  80
BRANCH  68  91
ATOM     91  C   UNL A   1      43.716  29.081  33.349  1.00  0.00     0.023 A 
ATOM     92  C   UNL A   1      43.069  27.835  33.222  1.00  0.00     0.012 A 
ATOM     93  C   UNL A   1      44.124  29.505  34.627  1.00  0.00     0.148 A 
ATOM     94  C   UNL A   1      42.806  27.043  34.342  1.00  0.00     0.002 A 
ATOM     95  C   UNL A   1      43.899  28.694  35.735  1.00  0.00     0.091 A 
ATOM     96  F   UNL A   1      44.750  30.687  34.738  1.00  0.00    -0.205 F 
ATOM     97  C   UNL A   1      43.232  27.467  35.598  1.00  0.00     0.022 A 
BRANCH  95  98
ATOM     98  S   UNL A   1      44.537  29.124  37.358  1.00  0.00     0.127 S 
ATOM     99  O   UNL A   1      43.714  30.277  37.717  1.00  0.00    -0.237 OA
ATOM    100  O   UNL A   1      44.268  27.918  38.142  1.00  0.00    -0.237 OA
ATOM    101  O   UNL A   1      45.956  29.399  37.166  1.00  0.00    -0.744 OA
ENDBRANCH  95  98
ENDBRANCH  68  91
ENDBRANCH  42  43
ENDBRANCH  35  37
ENDBRANCH  34  35
ENDBRANCH  33  34
ENDBRANCH  32  33
ENDBRANCH  31  32
ENDBRANCH  30  31
ENDBRANCH   1  30
TORSDOF 24
ENDMDL
MODEL 2
REMARK VINA RESULT:     -10.5      2.801      6.919
REMARK SMILES Cc1nccn1CCC[NH+]1CCC2(CC1)[C@@H](C(=O)OCCOCCOCCOC(=O)c1ccc(-c3c4nc(c(-c5cccc(S(=O)(=O)[O-])c5F)c5ccc([nH]5)c(-c5cccc(S(=O)(=O)[O-])c5F)c5nc(c(-c6cccc(S(=O)(=O)[O-])c6F)c6ccc3[nH]6)C=C5)C=C4)cc1)CC(=O)N2C
REMARK SMILES IDX 23 1 22 2 21 3 20 4 19 5 17 6 18 7 16 8 10 9 11 10 15 11
REMARK SMILES IDX 12 13 14 14 13 15 97 16 94 17 95 18 98 19 96 20 9 21 8 22
REMARK SMILES IDX 7 23 6 24 1 25 2 26 3 27 4 28 5 29 24 30 25 31 26 32 27 33
REMARK SMILES IDX 28 34 29 35 30 36 31 37 32 38 93 39 33 40 92 41 34 42 35 43
REMARK SMILES IDX 36 44 86 45 37 46 91 47 85 48 87 49 38 50 90 51 84 52 83 53
REMARK SMILES IDX 39 55 71 56 51 57 70 58 52 59 55 60 69 61 88 62 53 63 54 64
REMARK SMILES IDX 68 66 89 67 56 68 40 69 41 70 49 71 42 72 44 73 50 74 43 75
REMARK SMILES IDX 45 76 46 77 47 78 48 79 72 80 73 81 81 82 74 83 76 84 82 85
REMARK SMILES IDX 75 86 77 87 78 88 79 89 80 90 57 91 58 92 66 93 59 94 61 95
REMARK SMILES IDX 67 96 60 97 62 98 63 99 64 100 65 101
REMARK H PARENT 10 12 87 54 55 65
REMARK Flexibility Score: inf
ROOT
ATOM      1  C   UNL A   1      39.892  20.559  25.944  1.00  0.00     0.188 C 
ENDROOT
BRANCH   1   2
ATOM      2  O   UNL A   1      38.639  19.993  25.623  1.00  0.00    -0.376 OA
BRANCH   2   3
ATOM      3  C   UNL A   1      37.729  20.757  24.849  1.00  0.00     0.202 C 
BRANCH   3   4
ATOM      4  C   UNL A   1      36.519  21.378  25.548  1.00  0.00     0.261 C 
BRANCH   4   5
ATOM      5  O   UNL A   1      35.383  21.516  24.672  1.00  0.00    -0.463 OA
BRANCH   5   6
ATOM      6  C   UNL A   1      35.027  22.775  24.279  1.00  0.00     0.311 C 
ATOM      7  O   UNL A   1      35.710  23.779  24.421  1.00  0.00    -0.252 OA
BRANCH   6   8
ATOM      8  C   UNL A   1      33.623  22.749  23.703  1.00  0.00     0.134 C 
ATOM      9  N   UNL A   1      30.959  26.110  24.757  1.00  0.00    -0.335 N 
ATOM     10  C   UNL A   1      30.449  25.008  23.948  1.00  0.00     0.264 C 
ATOM     11  C   UNL A   1      31.882  25.654  25.805  1.00  0.00     0.264 C 
ATOM     12  H   UNL A   1      30.123  26.482  25.208  1.00  0.00     0.348 HD
ATOM     13  C   UNL A   1      31.525  24.075  23.399  1.00  0.00     0.091 C 
ATOM     14  C   UNL A   1      32.987  24.695  25.330  1.00  0.00     0.091 C 
ATOM     15  C   UNL A   1      32.497  23.512  24.473  1.00  0.00     0.067 C 
ATOM     16  N   UNL A   1      31.878  22.417  25.244  1.00  0.00    -0.339 N 
ATOM     17  C   UNL A   1      33.171  21.290  23.639  1.00  0.00     0.118 C 
ATOM     18  C   UNL A   1      32.211  21.153  24.782  1.00  0.00     0.223 C 
ATOM     19  C   UNL A   1      31.057  22.580  26.429  1.00  0.00     0.147 C 
ATOM     20  O   UNL A   1      31.788  20.087  25.199  1.00  0.00    -0.275 OA
BRANCH   9  21
ATOM     21  C   UNL A   1      31.498  27.254  24.011  1.00  0.00     0.264 C 
BRANCH  21  22
ATOM     22  C   UNL A   1      31.195  28.656  24.560  1.00  0.00     0.083 C 
BRANCH  22  23
ATOM     23  C   UNL A   1      30.637  29.647  23.534  1.00  0.00     0.129 C 
BRANCH  23  24
ATOM     24  N   UNL A   1      29.205  29.567  23.325  1.00  0.00    -0.335 N 
ATOM     25  C   UNL A   1      28.727  32.027  22.887  1.00  0.00     0.087 C 
ATOM     26  C   UNL A   1      28.342  30.600  23.032  1.00  0.00     0.105 A 
ATOM     27  N   UNL A   1      27.115  30.145  22.891  1.00  0.00    -0.242 NA
ATOM     28  C   UNL A   1      27.179  28.793  23.074  1.00  0.00     0.131 A 
ATOM     29  C   UNL A   1      28.476  28.406  23.299  1.00  0.00     0.107 A 
ENDBRANCH  23  24
ENDBRANCH  22  23
ENDBRANCH  21  22
ENDBRANCH   9  21
ENDBRANCH   6   8
ENDBRANCH   5   6
ENDBRANCH   4   5
ENDBRANCH   3   4
ENDBRANCH   2   3
ENDBRANCH   1   2
BRANCH   1  30
ATOM     30  C   UNL A   1      41.102  19.646  26.230  1.00  0.00     0.188 C 
BRANCH  30  31
ATOM     31  O   UNL A   1      42.078  19.341  25.250  1.00  0.00    -0.376 OA
BRANCH  31  32
ATOM     32  C   UNL A   1      43.469  19.440  25.516  1.00  0.00     0.202 C 
BRANCH  32  33
ATOM     33  C   UNL A   1      44.210  20.755  25.327  1.00  0.00     0.261 C 
BRANCH  33  34
ATOM     34  O   UNL A   1      43.572  21.845  25.979  1.00  0.00    -0.460 OA
BRANCH  34  35
ATOM     35  C   UNL A   1      43.169  22.785  25.107  1.00  0.00     0.338 C 
ATOM     36  O   UNL A   1      43.432  22.849  23.914  1.00  0.00    -0.246 OA
BRANCH  35  37
ATOM     37  C   UNL A   1      42.328  23.783  25.757  1.00  0.00     0.060 A 
ATOM     38  C   UNL A   1      42.647  25.097  25.425  1.00  0.00     0.016 A 
ATOM     39  C   UNL A   1      41.641  23.448  26.920  1.00  0.00     0.016 A 
ATOM     40  C   UNL A   1      42.596  26.050  26.407  1.00  0.00     0.010 A 
ATOM     41  C   UNL A   1      41.525  24.425  27.886  1.00  0.00     0.010 A 
ATOM     42  C   UNL A   1      42.146  25.664  27.667  1.00  0.00    -0.014 A 
BRANCH  42  43
ATOM     43  C   UNL A   1      42.421  26.579  28.767  1.00  0.00     0.031 A 
ATOM     44  C   UNL A   1      41.437  27.680  28.944  1.00  0.00     0.074 A 
ATOM     45  C   UNL A   1      43.458  26.337  29.597  1.00  0.00     0.049 A 
ATOM     46  N   UNL A   1      41.652  28.926  29.222  1.00  0.00    -0.248 NA
ATOM     47  C   UNL A   1      40.023  27.359  28.681  1.00  0.00     0.031 C 
ATOM     48  C   UNL A   1      44.341  25.161  29.586  1.00  0.00     0.029 A 
ATOM     49  N   UNL A   1      43.802  26.969  30.756  1.00  0.00    -0.354 N 
ATOM     50  C   UNL A   1      40.388  29.492  29.375  1.00  0.00     0.074 A 
ATOM     51  C   UNL A   1      39.435  28.533  28.887  1.00  0.00     0.031 C 
ATOM     52  C   UNL A   1      44.846  24.987  30.822  1.00  0.00     0.029 A 
ATOM     53  C   UNL A   1      44.417  26.098  31.653  1.00  0.00     0.049 A 
ATOM     54  H   UNL A   1      43.637  27.922  30.937  1.00  0.00     0.167 HD
ATOM     55  C   UNL A   1      40.179  30.612  30.115  1.00  0.00     0.034 A 
ATOM     56  C   UNL A   1      44.431  26.196  33.002  1.00  0.00     0.034 A 
ATOM     57  C   UNL A   1      41.354  31.427  30.228  1.00  0.00     0.049 A 
ATOM     58  C   UNL A   1      44.080  27.587  33.362  1.00  0.00     0.074 A 
ATOM     59  C   UNL A   1      42.187  32.063  29.329  1.00  0.00     0.029 A 
ATOM     60  N   UNL A   1      42.016  31.448  31.430  1.00  0.00    -0.354 N 
ATOM     61  N   UNL A   1      44.843  28.618  33.135  1.00  0.00    -0.248 NA
ATOM     62  C   UNL A   1      42.687  27.888  33.646  1.00  0.00     0.031 C 
ATOM     63  C   UNL A   1      43.481  32.013  29.919  1.00  0.00     0.029 A 
ATOM     64  C   UNL A   1      43.355  31.376  31.153  1.00  0.00     0.049 A 
ATOM     65  H   UNL A   1      41.605  31.504  32.323  1.00  0.00     0.167 HD
ATOM     66  C   UNL A   1      43.959  29.643  32.821  1.00  0.00     0.074 A 
ATOM     67  C   UNL A   1      42.655  29.169  33.276  1.00  0.00     0.031 C 
ATOM     68  C   UNL A   1      44.308  30.645  31.959  1.00  0.00     0.034 A 
BRANCH  55  69
ATOM     69  C   UNL A   1      38.974  30.794  31.004  1.00  0.00     0.023 A 
ATOM     70  C   UNL A   1      38.857  29.958  32.134  1.00  0.00     0.012 A 
ATOM     71  C   UNL A   1      37.835  31.553  30.646  1.00  0.00     0.148 A 
ATOM     72  C   UNL A   1      37.656  29.857  32.847  1.00  0.00     0.002 A 
ATOM     73  C   UNL A   1      36.676  31.518  31.411  1.00  0.00     0.091 A 
ATOM     74  F   UNL A   1      37.803  32.220  29.488  1.00  0.00    -0.205 F 
ATOM     75  C   UNL A   1      36.569  30.648  32.495  1.00  0.00     0.022 A 
BRANCH  73  76
ATOM     76  S   UNL A   1      35.289  32.591  31.020  1.00  0.00     0.127 S 
ATOM     77  O   UNL A   1      34.380  32.318  32.128  1.00  0.00    -0.237 OA
ATOM     78  O   UNL A   1      35.909  33.917  31.038  1.00  0.00    -0.237 OA
ATOM     79  O   UNL A   1      34.849  32.165  29.695  1.00  0.00    -0.744 OA
ENDBRANCH  73  76
ENDBRANCH  55  69
BRANCH  56  80
ATOM     80  C   UNL A   1      44.449  25.092  33.989  1.00  0.00     0.023 A 
ATOM     81  C   UNL A   1      43.241  24.475  34.361  1.00  0.00     0.012 A 
ATOM     82  C   UNL A   1      45.661  24.499  34.419  1.00  0.00     0.148 A 
ATOM     83  C   UNL A   1      43.239  23.309  35.138  1.00  0.00     0.002 A 
ATOM     84  C   UNL A   1      45.653  23.361  35.218  1.00  0.00     0.091 A 
ATOM     85  F   UNL A   1      46.823  24.994  33.972  1.00  0.00    -0.205 F 
ATOM     86  C   UNL A   1      44.442  22.757  35.572  1.00  0.00     0.022 A 
BRANCH  84  87
ATOM     87  S   UNL A   1      47.175  22.628  35.837  1.00  0.00     0.127 S 
ATOM     88  O   UNL A   1      47.753  23.725  36.614  1.00  0.00    -0.237 OA
ATOM     89  O   UNL A   1      46.674  21.512  36.633  1.00  0.00    -0.237 OA
ATOM     90  O   UNL A   1      47.947  22.273  34.650  1.00  0.00    -0.744 OA
ENDBRANCH  84  87
ENDBRANCH  56  80
BRANCH  68  91
ATOM     91  C   UNL A   1      45.756  30.774  31.552  1.00  0.00     0.023 A 
ATOM     92  C   UNL A   1      46.666  31.536  32.314  1.00  0.00     0.012 A 
ATOM     93  C   UNL A   1      46.253  29.964  30.515  1.00  0.00     0.148 A 
ATOM     94  C   UNL A   1      48.033  31.518  32.031  1.00  0.00     0.002 A 
ATOM     95  C   UNL A   1      47.621  29.914  30.264  1.00  0.00     0.091 A 
ATOM     96  F   UNL A   1      45.382  29.233  29.804  1.00  0.00    -0.205 F 
ATOM     97  C   UNL A   1      48.513  30.697  31.014  1.00  0.00     0.022 A 
BRANCH  95  98
ATOM     98  S   UNL A   1      48.312  28.781  29.055  1.00  0.00     0.127 S 
ATOM     99  O   UNL A   1      49.739  29.088  29.125  1.00  0.00    -0.237 OA
ATOM    100  O   UNL A   1      47.946  27.470  29.593  1.00  0.00    -0.237 OA
ATOM    101  O   UNL A   1      47.660  29.104  27.791  1.00  0.00    -0.744 OA
ENDBRANCH  95  98
ENDBRANCH  68  91
ENDBRANCH  42  43
ENDBRANCH  35  37
ENDBRANCH  34  35
ENDBRANCH  33  34
ENDBRANCH  32  33
ENDBRANCH  31  32
ENDBRANCH  30  31
ENDBRANCH   1  30
TORSDOF 24
ENDMDL
MODEL 3
REMARK VINA RESULT:     -10.1      2.913      7.718
REMARK SMILES Cc1nccn1CCC[NH+]1CCC2(CC1)[C@@H](C(=O)OCCOCCOCCOC(=O)c1ccc(-c3c4nc(c(-c5cccc(S(=O)(=O)[O-])c5F)c5ccc([nH]5)c(-c5cccc(S(=O)(=O)[O-])c5F)c5nc(c(-c6cccc(S(=O)(=O)[O-])c6F)c6ccc3[nH]6)C=C5)C=C4)cc1)CC(=O)N2C
REMARK SMILES IDX 23 1 22 2 21 3 20 4 19 5 17 6 18 7 16 8 10 9 11 10 15 11
REMARK SMILES IDX 12 13 14 14 13 15 97 16 94 17 95 18 98 19 96 20 9 21 8 22
REMARK SMILES IDX 7 23 6 24 1 25 2 26 3 27 4 28 5 29 24 30 25 31 26 32 27 33
REMARK SMILES IDX 28 34 29 35 30 36 31 37 32 38 93 39 33 40 92 41 34 42 35 43
REMARK SMILES IDX 36 44 86 45 37 46 91 47 85 48 87 49 38 50 90 51 84 52 83 53
REMARK SMILES IDX 39 55 71 56 51 57 70 58 52 59 55 60 69 61 88 62 53 63 54 64
REMARK SMILES IDX 68 66 89 67 56 68 40 69 41 70 49 71 42 72 44 73 50 74 43 75
REMARK SMILES IDX 45 76 46 77 47 78 48 79 72 80 73 81 81 82 74 83 76 84 82 85
REMARK SMILES IDX 75 86 77 87 78 88 79 89 80 90 57 91 58 92 66 93 59 94 61 95
REMARK SMILES IDX 67 96 60 97 62 98 63 99 64 100 65 101
REMARK H PARENT 10 12 87 54 55 65
REMARK Flexibility Score: inf
ROOT
ATOM      1  C   UNL A   1      41.445  21.139  27.419  1.00  0.00     0.188 C 
ENDROOT
BRANCH   1   2
ATOM      2  O   UNL A   1      40.042  21.295  27.371  1.00  0.00    -0.376 OA
BRANCH   2   3
ATOM      3  C   UNL A   1      39.501  22.315  26.548  1.00  0.00     0.202 C 
BRANCH   3   4
ATOM      4  C   UNL A   1      38.206  22.029  25.786  1.00  0.00     0.261 C 
BRANCH   4   5
ATOM      5  O   UNL A   1      37.114  22.864  26.216  1.00  0.00    -0.463 OA
BRANCH   5   6
ATOM      6  C   UNL A   1      36.442  23.578  25.264  1.00  0.00     0.311 C 
ATOM      7  O   UNL A   1      36.925  23.991  24.220  1.00  0.00    -0.252 OA
BRANCH   6   8
ATOM      8  C   UNL A   1      35.022  23.839  25.735  1.00  0.00     0.134 C 
ATOM      9  N   UNL A   1      31.856  21.233  24.095  1.00  0.00    -0.335 N 
ATOM     10  C   UNL A   1      31.501  22.330  24.989  1.00  0.00     0.264 C 
ATOM     11  C   UNL A   1      32.949  21.590  23.179  1.00  0.00     0.264 C 
ATOM     12  H   UNL A   1      31.010  21.092  23.543  1.00  0.00     0.348 HD
ATOM     13  C   UNL A   1      32.683  22.957  25.723  1.00  0.00     0.091 C 
ATOM     14  C   UNL A   1      34.171  22.244  23.845  1.00  0.00     0.091 C 
ATOM     15  C   UNL A   1      33.846  23.410  24.798  1.00  0.00     0.067 C 
ATOM     16  N   UNL A   1      33.536  24.682  24.119  1.00  0.00    -0.339 N 
ATOM     17  C   UNL A   1      34.867  25.346  25.937  1.00  0.00     0.118 C 
ATOM     18  C   UNL A   1      34.069  25.795  24.751  1.00  0.00     0.223 C 
ATOM     19  C   UNL A   1      32.817  24.815  22.866  1.00  0.00     0.147 C 
ATOM     20  O   UNL A   1      33.909  26.963  24.434  1.00  0.00    -0.275 OA
BRANCH   9  21
ATOM     21  C   UNL A   1      32.082  19.933  24.737  1.00  0.00     0.264 C 
BRANCH  21  22
ATOM     22  C   UNL A   1      32.662  18.810  23.865  1.00  0.00     0.083 C 
BRANCH  22  23
ATOM     23  C   UNL A   1      33.813  18.024  24.501  1.00  0.00     0.129 C 
BRANCH  23  24
ATOM     24  N   UNL A   1      33.477  16.677  24.915  1.00  0.00    -0.335 N 
ATOM     25  C   UNL A   1      35.820  15.800  25.369  1.00  0.00     0.087 C 
ATOM     26  C   UNL A   1      34.342  15.680  25.309  1.00  0.00     0.105 A 
ATOM     27  N   UNL A   1      33.672  14.595  25.634  1.00  0.00    -0.242 NA
ATOM     28  C   UNL A   1      32.349  14.891  25.469  1.00  0.00     0.131 A 
ATOM     29  C   UNL A   1      32.201  16.195  25.068  1.00  0.00     0.107 A 
ENDBRANCH  23  24
ENDBRANCH  22  23
ENDBRANCH  21  22
ENDBRANCH   9  21
ENDBRANCH   6   8
ENDBRANCH   5   6
ENDBRANCH   4   5
ENDBRANCH   3   4
ENDBRANCH   2   3
ENDBRANCH   1   2
BRANCH   1  30
ATOM     30  C   UNL A   1      42.113  19.934  26.724  1.00  0.00     0.188 C 
BRANCH  30  31
ATOM     31  O   UNL A   1      42.628  19.999  25.407  1.00  0.00    -0.376 OA
BRANCH  31  32
ATOM     32  C   UNL A   1      44.022  20.070  25.145  1.00  0.00     0.202 C 
BRANCH  32  33
ATOM     33  C   UNL A   1      44.710  21.409  24.932  1.00  0.00     0.261 C 
BRANCH  33  34
ATOM     34  O   UNL A   1      43.812  22.431  24.524  1.00  0.00    -0.460 OA
BRANCH  34  35
ATOM     35  C   UNL A   1      44.340  23.657  24.686  1.00  0.00     0.338 C 
ATOM     36  O   UNL A   1      45.465  24.024  24.374  1.00  0.00    -0.246 OA
BRANCH  35  37
ATOM     37  C   UNL A   1      43.382  24.569  25.300  1.00  0.00     0.060 A 
ATOM     38  C   UNL A   1      43.722  25.914  25.179  1.00  0.00     0.016 A 
ATOM     39  C   UNL A   1      42.523  24.097  26.288  1.00  0.00     0.016 A 
ATOM     40  C   UNL A   1      43.490  26.744  26.243  1.00  0.00     0.010 A 
ATOM     41  C   UNL A   1      42.230  24.953  27.328  1.00  0.00     0.010 A 
ATOM     42  C   UNL A   1      42.850  26.211  27.359  1.00  0.00    -0.014 A 
BRANCH  42  43
ATOM     43  C   UNL A   1      42.922  26.991  28.588  1.00  0.00     0.031 A 
ATOM     44  C   UNL A   1      41.867  28.026  28.750  1.00  0.00     0.074 A 
ATOM     45  C   UNL A   1      43.845  26.683  29.524  1.00  0.00     0.049 A 
ATOM     46  N   UNL A   1      41.975  29.235  29.202  1.00  0.00    -0.248 NA
ATOM     47  C   UNL A   1      40.521  27.691  28.251  1.00  0.00     0.031 C 
ATOM     48  C   UNL A   1      44.782  25.550  29.500  1.00  0.00     0.029 A 
ATOM     49  N   UNL A   1      43.993  27.178  30.787  1.00  0.00    -0.354 N 
ATOM     50  C   UNL A   1      40.675  29.732  29.238  1.00  0.00     0.074 A 
ATOM     51  C   UNL A   1      39.850  28.809  28.508  1.00  0.00     0.031 C 
ATOM     52  C   UNL A   1      45.119  25.242  30.767  1.00  0.00     0.029 A 
ATOM     53  C   UNL A   1      44.522  26.224  31.652  1.00  0.00     0.049 A 
ATOM     54  H   UNL A   1      43.754  28.095  31.053  1.00  0.00     0.167 HD
ATOM     55  C   UNL A   1      40.307  30.743  30.067  1.00  0.00     0.034 A 
ATOM     56  C   UNL A   1      44.345  26.154  32.992  1.00  0.00     0.034 A 
ATOM     57  C   UNL A   1      41.411  31.579  30.444  1.00  0.00     0.049 A 
ATOM     58  C   UNL A   1      43.875  27.476  33.460  1.00  0.00     0.074 A 
ATOM     59  C   UNL A   1      42.326  32.351  29.755  1.00  0.00     0.029 A 
ATOM     60  N   UNL A   1      41.898  31.473  31.723  1.00  0.00    -0.354 N 
ATOM     61  N   UNL A   1      44.607  28.554  33.469  1.00  0.00    -0.248 NA
ATOM     62  C   UNL A   1      42.442  27.690  33.574  1.00  0.00     0.031 C 
ATOM     63  C   UNL A   1      43.527  32.273  30.515  1.00  0.00     0.029 A 
ATOM     64  C   UNL A   1      43.264  31.483  31.634  1.00  0.00     0.049 A 
ATOM     65  H   UNL A   1      41.365  31.403  32.547  1.00  0.00     0.167 HD
ATOM     66  C   UNL A   1      43.722  29.578  33.154  1.00  0.00     0.074 A 
ATOM     67  C   UNL A   1      42.395  29.006  33.358  1.00  0.00     0.031 C 
ATOM     68  C   UNL A   1      44.134  30.691  32.476  1.00  0.00     0.034 A 
BRANCH  55  69
ATOM     69  C   UNL A   1      38.983  30.770  30.789  1.00  0.00     0.023 A 
ATOM     70  C   UNL A   1      38.699  29.719  31.685  1.00  0.00     0.012 A 
ATOM     71  C   UNL A   1      37.909  31.623  30.440  1.00  0.00     0.148 A 
ATOM     72  C   UNL A   1      37.406  29.507  32.178  1.00  0.00     0.002 A 
ATOM     73  C   UNL A   1      36.649  31.464  31.002  1.00  0.00     0.091 A 
ATOM     74  F   UNL A   1      38.050  32.520  29.459  1.00  0.00    -0.205 F 
ATOM     75  C   UNL A   1      36.382  30.388  31.848  1.00  0.00     0.022 A 
BRANCH  73  76
ATOM     76  S   UNL A   1      35.335  32.637  30.652  1.00  0.00     0.127 S 
ATOM     77  O   UNL A   1      36.022  33.913  30.821  1.00  0.00    -0.237 OA
ATOM     78  O   UNL A   1      34.982  32.301  29.271  1.00  0.00    -0.237 OA
ATOM     79  O   UNL A   1      34.288  32.325  31.619  1.00  0.00    -0.744 OA
ENDBRANCH  73  76
ENDBRANCH  55  69
BRANCH  56  80
ATOM     80  C   UNL A   1      44.284  24.937  33.834  1.00  0.00     0.023 A 
ATOM     81  C   UNL A   1      43.692  23.768  33.322  1.00  0.00     0.012 A 
ATOM     82  C   UNL A   1      44.982  24.848  35.062  1.00  0.00     0.148 A 
ATOM     83  C   UNL A   1      43.789  22.553  34.012  1.00  0.00     0.002 A 
ATOM     84  C   UNL A   1      45.047  23.647  35.759  1.00  0.00     0.091 A 
ATOM     85  F   UNL A   1      45.662  25.915  35.505  1.00  0.00    -0.205 F 
ATOM     86  C   UNL A   1      44.460  22.493  35.231  1.00  0.00     0.022 A 
BRANCH  84  87
ATOM     87  S   UNL A   1      45.868  23.521  37.355  1.00  0.00     0.127 S 
ATOM     88  O   UNL A   1      47.218  23.993  37.047  1.00  0.00    -0.237 OA
ATOM     89  O   UNL A   1      45.075  24.428  38.179  1.00  0.00    -0.237 OA
ATOM     90  O   UNL A   1      45.804  22.108  37.716  1.00  0.00    -0.744 OA
ENDBRANCH  84  87
ENDBRANCH  56  80
BRANCH  68  91
ATOM     91  C   UNL A   1      45.615  30.921  32.300  1.00  0.00     0.023 A 
ATOM     92  C   UNL A   1      46.356  31.675  33.232  1.00  0.00     0.012 A 
ATOM     93  C   UNL A   1      46.307  30.209  31.303  1.00  0.00     0.148 A 
ATOM     94  C   UNL A   1      47.748  31.746  33.158  1.00  0.00     0.002 A 
ATOM     95  C   UNL A   1      47.697  30.245  31.258  1.00  0.00     0.091 A 
ATOM     96  F   UNL A   1      45.595  29.483  30.428  1.00  0.00    -0.205 F 
ATOM     97  C   UNL A   1      48.421  31.020  32.178  1.00  0.00     0.022 A 
BRANCH  95  98
ATOM     98  S   UNL A   1      48.626  29.232  30.102  1.00  0.00     0.127 S 
ATOM     99  O   UNL A   1      48.637  27.933  30.771  1.00  0.00    -0.237 OA
ATOM    100  O   UNL A   1      47.803  29.285  28.892  1.00  0.00    -0.237 OA
ATOM    101  O   UNL A   1      49.925  29.879  29.962  1.00  0.00    -0.744 OA
ENDBRANCH  95  98
ENDBRANCH  68  91
ENDBRANCH  42  43
ENDBRANCH  35  37
ENDBRANCH  34  35
ENDBRANCH  33  34
ENDBRANCH  32  33
ENDBRANCH  31  32
ENDBRANCH  30  31
ENDBRANCH   1  30
TORSDOF 24
ENDMDL
