MODEL 1
REMARK VINA RESULT:      -9.9      0.000      0.000
REMARK SMILES C[NH+]1CCC2(CC1)OC[C@H](C(=O)OCCOCCOCCOC(=O)c1ccc(-c3c4nc(c(-c5cccc(S(=O)(=O)[O-])c5F)c5ccc([nH]5)c(-c5cccc(S(=O)(=O)[O-])c5F)c5nc(c(-c6cccc(S(=O)(=O)[O-])c6F)c6ccc3[nH]6)C=C5)C=C4)cc1)N2C(=O)c1cc(C(F)(F)F)cc(C(F)(F)F)c1
REMARK SMILES IDX 17 1 16 2 15 3 14 4 13 5 11 6 12 7 10 8 1 9 2 10 3 11 7 12
REMARK SMILES IDX 4 14 6 15 5 16 8 17 88 18 9 19 89 20 90 21 91 22 92 23
REMARK SMILES IDX 104 24 93 25 99 26 98 27 94 28 95 29 96 30 97 31 100 32
REMARK SMILES IDX 101 33 102 34 103 35 18 36 19 37 20 38 21 39 22 40 23 41
REMARK SMILES IDX 24 42 25 43 26 44 87 45 27 46 86 47 28 48 29 49 30 50 80 51
REMARK SMILES IDX 31 52 85 53 79 54 81 55 32 56 84 57 78 58 77 59 33 61 65 62
REMARK SMILES IDX 45 63 64 64 46 65 49 66 63 67 82 68 47 69 48 70 62 72 83 73
REMARK SMILES IDX 50 74 34 75 35 76 43 77 36 78 38 79 44 80 37 81 39 82 40 83
REMARK SMILES IDX 41 84 42 85 66 86 67 87 75 88 68 89 70 90 76 91 69 92 71 93
REMARK SMILES IDX 72 94 73 95 74 96 51 97 52 98 60 99 53 100 55 101 61 102
REMARK SMILES IDX 54 103 56 104 57 105 58 106 59 107
REMARK H PARENT 2 13 81 60 49 71
REMARK Flexibility Score: inf
ROOT
ATOM      1  C   UNL A   1      36.818  33.536  28.346  1.00  0.00     0.188 C 
ENDROOT
BRANCH   1   2
ATOM      2  O   UNL A   1      35.608  33.064  27.776  1.00  0.00    -0.376 OA
BRANCH   2   3
ATOM      3  C   UNL A   1      35.450  31.660  27.638  1.00  0.00     0.202 C 
BRANCH   3   4
ATOM      4  C   UNL A   1      34.044  31.126  27.916  1.00  0.00     0.261 C 
BRANCH   4   5
ATOM      5  O   UNL A   1      33.431  30.549  26.738  1.00  0.00    -0.462 OA
BRANCH   5   6
ATOM      6  C   UNL A   1      33.435  29.195  26.709  1.00  0.00     0.331 C 
ATOM      7  O   UNL A   1      34.311  28.528  27.263  1.00  0.00    -0.250 OA
BRANCH   6   8
ATOM      8  C   UNL A   1      32.293  28.509  25.914  1.00  0.00     0.224 C 
ATOM      9  C   UNL A   1      32.549  25.365  20.166  1.00  0.00     0.332 C 
ATOM     10  N   UNL A   1      32.441  25.399  21.625  1.00  0.00    -0.337 N 
ATOM     11  C   UNL A   1      33.562  26.085  22.235  1.00  0.00     0.267 C 
ATOM     12  C   UNL A   1      31.100  25.743  22.087  1.00  0.00     0.267 C 
ATOM     13  H   UNL A   1      32.540  24.450  21.984  1.00  0.00     0.347 HD
ATOM     14  C   UNL A   1      33.282  27.481  22.725  1.00  0.00     0.120 C 
ATOM     15  C   UNL A   1      30.870  26.976  22.975  1.00  0.00     0.120 C 
ATOM     16  C   UNL A   1      32.095  27.583  23.666  1.00  0.00     0.155 C 
ATOM     17  O   UNL A   1      31.844  29.017  23.644  1.00  0.00    -0.352 OA
ATOM     18  N   UNL A   1      32.336  27.277  25.102  1.00  0.00    -0.293 N 
ATOM     19  C   UNL A   1      31.754  29.549  24.957  1.00  0.00     0.200 C 
BRANCH  18  20
ATOM     20  C   UNL A   1      32.322  26.078  25.821  1.00  0.00     0.256 C 
ATOM     21  O   UNL A   1      31.613  25.924  26.817  1.00  0.00    -0.269 OA
BRANCH  20  22
ATOM     22  C   UNL A   1      33.096  24.889  25.408  1.00  0.00     0.041 A 
ATOM     23  C   UNL A   1      34.491  24.866  25.543  1.00  0.00     0.027 A 
ATOM     24  C   UNL A   1      32.449  23.821  24.785  1.00  0.00     0.027 A 
ATOM     25  C   UNL A   1      35.221  23.706  25.205  1.00  0.00     0.057 A 
ATOM     26  C   UNL A   1      33.133  22.617  24.549  1.00  0.00     0.057 A 
ATOM     27  C   UNL A   1      34.523  22.576  24.745  1.00  0.00     0.026 A 
BRANCH  25  28
ATOM     28  C   UNL A   1      36.718  23.655  25.398  1.00  0.00     0.416 C 
ATOM     29  F   UNL A   1      37.150  24.533  26.344  1.00  0.00    -0.166 F 
ATOM     30  F   UNL A   1      37.151  22.428  25.799  1.00  0.00    -0.166 F 
ATOM     31  F   UNL A   1      37.424  23.949  24.270  1.00  0.00    -0.166 F 
ENDBRANCH  25  28
BRANCH  26  32
ATOM     32  C   UNL A   1      32.381  21.351  24.197  1.00  0.00     0.416 C 
ATOM     33  F   UNL A   1      33.174  20.246  24.251  1.00  0.00    -0.166 F 
ATOM     34  F   UNL A   1      31.346  21.108  25.048  1.00  0.00    -0.166 F 
ATOM     35  F   UNL A   1      31.843  21.373  22.947  1.00  0.00    -0.166 F 
ENDBRANCH  26  32
ENDBRANCH  20  22
ENDBRANCH  18  20
ENDBRANCH   6   8
ENDBRANCH   5   6
ENDBRANCH   4   5
ENDBRANCH   3   4
ENDBRANCH   2   3
ENDBRANCH   1   2
BRANCH   1  36
ATOM     36  C   UNL A   1      37.306  32.936  29.684  1.00  0.00     0.188 C 
BRANCH  36  37
ATOM     37  O   UNL A   1      37.844  33.788  30.680  1.00  0.00    -0.376 OA
BRANCH  37  38
ATOM     38  C   UNL A   1      37.160  33.802  31.926  1.00  0.00     0.202 C 
BRANCH  38  39
ATOM     39  C   UNL A   1      36.147  32.674  32.136  1.00  0.00     0.261 C 
BRANCH  39  40
ATOM     40  O   UNL A   1      36.651  31.601  32.962  1.00  0.00    -0.460 OA
BRANCH  40  41
ATOM     41  C   UNL A   1      36.951  30.474  32.273  1.00  0.00     0.338 C 
ATOM     42  O   UNL A   1      36.307  30.043  31.314  1.00  0.00    -0.246 OA
BRANCH  41  43
ATOM     43  C   UNL A   1      38.193  29.799  32.730  1.00  0.00     0.060 A 
ATOM     44  C   UNL A   1      39.378  30.485  32.970  1.00  0.00     0.016 A 
ATOM     45  C   UNL A   1      38.230  28.404  32.724  1.00  0.00     0.016 A 
ATOM     46  C   UNL A   1      40.601  29.802  33.015  1.00  0.00     0.010 A 
ATOM     47  C   UNL A   1      39.442  27.720  32.905  1.00  0.00     0.010 A 
ATOM     48  C   UNL A   1      40.665  28.406  32.985  1.00  0.00    -0.014 A 
BRANCH  48  49
ATOM     49  C   UNL A   1      41.973  27.665  32.979  1.00  0.00     0.031 A 
ATOM     50  C   UNL A   1      42.691  27.387  34.285  1.00  0.00     0.074 A 
ATOM     51  C   UNL A   1      42.553  27.242  31.834  1.00  0.00     0.049 A 
ATOM     52  N   UNL A   1      43.949  27.091  34.495  1.00  0.00    -0.248 NA
ATOM     53  C   UNL A   1      41.891  27.468  35.519  1.00  0.00     0.031 C 
ATOM     54  C   UNL A   1      41.979  27.346  30.491  1.00  0.00     0.029 A 
ATOM     55  N   UNL A   1      43.782  26.655  31.613  1.00  0.00    -0.354 N 
ATOM     56  C   UNL A   1      44.116  27.078  35.877  1.00  0.00     0.074 A 
ATOM     57  C   UNL A   1      42.817  27.338  36.459  1.00  0.00     0.031 C 
ATOM     58  C   UNL A   1      42.828  26.823  29.597  1.00  0.00     0.029 A 
ATOM     59  C   UNL A   1      44.074  26.495  30.274  1.00  0.00     0.049 A 
ATOM     60  H   UNL A   1      44.389  26.379  32.337  1.00  0.00     0.167 HD
ATOM     61  C   UNL A   1      45.251  26.889  36.593  1.00  0.00     0.034 A 
ATOM     62  C   UNL A   1      45.231  26.225  29.636  1.00  0.00     0.034 A 
ATOM     63  C   UNL A   1      46.522  26.544  36.010  1.00  0.00     0.049 A 
ATOM     64  C   UNL A   1      46.483  26.044  30.441  1.00  0.00     0.074 A 
ATOM     65  C   UNL A   1      47.726  26.304  36.649  1.00  0.00     0.029 A 
ATOM     66  N   UNL A   1      46.750  26.378  34.653  1.00  0.00    -0.354 N 
ATOM     67  N   UNL A   1      46.638  26.072  31.743  1.00  0.00    -0.248 NA
ATOM     68  C   UNL A   1      47.724  25.800  29.692  1.00  0.00     0.031 C 
ATOM     69  C   UNL A   1      48.690  26.020  35.676  1.00  0.00     0.029 A 
ATOM     70  C   UNL A   1      48.076  26.046  34.435  1.00  0.00     0.049 A 
ATOM     71  H   UNL A   1      46.070  26.480  33.949  1.00  0.00     0.167 HD
ATOM     72  C   UNL A   1      47.986  25.830  31.968  1.00  0.00     0.074 A 
ATOM     73  C   UNL A   1      48.600  25.629  30.672  1.00  0.00     0.031 C 
ATOM     74  C   UNL A   1      48.661  25.798  33.143  1.00  0.00     0.034 A 
BRANCH  61  75
ATOM     75  C   UNL A   1      45.195  27.083  38.088  1.00  0.00     0.023 A 
ATOM     76  C   UNL A   1      44.878  26.010  38.942  1.00  0.00     0.012 A 
ATOM     77  C   UNL A   1      45.540  28.332  38.648  1.00  0.00     0.148 A 
ATOM     78  C   UNL A   1      44.876  26.184  40.328  1.00  0.00     0.002 A 
ATOM     79  C   UNL A   1      45.581  28.484  40.030  1.00  0.00     0.091 A 
ATOM     80  F   UNL A   1      45.823  29.347  37.819  1.00  0.00    -0.205 F 
ATOM     81  C   UNL A   1      45.238  27.415  40.869  1.00  0.00     0.022 A 
BRANCH  79  82
ATOM     82  S   UNL A   1      46.119  30.009  40.816  1.00  0.00     0.127 S 
ATOM     83  O   UNL A   1      45.180  30.979  40.242  1.00  0.00    -0.237 OA
ATOM     84  O   UNL A   1      45.889  29.716  42.236  1.00  0.00    -0.237 OA
ATOM     85  O   UNL A   1      47.504  30.191  40.449  1.00  0.00    -0.744 OA
ENDBRANCH  79  82
ENDBRANCH  61  75
BRANCH  62  86
ATOM     86  C   UNL A   1      45.266  26.187  28.143  1.00  0.00     0.023 A 
ATOM     87  C   UNL A   1      45.474  27.373  27.416  1.00  0.00     0.012 A 
ATOM     88  C   UNL A   1      45.131  24.970  27.442  1.00  0.00     0.148 A 
ATOM     89  C   UNL A   1      45.533  27.350  26.021  1.00  0.00     0.002 A 
ATOM     90  C   UNL A   1      45.267  24.944  26.060  1.00  0.00     0.091 A 
ATOM     91  F   UNL A   1      44.897  23.852  28.147  1.00  0.00    -0.205 F 
ATOM     92  C   UNL A   1      45.449  26.136  25.345  1.00  0.00     0.022 A 
BRANCH  90  93
ATOM     93  S   UNL A   1      45.346  23.403  25.140  1.00  0.00     0.127 S 
ATOM     94  O   UNL A   1      45.927  23.840  23.873  1.00  0.00    -0.237 OA
ATOM     95  O   UNL A   1      46.232  22.593  25.977  1.00  0.00    -0.237 OA
ATOM     96  O   UNL A   1      43.974  22.916  25.079  1.00  0.00    -0.744 OA
ENDBRANCH  90  93
ENDBRANCH  62  86
BRANCH  74  97
ATOM     97  C   UNL A   1      50.132  25.480  33.088  1.00  0.00     0.023 A 
ATOM     98  C   UNL A   1      51.078  26.522  33.047  1.00  0.00     0.012 A 
ATOM     99  C   UNL A   1      50.571  24.143  33.130  1.00  0.00     0.148 A 
ATOM    100  C   UNL A   1      52.442  26.236  33.015  1.00  0.00     0.002 A 
ATOM    101  C   UNL A   1      51.932  23.867  33.150  1.00  0.00     0.091 A 
ATOM    102  F   UNL A   1      49.650  23.168  33.145  1.00  0.00    -0.205 F 
ATOM    103  C   UNL A   1      52.869  24.910  33.078  1.00  0.00     0.022 A 
BRANCH 101 104
ATOM    104  S   UNL A   1      52.569  22.197  33.325  1.00  0.00     0.127 S 
ATOM    105  O   UNL A   1      51.933  21.764  34.567  1.00  0.00    -0.237 OA
ATOM    106  O   UNL A   1      52.061  21.544  32.118  1.00  0.00    -0.237 OA
ATOM    107  O   UNL A   1      54.020  22.325  33.377  1.00  0.00    -0.744 OA
ENDBRANCH 101 104
ENDBRANCH  74  97
ENDBRANCH  48  49
ENDBRANCH  41  43
ENDBRANCH  40  41
ENDBRANCH  39  40
ENDBRANCH  38  39
ENDBRANCH  37  38
ENDBRANCH  36  37
ENDBRANCH   1  36
TORSDOF 24
ENDMDL
MODEL 2
REMARK VINA RESULT:      -9.5      1.073      7.270
REMARK SMILES C[NH+]1CCC2(CC1)OC[C@H](C(=O)OCCOCCOCCOC(=O)c1ccc(-c3c4nc(c(-c5cccc(S(=O)(=O)[O-])c5F)c5ccc([nH]5)c(-c5cccc(S(=O)(=O)[O-])c5F)c5nc(c(-c6cccc(S(=O)(=O)[O-])c6F)c6ccc3[nH]6)C=C5)C=C4)cc1)N2C(=O)c1cc(C(F)(F)F)cc(C(F)(F)F)c1
REMARK SMILES IDX 17 1 16 2 15 3 14 4 13 5 11 6 12 7 10 8 1 9 2 10 3 11 7 12
REMARK SMILES IDX 4 14 6 15 5 16 8 17 88 18 9 19 89 20 90 21 91 22 92 23
REMARK SMILES IDX 104 24 93 25 99 26 98 27 94 28 95 29 96 30 97 31 100 32
REMARK SMILES IDX 101 33 102 34 103 35 18 36 19 37 20 38 21 39 22 40 23 41
REMARK SMILES IDX 24 42 25 43 26 44 87 45 27 46 86 47 28 48 29 49 30 50 80 51
REMARK SMILES IDX 31 52 85 53 79 54 81 55 32 56 84 57 78 58 77 59 33 61 65 62
REMARK SMILES IDX 45 63 64 64 46 65 49 66 63 67 82 68 47 69 48 70 62 72 83 73
REMARK SMILES IDX 50 74 34 75 35 76 43 77 36 78 38 79 44 80 37 81 39 82 40 83
REMARK SMILES IDX 41 84 42 85 66 86 67 87 75 88 68 89 70 90 76 91 69 92 71 93
REMARK SMILES IDX 72 94 73 95 74 96 51 97 52 98 60 99 53 100 55 101 61 102
REMARK SMILES IDX 54 103 56 104 57 105 58 106 59 107
REMARK H PARENT 2 13 81 60 49 71
REMARK Flexibility Score: inf
ROOT
ATOM      1  C   UNL A   1      36.930  33.258  28.935  1.00  0.00     0.188 C 
ENDROOT
BRANCH   1   2
ATOM      2  O   UNL A   1      35.729  33.063  28.209  1.00  0.00    -0.376 OA
BRANCH   2   3
ATOM      3  C   UNL A   1      35.467  31.760  27.709  1.00  0.00     0.202 C 
BRANCH   3   4
ATOM      4  C   UNL A   1      34.018  31.288  27.829  1.00  0.00     0.261 C 
BRANCH   4   5
ATOM      5  O   UNL A   1      33.566  30.587  26.646  1.00  0.00    -0.462 OA
BRANCH   5   6
ATOM      6  C   UNL A   1      33.421  29.251  26.806  1.00  0.00     0.331 C 
ATOM      7  O   UNL A   1      34.155  28.593  27.546  1.00  0.00    -0.250 OA
BRANCH   6   8
ATOM      8  C   UNL A   1      32.297  28.566  25.984  1.00  0.00     0.224 C 
ATOM      9  C   UNL A   1      32.677  25.448  20.229  1.00  0.00     0.332 C 
ATOM     10  N   UNL A   1      32.539  25.475  21.685  1.00  0.00    -0.337 N 
ATOM     11  C   UNL A   1      33.646  26.161  22.321  1.00  0.00     0.267 C 
ATOM     12  C   UNL A   1      31.188  25.814  22.121  1.00  0.00     0.267 C 
ATOM     13  H   UNL A   1      32.633  24.524  22.042  1.00  0.00     0.347 HD
ATOM     14  C   UNL A   1      33.353  27.554  22.811  1.00  0.00     0.120 C 
ATOM     15  C   UNL A   1      30.938  27.042  23.010  1.00  0.00     0.120 C 
ATOM     16  C   UNL A   1      32.147  27.649  23.729  1.00  0.00     0.155 C 
ATOM     17  O   UNL A   1      31.893  29.082  23.708  1.00  0.00    -0.352 OA
ATOM     18  N   UNL A   1      32.359  27.338  25.167  1.00  0.00    -0.293 N 
ATOM     19  C   UNL A   1      31.775  29.609  25.021  1.00  0.00     0.200 C 
BRANCH  18  20
ATOM     20  C   UNL A   1      32.334  26.135  25.881  1.00  0.00     0.256 C 
ATOM     21  O   UNL A   1      31.630  25.986  26.881  1.00  0.00    -0.269 OA
BRANCH  20  22
ATOM     22  C   UNL A   1      33.087  24.937  25.456  1.00  0.00     0.041 A 
ATOM     23  C   UNL A   1      34.485  24.903  25.558  1.00  0.00     0.027 A 
ATOM     24  C   UNL A   1      32.416  23.872  24.855  1.00  0.00     0.027 A 
ATOM     25  C   UNL A   1      35.196  23.735  25.210  1.00  0.00     0.057 A 
ATOM     26  C   UNL A   1      33.084  22.660  24.610  1.00  0.00     0.057 A 
ATOM     27  C   UNL A   1      34.478  22.608  24.773  1.00  0.00     0.026 A 
BRANCH  25  28
ATOM     28  C   UNL A   1      36.697  23.672  25.368  1.00  0.00     0.416 C 
ATOM     29  F   UNL A   1      37.344  23.654  24.171  1.00  0.00    -0.166 F 
ATOM     30  F   UNL A   1      37.196  24.741  26.048  1.00  0.00    -0.166 F 
ATOM     31  F   UNL A   1      37.130  22.568  26.040  1.00  0.00    -0.166 F 
ENDBRANCH  25  28
BRANCH  26  32
ATOM     32  C   UNL A   1      32.313  21.399  24.283  1.00  0.00     0.416 C 
ATOM     33  F   UNL A   1      33.042  20.273  24.512  1.00  0.00    -0.166 F 
ATOM     34  F   UNL A   1      31.185  21.271  25.034  1.00  0.00    -0.166 F 
ATOM     35  F   UNL A   1      31.911  21.334  22.984  1.00  0.00    -0.166 F 
ENDBRANCH  26  32
ENDBRANCH  20  22
ENDBRANCH  18  20
ENDBRANCH   6   8
ENDBRANCH   5   6
ENDBRANCH   4   5
ENDBRANCH   3   4
ENDBRANCH   2   3
ENDBRANCH   1   2
BRANCH   1  36
ATOM     36  C   UNL A   1      37.030  32.734  30.386  1.00  0.00     0.188 C 
BRANCH  36  37
ATOM     37  O   UNL A   1      37.692  33.512  31.368  1.00  0.00    -0.376 OA
BRANCH  37  38
ATOM     38  C   UNL A   1      37.113  33.502  32.666  1.00  0.00     0.202 C 
BRANCH  38  39
ATOM     39  C   UNL A   1      36.371  32.219  33.049  1.00  0.00     0.261 C 
BRANCH  39  40
ATOM     40  O   UNL A   1      37.242  31.189  33.567  1.00  0.00    -0.460 OA
BRANCH  40  41
ATOM     41  C   UNL A   1      37.397  30.133  32.734  1.00  0.00     0.338 C 
ATOM     42  O   UNL A   1      36.479  29.570  32.134  1.00  0.00    -0.246 OA
BRANCH  41  43
ATOM     43  C   UNL A   1      38.811  29.721  32.536  1.00  0.00     0.060 A 
ATOM     44  C   UNL A   1      39.211  28.389  32.522  1.00  0.00     0.016 A 
ATOM     45  C   UNL A   1      39.799  30.705  32.570  1.00  0.00     0.016 A 
ATOM     46  C   UNL A   1      40.555  28.047  32.724  1.00  0.00     0.010 A 
ATOM     47  C   UNL A   1      41.156  30.354  32.637  1.00  0.00     0.010 A 
ATOM     48  C   UNL A   1      41.560  29.017  32.786  1.00  0.00    -0.014 A 
BRANCH  48  49
ATOM     49  C   UNL A   1      42.996  28.665  33.057  1.00  0.00     0.031 A 
ATOM     50  C   UNL A   1      43.939  28.391  31.902  1.00  0.00     0.074 A 
ATOM     51  C   UNL A   1      43.487  28.567  34.313  1.00  0.00     0.049 A 
ATOM     52  N   UNL A   1      45.080  27.751  31.895  1.00  0.00    -0.248 NA
ATOM     53  C   UNL A   1      43.535  28.891  30.576  1.00  0.00     0.031 C 
ATOM     54  C   UNL A   1      42.758  28.869  35.546  1.00  0.00     0.029 A 
ATOM     55  N   UNL A   1      44.724  28.155  34.765  1.00  0.00    -0.354 N 
ATOM     56  C   UNL A   1      45.463  27.661  30.559  1.00  0.00     0.074 A 
ATOM     57  C   UNL A   1      44.461  28.363  29.787  1.00  0.00     0.031 C 
ATOM     58  C   UNL A   1      43.555  28.663  36.602  1.00  0.00     0.029 A 
ATOM     59  C   UNL A   1      44.795  28.059  36.139  1.00  0.00     0.049 A 
ATOM     60  H   UNL A   1      45.478  27.949  34.167  1.00  0.00     0.167 HD
ATOM     61  C   UNL A   1      46.538  27.031  30.025  1.00  0.00     0.034 A 
ATOM     62  C   UNL A   1      45.691  27.460  36.949  1.00  0.00     0.034 A 
ATOM     63  C   UNL A   1      47.576  26.409  30.806  1.00  0.00     0.049 A 
ATOM     64  C   UNL A   1      46.861  26.745  36.341  1.00  0.00     0.074 A 
ATOM     65  C   UNL A   1      48.721  25.769  30.363  1.00  0.00     0.029 A 
ATOM     66  N   UNL A   1      47.603  26.361  32.191  1.00  0.00    -0.354 N 
ATOM     67  N   UNL A   1      47.193  26.632  35.078  1.00  0.00    -0.248 NA
ATOM     68  C   UNL A   1      47.779  26.068  37.268  1.00  0.00     0.031 C 
ATOM     69  C   UNL A   1      49.426  25.309  31.480  1.00  0.00     0.029 A 
ATOM     70  C   UNL A   1      48.739  25.696  32.618  1.00  0.00     0.049 A 
ATOM     71  H   UNL A   1      46.916  26.744  32.782  1.00  0.00     0.167 HD
ATOM     72  C   UNL A   1      48.366  25.890  35.060  1.00  0.00     0.074 A 
ATOM     73  C   UNL A   1      48.705  25.605  36.439  1.00  0.00     0.031 C 
ATOM     74  C   UNL A   1      49.089  25.465  33.995  1.00  0.00     0.034 A 
BRANCH  61  75
ATOM     75  C   UNL A   1      46.642  26.942  28.523  1.00  0.00     0.023 A 
ATOM     76  C   UNL A   1      47.284  27.954  27.785  1.00  0.00     0.012 A 
ATOM     77  C   UNL A   1      46.161  25.797  27.851  1.00  0.00     0.148 A 
ATOM     78  C   UNL A   1      47.421  27.842  26.399  1.00  0.00     0.002 A 
ATOM     79  C   UNL A   1      46.343  25.672  26.478  1.00  0.00     0.091 A 
ATOM     80  F   UNL A   1      45.538  24.852  28.568  1.00  0.00    -0.205 F 
ATOM     81  C   UNL A   1      46.961  26.699  25.750  1.00  0.00     0.022 A 
BRANCH  79  82
ATOM     82  S   UNL A   1      45.860  24.197  25.573  1.00  0.00     0.127 S 
ATOM     83  O   UNL A   1      46.433  24.466  24.250  1.00  0.00    -0.237 OA
ATOM     84  O   UNL A   1      46.550  23.140  26.324  1.00  0.00    -0.237 OA
ATOM     85  O   UNL A   1      44.417  24.138  25.627  1.00  0.00    -0.744 OA
ENDBRANCH  79  82
ENDBRANCH  61  75
BRANCH  62  86
ATOM     86  C   UNL A   1      45.467  27.448  38.426  1.00  0.00     0.023 A 
ATOM     87  C   UNL A   1      44.800  26.365  39.027  1.00  0.00     0.012 A 
ATOM     88  C   UNL A   1      45.950  28.493  39.243  1.00  0.00     0.148 A 
ATOM     89  C   UNL A   1      44.605  26.329  40.409  1.00  0.00     0.002 A 
ATOM     90  C   UNL A   1      45.820  28.412  40.624  1.00  0.00     0.091 A 
ATOM     91  F   UNL A   1      46.553  29.536  38.654  1.00  0.00    -0.205 F 
ATOM     92  C   UNL A   1      45.130  27.341  41.208  1.00  0.00     0.022 A 
BRANCH  90  93
ATOM     93  S   UNL A   1      46.620  29.584  41.726  1.00  0.00     0.127 S 
ATOM     94  O   UNL A   1      47.927  29.745  41.093  1.00  0.00    -0.237 OA
ATOM     95  O   UNL A   1      45.739  30.747  41.625  1.00  0.00    -0.237 OA
ATOM     96  O   UNL A   1      46.621  28.947  43.037  1.00  0.00    -0.744 OA
ENDBRANCH  90  93
ENDBRANCH  62  86
BRANCH  74  97
ATOM     97  C   UNL A   1      50.350  24.693  34.279  1.00  0.00     0.023 A 
ATOM     98  C   UNL A   1      51.545  25.376  34.575  1.00  0.00     0.012 A 
ATOM     99  C   UNL A   1      50.330  23.285  34.302  1.00  0.00     0.148 A 
ATOM    100  C   UNL A   1      52.712  24.668  34.858  1.00  0.00     0.002 A 
ATOM    101  C   UNL A   1      51.484  22.587  34.635  1.00  0.00     0.091 A 
ATOM    102  F   UNL A   1      49.186  22.656  33.994  1.00  0.00    -0.205 F 
ATOM    103  C   UNL A   1      52.678  23.276  34.899  1.00  0.00     0.022 A 
BRANCH 101 104
ATOM    104  S   UNL A   1      51.508  20.799  34.804  1.00  0.00     0.127 S 
ATOM    105  O   UNL A   1      52.908  20.552  35.144  1.00  0.00    -0.237 OA
ATOM    106  O   UNL A   1      50.564  20.579  35.900  1.00  0.00    -0.237 OA
ATOM    107  O   UNL A   1      51.075  20.269  33.518  1.00  0.00    -0.744 OA
ENDBRANCH 101 104
ENDBRANCH  74  97
ENDBRANCH  48  49
ENDBRANCH  41  43
ENDBRANCH  40  41
ENDBRANCH  39  40
ENDBRANCH  38  39
ENDBRANCH  37  38
ENDBRANCH  36  37
ENDBRANCH   1  36
TORSDOF 24
ENDMDL
MODEL 3
REMARK VINA RESULT:      -9.3      4.574      9.186
REMARK SMILES C[NH+]1CCC2(CC1)OC[C@H](C(=O)OCCOCCOCCOC(=O)c1ccc(-c3c4nc(c(-c5cccc(S(=O)(=O)[O-])c5F)c5ccc([nH]5)c(-c5cccc(S(=O)(=O)[O-])c5F)c5nc(c(-c6cccc(S(=O)(=O)[O-])c6F)c6ccc3[nH]6)C=C5)C=C4)cc1)N2C(=O)c1cc(C(F)(F)F)cc(C(F)(F)F)c1
REMARK SMILES IDX 17 1 16 2 15 3 14 4 13 5 11 6 12 7 10 8 1 9 2 10 3 11 7 12
REMARK SMILES IDX 4 14 6 15 5 16 8 17 88 18 9 19 89 20 90 21 91 22 92 23
REMARK SMILES IDX 104 24 93 25 99 26 98 27 94 28 95 29 96 30 97 31 100 32
REMARK SMILES IDX 101 33 102 34 103 35 18 36 19 37 20 38 21 39 22 40 23 41
REMARK SMILES IDX 24 42 25 43 26 44 87 45 27 46 86 47 28 48 29 49 30 50 80 51
REMARK SMILES IDX 31 52 85 53 79 54 81 55 32 56 84 57 78 58 77 59 33 61 65 62
REMARK SMILES IDX 45 63 64 64 46 65 49 66 63 67 82 68 47 69 48 70 62 72 83 73
REMARK SMILES IDX 50 74 34 75 35 76 43 77 36 78 38 79 44 80 37 81 39 82 40 83
REMARK SMILES IDX 41 84 42 85 66 86 67 87 75 88 68 89 70 90 76 91 69 92 71 93
REMARK SMILES IDX 72 94 73 95 74 96 51 97 52 98 60 99 53 100 55 101 61 102
REMARK SMILES IDX 54 103 56 104 57 105 58 106 59 107
REMARK H PARENT 2 13 81 60 49 71
REMARK Flexibility Score: inf
ROOT
ATOM      1  C   UNL A   1      42.350  18.774  26.058  1.00  0.00     0.188 C 
ENDROOT
BRANCH   1   2
ATOM      2  O   UNL A   1      41.463  19.726  26.620  1.00  0.00    -0.376 OA
BRANCH   2   3
ATOM      3  C   UNL A   1      40.296  20.054  25.881  1.00  0.00     0.202 C 
BRANCH   3   4
ATOM      4  C   UNL A   1      39.523  21.276  26.379  1.00  0.00     0.261 C 
BRANCH   4   5
ATOM      5  O   UNL A   1      38.668  21.842  25.357  1.00  0.00    -0.462 OA
BRANCH   5   6
ATOM      6  C   UNL A   1      37.381  21.425  25.409  1.00  0.00     0.331 C 
ATOM      7  O   UNL A   1      37.012  20.365  24.900  1.00  0.00    -0.250 OA
BRANCH   6   8
ATOM      8  C   UNL A   1      36.370  22.364  26.119  1.00  0.00     0.224 C 
ATOM      9  C   UNL A   1      31.622  26.067  23.527  1.00  0.00     0.332 C 
ATOM     10  N   UNL A   1      32.101  24.898  24.264  1.00  0.00    -0.337 N 
ATOM     11  C   UNL A   1      33.052  24.124  23.491  1.00  0.00     0.267 C 
ATOM     12  C   UNL A   1      32.438  25.199  25.651  1.00  0.00     0.267 C 
ATOM     13  H   UNL A   1      31.327  24.244  24.382  1.00  0.00     0.347 HD
ATOM     14  C   UNL A   1      34.496  24.286  23.884  1.00  0.00     0.120 C 
ATOM     15  C   UNL A   1      33.858  24.952  26.183  1.00  0.00     0.120 C 
ATOM     16  C   UNL A   1      34.770  24.039  25.357  1.00  0.00     0.155 C 
ATOM     17  O   UNL A   1      36.092  24.633  25.498  1.00  0.00    -0.352 OA
ATOM     18  N   UNL A   1      34.956  22.628  25.788  1.00  0.00    -0.293 N 
ATOM     19  C   UNL A   1      36.998  23.740  26.128  1.00  0.00     0.200 C 
BRANCH  18  20
ATOM     20  C   UNL A   1      34.049  21.639  26.179  1.00  0.00     0.256 C 
ATOM     21  O   UNL A   1      33.637  21.553  27.337  1.00  0.00    -0.269 OA
BRANCH  20  22
ATOM     22  C   UNL A   1      33.463  20.670  25.228  1.00  0.00     0.041 A 
ATOM     23  C   UNL A   1      32.938  21.104  24.003  1.00  0.00     0.027 A 
ATOM     24  C   UNL A   1      33.338  19.329  25.592  1.00  0.00     0.027 A 
ATOM     25  C   UNL A   1      32.436  20.171  23.073  1.00  0.00     0.057 A 
ATOM     26  C   UNL A   1      32.952  18.369  24.642  1.00  0.00     0.057 A 
ATOM     27  C   UNL A   1      32.484  18.802  23.391  1.00  0.00     0.026 A 
BRANCH  25  28
ATOM     28  C   UNL A   1      31.917  20.626  21.729  1.00  0.00     0.416 C 
ATOM     29  F   UNL A   1      31.973  19.642  20.791  1.00  0.00    -0.166 F 
ATOM     30  F   UNL A   1      30.615  21.023  21.779  1.00  0.00    -0.166 F 
ATOM     31  F   UNL A   1      32.607  21.678  21.205  1.00  0.00    -0.166 F 
ENDBRANCH  25  28
BRANCH  26  32
ATOM     32  C   UNL A   1      33.136  16.891  24.910  1.00  0.00     0.416 C 
ATOM     33  F   UNL A   1      31.953  16.218  24.937  1.00  0.00    -0.166 F 
ATOM     34  F   UNL A   1      33.889  16.280  23.955  1.00  0.00    -0.166 F 
ATOM     35  F   UNL A   1      33.749  16.630  26.097  1.00  0.00    -0.166 F 
ENDBRANCH  26  32
ENDBRANCH  20  22
ENDBRANCH  18  20
ENDBRANCH   6   8
ENDBRANCH   5   6
ENDBRANCH   4   5
ENDBRANCH   3   4
ENDBRANCH   2   3
ENDBRANCH   1   2
BRANCH   1  36
ATOM     36  C   UNL A   1      43.791  19.204  25.696  1.00  0.00     0.188 C 
BRANCH  36  37
ATOM     37  O   UNL A   1      44.460  18.574  24.618  1.00  0.00    -0.376 OA
BRANCH  37  38
ATOM     38  C   UNL A   1      45.640  19.216  24.154  1.00  0.00     0.202 C 
BRANCH  38  39
ATOM     39  C   UNL A   1      46.053  20.473  24.924  1.00  0.00     0.261 C 
BRANCH  39  40
ATOM     40  O   UNL A   1      46.353  21.596  24.066  1.00  0.00    -0.460 OA
BRANCH  40  41
ATOM     41  C   UNL A   1      45.312  22.445  23.890  1.00  0.00     0.338 C 
ATOM     42  O   UNL A   1      44.310  22.198  23.216  1.00  0.00    -0.246 OA
BRANCH  41  43
ATOM     43  C   UNL A   1      45.436  23.718  24.646  1.00  0.00     0.060 A 
ATOM     44  C   UNL A   1      46.663  24.244  25.037  1.00  0.00     0.016 A 
ATOM     45  C   UNL A   1      44.277  24.301  25.158  1.00  0.00     0.016 A 
ATOM     46  C   UNL A   1      46.734  25.204  26.055  1.00  0.00     0.010 A 
ATOM     47  C   UNL A   1      44.353  25.356  26.079  1.00  0.00     0.010 A 
ATOM     48  C   UNL A   1      45.585  25.784  26.601  1.00  0.00    -0.014 A 
BRANCH  48  49
ATOM     49  C   UNL A   1      45.649  26.774  27.731  1.00  0.00     0.031 A 
ATOM     50  C   UNL A   1      45.593  26.290  29.166  1.00  0.00     0.074 A 
ATOM     51  C   UNL A   1      45.743  28.105  27.514  1.00  0.00     0.049 A 
ATOM     52  N   UNL A   1      45.289  26.949  30.255  1.00  0.00    -0.248 NA
ATOM     53  C   UNL A   1      45.906  24.870  29.405  1.00  0.00     0.031 C 
ATOM     54  C   UNL A   1      45.888  28.755  26.210  1.00  0.00     0.029 A 
ATOM     55  N   UNL A   1      45.703  29.165  28.397  1.00  0.00    -0.354 N 
ATOM     56  C   UNL A   1      45.249  26.007  31.278  1.00  0.00     0.074 A 
ATOM     57  C   UNL A   1      45.617  24.736  30.693  1.00  0.00     0.031 C 
ATOM     58  C   UNL A   1      45.952  30.082  26.374  1.00  0.00     0.029 A 
ATOM     59  C   UNL A   1      45.689  30.393  27.771  1.00  0.00     0.049 A 
ATOM     60  H   UNL A   1      45.685  29.054  29.375  1.00  0.00     0.167 HD
ATOM     61  C   UNL A   1      44.912  26.181  32.580  1.00  0.00     0.034 A 
ATOM     62  C   UNL A   1      45.393  31.627  28.227  1.00  0.00     0.034 A 
ATOM     63  C   UNL A   1      44.632  27.462  33.173  1.00  0.00     0.049 A 
ATOM     64  C   UNL A   1      44.998  31.799  29.663  1.00  0.00     0.074 A 
ATOM     65  C   UNL A   1      44.309  27.750  34.489  1.00  0.00     0.029 A 
ATOM     66  N   UNL A   1      44.652  28.670  32.494  1.00  0.00    -0.354 N 
ATOM     67  N   UNL A   1      44.925  30.897  30.612  1.00  0.00    -0.248 NA
ATOM     68  C   UNL A   1      44.638  33.158  30.094  1.00  0.00     0.031 C 
ATOM     69  C   UNL A   1      44.107  29.130  34.598  1.00  0.00     0.029 A 
ATOM     70  C   UNL A   1      44.341  29.705  33.360  1.00  0.00     0.049 A 
ATOM     71  H   UNL A   1      44.859  28.777  31.538  1.00  0.00     0.167 HD
ATOM     72  C   UNL A   1      44.531  31.581  31.754  1.00  0.00     0.074 A 
ATOM     73  C   UNL A   1      44.409  32.977  31.387  1.00  0.00     0.031 C 
ATOM     74  C   UNL A   1      44.273  31.095  32.992  1.00  0.00     0.034 A 
BRANCH  61  75
ATOM     75  C   UNL A   1      44.791  24.960  33.457  1.00  0.00     0.023 A 
ATOM     76  C   UNL A   1      43.566  24.278  33.579  1.00  0.00     0.012 A 
ATOM     77  C   UNL A   1      45.935  24.445  34.105  1.00  0.00     0.148 A 
ATOM     78  C   UNL A   1      43.473  23.120  34.354  1.00  0.00     0.002 A 
ATOM     79  C   UNL A   1      45.844  23.266  34.837  1.00  0.00     0.091 A 
ATOM     80  F   UNL A   1      47.090  25.116  33.992  1.00  0.00    -0.205 F 
ATOM     81  C   UNL A   1      44.612  22.610  34.972  1.00  0.00     0.022 A 
BRANCH  79  82
ATOM     82  S   UNL A   1      47.277  22.490  35.595  1.00  0.00     0.127 S 
ATOM     83  O   UNL A   1      46.712  21.213  36.047  1.00  0.00    -0.237 OA
ATOM     84  O   UNL A   1      48.197  22.371  34.456  1.00  0.00    -0.237 OA
ATOM     85  O   UNL A   1      47.719  23.381  36.643  1.00  0.00    -0.744 OA
ENDBRANCH  79  82
ENDBRANCH  61  75
BRANCH  62  86
ATOM     86  C   UNL A   1      45.384  32.786  27.284  1.00  0.00     0.023 A 
ATOM     87  C   UNL A   1      44.188  33.165  26.648  1.00  0.00     0.012 A 
ATOM     88  C   UNL A   1      46.554  33.539  27.046  1.00  0.00     0.148 A 
ATOM     89  C   UNL A   1      44.159  34.261  25.782  1.00  0.00     0.002 A 
ATOM     90  C   UNL A   1      46.500  34.673  26.245  1.00  0.00     0.091 A 
ATOM     91  F   UNL A   1      47.694  33.146  27.632  1.00  0.00    -0.205 F 
ATOM     92  C   UNL A   1      45.309  35.024  25.596  1.00  0.00     0.022 A 
BRANCH  90  93
ATOM     93  S   UNL A   1      47.890  35.802  26.100  1.00  0.00     0.127 S 
ATOM     94  O   UNL A   1      48.709  35.140  25.089  1.00  0.00    -0.237 OA
ATOM     95  O   UNL A   1      47.236  37.033  25.654  1.00  0.00    -0.237 OA
ATOM     96  O   UNL A   1      48.466  35.884  27.436  1.00  0.00    -0.744 OA
ENDBRANCH  90  93
ENDBRANCH  62  86
BRANCH  74  97
ATOM     97  C   UNL A   1      43.887  32.085  34.058  1.00  0.00     0.023 A 
ATOM     98  C   UNL A   1      42.532  32.408  34.264  1.00  0.00     0.012 A 
ATOM     99  C   UNL A   1      44.871  32.652  34.891  1.00  0.00     0.148 A 
ATOM    100  C   UNL A   1      42.164  33.309  35.262  1.00  0.00     0.002 A 
ATOM    101  C   UNL A   1      44.493  33.509  35.916  1.00  0.00     0.091 A 
ATOM    102  F   UNL A   1      46.156  32.347  34.661  1.00  0.00    -0.205 F 
ATOM    103  C   UNL A   1      43.143  33.850  36.094  1.00  0.00     0.022 A 
BRANCH 101 104
ATOM    104  S   UNL A   1      45.674  34.177  37.092  1.00  0.00     0.127 S 
ATOM    105  O   UNL A   1      44.796  34.867  38.035  1.00  0.00    -0.237 OA
ATOM    106  O   UNL A   1      46.305  32.966  37.618  1.00  0.00    -0.237 OA
ATOM    107  O   UNL A   1      46.564  35.037  36.323  1.00  0.00    -0.744 OA
ENDBRANCH 101 104
ENDBRANCH  74  97
ENDBRANCH  48  49
ENDBRANCH  41  43
ENDBRANCH  40  41
ENDBRANCH  39  40
ENDBRANCH  38  39
ENDBRANCH  37  38
ENDBRANCH  36  37
ENDBRANCH   1  36
TORSDOF 24
ENDMDL
