MODEL 1
REMARK VINA RESULT:      -7.2      0.000      0.000
REMARK SMILES CC(C)OCCS(=O)(=O)N[C@@H]1COC[C@@H]1C(=O)OCCOCCOCCOC(=O)c1ccc(-c2c3nc(c(-c4cccc(S(=O)(=O)[O-])c4F)c4ccc([nH]4)c(-c4cccc(S(=O)(=O)[O-])c4F)c4nc(c(-c5cccc(S(=O)(=O)[O-])c5F)c5ccc2[nH]5)C=C4)C=C3)cc1
REMARK SMILES IDX 21 1 20 2 19 3 18 4 16 5 17 6 15 7 11 8 12 9 13 10 14 11
REMARK SMILES IDX 10 12 7 14 8 15 9 16 6 17 5 18 4 19 2 20 1 21 3 22 22 23
REMARK SMILES IDX 23 24 24 25 25 26 26 27 27 28 28 29 29 30 30 31 31 32 92 33
REMARK SMILES IDX 32 34 91 35 33 36 34 37 35 38 85 39 36 40 90 41 84 42 86 43
REMARK SMILES IDX 37 44 89 45 83 46 82 47 38 49 70 50 50 51 69 52 51 53 54 54
REMARK SMILES IDX 68 55 87 56 52 57 53 58 67 60 88 61 55 62 39 63 40 64 48 65
REMARK SMILES IDX 41 66 43 67 49 68 42 69 44 70 45 71 46 72 47 73 71 74 72 75
REMARK SMILES IDX 80 76 73 77 75 78 81 79 74 80 76 81 77 82 78 83 79 84 56 85
REMARK SMILES IDX 57 86 65 87 58 88 60 89 66 90 59 91 61 92 62 93 63 94 64 95
REMARK H PARENT 10 13 86 48 54 59
REMARK Flexibility Score: inf
ROOT
ATOM      1  O   UNL A   1      37.652  32.909  31.378  1.00  0.00    -0.376 OA
ENDROOT
BRANCH   1   2
ATOM      2  C   UNL A   1      36.257  32.867  31.651  1.00  0.00     0.202 C 
BRANCH   2   3
ATOM      3  C   UNL A   1      35.319  33.289  30.512  1.00  0.00     0.261 C 
BRANCH   3   4
ATOM      4  O   UNL A   1      34.921  32.219  29.628  1.00  0.00    -0.463 OA
BRANCH   4   5
ATOM      5  C   UNL A   1      35.341  32.355  28.343  1.00  0.00     0.313 C 
ATOM      6  O   UNL A   1      35.176  33.362  27.659  1.00  0.00    -0.252 OA
BRANCH   5   7
ATOM      7  C   UNL A   1      36.089  31.171  27.792  1.00  0.00     0.145 C 
ATOM      8  C   UNL A   1      35.661  29.748  28.052  1.00  0.00     0.112 C 
ATOM      9  C   UNL A   1      36.434  29.326  29.291  1.00  0.00     0.181 C 
ATOM     10  O   UNL A   1      37.520  30.243  29.454  1.00  0.00    -0.379 OA
ATOM     11  C   UNL A   1      37.502  31.171  28.358  1.00  0.00     0.177 C 
BRANCH   8  12
ATOM     12  N   UNL A   1      34.233  29.408  28.124  1.00  0.00    -0.209 NA
ATOM     13  H   UNL A   1      34.177  28.485  28.555  1.00  0.00     0.141 HD
BRANCH  12  14
ATOM     14  S   UNL A   1      33.284  29.347  26.747  1.00  0.00     0.214 S 
ATOM     15  O   UNL A   1      34.132  28.958  25.644  1.00  0.00    -0.212 OA
ATOM     16  O   UNL A   1      32.602  30.624  26.732  1.00  0.00    -0.212 OA
BRANCH  14  17
ATOM     17  C   UNL A   1      32.035  28.086  27.065  1.00  0.00     0.182 C 
BRANCH  17  18
ATOM     18  C   UNL A   1      31.399  27.496  25.814  1.00  0.00     0.178 C 
BRANCH  18  19
ATOM     19  O   UNL A   1      31.432  26.067  25.728  1.00  0.00    -0.378 OA
BRANCH  19  20
ATOM     20  C   UNL A   1      32.650  25.368  26.001  1.00  0.00     0.112 C 
ATOM     21  C   UNL A   1      32.477  23.939  26.517  1.00  0.00     0.038 C 
ATOM     22  C   UNL A   1      33.622  25.533  24.835  1.00  0.00     0.038 C 
ENDBRANCH  19  20
ENDBRANCH  18  19
ENDBRANCH  17  18
ENDBRANCH  14  17
ENDBRANCH  12  14
ENDBRANCH   8  12
ENDBRANCH   5   7
ENDBRANCH   4   5
ENDBRANCH   3   4
ENDBRANCH   2   3
ENDBRANCH   1   2
BRANCH   1  23
ATOM     23  C   UNL A   1      38.308  34.155  31.581  1.00  0.00     0.188 C 
BRANCH  23  24
ATOM     24  C   UNL A   1      39.050  34.307  32.907  1.00  0.00     0.188 C 
BRANCH  24  25
ATOM     25  O   UNL A   1      38.289  34.953  33.925  1.00  0.00    -0.376 OA
BRANCH  25  26
ATOM     26  C   UNL A   1      38.653  34.694  35.284  1.00  0.00     0.202 C 
BRANCH  26  27
ATOM     27  C   UNL A   1      37.864  33.658  36.111  1.00  0.00     0.261 C 
BRANCH  27  28
ATOM     28  O   UNL A   1      38.667  32.731  36.867  1.00  0.00    -0.460 OA
BRANCH  28  29
ATOM     29  C   UNL A   1      38.618  31.428  36.498  1.00  0.00     0.338 C 
ATOM     30  O   UNL A   1      37.776  30.617  36.844  1.00  0.00    -0.246 OA
BRANCH  29  31
ATOM     31  C   UNL A   1      39.600  31.204  35.400  1.00  0.00     0.060 A 
ATOM     32  C   UNL A   1      39.115  30.669  34.200  1.00  0.00     0.016 A 
ATOM     33  C   UNL A   1      40.945  31.577  35.495  1.00  0.00     0.016 A 
ATOM     34  C   UNL A   1      39.966  30.472  33.110  1.00  0.00     0.010 A 
ATOM     35  C   UNL A   1      41.804  31.361  34.406  1.00  0.00     0.010 A 
ATOM     36  C   UNL A   1      41.329  30.776  33.217  1.00  0.00    -0.014 A 
BRANCH  36  37
ATOM     37  C   UNL A   1      42.274  30.280  32.178  1.00  0.00     0.031 A 
ATOM     38  C   UNL A   1      42.860  28.902  32.357  1.00  0.00     0.074 A 
ATOM     39  C   UNL A   1      42.586  30.993  31.079  1.00  0.00     0.049 A 
ATOM     40  N   UNL A   1      43.748  28.275  31.630  1.00  0.00    -0.248 NA
ATOM     41  C   UNL A   1      42.369  28.125  33.508  1.00  0.00     0.031 C 
ATOM     42  C   UNL A   1      42.053  32.310  30.736  1.00  0.00     0.029 A 
ATOM     43  N   UNL A   1      43.448  30.703  30.045  1.00  0.00    -0.354 N 
ATOM     44  C   UNL A   1      43.964  27.059  32.265  1.00  0.00     0.074 A 
ATOM     45  C   UNL A   1      43.104  27.025  33.427  1.00  0.00     0.031 C 
ATOM     46  C   UNL A   1      42.617  32.724  29.585  1.00  0.00     0.029 A 
ATOM     47  C   UNL A   1      43.578  31.720  29.127  1.00  0.00     0.049 A 
ATOM     48  H   UNL A   1      43.927  29.846  29.970  1.00  0.00     0.167 HD
ATOM     49  C   UNL A   1      44.799  26.053  31.915  1.00  0.00     0.034 A 
ATOM     50  C   UNL A   1      44.401  31.841  28.063  1.00  0.00     0.034 A 
ATOM     51  C   UNL A   1      45.620  26.048  30.737  1.00  0.00     0.049 A 
ATOM     52  C   UNL A   1      45.355  30.719  27.723  1.00  0.00     0.074 A 
ATOM     53  C   UNL A   1      46.461  25.047  30.284  1.00  0.00     0.029 A 
ATOM     54  N   UNL A   1      45.712  27.090  29.831  1.00  0.00    -0.354 N 
ATOM     55  N   UNL A   1      45.481  29.539  28.282  1.00  0.00    -0.248 NA
ATOM     56  C   UNL A   1      46.269  30.940  26.590  1.00  0.00     0.031 C 
ATOM     57  C   UNL A   1      47.089  25.498  29.120  1.00  0.00     0.029 A 
ATOM     58  C   UNL A   1      46.611  26.765  28.830  1.00  0.00     0.049 A 
ATOM     59  H   UNL A   1      45.213  27.937  29.890  1.00  0.00     0.167 HD
ATOM     60  C   UNL A   1      46.452  28.867  27.543  1.00  0.00     0.074 A 
ATOM     61  C   UNL A   1      46.868  29.762  26.485  1.00  0.00     0.031 C 
ATOM     62  C   UNL A   1      46.967  27.627  27.734  1.00  0.00     0.034 A 
BRANCH  49  63
ATOM     63  C   UNL A   1      44.878  24.859  32.825  1.00  0.00     0.023 A 
ATOM     64  C   UNL A   1      43.959  23.802  32.686  1.00  0.00     0.012 A 
ATOM     65  C   UNL A   1      45.920  24.759  33.768  1.00  0.00     0.148 A 
ATOM     66  C   UNL A   1      44.064  22.666  33.489  1.00  0.00     0.002 A 
ATOM     67  C   UNL A   1      46.044  23.607  34.533  1.00  0.00     0.091 A 
ATOM     68  F   UNL A   1      46.765  25.791  33.897  1.00  0.00    -0.205 F 
ATOM     69  C   UNL A   1      45.113  22.564  34.401  1.00  0.00     0.022 A 
BRANCH  67  70
ATOM     70  S   UNL A   1      47.403  23.348  35.677  1.00  0.00     0.127 S 
ATOM     71  O   UNL A   1      47.144  21.986  36.139  1.00  0.00    -0.237 OA
ATOM     72  O   UNL A   1      48.568  23.484  34.801  1.00  0.00    -0.237 OA
ATOM     73  O   UNL A   1      47.280  24.385  36.692  1.00  0.00    -0.744 OA
ENDBRANCH  67  70
ENDBRANCH  49  63
BRANCH  50  74
ATOM     74  C   UNL A   1      44.383  33.073  27.218  1.00  0.00     0.023 A 
ATOM     75  C   UNL A   1      43.741  33.050  25.963  1.00  0.00     0.012 A 
ATOM     76  C   UNL A   1      45.048  34.247  27.622  1.00  0.00     0.148 A 
ATOM     77  C   UNL A   1      43.801  34.153  25.110  1.00  0.00     0.002 A 
ATOM     78  C   UNL A   1      45.055  35.362  26.793  1.00  0.00     0.091 A 
ATOM     79  F   UNL A   1      45.682  34.244  28.803  1.00  0.00    -0.205 F 
ATOM     80  C   UNL A   1      44.449  35.313  25.528  1.00  0.00     0.022 A 
BRANCH  78  81
ATOM     81  S   UNL A   1      45.769  36.930  27.300  1.00  0.00     0.127 S 
ATOM     82  O   UNL A   1      46.465  37.349  26.086  1.00  0.00    -0.237 OA
ATOM     83  O   UNL A   1      44.579  37.714  27.630  1.00  0.00    -0.237 OA
ATOM     84  O   UNL A   1      46.617  36.618  28.444  1.00  0.00    -0.744 OA
ENDBRANCH  78  81
ENDBRANCH  50  74
BRANCH  62  85
ATOM     85  C   UNL A   1      47.994  27.120  26.754  1.00  0.00     0.023 A 
ATOM     86  C   UNL A   1      47.580  26.496  25.561  1.00  0.00     0.012 A 
ATOM     87  C   UNL A   1      49.368  27.344  26.974  1.00  0.00     0.148 A 
ATOM     88  C   UNL A   1      48.519  26.076  24.618  1.00  0.00     0.002 A 
ATOM     89  C   UNL A   1      50.294  26.969  26.008  1.00  0.00     0.091 A 
ATOM     90  F   UNL A   1      49.744  27.927  28.122  1.00  0.00    -0.205 F 
ATOM     91  C   UNL A   1      49.873  26.324  24.835  1.00  0.00     0.022 A 
BRANCH  89  92
ATOM     92  S   UNL A   1      52.046  27.341  26.157  1.00  0.00     0.127 S 
ATOM     93  O   UNL A   1      52.395  26.640  27.392  1.00  0.00    -0.237 OA
ATOM     94  O   UNL A   1      52.596  26.743  24.940  1.00  0.00    -0.237 OA
ATOM     95  O   UNL A   1      52.146  28.794  26.212  1.00  0.00    -0.744 OA
ENDBRANCH  89  92
ENDBRANCH  62  85
ENDBRANCH  36  37
ENDBRANCH  29  31
ENDBRANCH  28  29
ENDBRANCH  27  28
ENDBRANCH  26  27
ENDBRANCH  25  26
ENDBRANCH  24  25
ENDBRANCH  23  24
ENDBRANCH   1  23
TORSDOF 26
ENDMDL
MODEL 2
REMARK VINA RESULT:      -6.9      4.528     11.558
REMARK SMILES CC(C)OCCS(=O)(=O)N[C@@H]1COC[C@@H]1C(=O)OCCOCCOCCOC(=O)c1ccc(-c2c3nc(c(-c4cccc(S(=O)(=O)[O-])c4F)c4ccc([nH]4)c(-c4cccc(S(=O)(=O)[O-])c4F)c4nc(c(-c5cccc(S(=O)(=O)[O-])c5F)c5ccc2[nH]5)C=C4)C=C3)cc1
REMARK SMILES IDX 21 1 20 2 19 3 18 4 16 5 17 6 15 7 11 8 12 9 13 10 14 11
REMARK SMILES IDX 10 12 7 14 8 15 9 16 6 17 5 18 4 19 2 20 1 21 3 22 22 23
REMARK SMILES IDX 23 24 24 25 25 26 26 27 27 28 28 29 29 30 30 31 31 32 92 33
REMARK SMILES IDX 32 34 91 35 33 36 34 37 35 38 85 39 36 40 90 41 84 42 86 43
REMARK SMILES IDX 37 44 89 45 83 46 82 47 38 49 70 50 50 51 69 52 51 53 54 54
REMARK SMILES IDX 68 55 87 56 52 57 53 58 67 60 88 61 55 62 39 63 40 64 48 65
REMARK SMILES IDX 41 66 43 67 49 68 42 69 44 70 45 71 46 72 47 73 71 74 72 75
REMARK SMILES IDX 80 76 73 77 75 78 81 79 74 80 76 81 77 82 78 83 79 84 56 85
REMARK SMILES IDX 57 86 65 87 58 88 60 89 66 90 59 91 61 92 62 93 63 94 64 95
REMARK H PARENT 10 13 86 48 54 59
REMARK Flexibility Score: inf
ROOT
ATOM      1  O   UNL A   1      44.452  24.832  31.163  1.00  0.00    -0.376 OA
ENDROOT
BRANCH   1   2
ATOM      2  C   UNL A   1      44.283  23.883  32.210  1.00  0.00     0.202 C 
BRANCH   2   3
ATOM      3  C   UNL A   1      45.067  24.139  33.504  1.00  0.00     0.261 C 
BRANCH   3   4
ATOM      4  O   UNL A   1      44.466  23.587  34.695  1.00  0.00    -0.463 OA
BRANCH   4   5
ATOM      5  C   UNL A   1      43.291  24.165  35.059  1.00  0.00     0.313 C 
ATOM      6  O   UNL A   1      42.197  23.607  35.016  1.00  0.00    -0.252 OA
BRANCH   5   7
ATOM      7  C   UNL A   1      43.411  25.572  35.579  1.00  0.00     0.145 C 
ATOM      8  C   UNL A   1      43.140  25.931  37.020  1.00  0.00     0.112 C 
ATOM      9  C   UNL A   1      41.672  26.323  37.057  1.00  0.00     0.181 C 
ATOM     10  O   UNL A   1      41.266  26.597  35.713  1.00  0.00    -0.379 OA
ATOM     11  C   UNL A   1      42.407  26.456  34.852  1.00  0.00     0.177 C 
BRANCH   8  12
ATOM     12  N   UNL A   1      43.512  25.000  38.094  1.00  0.00    -0.209 NA
ATOM     13  H   UNL A   1      43.103  25.371  38.952  1.00  0.00     0.141 HD
BRANCH  12  14
ATOM     14  S   UNL A   1      45.115  24.666  38.440  1.00  0.00     0.214 S 
ATOM     15  O   UNL A   1      45.489  23.484  37.698  1.00  0.00    -0.212 OA
ATOM     16  O   UNL A   1      45.173  24.674  39.885  1.00  0.00    -0.212 OA
BRANCH  14  17
ATOM     17  C   UNL A   1      46.050  26.098  37.867  1.00  0.00     0.182 C 
BRANCH  17  18
ATOM     18  C   UNL A   1      46.145  27.235  38.874  1.00  0.00     0.178 C 
BRANCH  18  19
ATOM     19  O   UNL A   1      45.067  27.311  39.813  1.00  0.00    -0.378 OA
BRANCH  19  20
ATOM     20  C   UNL A   1      45.273  27.933  41.084  1.00  0.00     0.112 C 
ATOM     21  C   UNL A   1      44.311  27.493  42.187  1.00  0.00     0.038 C 
ATOM     22  C   UNL A   1      46.755  27.898  41.451  1.00  0.00     0.038 C 
ENDBRANCH  19  20
ENDBRANCH  18  19
ENDBRANCH  17  18
ENDBRANCH  14  17
ENDBRANCH  12  14
ENDBRANCH   8  12
ENDBRANCH   5   7
ENDBRANCH   4   5
ENDBRANCH   3   4
ENDBRANCH   2   3
ENDBRANCH   1   2
BRANCH   1  23
ATOM     23  C   UNL A   1      44.515  24.319  29.838  1.00  0.00     0.188 C 
BRANCH  23  24
ATOM     24  C   UNL A   1      44.085  22.863  29.667  1.00  0.00     0.188 C 
BRANCH  24  25
ATOM     25  O   UNL A   1      42.858  22.702  28.961  1.00  0.00    -0.376 OA
BRANCH  25  26
ATOM     26  C   UNL A   1      42.933  22.265  27.600  1.00  0.00     0.202 C 
BRANCH  26  27
ATOM     27  C   UNL A   1      42.492  23.207  26.461  1.00  0.00     0.261 C 
BRANCH  27  28
ATOM     28  O   UNL A   1      41.323  22.787  25.731  1.00  0.00    -0.460 OA
BRANCH  28  29
ATOM     29  C   UNL A   1      40.118  23.029  26.303  1.00  0.00     0.338 C 
ATOM     30  O   UNL A   1      39.208  22.228  26.423  1.00  0.00    -0.246 OA
BRANCH  29  31
ATOM     31  C   UNL A   1      40.175  24.348  26.995  1.00  0.00     0.060 A 
ATOM     32  C   UNL A   1      40.591  25.453  26.242  1.00  0.00     0.016 A 
ATOM     33  C   UNL A   1      39.759  24.531  28.317  1.00  0.00     0.016 A 
ATOM     34  C   UNL A   1      40.629  26.730  26.808  1.00  0.00     0.010 A 
ATOM     35  C   UNL A   1      39.815  25.811  28.892  1.00  0.00     0.010 A 
ATOM     36  C   UNL A   1      40.282  26.915  28.151  1.00  0.00    -0.014 A 
BRANCH  36  37
ATOM     37  C   UNL A   1      40.617  28.200  28.825  1.00  0.00     0.031 A 
ATOM     38  C   UNL A   1      42.072  28.507  29.075  1.00  0.00     0.074 A 
ATOM     39  C   UNL A   1      39.681  29.103  29.174  1.00  0.00     0.049 A 
ATOM     40  N   UNL A   1      42.613  29.523  29.697  1.00  0.00    -0.248 NA
ATOM     41  C   UNL A   1      43.047  27.540  28.544  1.00  0.00     0.031 C 
ATOM     42  C   UNL A   1      38.244  28.977  28.942  1.00  0.00     0.029 A 
ATOM     43  N   UNL A   1      39.810  30.314  29.818  1.00  0.00    -0.354 N 
ATOM     44  C   UNL A   1      43.982  29.289  29.681  1.00  0.00     0.074 A 
ATOM     45  C   UNL A   1      44.194  28.045  28.976  1.00  0.00     0.031 C 
ATOM     46  C   UNL A   1      37.622  30.056  29.456  1.00  0.00     0.029 A 
ATOM     47  C   UNL A   1      38.609  30.931  30.088  1.00  0.00     0.049 A 
ATOM     48  H   UNL A   1      40.682  30.701  30.064  1.00  0.00     0.167 HD
ATOM     49  C   UNL A   1      44.979  30.040  30.202  1.00  0.00     0.034 A 
ATOM     50  C   UNL A   1      38.338  32.052  30.790  1.00  0.00     0.034 A 
ATOM     51  C   UNL A   1      44.790  31.303  30.860  1.00  0.00     0.049 A 
ATOM     52  C   UNL A   1      39.471  32.847  31.398  1.00  0.00     0.074 A 
ATOM     53  C   UNL A   1      45.753  32.151  31.377  1.00  0.00     0.029 A 
ATOM     54  N   UNL A   1      43.563  31.896  31.099  1.00  0.00    -0.354 N 
ATOM     55  N   UNL A   1      40.765  32.660  31.297  1.00  0.00    -0.248 NA
ATOM     56  C   UNL A   1      39.103  34.023  32.205  1.00  0.00     0.031 C 
ATOM     57  C   UNL A   1      45.105  33.244  31.959  1.00  0.00     0.029 A 
ATOM     58  C   UNL A   1      43.741  33.091  31.774  1.00  0.00     0.049 A 
ATOM     59  H   UNL A   1      42.692  31.523  30.831  1.00  0.00     0.167 HD
ATOM     60  C   UNL A   1      41.360  33.713  31.986  1.00  0.00     0.074 A 
ATOM     61  C   UNL A   1      40.289  34.548  32.485  1.00  0.00     0.031 C 
ATOM     62  C   UNL A   1      42.676  33.958  32.202  1.00  0.00     0.034 A 
BRANCH  49  63
ATOM     63  C   UNL A   1      46.383  29.515  30.092  1.00  0.00     0.023 A 
ATOM     64  C   UNL A   1      47.220  29.948  29.045  1.00  0.00     0.012 A 
ATOM     65  C   UNL A   1      46.892  28.649  31.079  1.00  0.00     0.148 A 
ATOM     66  C   UNL A   1      48.542  29.509  28.971  1.00  0.00     0.002 A 
ATOM     67  C   UNL A   1      48.222  28.251  31.023  1.00  0.00     0.091 A 
ATOM     68  F   UNL A   1      46.067  28.232  32.050  1.00  0.00    -0.205 F 
ATOM     69  C   UNL A   1      49.045  28.673  29.966  1.00  0.00     0.022 A 
BRANCH  67  70
ATOM     70  S   UNL A   1      48.982  27.241  32.297  1.00  0.00     0.127 S 
ATOM     71  O   UNL A   1      48.232  25.992  32.170  1.00  0.00    -0.237 OA
ATOM     72  O   UNL A   1      50.370  27.167  31.840  1.00  0.00    -0.237 OA
ATOM     73  O   UNL A   1      48.790  27.958  33.550  1.00  0.00    -0.744 OA
ENDBRANCH  67  70
ENDBRANCH  49  63
BRANCH  50  74
ATOM     74  C   UNL A   1      36.930  32.516  30.976  1.00  0.00     0.023 A 
ATOM     75  C   UNL A   1      36.300  32.349  32.227  1.00  0.00     0.012 A 
ATOM     76  C   UNL A   1      36.193  33.065  29.910  1.00  0.00     0.148 A 
ATOM     77  C   UNL A   1      34.954  32.677  32.397  1.00  0.00     0.002 A 
ATOM     78  C   UNL A   1      34.869  33.443  30.102  1.00  0.00     0.091 A 
ATOM     79  F   UNL A   1      36.794  33.187  28.718  1.00  0.00    -0.205 F 
ATOM     80  C   UNL A   1      34.241  33.232  31.338  1.00  0.00     0.022 A 
BRANCH  78  81
ATOM     81  S   UNL A   1      33.913  34.268  28.825  1.00  0.00     0.127 S 
ATOM     82  O   UNL A   1      32.748  34.729  29.574  1.00  0.00    -0.237 OA
ATOM     83  O   UNL A   1      34.828  35.326  28.395  1.00  0.00    -0.237 OA
ATOM     84  O   UNL A   1      33.658  33.251  27.813  1.00  0.00    -0.744 OA
ENDBRANCH  78  81
ENDBRANCH  50  74
BRANCH  62  85
ATOM     85  C   UNL A   1      43.056  35.207  32.959  1.00  0.00     0.023 A 
ATOM     86  C   UNL A   1      43.391  36.381  32.256  1.00  0.00     0.012 A 
ATOM     87  C   UNL A   1      42.993  35.240  34.366  1.00  0.00     0.148 A 
ATOM     88  C   UNL A   1      43.687  37.558  32.944  1.00  0.00     0.002 A 
ATOM     89  C   UNL A   1      43.238  36.428  35.043  1.00  0.00     0.091 A 
ATOM     90  F   UNL A   1      42.686  34.108  35.019  1.00  0.00    -0.205 F 
ATOM     91  C   UNL A   1      43.597  37.586  34.334  1.00  0.00     0.022 A 
BRANCH  89  92
ATOM     92  S   UNL A   1      43.047  36.582  36.822  1.00  0.00     0.127 S 
ATOM     93  O   UNL A   1      43.785  35.415  37.304  1.00  0.00    -0.237 OA
ATOM     94  O   UNL A   1      43.691  37.867  37.096  1.00  0.00    -0.237 OA
ATOM     95  O   UNL A   1      41.612  36.562  37.076  1.00  0.00    -0.744 OA
ENDBRANCH  89  92
ENDBRANCH  62  85
ENDBRANCH  36  37
ENDBRANCH  29  31
ENDBRANCH  28  29
ENDBRANCH  27  28
ENDBRANCH  26  27
ENDBRANCH  25  26
ENDBRANCH  24  25
ENDBRANCH  23  24
ENDBRANCH   1  23
TORSDOF 26
ENDMDL
MODEL 3
REMARK VINA RESULT:      -6.9      6.107     14.220
REMARK SMILES CC(C)OCCS(=O)(=O)N[C@@H]1COC[C@@H]1C(=O)OCCOCCOCCOC(=O)c1ccc(-c2c3nc(c(-c4cccc(S(=O)(=O)[O-])c4F)c4ccc([nH]4)c(-c4cccc(S(=O)(=O)[O-])c4F)c4nc(c(-c5cccc(S(=O)(=O)[O-])c5F)c5ccc2[nH]5)C=C4)C=C3)cc1
REMARK SMILES IDX 21 1 20 2 19 3 18 4 16 5 17 6 15 7 11 8 12 9 13 10 14 11
REMARK SMILES IDX 10 12 7 14 8 15 9 16 6 17 5 18 4 19 2 20 1 21 3 22 22 23
REMARK SMILES IDX 23 24 24 25 25 26 26 27 27 28 28 29 29 30 30 31 31 32 92 33
REMARK SMILES IDX 32 34 91 35 33 36 34 37 35 38 85 39 36 40 90 41 84 42 86 43
REMARK SMILES IDX 37 44 89 45 83 46 82 47 38 49 70 50 50 51 69 52 51 53 54 54
REMARK SMILES IDX 68 55 87 56 52 57 53 58 67 60 88 61 55 62 39 63 40 64 48 65
REMARK SMILES IDX 41 66 43 67 49 68 42 69 44 70 45 71 46 72 47 73 71 74 72 75
REMARK SMILES IDX 80 76 73 77 75 78 81 79 74 80 76 81 77 82 78 83 79 84 56 85
REMARK SMILES IDX 57 86 65 87 58 88 60 89 66 90 59 91 61 92 62 93 63 94 64 95
REMARK H PARENT 10 13 86 48 54 59
REMARK Flexibility Score: inf
ROOT
ATOM      1  O   UNL A   1      49.197  20.623  36.753  1.00  0.00    -0.376 OA
ENDROOT
BRANCH   1   2
ATOM      2  C   UNL A   1      48.739  20.042  37.968  1.00  0.00     0.202 C 
BRANCH   2   3
ATOM      3  C   UNL A   1      47.863  20.927  38.865  1.00  0.00     0.261 C 
BRANCH   3   4
ATOM      4  O   UNL A   1      47.817  20.526  40.252  1.00  0.00    -0.463 OA
BRANCH   4   5
ATOM      5  C   UNL A   1      46.735  19.777  40.592  1.00  0.00     0.313 C 
ATOM      6  O   UNL A   1      45.637  20.235  40.895  1.00  0.00    -0.252 OA
BRANCH   5   7
ATOM      7  C   UNL A   1      46.953  18.288  40.533  1.00  0.00     0.145 C 
ATOM      8  C   UNL A   1      45.944  17.299  41.063  1.00  0.00     0.112 C 
ATOM      9  C   UNL A   1      46.365  17.039  42.499  1.00  0.00     0.181 C 
ATOM     10  O   UNL A   1      47.721  17.476  42.636  1.00  0.00    -0.379 OA
ATOM     11  C   UNL A   1      48.184  17.936  41.356  1.00  0.00     0.177 C 
BRANCH   8  12
ATOM     12  N   UNL A   1      44.505  17.568  40.926  1.00  0.00    -0.209 NA
ATOM     13  H   UNL A   1      44.151  17.728  41.870  1.00  0.00     0.141 HD
BRANCH  12  14
ATOM     14  S   UNL A   1      43.476  16.457  40.215  1.00  0.00     0.214 S 
ATOM     15  O   UNL A   1      44.290  15.447  39.578  1.00  0.00    -0.212 OA
ATOM     16  O   UNL A   1      42.568  17.268  39.433  1.00  0.00    -0.212 OA
BRANCH  14  17
ATOM     17  C   UNL A   1      42.516  15.742  41.564  1.00  0.00     0.182 C 
BRANCH  17  18
ATOM     18  C   UNL A   1      42.316  14.236  41.468  1.00  0.00     0.178 C 
BRANCH  18  19
ATOM     19  O   UNL A   1      42.790  13.485  42.591  1.00  0.00    -0.378 OA
BRANCH  19  20
ATOM     20  C   UNL A   1      42.269  12.176  42.841  1.00  0.00     0.112 C 
ATOM     21  C   UNL A   1      42.960  11.406  43.967  1.00  0.00     0.038 C 
ATOM     22  C   UNL A   1      40.745  12.222  42.914  1.00  0.00     0.038 C 
ENDBRANCH  19  20
ENDBRANCH  18  19
ENDBRANCH  17  18
ENDBRANCH  14  17
ENDBRANCH  12  14
ENDBRANCH   8  12
ENDBRANCH   5   7
ENDBRANCH   4   5
ENDBRANCH   3   4
ENDBRANCH   2   3
ENDBRANCH   1   2
BRANCH   1  23
ATOM     23  C   UNL A   1      49.815  21.900  36.846  1.00  0.00     0.188 C 
BRANCH  23  24
ATOM     24  C   UNL A   1      51.325  21.928  36.615  1.00  0.00     0.188 C 
BRANCH  24  25
ATOM     25  O   UNL A   1      51.825  20.781  35.931  1.00  0.00    -0.376 OA
BRANCH  25  26
ATOM     26  C   UNL A   1      52.086  20.911  34.530  1.00  0.00     0.202 C 
BRANCH  26  27
ATOM     27  C   UNL A   1      50.913  21.010  33.532  1.00  0.00     0.261 C 
BRANCH  27  28
ATOM     28  O   UNL A   1      51.091  21.961  32.464  1.00  0.00    -0.460 OA
BRANCH  28  29
ATOM     29  C   UNL A   1      51.609  23.169  32.793  1.00  0.00     0.338 C 
ATOM     30  O   UNL A   1      52.792  23.430  32.925  1.00  0.00    -0.246 OA
BRANCH  29  31
ATOM     31  C   UNL A   1      50.526  24.190  32.713  1.00  0.00     0.060 A 
ATOM     32  C   UNL A   1      49.532  24.154  33.699  1.00  0.00     0.016 A 
ATOM     33  C   UNL A   1      50.512  25.211  31.757  1.00  0.00     0.016 A 
ATOM     34  C   UNL A   1      48.508  25.105  33.717  1.00  0.00     0.010 A 
ATOM     35  C   UNL A   1      49.472  26.155  31.764  1.00  0.00     0.010 A 
ATOM     36  C   UNL A   1      48.444  26.089  32.724  1.00  0.00    -0.014 A 
BRANCH  36  37
ATOM     37  C   UNL A   1      47.200  26.893  32.567  1.00  0.00     0.031 A 
ATOM     38  C   UNL A   1      46.323  26.610  31.373  1.00  0.00     0.074 A 
ATOM     39  C   UNL A   1      46.815  27.819  33.465  1.00  0.00     0.049 A 
ATOM     40  N   UNL A   1      45.230  27.212  30.983  1.00  0.00    -0.248 NA
ATOM     41  C   UNL A   1      46.733  25.491  30.508  1.00  0.00     0.031 C 
ATOM     42  C   UNL A   1      47.522  28.159  34.697  1.00  0.00     0.029 A 
ATOM     43  N   UNL A   1      45.724  28.659  33.464  1.00  0.00    -0.354 N 
ATOM     44  C   UNL A   1      44.855  26.586  29.801  1.00  0.00     0.074 A 
ATOM     45  C   UNL A   1      45.825  25.545  29.544  1.00  0.00     0.031 C 
ATOM     46  C   UNL A   1      46.860  29.151  35.323  1.00  0.00     0.029 A 
ATOM     47  C   UNL A   1      45.703  29.544  34.518  1.00  0.00     0.049 A 
ATOM     48  H   UNL A   1      45.023  28.629  32.773  1.00  0.00     0.167 HD
ATOM     49  C   UNL A   1      43.796  26.845  29.000  1.00  0.00     0.034 A 
ATOM     50  C   UNL A   1      44.868  30.572  34.784  1.00  0.00     0.034 A 
ATOM     51  C   UNL A   1      42.795  27.839  29.268  1.00  0.00     0.049 A 
ATOM     52  C   UNL A   1      43.720  30.865  33.845  1.00  0.00     0.074 A 
ATOM     53  C   UNL A   1      41.663  28.134  28.529  1.00  0.00     0.029 A 
ATOM     54  N   UNL A   1      42.805  28.702  30.349  1.00  0.00    -0.354 N 
ATOM     55  N   UNL A   1      43.328  30.206  32.781  1.00  0.00    -0.248 NA
ATOM     56  C   UNL A   1      42.885  32.038  34.157  1.00  0.00     0.031 C 
ATOM     57  C   UNL A   1      41.005  29.201  29.147  1.00  0.00     0.029 A 
ATOM     58  C   UNL A   1      41.709  29.545  30.289  1.00  0.00     0.049 A 
ATOM     59  H   UNL A   1      43.490  28.715  31.056  1.00  0.00     0.167 HD
ATOM     60  C   UNL A   1      42.182  30.856  32.328  1.00  0.00     0.074 A 
ATOM     61  C   UNL A   1      41.930  31.949  33.241  1.00  0.00     0.031 C 
ATOM     62  C   UNL A   1      41.418  30.583  31.241  1.00  0.00     0.034 A 
BRANCH  49  63
ATOM     63  C   UNL A   1      43.661  26.042  27.736  1.00  0.00     0.023 A 
ATOM     64  C   UNL A   1      44.314  26.458  26.560  1.00  0.00     0.012 A 
ATOM     65  C   UNL A   1      42.944  24.829  27.744  1.00  0.00     0.148 A 
ATOM     66  C   UNL A   1      44.239  25.687  25.401  1.00  0.00     0.002 A 
ATOM     67  C   UNL A   1      42.911  24.044  26.599  1.00  0.00     0.091 A 
ATOM     68  F   UNL A   1      42.312  24.469  28.870  1.00  0.00    -0.205 F 
ATOM     69  C   UNL A   1      43.550  24.475  25.425  1.00  0.00     0.022 A 
BRANCH  67  70
ATOM     70  S   UNL A   1      42.118  22.434  26.554  1.00  0.00     0.127 S 
ATOM     71  O   UNL A   1      40.713  22.802  26.389  1.00  0.00    -0.237 OA
ATOM     72  O   UNL A   1      42.732  21.825  25.373  1.00  0.00    -0.237 OA
ATOM     73  O   UNL A   1      42.448  21.785  27.815  1.00  0.00    -0.744 OA
ENDBRANCH  67  70
ENDBRANCH  49  63
BRANCH  50  74
ATOM     74  C   UNL A   1      45.067  31.427  35.993  1.00  0.00     0.023 A 
ATOM     75  C   UNL A   1      46.093  32.394  36.003  1.00  0.00     0.012 A 
ATOM     76  C   UNL A   1      44.288  31.247  37.152  1.00  0.00     0.148 A 
ATOM     77  C   UNL A   1      46.367  33.132  37.156  1.00  0.00     0.002 A 
ATOM     78  C   UNL A   1      44.528  32.026  38.278  1.00  0.00     0.091 A 
ATOM     79  F   UNL A   1      43.338  30.302  37.140  1.00  0.00    -0.205 F 
ATOM     80  C   UNL A   1      45.579  32.954  38.291  1.00  0.00     0.022 A 
BRANCH  78  81
ATOM     81  S   UNL A   1      43.491  31.941  39.742  1.00  0.00     0.127 S 
ATOM     82  O   UNL A   1      43.776  33.219  40.386  1.00  0.00    -0.237 OA
ATOM     83  O   UNL A   1      42.153  31.828  39.160  1.00  0.00    -0.237 OA
ATOM     84  O   UNL A   1      43.931  30.752  40.461  1.00  0.00    -0.744 OA
ENDBRANCH  78  81
ENDBRANCH  50  74
BRANCH  62  85
ATOM     85  C   UNL A   1      40.195  31.431  30.996  1.00  0.00     0.023 A 
ATOM     86  C   UNL A   1      40.294  32.599  30.216  1.00  0.00     0.012 A 
ATOM     87  C   UNL A   1      38.931  31.018  31.464  1.00  0.00     0.148 A 
ATOM     88  C   UNL A   1      39.158  33.359  29.931  1.00  0.00     0.002 A 
ATOM     89  C   UNL A   1      37.798  31.752  31.135  1.00  0.00     0.091 A 
ATOM     90  F   UNL A   1      38.859  29.911  32.218  1.00  0.00    -0.205 F 
ATOM     91  C   UNL A   1      37.911  32.929  30.379  1.00  0.00     0.022 A 
BRANCH  89  92
ATOM     92  S   UNL A   1      36.141  31.218  31.581  1.00  0.00     0.127 S 
ATOM     93  O   UNL A   1      36.023  31.723  32.948  1.00  0.00    -0.237 OA
ATOM     94  O   UNL A   1      35.313  31.919  30.599  1.00  0.00    -0.237 OA
ATOM     95  O   UNL A   1      36.136  29.767  31.447  1.00  0.00    -0.744 OA
ENDBRANCH  89  92
ENDBRANCH  62  85
ENDBRANCH  36  37
ENDBRANCH  29  31
ENDBRANCH  28  29
ENDBRANCH  27  28
ENDBRANCH  26  27
ENDBRANCH  25  26
ENDBRANCH  24  25
ENDBRANCH  23  24
ENDBRANCH   1  23
TORSDOF 26
ENDMDL
