MODEL 1
REMARK VINA RESULT:     -11.8      0.000      0.000
REMARK SMILES COC(=O)c1nc(C)cc(N[C@@H]2C=C[C@H](C(=O)OCCOCCOCCOC(=O)c3ccc(-c4c5nc(c(-c6cccc(S(=O)(=O)[O-])c6F)c6ccc([nH]6)c(-c6cccc(S(=O)(=O)[O-])c6F)c6nc(c(-c7cccc(S(=O)(=O)[O-])c7F)c7ccc4[nH]7)C=C6)C=C5)cc3)C2)n1
REMARK SMILES IDX 22 1 21 2 20 3 19 4 18 5 16 6 17 7 15 8 12 9 13 10 93 11
REMARK SMILES IDX 14 12 11 13 10 15 5 16 6 17 94 18 7 19 8 20 9 21 3 22 4 23
REMARK SMILES IDX 2 24 1 25 23 26 24 27 25 28 26 29 27 30 28 31 29 32 30 33
REMARK SMILES IDX 31 34 92 35 32 36 91 37 33 38 34 39 35 40 85 41 36 42 90 43
REMARK SMILES IDX 84 44 86 45 37 46 89 47 83 48 82 49 38 51 70 52 50 53 69 54
REMARK SMILES IDX 51 55 54 56 68 57 87 58 52 59 53 60 67 62 88 63 55 64 39 65
REMARK SMILES IDX 40 66 48 67 41 68 43 69 49 70 42 71 44 72 45 73 46 74 47 75
REMARK SMILES IDX 71 76 72 77 80 78 73 79 75 80 81 81 74 82 76 83 77 84 78 85
REMARK SMILES IDX 79 86 56 87 57 88 65 89 58 90 60 91 66 92 59 93 61 94 62 95
REMARK SMILES IDX 63 96 64 97
REMARK H PARENT 11 14 86 50 54 61
REMARK Flexibility Score: inf
ROOT
ATOM      1  C   UNL A   1      31.854  28.002  26.976  1.00  0.00     0.188 C 
ENDROOT
BRANCH   1   2
ATOM      2  O   UNL A   1      31.512  26.441  26.714  1.00  0.00    -0.376 OA
BRANCH   2   3
ATOM      3  C   UNL A   1      30.246  25.699  25.861  1.00  0.00     0.202 C 
BRANCH   3   4
ATOM      4  C   UNL A   1      30.326  24.680  24.258  1.00  0.00     0.261 C 
BRANCH   4   5
ATOM      5  O   UNL A   1      30.714  22.994  23.963  1.00  0.00    -0.463 OA
BRANCH   5   6
ATOM      6  C   UNL A   1      31.699  22.005  24.275  1.00  0.00     0.312 C 
ATOM      7  O   UNL A   1      32.461  21.387  23.515  1.00  0.00    -0.252 OA
BRANCH   6   8
ATOM      8  C   UNL A   1      31.912  21.450  25.666  1.00  0.00     0.124 C 
ATOM      9  C   UNL A   1      33.160  22.808  27.306  1.00  0.00     0.104 C 
ATOM     10  C   UNL A   1      33.805  21.485  27.012  1.00  0.00    -0.006 C 
ATOM     11  C   UNL A   1      31.771  22.621  26.714  1.00  0.00     0.048 C 
ATOM     12  C   UNL A   1      33.145  20.765  26.096  1.00  0.00    -0.014 C 
BRANCH   9  13
ATOM     13  N   UNL A   1      34.009  23.865  26.779  1.00  0.00    -0.364 N 
ATOM     14  H   UNL A   1      34.356  24.520  27.427  1.00  0.00     0.162 HD
BRANCH  13  15
ATOM     15  C   UNL A   1      34.375  24.042  25.461  1.00  0.00     0.131 A 
ATOM     16  C   UNL A   1      34.034  25.033  23.412  1.00  0.00     0.241 A 
ATOM     17  N   UNL A   1      35.013  24.309  22.807  1.00  0.00    -0.227 NA
ATOM     18  N   UNL A   1      33.707  24.908  24.702  1.00  0.00    -0.205 NA
ATOM     19  C   UNL A   1      35.722  23.479  23.604  1.00  0.00     0.044 A 
ATOM     20  C   UNL A   1      36.857  22.703  22.995  1.00  0.00     0.067 C 
ATOM     21  C   UNL A   1      35.426  23.313  24.944  1.00  0.00     0.070 A 
BRANCH  16  22
ATOM     22  C   UNL A   1      33.300  26.080  22.557  1.00  0.00     0.376 C 
ATOM     23  O   UNL A   1      33.018  27.111  23.170  1.00  0.00    -0.242 OA
BRANCH  22  24
ATOM     24  O   UNL A   1      33.322  25.909  21.122  1.00  0.00    -0.463 OA
ATOM     25  C   UNL A   1      32.635  25.558  19.516  1.00  0.00     0.282 C 
ENDBRANCH  22  24
ENDBRANCH  16  22
ENDBRANCH  13  15
ENDBRANCH   9  13
ENDBRANCH   6   8
ENDBRANCH   5   6
ENDBRANCH   4   5
ENDBRANCH   3   4
ENDBRANCH   2   3
ENDBRANCH   1   2
BRANCH   1  26
ATOM     26  C   UNL A   1      31.958  29.357  25.859  1.00  0.00     0.188 C 
BRANCH  26  27
ATOM     27  O   UNL A   1      31.384  30.691  25.984  1.00  0.00    -0.376 OA
BRANCH  27  28
ATOM     28  C   UNL A   1      31.582  31.674  27.017  1.00  0.00     0.202 C 
BRANCH  28  29
ATOM     29  C   UNL A   1      31.839  33.139  26.651  1.00  0.00     0.261 C 
BRANCH  29  30
ATOM     30  O   UNL A   1      33.207  33.476  26.849  1.00  0.00    -0.460 OA
BRANCH  30  31
ATOM     31  C   UNL A   1      33.473  33.789  28.136  1.00  0.00     0.338 C 
ATOM     32  O   UNL A   1      32.711  34.334  28.930  1.00  0.00    -0.246 OA
BRANCH  31  33
ATOM     33  C   UNL A   1      34.690  33.061  28.507  1.00  0.00     0.060 A 
ATOM     34  C   UNL A   1      34.558  31.747  28.972  1.00  0.00     0.016 A 
ATOM     35  C   UNL A   1      35.946  33.644  28.318  1.00  0.00     0.016 A 
ATOM     36  C   UNL A   1      35.690  31.051  29.374  1.00  0.00     0.010 A 
ATOM     37  C   UNL A   1      37.078  32.943  28.710  1.00  0.00     0.010 A 
ATOM     38  C   UNL A   1      36.940  31.679  29.309  1.00  0.00    -0.014 A 
BRANCH  38  39
ATOM     39  C   UNL A   1      38.047  31.154  30.130  1.00  0.00     0.031 A 
ATOM     40  C   UNL A   1      38.942  30.120  29.500  1.00  0.00     0.074 A 
ATOM     41  C   UNL A   1      38.260  31.587  31.381  1.00  0.00     0.049 A 
ATOM     42  N   UNL A   1      39.964  29.490  30.007  1.00  0.00    -0.248 NA
ATOM     43  C   UNL A   1      38.634  29.743  28.107  1.00  0.00     0.031 C 
ATOM     44  C   UNL A   1      37.466  32.597  32.077  1.00  0.00     0.029 A 
ATOM     45  N   UNL A   1      39.208  31.205  32.294  1.00  0.00    -0.354 N 
ATOM     46  C   UNL A   1      40.400  28.622  29.013  1.00  0.00     0.074 A 
ATOM     47  C   UNL A   1      39.523  28.791  27.879  1.00  0.00     0.031 C 
ATOM     48  C   UNL A   1      37.951  32.743  33.323  1.00  0.00     0.029 A 
ATOM     49  C   UNL A   1      39.067  31.817  33.514  1.00  0.00     0.049 A 
ATOM     50  H   UNL A   1      39.920  30.556  32.094  1.00  0.00     0.167 HD
ATOM     51  C   UNL A   1      41.448  27.768  29.037  1.00  0.00     0.034 A 
ATOM     52  C   UNL A   1      39.755  31.629  34.657  1.00  0.00     0.034 A 
ATOM     53  C   UNL A   1      42.323  27.616  30.164  1.00  0.00     0.049 A 
ATOM     54  C   UNL A   1      40.893  30.640  34.670  1.00  0.00     0.074 A 
ATOM     55  C   UNL A   1      43.443  26.815  30.280  1.00  0.00     0.029 A 
ATOM     56  N   UNL A   1      42.163  28.265  31.379  1.00  0.00    -0.354 N 
ATOM     57  N   UNL A   1      41.370  29.909  33.690  1.00  0.00    -0.248 NA
ATOM     58  C   UNL A   1      41.608  30.471  35.944  1.00  0.00     0.031 C 
ATOM     59  C   UNL A   1      43.936  26.947  31.582  1.00  0.00     0.029 A 
ATOM     60  C   UNL A   1      43.152  27.866  32.260  1.00  0.00     0.049 A 
ATOM     61  H   UNL A   1      41.452  28.914  31.584  1.00  0.00     0.167 HD
ATOM     62  C   UNL A   1      42.464  29.229  34.216  1.00  0.00     0.074 A 
ATOM     63  C   UNL A   1      42.589  29.648  35.597  1.00  0.00     0.031 C 
ATOM     64  C   UNL A   1      43.289  28.334  33.616  1.00  0.00     0.034 A 
BRANCH  51  65
ATOM     65  C   UNL A   1      41.696  26.936  27.808  1.00  0.00     0.023 A 
ATOM     66  C   UNL A   1      42.251  27.528  26.655  1.00  0.00     0.012 A 
ATOM     67  C   UNL A   1      41.402  25.560  27.807  1.00  0.00     0.148 A 
ATOM     68  C   UNL A   1      42.476  26.769  25.507  1.00  0.00     0.002 A 
ATOM     69  C   UNL A   1      41.677  24.800  26.677  1.00  0.00     0.091 A 
ATOM     70  F   UNL A   1      40.846  25.023  28.902  1.00  0.00    -0.205 F 
ATOM     71  C   UNL A   1      42.200  25.405  25.522  1.00  0.00     0.022 A 
BRANCH  69  72
ATOM     72  S   UNL A   1      41.432  23.022  26.627  1.00  0.00     0.127 S 
ATOM     73  O   UNL A   1      42.183  22.655  25.426  1.00  0.00    -0.237 OA
ATOM     74  O   UNL A   1      42.045  22.593  27.884  1.00  0.00    -0.237 OA
ATOM     75  O   UNL A   1      39.993  22.815  26.550  1.00  0.00    -0.744 OA
ENDBRANCH  69  72
ENDBRANCH  51  65
BRANCH  52  76
ATOM     76  C   UNL A   1      39.415  32.416  35.874  1.00  0.00     0.023 A 
ATOM     77  C   UNL A   1      39.987  33.691  36.058  1.00  0.00     0.012 A 
ATOM     78  C   UNL A   1      38.533  31.911  36.849  1.00  0.00     0.148 A 
ATOM     79  C   UNL A   1      39.715  34.432  37.208  1.00  0.00     0.002 A 
ATOM     80  C   UNL A   1      38.225  32.679  37.967  1.00  0.00     0.091 A 
ATOM     81  F   UNL A   1      38.010  30.692  36.661  1.00  0.00    -0.205 F 
ATOM     82  C   UNL A   1      38.829  33.932  38.157  1.00  0.00     0.022 A 
BRANCH  80  83
ATOM     83  S   UNL A   1      37.016  32.165  39.191  1.00  0.00     0.127 S 
ATOM     84  O   UNL A   1      35.763  32.586  38.567  1.00  0.00    -0.237 OA
ATOM     85  O   UNL A   1      37.228  30.719  39.231  1.00  0.00    -0.237 OA
ATOM     86  O   UNL A   1      37.374  32.865  40.417  1.00  0.00    -0.744 OA
ENDBRANCH  80  83
ENDBRANCH  52  76
BRANCH  64  87
ATOM     87  C   UNL A   1      44.434  27.781  34.425  1.00  0.00     0.023 A 
ATOM     88  C   UNL A   1      45.635  28.507  34.542  1.00  0.00     0.012 A 
ATOM     89  C   UNL A   1      44.282  26.574  35.138  1.00  0.00     0.148 A 
ATOM     90  C   UNL A   1      46.681  28.022  35.325  1.00  0.00     0.002 A 
ATOM     91  C   UNL A   1      45.309  26.125  35.960  1.00  0.00     0.091 A 
ATOM     92  F   UNL A   1      43.137  25.891  35.004  1.00  0.00    -0.205 F 
ATOM     93  C   UNL A   1      46.515  26.840  36.042  1.00  0.00     0.022 A 
BRANCH  91  94
ATOM     94  S   UNL A   1      45.145  24.670  37.001  1.00  0.00     0.127 S 
ATOM     95  O   UNL A   1      46.542  24.289  37.202  1.00  0.00    -0.237 OA
ATOM     96  O   UNL A   1      44.484  25.212  38.188  1.00  0.00    -0.237 OA
ATOM     97  O   UNL A   1      44.343  23.720  36.243  1.00  0.00    -0.744 OA
ENDBRANCH  91  94
ENDBRANCH  64  87
ENDBRANCH  38  39
ENDBRANCH  31  33
ENDBRANCH  30  31
ENDBRANCH  29  30
ENDBRANCH  28  29
ENDBRANCH  27  28
ENDBRANCH  26  27
ENDBRANCH   1  26
TORSDOF 24
ENDMDL
MODEL 2
REMARK VINA RESULT:     -11.0      5.305      8.562
REMARK SMILES COC(=O)c1nc(C)cc(N[C@@H]2C=C[C@H](C(=O)OCCOCCOCCOC(=O)c3ccc(-c4c5nc(c(-c6cccc(S(=O)(=O)[O-])c6F)c6ccc([nH]6)c(-c6cccc(S(=O)(=O)[O-])c6F)c6nc(c(-c7cccc(S(=O)(=O)[O-])c7F)c7ccc4[nH]7)C=C6)C=C5)cc3)C2)n1
REMARK SMILES IDX 22 1 21 2 20 3 19 4 18 5 16 6 17 7 15 8 12 9 13 10 93 11
REMARK SMILES IDX 14 12 11 13 10 15 5 16 6 17 94 18 7 19 8 20 9 21 3 22 4 23
REMARK SMILES IDX 2 24 1 25 23 26 24 27 25 28 26 29 27 30 28 31 29 32 30 33
REMARK SMILES IDX 31 34 92 35 32 36 91 37 33 38 34 39 35 40 85 41 36 42 90 43
REMARK SMILES IDX 84 44 86 45 37 46 89 47 83 48 82 49 38 51 70 52 50 53 69 54
REMARK SMILES IDX 51 55 54 56 68 57 87 58 52 59 53 60 67 62 88 63 55 64 39 65
REMARK SMILES IDX 40 66 48 67 41 68 43 69 49 70 42 71 44 72 45 73 46 74 47 75
REMARK SMILES IDX 71 76 72 77 80 78 73 79 75 80 81 81 74 82 76 83 77 84 78 85
REMARK SMILES IDX 79 86 56 87 57 88 65 89 58 90 60 91 66 92 59 93 61 94 62 95
REMARK SMILES IDX 63 96 64 97
REMARK H PARENT 11 14 86 50 54 61
REMARK Flexibility Score: inf
ROOT
ATOM      1  C   UNL A   1      32.351  30.891  26.762  1.00  0.00     0.188 C 
ENDROOT
BRANCH   1   2
ATOM      2  O   UNL A   1      33.848  30.289  26.907  1.00  0.00    -0.376 OA
BRANCH   2   3
ATOM      3  C   UNL A   1      34.422  28.693  26.867  1.00  0.00     0.202 C 
BRANCH   3   4
ATOM      4  C   UNL A   1      33.562  27.133  26.203  1.00  0.00     0.261 C 
BRANCH   4   5
ATOM      5  O   UNL A   1      34.184  25.550  25.768  1.00  0.00    -0.463 OA
BRANCH   5   6
ATOM      6  C   UNL A   1      33.765  24.191  25.612  1.00  0.00     0.312 C 
ATOM      7  O   UNL A   1      33.010  23.515  26.328  1.00  0.00    -0.252 OA
BRANCH   6   8
ATOM      8  C   UNL A   1      34.290  23.276  24.529  1.00  0.00     0.124 C 
ATOM      9  C   UNL A   1      33.274  23.390  22.283  1.00  0.00     0.104 C 
ATOM     10  C   UNL A   1      33.140  22.044  22.930  1.00  0.00    -0.006 C 
ATOM     11  C   UNL A   1      34.320  24.062  23.161  1.00  0.00     0.048 C 
ATOM     12  C   UNL A   1      33.662  21.993  24.163  1.00  0.00    -0.014 C 
BRANCH   9  13
ATOM     13  N   UNL A   1      31.952  23.991  22.186  1.00  0.00    -0.364 N 
ATOM     14  H   UNL A   1      31.355  23.638  21.488  1.00  0.00     0.162 HD
BRANCH  13  15
ATOM     15  C   UNL A   1      31.454  25.008  22.975  1.00  0.00     0.131 A 
ATOM     16  C   UNL A   1      31.250  27.252  23.442  1.00  0.00     0.241 A 
ATOM     17  N   UNL A   1      30.576  27.032  24.602  1.00  0.00    -0.227 NA
ATOM     18  N   UNL A   1      31.691  26.275  22.643  1.00  0.00    -0.205 NA
ATOM     19  C   UNL A   1      30.289  25.744  24.893  1.00  0.00     0.044 A 
ATOM     20  C   UNL A   1      29.490  25.453  26.133  1.00  0.00     0.067 C 
ATOM     21  C   UNL A   1      30.721  24.696  24.100  1.00  0.00     0.070 A 
BRANCH  16  22
ATOM     22  C   UNL A   1      31.473  28.714  23.021  1.00  0.00     0.376 C 
ATOM     23  O   UNL A   1      32.581  28.923  22.523  1.00  0.00    -0.242 OA
BRANCH  22  24
ATOM     24  O   UNL A   1      30.313  29.571  22.932  1.00  0.00    -0.463 OA
ATOM     25  C   UNL A   1      28.589  29.955  22.695  1.00  0.00     0.282 C 
ENDBRANCH  22  24
ENDBRANCH  16  22
ENDBRANCH  13  15
ENDBRANCH   9  13
ENDBRANCH   6   8
ENDBRANCH   5   6
ENDBRANCH   4   5
ENDBRANCH   3   4
ENDBRANCH   2   3
ENDBRANCH   1   2
BRANCH   1  26
ATOM     26  C   UNL A   1      31.780  32.554  26.756  1.00  0.00     0.188 C 
BRANCH  26  27
ATOM     27  O   UNL A   1      32.159  33.655  27.634  1.00  0.00    -0.376 OA
BRANCH  27  28
ATOM     28  C   UNL A   1      33.463  34.024  28.120  1.00  0.00     0.202 C 
BRANCH  28  29
ATOM     29  C   UNL A   1      33.683  34.293  29.613  1.00  0.00     0.261 C 
BRANCH  29  30
ATOM     30  O   UNL A   1      35.026  34.008  29.983  1.00  0.00    -0.460 OA
BRANCH  30  31
ATOM     31  C   UNL A   1      35.103  33.017  30.899  1.00  0.00     0.338 C 
ATOM     32  O   UNL A   1      34.181  32.579  31.583  1.00  0.00    -0.246 OA
BRANCH  31  33
ATOM     33  C   UNL A   1      36.383  32.337  30.684  1.00  0.00     0.060 A 
ATOM     34  C   UNL A   1      37.162  32.024  31.804  1.00  0.00     0.016 A 
ATOM     35  C   UNL A   1      36.764  31.942  29.399  1.00  0.00     0.016 A 
ATOM     36  C   UNL A   1      38.400  31.422  31.625  1.00  0.00     0.010 A 
ATOM     37  C   UNL A   1      37.997  31.329  29.222  1.00  0.00     0.010 A 
ATOM     38  C   UNL A   1      38.844  31.142  30.327  1.00  0.00    -0.014 A 
BRANCH  38  39
ATOM     39  C   UNL A   1      40.287  30.940  30.094  1.00  0.00     0.031 A 
ATOM     40  C   UNL A   1      41.155  32.168  30.042  1.00  0.00     0.074 A 
ATOM     41  C   UNL A   1      40.809  29.713  29.948  1.00  0.00     0.049 A 
ATOM     42  N   UNL A   1      42.439  32.267  29.834  1.00  0.00    -0.248 NA
ATOM     43  C   UNL A   1      40.479  33.463  30.248  1.00  0.00     0.031 C 
ATOM     44  C   UNL A   1      40.060  28.460  30.001  1.00  0.00     0.029 A 
ATOM     45  N   UNL A   1      42.102  29.332  29.704  1.00  0.00    -0.354 N 
ATOM     46  C   UNL A   1      42.718  33.628  29.850  1.00  0.00     0.074 A 
ATOM     47  C   UNL A   1      41.470  34.320  30.071  1.00  0.00     0.031 C 
ATOM     48  C   UNL A   1      40.910  27.441  29.775  1.00  0.00     0.029 A 
ATOM     49  C   UNL A   1      42.248  27.977  29.536  1.00  0.00     0.049 A 
ATOM     50  H   UNL A   1      42.853  29.966  29.655  1.00  0.00     0.167 HD
ATOM     51  C   UNL A   1      43.911  34.248  29.708  1.00  0.00     0.034 A 
ATOM     52  C   UNL A   1      43.342  27.264  29.205  1.00  0.00     0.034 A 
ATOM     53  C   UNL A   1      45.148  33.551  29.503  1.00  0.00     0.049 A 
ATOM     54  C   UNL A   1      44.653  27.983  29.010  1.00  0.00     0.074 A 
ATOM     55  C   UNL A   1      46.422  34.076  29.393  1.00  0.00     0.029 A 
ATOM     56  N   UNL A   1      45.264  32.177  29.355  1.00  0.00    -0.354 N 
ATOM     57  N   UNL A   1      44.927  29.259  29.143  1.00  0.00    -0.248 NA
ATOM     58  C   UNL A   1      45.813  27.156  28.648  1.00  0.00     0.031 C 
ATOM     59  C   UNL A   1      47.304  33.022  29.135  1.00  0.00     0.029 A 
ATOM     60  C   UNL A   1      46.586  31.837  29.132  1.00  0.00     0.049 A 
ATOM     61  H   UNL A   1      44.516  31.539  29.402  1.00  0.00     0.167 HD
ATOM     62  C   UNL A   1      46.296  29.381  28.924  1.00  0.00     0.074 A 
ATOM     63  C   UNL A   1      46.796  28.047  28.665  1.00  0.00     0.031 C 
ATOM     64  C   UNL A   1      47.071  30.495  28.928  1.00  0.00     0.034 A 
BRANCH  51  65
ATOM     65  C   UNL A   1      43.926  35.751  29.769  1.00  0.00     0.023 A 
ATOM     66  C   UNL A   1      44.117  36.406  31.002  1.00  0.00     0.012 A 
ATOM     67  C   UNL A   1      43.775  36.514  28.595  1.00  0.00     0.148 A 
ATOM     68  C   UNL A   1      44.123  37.799  31.071  1.00  0.00     0.002 A 
ATOM     69  C   UNL A   1      43.833  37.900  28.665  1.00  0.00     0.091 A 
ATOM     70  F   UNL A   1      43.562  35.872  27.438  1.00  0.00    -0.205 F 
ATOM     71  C   UNL A   1      43.992  38.544  29.903  1.00  0.00     0.022 A 
BRANCH  69  72
ATOM     72  S   UNL A   1      43.756  38.944  27.207  1.00  0.00     0.127 S 
ATOM     73  O   UNL A   1      43.790  40.281  27.798  1.00  0.00    -0.237 OA
ATOM     74  O   UNL A   1      44.975  38.562  26.492  1.00  0.00    -0.237 OA
ATOM     75  O   UNL A   1      42.517  38.594  26.525  1.00  0.00    -0.744 OA
ENDBRANCH  69  72
ENDBRANCH  51  65
BRANCH  52  76
ATOM     76  C   UNL A   1      43.257  25.783  29.073  1.00  0.00     0.023 A 
ATOM     77  C   UNL A   1      43.716  24.965  30.124  1.00  0.00     0.012 A 
ATOM     78  C   UNL A   1      42.729  25.181  27.914  1.00  0.00     0.148 A 
ATOM     79  C   UNL A   1      43.684  23.575  30.010  1.00  0.00     0.002 A 
ATOM     80  C   UNL A   1      42.651  23.796  27.828  1.00  0.00     0.091 A 
ATOM     81  F   UNL A   1      42.311  25.977  26.920  1.00  0.00    -0.205 F 
ATOM     82  C   UNL A   1      43.145  22.991  28.867  1.00  0.00     0.022 A 
BRANCH  80  83
ATOM     83  S   UNL A   1      41.878  22.953  26.444  1.00  0.00     0.127 S 
ATOM     84  O   UNL A   1      40.520  23.491  26.488  1.00  0.00    -0.237 OA
ATOM     85  O   UNL A   1      42.689  23.420  25.320  1.00  0.00    -0.237 OA
ATOM     86  O   UNL A   1      41.999  21.530  26.731  1.00  0.00    -0.744 OA
ENDBRANCH  80  83
ENDBRANCH  52  76
BRANCH  64  87
ATOM     87  C   UNL A   1      48.550  30.324  28.698  1.00  0.00     0.023 A 
ATOM     88  C   UNL A   1      49.084  30.447  27.401  1.00  0.00     0.012 A 
ATOM     89  C   UNL A   1      49.421  30.122  29.788  1.00  0.00     0.148 A 
ATOM     90  C   UNL A   1      50.457  30.333  27.186  1.00  0.00     0.002 A 
ATOM     91  C   UNL A   1      50.793  30.065  29.574  1.00  0.00     0.091 A 
ATOM     92  F   UNL A   1      48.893  29.995  31.014  1.00  0.00    -0.205 F 
ATOM     93  C   UNL A   1      51.311  30.155  28.272  1.00  0.00     0.022 A 
BRANCH  91  94
ATOM     94  S   UNL A   1      51.976  29.943  30.921  1.00  0.00     0.127 S 
ATOM     95  O   UNL A   1      53.237  29.796  30.197  1.00  0.00    -0.237 OA
ATOM     96  O   UNL A   1      51.807  31.228  31.598  1.00  0.00    -0.237 OA
ATOM     97  O   UNL A   1      51.571  28.787  31.709  1.00  0.00    -0.744 OA
ENDBRANCH  91  94
ENDBRANCH  64  87
ENDBRANCH  38  39
ENDBRANCH  31  33
ENDBRANCH  30  31
ENDBRANCH  29  30
ENDBRANCH  28  29
ENDBRANCH  27  28
ENDBRANCH  26  27
ENDBRANCH   1  26
TORSDOF 24
ENDMDL
MODEL 3
REMARK VINA RESULT:     -11.0      2.938      8.471
REMARK SMILES COC(=O)c1nc(C)cc(N[C@@H]2C=C[C@H](C(=O)OCCOCCOCCOC(=O)c3ccc(-c4c5nc(c(-c6cccc(S(=O)(=O)[O-])c6F)c6ccc([nH]6)c(-c6cccc(S(=O)(=O)[O-])c6F)c6nc(c(-c7cccc(S(=O)(=O)[O-])c7F)c7ccc4[nH]7)C=C6)C=C5)cc3)C2)n1
REMARK SMILES IDX 22 1 21 2 20 3 19 4 18 5 16 6 17 7 15 8 12 9 13 10 93 11
REMARK SMILES IDX 14 12 11 13 10 15 5 16 6 17 94 18 7 19 8 20 9 21 3 22 4 23
REMARK SMILES IDX 2 24 1 25 23 26 24 27 25 28 26 29 27 30 28 31 29 32 30 33
REMARK SMILES IDX 31 34 92 35 32 36 91 37 33 38 34 39 35 40 85 41 36 42 90 43
REMARK SMILES IDX 84 44 86 45 37 46 89 47 83 48 82 49 38 51 70 52 50 53 69 54
REMARK SMILES IDX 51 55 54 56 68 57 87 58 52 59 53 60 67 62 88 63 55 64 39 65
REMARK SMILES IDX 40 66 48 67 41 68 43 69 49 70 42 71 44 72 45 73 46 74 47 75
REMARK SMILES IDX 71 76 72 77 80 78 73 79 75 80 81 81 74 82 76 83 77 84 78 85
REMARK SMILES IDX 79 86 56 87 57 88 65 89 58 90 60 91 66 92 59 93 61 94 62 95
REMARK SMILES IDX 63 96 64 97
REMARK H PARENT 11 14 86 50 54 61
REMARK Flexibility Score: inf
ROOT
ATOM      1  C   UNL A   1      31.505  28.051  26.923  1.00  0.00     0.188 C 
ENDROOT
BRANCH   1   2
ATOM      2  O   UNL A   1      30.968  26.533  26.751  1.00  0.00    -0.376 OA
BRANCH   2   3
ATOM      3  C   UNL A   1      29.896  25.843  25.631  1.00  0.00     0.202 C 
BRANCH   3   4
ATOM      4  C   UNL A   1      30.213  25.361  23.819  1.00  0.00     0.261 C 
BRANCH   4   5
ATOM      5  O   UNL A   1      31.289  24.179  23.095  1.00  0.00    -0.463 OA
BRANCH   5   6
ATOM      6  C   UNL A   1      32.676  23.948  22.828  1.00  0.00     0.312 C 
ATOM      7  O   UNL A   1      33.233  22.929  22.391  1.00  0.00    -0.252 OA
BRANCH   6   8
ATOM      8  C   UNL A   1      33.764  24.946  23.153  1.00  0.00     0.124 C 
ATOM      9  C   UNL A   1      35.184  24.550  25.133  1.00  0.00     0.104 C 
ATOM     10  C   UNL A   1      34.411  25.834  25.200  1.00  0.00    -0.006 C 
ATOM     11  C   UNL A   1      35.038  24.169  23.666  1.00  0.00     0.048 C 
ATOM     12  C   UNL A   1      33.615  26.031  24.141  1.00  0.00    -0.014 C 
BRANCH   9  13
ATOM     13  N   UNL A   1      34.666  23.644  26.146  1.00  0.00    -0.364 N 
ATOM     14  H   UNL A   1      35.108  23.664  27.026  1.00  0.00     0.162 HD
BRANCH  13  15
ATOM     15  C   UNL A   1      33.618  22.760  25.996  1.00  0.00     0.131 A 
ATOM     16  C   UNL A   1      32.808  20.733  25.267  1.00  0.00     0.241 A 
ATOM     17  N   UNL A   1      31.521  21.043  25.579  1.00  0.00    -0.227 NA
ATOM     18  N   UNL A   1      33.838  21.563  25.456  1.00  0.00    -0.205 NA
ATOM     19  C   UNL A   1      31.322  22.236  26.182  1.00  0.00     0.044 A 
ATOM     20  C   UNL A   1      29.926  22.598  26.605  1.00  0.00     0.067 C 
ATOM     21  C   UNL A   1      32.354  23.130  26.403  1.00  0.00     0.070 A 
BRANCH  16  22
ATOM     22  C   UNL A   1      33.078  19.330  24.700  1.00  0.00     0.376 C 
ATOM     23  O   UNL A   1      32.074  18.774  24.250  1.00  0.00    -0.242 OA
BRANCH  22  24
ATOM     24  O   UNL A   1      34.452  18.961  24.447  1.00  0.00    -0.463 OA
ATOM     25  C   UNL A   1      36.165  18.690  24.857  1.00  0.00     0.282 C 
ENDBRANCH  22  24
ENDBRANCH  16  22
ENDBRANCH  13  15
ENDBRANCH   9  13
ENDBRANCH   6   8
ENDBRANCH   5   6
ENDBRANCH   4   5
ENDBRANCH   3   4
ENDBRANCH   2   3
ENDBRANCH   1   2
BRANCH   1  26
ATOM     26  C   UNL A   1      31.648  29.356  25.753  1.00  0.00     0.188 C 
BRANCH  26  27
ATOM     27  O   UNL A   1      31.549  30.794  25.970  1.00  0.00    -0.376 OA
BRANCH  27  28
ATOM     28  C   UNL A   1      32.081  31.591  27.045  1.00  0.00     0.202 C 
BRANCH  28  29
ATOM     29  C   UNL A   1      33.597  31.727  27.228  1.00  0.00     0.261 C 
BRANCH  29  30
ATOM     30  O   UNL A   1      34.102  30.680  28.048  1.00  0.00    -0.460 OA
BRANCH  30  31
ATOM     31  C   UNL A   1      34.855  29.803  27.347  1.00  0.00     0.338 C 
ATOM     32  O   UNL A   1      34.647  29.411  26.202  1.00  0.00    -0.246 OA
BRANCH  31  33
ATOM     33  C   UNL A   1      36.130  29.675  28.059  1.00  0.00     0.060 A 
ATOM     34  C   UNL A   1      37.306  29.996  27.371  1.00  0.00     0.016 A 
ATOM     35  C   UNL A   1      36.150  29.322  29.411  1.00  0.00     0.016 A 
ATOM     36  C   UNL A   1      38.530  29.839  28.007  1.00  0.00     0.010 A 
ATOM     37  C   UNL A   1      37.374  29.176  30.049  1.00  0.00     0.010 A 
ATOM     38  C   UNL A   1      38.562  29.359  29.322  1.00  0.00    -0.014 A 
BRANCH  38  39
ATOM     39  C   UNL A   1      39.812  28.767  29.836  1.00  0.00     0.031 A 
ATOM     40  C   UNL A   1      40.509  29.492  30.955  1.00  0.00     0.074 A 
ATOM     41  C   UNL A   1      40.303  27.622  29.338  1.00  0.00     0.049 A 
ATOM     42  N   UNL A   1      41.622  29.197  31.567  1.00  0.00    -0.248 NA
ATOM     43  C   UNL A   1      39.862  30.724  31.447  1.00  0.00     0.031 C 
ATOM     44  C   UNL A   1      39.696  26.832  28.269  1.00  0.00     0.029 A 
ATOM     45  N   UNL A   1      41.445  26.940  29.664  1.00  0.00    -0.354 N 
ATOM     46  C   UNL A   1      41.826  30.218  32.488  1.00  0.00     0.074 A 
ATOM     47  C   UNL A   1      40.733  31.150  32.346  1.00  0.00     0.031 C 
ATOM     48  C   UNL A   1      40.488  25.775  28.012  1.00  0.00     0.029 A 
ATOM     49  C   UNL A   1      41.664  25.836  28.879  1.00  0.00     0.049 A 
ATOM     50  H   UNL A   1      42.050  27.215  30.391  1.00  0.00     0.167 HD
ATOM     51  C   UNL A   1      42.828  30.359  33.384  1.00  0.00     0.034 A 
ATOM     52  C   UNL A   1      42.710  24.988  28.858  1.00  0.00     0.034 A 
ATOM     53  C   UNL A   1      43.903  29.419  33.529  1.00  0.00     0.049 A 
ATOM     54  C   UNL A   1      43.836  25.191  29.839  1.00  0.00     0.074 A 
ATOM     55  C   UNL A   1      44.945  29.439  34.436  1.00  0.00     0.029 A 
ATOM     56  N   UNL A   1      44.085  28.301  32.730  1.00  0.00    -0.354 N 
ATOM     57  N   UNL A   1      43.961  26.093  30.784  1.00  0.00    -0.248 NA
ATOM     58  C   UNL A   1      44.954  24.239  29.771  1.00  0.00     0.031 C 
ATOM     59  C   UNL A   1      45.782  28.355  34.157  1.00  0.00     0.029 A 
ATOM     60  C   UNL A   1      45.236  27.633  33.107  1.00  0.00     0.049 A 
ATOM     61  H   UNL A   1      43.484  28.023  32.001  1.00  0.00     0.167 HD
ATOM     62  C   UNL A   1      45.146  25.791  31.448  1.00  0.00     0.074 A 
ATOM     63  C   UNL A   1      45.693  24.613  30.807  1.00  0.00     0.031 C 
ATOM     64  C   UNL A   1      45.735  26.432  32.489  1.00  0.00     0.034 A 
BRANCH  51  65
ATOM     65  C   UNL A   1      42.802  31.574  34.271  1.00  0.00     0.023 A 
ATOM     66  C   UNL A   1      43.387  32.780  33.833  1.00  0.00     0.012 A 
ATOM     67  C   UNL A   1      42.174  31.526  35.530  1.00  0.00     0.148 A 
ATOM     68  C   UNL A   1      43.377  33.910  34.651  1.00  0.00     0.002 A 
ATOM     69  C   UNL A   1      42.124  32.668  36.317  1.00  0.00     0.091 A 
ATOM     70  F   UNL A   1      41.653  30.361  35.940  1.00  0.00    -0.205 F 
ATOM     71  C   UNL A   1      42.737  33.857  35.886  1.00  0.00     0.022 A 
BRANCH  69  72
ATOM     72  S   UNL A   1      41.253  32.724  37.886  1.00  0.00     0.127 S 
ATOM     73  O   UNL A   1      41.369  34.139  38.238  1.00  0.00    -0.237 OA
ATOM     74  O   UNL A   1      39.907  32.298  37.503  1.00  0.00    -0.237 OA
ATOM     75  O   UNL A   1      41.954  31.801  38.769  1.00  0.00    -0.744 OA
ENDBRANCH  69  72
ENDBRANCH  51  65
BRANCH  52  76
ATOM     76  C   UNL A   1      42.729  23.847  27.901  1.00  0.00     0.023 A 
ATOM     77  C   UNL A   1      41.711  22.874  27.961  1.00  0.00     0.012 A 
ATOM     78  C   UNL A   1      43.748  23.718  26.937  1.00  0.00     0.148 A 
ATOM     79  C   UNL A   1      41.727  21.776  27.101  1.00  0.00     0.002 A 
ATOM     80  C   UNL A   1      43.728  22.648  26.049  1.00  0.00     0.091 A 
ATOM     81  F   UNL A   1      44.714  24.646  26.906  1.00  0.00    -0.205 F 
ATOM     82  C   UNL A   1      42.729  21.666  26.141  1.00  0.00     0.022 A 
BRANCH  80  83
ATOM     83  S   UNL A   1      44.914  22.478  24.712  1.00  0.00     0.127 S 
ATOM     84  O   UNL A   1      44.341  21.374  23.944  1.00  0.00    -0.237 OA
ATOM     85  O   UNL A   1      44.826  23.787  24.066  1.00  0.00    -0.237 OA
ATOM     86  O   UNL A   1      46.193  22.201  25.351  1.00  0.00    -0.744 OA
ENDBRANCH  80  83
ENDBRANCH  52  76
BRANCH  64  87
ATOM     87  C   UNL A   1      47.011  25.850  33.041  1.00  0.00     0.023 A 
ATOM     88  C   UNL A   1      46.966  24.917  34.095  1.00  0.00     0.012 A 
ATOM     89  C   UNL A   1      48.252  26.171  32.454  1.00  0.00     0.148 A 
ATOM     90  C   UNL A   1      48.140  24.342  34.582  1.00  0.00     0.002 A 
ATOM     91  C   UNL A   1      49.410  25.552  32.907  1.00  0.00     0.091 A 
ATOM     92  F   UNL A   1      48.275  27.071  31.460  1.00  0.00    -0.205 F 
ATOM     93  C   UNL A   1      49.358  24.649  33.981  1.00  0.00     0.022 A 
BRANCH  91  94
ATOM     94  S   UNL A   1      51.008  25.806  32.126  1.00  0.00     0.127 S 
ATOM     95  O   UNL A   1      51.724  26.562  33.152  1.00  0.00    -0.237 OA
ATOM     96  O   UNL A   1      51.481  24.435  31.936  1.00  0.00    -0.237 OA
ATOM     97  O   UNL A   1      50.743  26.531  30.890  1.00  0.00    -0.744 OA
ENDBRANCH  91  94
ENDBRANCH  64  87
ENDBRANCH  38  39
ENDBRANCH  31  33
ENDBRANCH  30  31
ENDBRANCH  29  30
ENDBRANCH  28  29
ENDBRANCH  27  28
ENDBRANCH  26  27
ENDBRANCH   1  26
TORSDOF 24
ENDMDL
