MODEL 1
REMARK VINA RESULT:     -11.7      0.000      0.000
REMARK SMILES Cc1c(CC(=O)OCCOCCOCCOC(=O)c2ccc(-c3c4nc(c(-c5cccc(S(=O)(=O)[O-])c5F)c5ccc([nH]5)c(-c5cccc(S(=O)(=O)[O-])c5F)c5nc(c(-c6cccc(S(=O)(=O)[O-])c6F)c6ccc3[nH]6)C=C5)C=C4)cc2)cccc1-c1ccn(C(F)F)c(=O)c1
REMARK SMILES IDX 11 1 10 2 9 3 8 4 7 5 5 6 6 7 4 8 3 9 1 10 2 11 85 12 82 13
REMARK SMILES IDX 84 14 83 15 86 16 87 17 95 18 88 19 93 20 89 21 94 22 90 23
REMARK SMILES IDX 91 24 92 25 12 26 13 27 14 28 15 29 16 30 17 31 18 32 19 33
REMARK SMILES IDX 20 34 81 35 21 36 80 37 22 38 23 39 24 40 74 41 25 42 79 43
REMARK SMILES IDX 73 44 75 45 26 46 78 47 72 48 71 49 27 51 59 52 39 53 58 54
REMARK SMILES IDX 40 55 43 56 57 57 76 58 41 59 42 60 56 62 77 63 44 64 28 65
REMARK SMILES IDX 29 66 37 67 30 68 32 69 38 70 31 71 33 72 34 73 35 74 36 75
REMARK SMILES IDX 60 76 61 77 69 78 62 79 64 80 70 81 63 82 65 83 66 84 67 85
REMARK SMILES IDX 68 86 45 87 46 88 54 89 47 90 49 91 55 92 48 93 50 94 51 95
REMARK SMILES IDX 52 96 53 97
REMARK H PARENT 75 50 43 61
REMARK Flexibility Score: inf
ROOT
ATOM      1  C   UNL A   1      31.040  22.704  25.732  1.00  0.00     0.188 C 
ENDROOT
BRANCH   1   2
ATOM      2  O   UNL A   1      31.441  21.568  24.932  1.00  0.00    -0.376 OA
BRANCH   2   3
ATOM      3  C   UNL A   1      32.546  21.536  24.006  1.00  0.00     0.202 C 
BRANCH   3   4
ATOM      4  C   UNL A   1      33.052  22.794  22.969  1.00  0.00     0.261 C 
BRANCH   4   5
ATOM      5  O   UNL A   1      32.367  24.332  22.716  1.00  0.00    -0.463 OA
BRANCH   5   6
ATOM      6  C   UNL A   1      32.731  25.672  22.345  1.00  0.00     0.310 C 
ATOM      7  O   UNL A   1      33.685  26.075  21.673  1.00  0.00    -0.252 OA
BRANCH   6   8
ATOM      8  C   UNL A   1      31.863  26.821  22.708  1.00  0.00     0.158 C 
BRANCH   8   9
ATOM      9  C   UNL A   1      31.880  27.157  24.139  1.00  0.00    -0.033 A 
ATOM     10  C   UNL A   1      33.684  28.917  23.719  1.00  0.00     0.045 C 
ATOM     11  C   UNL A   1      32.797  28.093  24.640  1.00  0.00    -0.039 A 
ATOM     12  C   UNL A   1      32.796  28.281  26.025  1.00  0.00    -0.015 A 
ATOM     13  C   UNL A   1      30.969  26.475  24.950  1.00  0.00     0.004 A 
ATOM     14  C   UNL A   1      31.916  27.556  26.850  1.00  0.00     0.009 A 
ATOM     15  C   UNL A   1      30.994  26.665  26.312  1.00  0.00     0.001 A 
BRANCH  12  16
ATOM     16  C   UNL A   1      33.708  29.262  26.615  1.00  0.00    -0.011 A 
ATOM     17  C   UNL A   1      35.078  28.923  26.931  1.00  0.00     0.027 A 
ATOM     18  C   UNL A   1      33.192  30.436  27.011  1.00  0.00     0.080 A 
ATOM     19  C   UNL A   1      35.808  29.747  27.685  1.00  0.00     0.095 A 
ATOM     20  C   UNL A   1      34.047  31.422  27.718  1.00  0.00     0.255 A 
ATOM     21  N   UNL A   1      35.299  30.965  28.100  1.00  0.00    -0.258 N 
ATOM     22  O   UNL A   1      33.610  32.555  27.891  1.00  0.00    -0.269 OA
BRANCH  21  23
ATOM     23  C   UNL A   1      36.122  31.857  28.865  1.00  0.00     0.451 C 
ATOM     24  F   UNL A   1      37.138  31.171  29.448  1.00  0.00    -0.185 F 
ATOM     25  F   UNL A   1      36.664  32.841  28.114  1.00  0.00    -0.185 F 
ENDBRANCH  21  23
ENDBRANCH  12  16
ENDBRANCH   8   9
ENDBRANCH   6   8
ENDBRANCH   5   6
ENDBRANCH   4   5
ENDBRANCH   3   4
ENDBRANCH   2   3
ENDBRANCH   1   2
BRANCH   1  26
ATOM     26  C   UNL A   1      31.782  23.191  26.985  1.00  0.00     0.188 C 
BRANCH  26  27
ATOM     27  O   UNL A   1      33.163  23.360  26.729  1.00  0.00    -0.376 OA
BRANCH  27  28
ATOM     28  C   UNL A   1      34.045  22.580  27.522  1.00  0.00     0.202 C 
BRANCH  28  29
ATOM     29  C   UNL A   1      34.751  21.445  26.747  1.00  0.00     0.261 C 
BRANCH  29  30
ATOM     30  O   UNL A   1      35.618  21.967  25.712  1.00  0.00    -0.460 OA
BRANCH  30  31
ATOM     31  C   UNL A   1      36.699  21.196  25.350  1.00  0.00     0.338 C 
ATOM     32  O   UNL A   1      36.647  19.984  25.191  1.00  0.00    -0.246 OA
BRANCH  31  33
ATOM     33  C   UNL A   1      37.960  22.014  25.440  1.00  0.00     0.060 A 
ATOM     34  C   UNL A   1      39.193  21.636  25.991  1.00  0.00     0.016 A 
ATOM     35  C   UNL A   1      37.795  23.343  25.265  1.00  0.00     0.016 A 
ATOM     36  C   UNL A   1      40.134  22.617  26.544  1.00  0.00     0.010 A 
ATOM     37  C   UNL A   1      38.604  24.183  26.023  1.00  0.00     0.010 A 
ATOM     38  C   UNL A   1      39.832  23.975  26.699  1.00  0.00    -0.014 A 
BRANCH  38  39
ATOM     39  C   UNL A   1      40.610  25.069  27.703  1.00  0.00     0.031 A 
ATOM     40  C   UNL A   1      40.413  26.725  28.158  1.00  0.00     0.074 A 
ATOM     41  C   UNL A   1      41.700  24.540  28.309  1.00  0.00     0.049 A 
ATOM     42  N   UNL A   1      41.340  27.417  28.804  1.00  0.00    -0.248 NA
ATOM     43  C   UNL A   1      39.292  27.724  27.919  1.00  0.00     0.031 C 
ATOM     44  C   UNL A   1      42.468  25.056  29.437  1.00  0.00     0.029 A 
ATOM     45  N   UNL A   1      42.458  23.448  27.878  1.00  0.00    -0.354 N 
ATOM     46  C   UNL A   1      40.841  28.679  29.134  1.00  0.00     0.074 A 
ATOM     47  C   UNL A   1      39.680  28.893  28.379  1.00  0.00     0.031 C 
ATOM     48  C   UNL A   1      43.700  24.534  29.396  1.00  0.00     0.029 A 
ATOM     49  C   UNL A   1      43.793  23.744  28.185  1.00  0.00     0.049 A 
ATOM     50  H   UNL A   1      42.121  22.631  27.445  1.00  0.00     0.167 HD
ATOM     51  C   UNL A   1      41.332  29.500  30.095  1.00  0.00     0.034 A 
ATOM     52  C   UNL A   1      44.709  23.869  27.185  1.00  0.00     0.034 A 
ATOM     53  C   UNL A   1      42.727  29.209  30.307  1.00  0.00     0.049 A 
ATOM     54  C   UNL A   1      45.370  25.235  27.139  1.00  0.00     0.074 A 
ATOM     55  C   UNL A   1      43.465  28.490  31.220  1.00  0.00     0.029 A 
ATOM     56  N   UNL A   1      43.552  29.425  29.219  1.00  0.00    -0.354 N 
ATOM     57  N   UNL A   1      45.267  26.162  28.058  1.00  0.00    -0.248 NA
ATOM     58  C   UNL A   1      46.143  25.688  25.981  1.00  0.00     0.031 C 
ATOM     59  C   UNL A   1      44.688  28.119  30.568  1.00  0.00     0.029 A 
ATOM     60  C   UNL A   1      44.704  28.670  29.294  1.00  0.00     0.049 A 
ATOM     61  H   UNL A   1      43.343  30.043  28.481  1.00  0.00     0.167 HD
ATOM     62  C   UNL A   1      45.723  27.348  27.535  1.00  0.00     0.074 A 
ATOM     63  C   UNL A   1      46.312  26.988  26.258  1.00  0.00     0.031 C 
ATOM     64  C   UNL A   1      45.530  28.579  28.097  1.00  0.00     0.034 A 
BRANCH  51  65
ATOM     65  C   UNL A   1      40.506  30.615  30.738  1.00  0.00     0.023 A 
ATOM     66  C   UNL A   1      40.819  31.949  30.426  1.00  0.00     0.012 A 
ATOM     67  C   UNL A   1      39.474  30.439  31.714  1.00  0.00     0.148 A 
ATOM     68  C   UNL A   1      40.134  33.032  31.009  1.00  0.00     0.002 A 
ATOM     69  C   UNL A   1      38.721  31.511  32.207  1.00  0.00     0.091 A 
ATOM     70  F   UNL A   1      39.266  29.235  32.271  1.00  0.00    -0.205 F 
ATOM     71  C   UNL A   1      39.063  32.816  31.870  1.00  0.00     0.022 A 
BRANCH  69  72
ATOM     72  S   UNL A   1      37.249  31.240  33.220  1.00  0.00     0.127 S 
ATOM     73  O   UNL A   1      37.821  30.819  34.498  1.00  0.00    -0.237 OA
ATOM     74  O   UNL A   1      36.617  32.561  33.246  1.00  0.00    -0.237 OA
ATOM     75  O   UNL A   1      36.479  30.229  32.500  1.00  0.00    -0.744 OA
ENDBRANCH  69  72
ENDBRANCH  51  65
BRANCH  52  76
ATOM     76  C   UNL A   1      44.432  22.954  26.021  1.00  0.00     0.023 A 
ATOM     77  C   UNL A   1      44.052  23.578  24.801  1.00  0.00     0.012 A 
ATOM     78  C   UNL A   1      44.808  21.599  25.974  1.00  0.00     0.148 A 
ATOM     79  C   UNL A   1      44.144  22.916  23.576  1.00  0.00     0.002 A 
ATOM     80  C   UNL A   1      44.874  20.932  24.745  1.00  0.00     0.091 A 
ATOM     81  F   UNL A   1      45.180  20.982  27.102  1.00  0.00    -0.205 F 
ATOM     82  C   UNL A   1      44.565  21.594  23.547  1.00  0.00     0.022 A 
BRANCH  80  83
ATOM     83  S   UNL A   1      45.567  19.271  24.629  1.00  0.00     0.127 S 
ATOM     84  O   UNL A   1      45.441  18.965  23.203  1.00  0.00    -0.237 OA
ATOM     85  O   UNL A   1      46.943  19.410  25.081  1.00  0.00    -0.237 OA
ATOM     86  O   UNL A   1      44.666  18.517  25.496  1.00  0.00    -0.744 OA
ENDBRANCH  80  83
ENDBRANCH  52  76
BRANCH  64  87
ATOM     87  C   UNL A   1      46.143  29.814  27.477  1.00  0.00     0.023 A 
ATOM     88  C   UNL A   1      47.493  30.115  27.758  1.00  0.00     0.012 A 
ATOM     89  C   UNL A   1      45.402  30.771  26.747  1.00  0.00     0.148 A 
ATOM     90  C   UNL A   1      48.088  31.298  27.315  1.00  0.00     0.002 A 
ATOM     91  C   UNL A   1      45.964  31.999  26.414  1.00  0.00     0.091 A 
ATOM     92  F   UNL A   1      44.164  30.474  26.332  1.00  0.00    -0.205 F 
ATOM     93  C   UNL A   1      47.315  32.255  26.670  1.00  0.00     0.022 A 
BRANCH  91  94
ATOM     94  S   UNL A   1      44.967  33.372  25.816  1.00  0.00     0.127 S 
ATOM     95  O   UNL A   1      44.079  33.617  26.955  1.00  0.00    -0.237 OA
ATOM     96  O   UNL A   1      45.973  34.408  25.596  1.00  0.00    -0.237 OA
ATOM     97  O   UNL A   1      44.288  32.876  24.628  1.00  0.00    -0.744 OA
ENDBRANCH  91  94
ENDBRANCH  64  87
ENDBRANCH  38  39
ENDBRANCH  31  33
ENDBRANCH  30  31
ENDBRANCH  29  30
ENDBRANCH  28  29
ENDBRANCH  27  28
ENDBRANCH  26  27
ENDBRANCH   1  26
TORSDOF 23
ENDMDL
MODEL 2
REMARK VINA RESULT:     -11.7      3.327      5.530
REMARK SMILES Cc1c(CC(=O)OCCOCCOCCOC(=O)c2ccc(-c3c4nc(c(-c5cccc(S(=O)(=O)[O-])c5F)c5ccc([nH]5)c(-c5cccc(S(=O)(=O)[O-])c5F)c5nc(c(-c6cccc(S(=O)(=O)[O-])c6F)c6ccc3[nH]6)C=C5)C=C4)cc2)cccc1-c1ccn(C(F)F)c(=O)c1
REMARK SMILES IDX 11 1 10 2 9 3 8 4 7 5 5 6 6 7 4 8 3 9 1 10 2 11 85 12 82 13
REMARK SMILES IDX 84 14 83 15 86 16 87 17 95 18 88 19 93 20 89 21 94 22 90 23
REMARK SMILES IDX 91 24 92 25 12 26 13 27 14 28 15 29 16 30 17 31 18 32 19 33
REMARK SMILES IDX 20 34 81 35 21 36 80 37 22 38 23 39 24 40 74 41 25 42 79 43
REMARK SMILES IDX 73 44 75 45 26 46 78 47 72 48 71 49 27 51 59 52 39 53 58 54
REMARK SMILES IDX 40 55 43 56 57 57 76 58 41 59 42 60 56 62 77 63 44 64 28 65
REMARK SMILES IDX 29 66 37 67 30 68 32 69 38 70 31 71 33 72 34 73 35 74 36 75
REMARK SMILES IDX 60 76 61 77 69 78 62 79 64 80 70 81 63 82 65 83 66 84 67 85
REMARK SMILES IDX 68 86 45 87 46 88 54 89 47 90 49 91 55 92 48 93 50 94 51 95
REMARK SMILES IDX 52 96 53 97
REMARK H PARENT 75 50 43 61
REMARK Flexibility Score: inf
ROOT
ATOM      1  C   UNL A   1      33.497  21.119  26.298  1.00  0.00     0.188 C 
ENDROOT
BRANCH   1   2
ATOM      2  O   UNL A   1      33.311  21.135  24.864  1.00  0.00    -0.376 OA
BRANCH   2   3
ATOM      3  C   UNL A   1      32.755  22.223  24.097  1.00  0.00     0.202 C 
BRANCH   3   4
ATOM      4  C   UNL A   1      33.601  23.285  23.062  1.00  0.00     0.261 C 
BRANCH   4   5
ATOM      5  O   UNL A   1      33.053  24.126  21.688  1.00  0.00    -0.463 OA
BRANCH   5   6
ATOM      6  C   UNL A   1      32.707  25.450  21.250  1.00  0.00     0.310 C 
ATOM      7  O   UNL A   1      33.313  26.217  20.496  1.00  0.00    -0.252 OA
BRANCH   6   8
ATOM      8  C   UNL A   1      31.414  26.065  21.645  1.00  0.00     0.158 C 
BRANCH   8   9
ATOM      9  C   UNL A   1      31.230  26.196  23.097  1.00  0.00    -0.033 A 
ATOM     10  C   UNL A   1      32.469  28.431  23.067  1.00  0.00     0.045 C 
ATOM     11  C   UNL A   1      31.796  27.275  23.792  1.00  0.00    -0.039 A 
ATOM     12  C   UNL A   1      31.643  27.267  25.181  1.00  0.00    -0.015 A 
ATOM     13  C   UNL A   1      30.502  25.184  23.727  1.00  0.00     0.004 A 
ATOM     14  C   UNL A   1      30.955  26.220  25.823  1.00  0.00     0.009 A 
ATOM     15  C   UNL A   1      30.373  25.187  25.096  1.00  0.00     0.001 A 
BRANCH  12  16
ATOM     16  C   UNL A   1      32.184  28.374  25.969  1.00  0.00    -0.011 A 
ATOM     17  C   UNL A   1      31.531  29.665  26.005  1.00  0.00     0.027 A 
ATOM     18  C   UNL A   1      33.395  28.212  26.526  1.00  0.00     0.080 A 
ATOM     19  C   UNL A   1      32.168  30.716  26.525  1.00  0.00     0.095 A 
ATOM     20  C   UNL A   1      34.041  29.342  27.240  1.00  0.00     0.255 A 
ATOM     21  N   UNL A   1      33.414  30.572  27.109  1.00  0.00    -0.258 N 
ATOM     22  O   UNL A   1      35.047  29.113  27.904  1.00  0.00    -0.269 OA
BRANCH  21  23
ATOM     23  C   UNL A   1      34.056  31.706  27.708  1.00  0.00     0.451 C 
ATOM     24  F   UNL A   1      34.105  31.555  29.057  1.00  0.00    -0.185 F 
ATOM     25  F   UNL A   1      35.320  31.886  27.266  1.00  0.00    -0.185 F 
ENDBRANCH  21  23
ENDBRANCH  12  16
ENDBRANCH   8   9
ENDBRANCH   6   8
ENDBRANCH   5   6
ENDBRANCH   4   5
ENDBRANCH   3   4
ENDBRANCH   2   3
ENDBRANCH   1   2
BRANCH   1  26
ATOM     26  C   UNL A   1      34.631  21.845  27.036  1.00  0.00     0.188 C 
BRANCH  26  27
ATOM     27  O   UNL A   1      35.416  22.613  26.143  1.00  0.00    -0.376 OA
BRANCH  27  28
ATOM     28  C   UNL A   1      36.769  22.211  25.997  1.00  0.00     0.202 C 
BRANCH  28  29
ATOM     29  C   UNL A   1      37.731  23.362  25.624  1.00  0.00     0.261 C 
BRANCH  29  30
ATOM     30  O   UNL A   1      38.504  23.800  26.767  1.00  0.00    -0.460 OA
BRANCH  30  31
ATOM     31  C   UNL A   1      39.861  23.576  26.731  1.00  0.00     0.338 C 
ATOM     32  O   UNL A   1      40.364  22.475  26.550  1.00  0.00    -0.246 OA
BRANCH  31  33
ATOM     33  C   UNL A   1      40.592  24.807  27.199  1.00  0.00     0.060 A 
ATOM     34  C   UNL A   1      41.276  24.993  28.409  1.00  0.00     0.016 A 
ATOM     35  C   UNL A   1      40.290  25.941  26.532  1.00  0.00     0.016 A 
ATOM     36  C   UNL A   1      41.446  26.320  29.013  1.00  0.00     0.010 A 
ATOM     37  C   UNL A   1      40.263  27.119  27.272  1.00  0.00     0.010 A 
ATOM     38  C   UNL A   1      40.831  27.477  28.520  1.00  0.00    -0.014 A 
BRANCH  38  39
ATOM     39  C   UNL A   1      40.576  28.911  29.351  1.00  0.00     0.031 A 
ATOM     40  C   UNL A   1      39.390  30.168  29.366  1.00  0.00     0.074 A 
ATOM     41  C   UNL A   1      41.567  29.188  30.233  1.00  0.00     0.049 A 
ATOM     42  N   UNL A   1      39.570  31.331  29.972  1.00  0.00    -0.248 NA
ATOM     43  C   UNL A   1      38.018  30.285  28.719  1.00  0.00     0.031 C 
ATOM     44  C   UNL A   1      41.588  30.164  31.317  1.00  0.00     0.029 A 
ATOM     45  N   UNL A   1      42.882  28.716  30.200  1.00  0.00    -0.354 N 
ATOM     46  C   UNL A   1      38.393  32.082  29.910  1.00  0.00     0.074 A 
ATOM     47  C   UNL A   1      37.560  31.496  28.948  1.00  0.00     0.031 C 
ATOM     48  C   UNL A   1      42.862  30.467  31.600  1.00  0.00     0.029 A 
ATOM     49  C   UNL A   1      43.694  29.770  30.641  1.00  0.00     0.049 A 
ATOM     50  H   UNL A   1      43.180  27.820  29.923  1.00  0.00     0.167 HD
ATOM     51  C   UNL A   1      38.074  33.123  30.717  1.00  0.00     0.034 A 
ATOM     52  C   UNL A   1      44.619  30.313  29.802  1.00  0.00     0.034 A 
ATOM     53  C   UNL A   1      39.281  33.733  31.215  1.00  0.00     0.049 A 
ATOM     54  C   UNL A   1      44.405  31.794  29.543  1.00  0.00     0.074 A 
ATOM     55  C   UNL A   1      40.014  33.679  32.378  1.00  0.00     0.029 A 
ATOM     56  N   UNL A   1      40.107  34.286  30.255  1.00  0.00    -0.354 N 
ATOM     57  N   UNL A   1      43.568  32.566  30.189  1.00  0.00    -0.248 NA
ATOM     58  C   UNL A   1      45.079  32.499  28.452  1.00  0.00     0.031 C 
ATOM     59  C   UNL A   1      41.361  34.038  32.039  1.00  0.00     0.029 A 
ATOM     60  C   UNL A   1      41.414  34.366  30.691  1.00  0.00     0.049 A 
ATOM     61  H   UNL A   1      39.802  34.586  29.368  1.00  0.00     0.167 HD
ATOM     62  C   UNL A   1      43.418  33.734  29.482  1.00  0.00     0.074 A 
ATOM     63  C   UNL A   1      44.425  33.669  28.438  1.00  0.00     0.031 C 
ATOM     64  C   UNL A   1      42.439  34.663  29.699  1.00  0.00     0.034 A 
BRANCH  51  65
ATOM     65  C   UNL A   1      36.635  33.593  30.937  1.00  0.00     0.023 A 
ATOM     66  C   UNL A   1      36.036  33.361  32.187  1.00  0.00     0.012 A 
ATOM     67  C   UNL A   1      35.785  34.186  29.950  1.00  0.00     0.148 A 
ATOM     68  C   UNL A   1      34.703  33.726  32.454  1.00  0.00     0.002 A 
ATOM     69  C   UNL A   1      34.499  34.648  30.251  1.00  0.00     0.091 A 
ATOM     70  F   UNL A   1      36.164  34.221  28.663  1.00  0.00    -0.205 F 
ATOM     71  C   UNL A   1      33.944  34.400  31.503  1.00  0.00     0.022 A 
BRANCH  69  72
ATOM     72  S   UNL A   1      33.554  35.638  29.071  1.00  0.00     0.127 S 
ATOM     73  O   UNL A   1      32.808  34.620  28.333  1.00  0.00    -0.237 OA
ATOM     74  O   UNL A   1      32.729  36.485  29.935  1.00  0.00    -0.237 OA
ATOM     75  O   UNL A   1      34.559  36.372  28.307  1.00  0.00    -0.744 OA
ENDBRANCH  69  72
ENDBRANCH  51  65
BRANCH  52  76
ATOM     76  C   UNL A   1      45.215  29.302  28.856  1.00  0.00     0.023 A 
ATOM     77  C   UNL A   1      46.186  28.419  29.403  1.00  0.00     0.012 A 
ATOM     78  C   UNL A   1      44.673  28.983  27.597  1.00  0.00     0.148 A 
ATOM     79  C   UNL A   1      46.524  27.218  28.776  1.00  0.00     0.002 A 
ATOM     80  C   UNL A   1      45.035  27.789  26.961  1.00  0.00     0.091 A 
ATOM     81  F   UNL A   1      43.751  29.788  27.057  1.00  0.00    -0.205 F 
ATOM     82  C   UNL A   1      45.940  26.898  27.558  1.00  0.00     0.022 A 
BRANCH  80  83
ATOM     83  S   UNL A   1      44.191  27.246  25.463  1.00  0.00     0.127 S 
ATOM     84  O   UNL A   1      43.080  28.194  25.353  1.00  0.00    -0.237 OA
ATOM     85  O   UNL A   1      45.184  27.379  24.408  1.00  0.00    -0.237 OA
ATOM     86  O   UNL A   1      43.799  25.887  25.825  1.00  0.00    -0.744 OA
ENDBRANCH  80  83
ENDBRANCH  52  76
BRANCH  64  87
ATOM     87  C   UNL A   1      42.413  35.955  28.914  1.00  0.00     0.023 A 
ATOM     88  C   UNL A   1      41.860  35.948  27.616  1.00  0.00     0.012 A 
ATOM     89  C   UNL A   1      43.045  37.143  29.346  1.00  0.00     0.148 A 
ATOM     90  C   UNL A   1      41.909  37.076  26.794  1.00  0.00     0.002 A 
ATOM     91  C   UNL A   1      43.197  38.220  28.479  1.00  0.00     0.091 A 
ATOM     92  F   UNL A   1      43.458  37.250  30.616  1.00  0.00    -0.205 F 
ATOM     93  C   UNL A   1      42.606  38.202  27.212  1.00  0.00     0.022 A 
BRANCH  91  94
ATOM     94  S   UNL A   1      44.296  39.596  28.852  1.00  0.00     0.127 S 
ATOM     95  O   UNL A   1      45.545  38.903  29.177  1.00  0.00    -0.237 OA
ATOM     96  O   UNL A   1      44.315  40.324  27.587  1.00  0.00    -0.237 OA
ATOM     97  O   UNL A   1      43.688  40.287  29.980  1.00  0.00    -0.744 OA
ENDBRANCH  91  94
ENDBRANCH  64  87
ENDBRANCH  38  39
ENDBRANCH  31  33
ENDBRANCH  30  31
ENDBRANCH  29  30
ENDBRANCH  28  29
ENDBRANCH  27  28
ENDBRANCH  26  27
ENDBRANCH   1  26
TORSDOF 23
ENDMDL
MODEL 3
REMARK VINA RESULT:     -10.5      3.433      5.441
REMARK SMILES Cc1c(CC(=O)OCCOCCOCCOC(=O)c2ccc(-c3c4nc(c(-c5cccc(S(=O)(=O)[O-])c5F)c5ccc([nH]5)c(-c5cccc(S(=O)(=O)[O-])c5F)c5nc(c(-c6cccc(S(=O)(=O)[O-])c6F)c6ccc3[nH]6)C=C5)C=C4)cc2)cccc1-c1ccn(C(F)F)c(=O)c1
REMARK SMILES IDX 11 1 10 2 9 3 8 4 7 5 5 6 6 7 4 8 3 9 1 10 2 11 85 12 82 13
REMARK SMILES IDX 84 14 83 15 86 16 87 17 95 18 88 19 93 20 89 21 94 22 90 23
REMARK SMILES IDX 91 24 92 25 12 26 13 27 14 28 15 29 16 30 17 31 18 32 19 33
REMARK SMILES IDX 20 34 81 35 21 36 80 37 22 38 23 39 24 40 74 41 25 42 79 43
REMARK SMILES IDX 73 44 75 45 26 46 78 47 72 48 71 49 27 51 59 52 39 53 58 54
REMARK SMILES IDX 40 55 43 56 57 57 76 58 41 59 42 60 56 62 77 63 44 64 28 65
REMARK SMILES IDX 29 66 37 67 30 68 32 69 38 70 31 71 33 72 34 73 35 74 36 75
REMARK SMILES IDX 60 76 61 77 69 78 62 79 64 80 70 81 63 82 65 83 66 84 67 85
REMARK SMILES IDX 68 86 45 87 46 88 54 89 47 90 49 91 55 92 48 93 50 94 51 95
REMARK SMILES IDX 52 96 53 97
REMARK H PARENT 75 50 43 61
REMARK Flexibility Score: inf
ROOT
ATOM      1  C   UNL A   1      33.449  22.471  26.484  1.00  0.00     0.188 C 
ENDROOT
BRANCH   1   2
ATOM      2  O   UNL A   1      33.794  21.100  26.180  1.00  0.00    -0.376 OA
BRANCH   2   3
ATOM      3  C   UNL A   1      32.996  20.181  25.407  1.00  0.00     0.202 C 
BRANCH   3   4
ATOM      4  C   UNL A   1      32.512  20.361  23.779  1.00  0.00     0.261 C 
BRANCH   4   5
ATOM      5  O   UNL A   1      32.729  21.679  22.724  1.00  0.00    -0.463 OA
BRANCH   5   6
ATOM      6  C   UNL A   1      33.289  23.002  22.685  1.00  0.00     0.310 C 
ATOM      7  O   UNL A   1      34.470  23.360  22.678  1.00  0.00    -0.252 OA
BRANCH   6   8
ATOM      8  C   UNL A   1      32.411  24.193  22.563  1.00  0.00     0.158 C 
BRANCH   8   9
ATOM      9  C   UNL A   1      31.903  24.698  23.846  1.00  0.00    -0.033 A 
ATOM     10  C   UNL A   1      33.398  26.760  23.643  1.00  0.00     0.045 C 
ATOM     11  C   UNL A   1      32.423  25.875  24.404  1.00  0.00    -0.039 A 
ATOM     12  C   UNL A   1      31.940  26.228  25.668  1.00  0.00    -0.015 A 
ATOM     13  C   UNL A   1      30.916  23.931  24.471  1.00  0.00     0.004 A 
ATOM     14  C   UNL A   1      30.986  25.427  26.323  1.00  0.00     0.009 A 
ATOM     15  C   UNL A   1      30.464  24.288  25.720  1.00  0.00     0.001 A 
BRANCH  12  16
ATOM     16  C   UNL A   1      32.419  27.457  26.300  1.00  0.00    -0.011 A 
ATOM     17  C   UNL A   1      31.510  28.523  26.661  1.00  0.00     0.027 A 
ATOM     18  C   UNL A   1      33.746  27.640  26.386  1.00  0.00     0.080 A 
ATOM     19  C   UNL A   1      31.993  29.718  27.007  1.00  0.00     0.095 A 
ATOM     20  C   UNL A   1      34.286  28.918  26.916  1.00  0.00     0.255 A 
ATOM     21  N   UNL A   1      33.356  29.929  27.107  1.00  0.00    -0.258 N 
ATOM     22  O   UNL A   1      35.485  28.984  27.167  1.00  0.00    -0.269 OA
BRANCH  21  23
ATOM     23  C   UNL A   1      33.850  31.207  27.531  1.00  0.00     0.451 C 
ATOM     24  F   UNL A   1      32.884  32.150  27.392  1.00  0.00    -0.185 F 
ATOM     25  F   UNL A   1      34.249  31.210  28.823  1.00  0.00    -0.185 F 
ENDBRANCH  21  23
ENDBRANCH  12  16
ENDBRANCH   8   9
ENDBRANCH   6   8
ENDBRANCH   5   6
ENDBRANCH   4   5
ENDBRANCH   3   4
ENDBRANCH   2   3
ENDBRANCH   1   2
BRANCH   1  26
ATOM     26  C   UNL A   1      34.431  23.650  26.420  1.00  0.00     0.188 C 
BRANCH  26  27
ATOM     27  O   UNL A   1      35.756  23.229  26.685  1.00  0.00    -0.376 OA
BRANCH  27  28
ATOM     28  C   UNL A   1      36.705  23.474  25.659  1.00  0.00     0.202 C 
BRANCH  28  29
ATOM     29  C   UNL A   1      37.975  22.597  25.753  1.00  0.00     0.261 C 
BRANCH  29  30
ATOM     30  O   UNL A   1      39.175  23.405  25.810  1.00  0.00    -0.460 OA
BRANCH  30  31
ATOM     31  C   UNL A   1      40.007  23.218  26.890  1.00  0.00     0.338 C 
ATOM     32  O   UNL A   1      40.010  22.206  27.578  1.00  0.00    -0.246 OA
BRANCH  31  33
ATOM     33  C   UNL A   1      40.694  24.513  27.233  1.00  0.00     0.060 A 
ATOM     34  C   UNL A   1      41.456  24.807  28.372  1.00  0.00     0.016 A 
ATOM     35  C   UNL A   1      40.272  25.588  26.534  1.00  0.00     0.016 A 
ATOM     36  C   UNL A   1      41.590  26.173  28.891  1.00  0.00     0.010 A 
ATOM     37  C   UNL A   1      40.230  26.803  27.211  1.00  0.00     0.010 A 
ATOM     38  C   UNL A   1      40.868  27.263  28.390  1.00  0.00    -0.014 A 
BRANCH  38  39
ATOM     39  C   UNL A   1      40.589  28.725  29.162  1.00  0.00     0.031 A 
ATOM     40  C   UNL A   1      39.461  30.028  29.030  1.00  0.00     0.074 A 
ATOM     41  C   UNL A   1      41.495  28.983  30.136  1.00  0.00     0.049 A 
ATOM     42  N   UNL A   1      39.628  31.197  29.629  1.00  0.00    -0.248 NA
ATOM     43  C   UNL A   1      38.169  30.184  28.243  1.00  0.00     0.031 C 
ATOM     44  C   UNL A   1      41.446  29.982  31.198  1.00  0.00     0.029 A 
ATOM     45  N   UNL A   1      42.786  28.459  30.249  1.00  0.00    -0.354 N 
ATOM     46  C   UNL A   1      38.495  31.992  29.432  1.00  0.00     0.074 A 
ATOM     47  C   UNL A   1      37.742  31.418  28.400  1.00  0.00     0.031 C 
ATOM     48  C   UNL A   1      42.695  30.241  31.605  1.00  0.00     0.029 A 
ATOM     49  C   UNL A   1      43.592  29.490  30.751  1.00  0.00     0.049 A 
ATOM     50  H   UNL A   1      43.073  27.545  30.021  1.00  0.00     0.167 HD
ATOM     51  C   UNL A   1      38.139  33.063  30.181  1.00  0.00     0.034 A 
ATOM     52  C   UNL A   1      44.620  29.976  30.002  1.00  0.00     0.034 A 
ATOM     53  C   UNL A   1      39.313  33.636  30.790  1.00  0.00     0.049 A 
ATOM     54  C   UNL A   1      44.495  31.458  29.694  1.00  0.00     0.074 A 
ATOM     55  C   UNL A   1      39.920  33.581  32.024  1.00  0.00     0.029 A 
ATOM     56  N   UNL A   1      40.256  34.134  29.910  1.00  0.00    -0.354 N 
ATOM     57  N   UNL A   1      43.630  32.277  30.235  1.00  0.00    -0.248 NA
ATOM     58  C   UNL A   1      45.307  32.110  28.666  1.00  0.00     0.031 C 
ATOM     59  C   UNL A   1      41.309  33.879  31.819  1.00  0.00     0.029 A 
ATOM     60  C   UNL A   1      41.513  34.173  30.478  1.00  0.00     0.049 A 
ATOM     61  H   UNL A   1      40.056  34.426  28.991  1.00  0.00     0.167 HD
ATOM     62  C   UNL A   1      43.602  33.434  29.495  1.00  0.00     0.074 A 
ATOM     63  C   UNL A   1      44.708  33.304  28.562  1.00  0.00     0.031 C 
ATOM     64  C   UNL A   1      42.646  34.405  29.592  1.00  0.00     0.034 A 
BRANCH  51  65
ATOM     65  C   UNL A   1      36.705  33.596  30.243  1.00  0.00     0.023 A 
ATOM     66  C   UNL A   1      36.067  33.947  29.040  1.00  0.00     0.012 A 
ATOM     67  C   UNL A   1      35.957  33.858  31.434  1.00  0.00     0.148 A 
ATOM     68  C   UNL A   1      34.766  34.483  29.016  1.00  0.00     0.002 A 
ATOM     69  C   UNL A   1      34.625  34.285  31.401  1.00  0.00     0.091 A 
ATOM     70  F   UNL A   1      36.555  33.802  32.635  1.00  0.00    -0.205 F 
ATOM     71  C   UNL A   1      34.030  34.620  30.189  1.00  0.00     0.022 A 
BRANCH  69  72
ATOM     72  S   UNL A   1      33.619  34.343  32.901  1.00  0.00     0.127 S 
ATOM     73  O   UNL A   1      32.452  35.109  32.466  1.00  0.00    -0.237 OA
ATOM     74  O   UNL A   1      33.348  32.929  33.172  1.00  0.00    -0.237 OA
ATOM     75  O   UNL A   1      34.469  34.985  33.900  1.00  0.00    -0.744 OA
ENDBRANCH  69  72
ENDBRANCH  51  65
BRANCH  52  76
ATOM     76  C   UNL A   1      45.267  28.921  29.142  1.00  0.00     0.023 A 
ATOM     77  C   UNL A   1      44.525  28.483  28.011  1.00  0.00     0.012 A 
ATOM     78  C   UNL A   1      46.630  28.576  29.206  1.00  0.00     0.148 A 
ATOM     79  C   UNL A   1      45.135  27.826  26.941  1.00  0.00     0.002 A 
ATOM     80  C   UNL A   1      47.230  27.893  28.142  1.00  0.00     0.091 A 
ATOM     81  F   UNL A   1      47.359  28.978  30.253  1.00  0.00    -0.205 F 
ATOM     82  C   UNL A   1      46.491  27.539  27.002  1.00  0.00     0.022 A 
BRANCH  80  83
ATOM     83  S   UNL A   1      49.015  27.639  28.094  1.00  0.00     0.127 S 
ATOM     84  O   UNL A   1      49.163  26.544  27.133  1.00  0.00    -0.237 OA
ATOM     85  O   UNL A   1      49.558  28.907  27.630  1.00  0.00    -0.237 OA
ATOM     86  O   UNL A   1      49.295  27.276  29.480  1.00  0.00    -0.744 OA
ENDBRANCH  80  83
ENDBRANCH  52  76
BRANCH  64  87
ATOM     87  C   UNL A   1      42.755  35.679  28.784  1.00  0.00     0.023 A 
ATOM     88  C   UNL A   1      42.416  35.644  27.415  1.00  0.00     0.012 A 
ATOM     89  C   UNL A   1      43.318  36.874  29.285  1.00  0.00     0.148 A 
ATOM     90  C   UNL A   1      42.603  36.752  26.585  1.00  0.00     0.002 A 
ATOM     91  C   UNL A   1      43.614  37.931  28.429  1.00  0.00     0.091 A 
ATOM     92  F   UNL A   1      43.524  37.010  30.601  1.00  0.00    -0.205 F 
ATOM     93  C   UNL A   1      43.232  37.885  27.085  1.00  0.00     0.022 A 
BRANCH  91  94
ATOM     94  S   UNL A   1      44.648  39.311  28.942  1.00  0.00     0.127 S 
ATOM     95  O   UNL A   1      44.014  39.711  30.200  1.00  0.00    -0.237 OA
ATOM     96  O   UNL A   1      45.954  38.675  29.095  1.00  0.00    -0.237 OA
ATOM     97  O   UNL A   1      44.538  40.299  27.879  1.00  0.00    -0.744 OA
ENDBRANCH  91  94
ENDBRANCH  64  87
ENDBRANCH  38  39
ENDBRANCH  31  33
ENDBRANCH  30  31
ENDBRANCH  29  30
ENDBRANCH  28  29
ENDBRANCH  27  28
ENDBRANCH  26  27
ENDBRANCH   1  26
TORSDOF 23
ENDMDL
