MODEL 1
REMARK VINA RESULT:     -10.5      0.000      0.000
REMARK SMILES COc1cc(OC)c(-c2cc(C(=O)OCCOCCOCCOC(=O)c3ccc(-c4c5nc(c(-c6cccc(S(=O)(=O)[O-])c6F)c6ccc([nH]6)c(-c6cccc(S(=O)(=O)[O-])c6F)c6nc(c(-c7cccc(S(=O)(=O)[O-])c7F)c7ccc4[nH]7)C=C6)C=C5)cc3)c3c(-c4ccc(Cl)cc4)[nH]nc3n2)cc1OC
REMARK SMILES IDX 19 1 18 2 17 3 16 4 15 5 14 6 12 7 13 8 11 9 9 10 10 11
REMARK SMILES IDX 101 12 100 13 89 14 99 15 90 16 98 17 8 19 3 20 4 21 103 22
REMARK SMILES IDX 5 23 102 24 2 25 1 26 104 27 105 28 6 29 7 30 91 31 92 32
REMARK SMILES IDX 97 33 93 34 96 35 94 36 95 37 20 38 21 39 22 40 23 41 24 42
REMARK SMILES IDX 25 43 26 44 27 45 88 46 28 47 87 48 29 49 30 50 31 51 81 52
REMARK SMILES IDX 32 53 86 54 80 55 82 56 33 57 85 58 79 59 78 60 34 62 66 63
REMARK SMILES IDX 46 64 65 65 47 66 50 67 64 68 83 69 48 70 49 71 63 73 84 74
REMARK SMILES IDX 51 75 35 76 36 77 44 78 37 79 39 80 45 81 38 82 40 83 41 84
REMARK SMILES IDX 42 85 43 86 67 87 68 88 76 89 69 90 71 91 77 92 70 93 72 94
REMARK SMILES IDX 73 95 74 96 75 97 52 98 53 99 61 100 54 101 56 102 62 103
REMARK SMILES IDX 55 104 57 105 58 106 59 107 60 108
REMARK H PARENT 98 18 82 61 50 72
REMARK Flexibility Score: inf
ROOT
ATOM      1  C   UNL A   1      40.165  22.630  27.461  1.00  0.00     0.188 C 
ENDROOT
BRANCH   1   2
ATOM      2  C   UNL A   1      39.133  22.746  26.363  1.00  0.00     0.188 C 
BRANCH   2   3
ATOM      3  O   UNL A   1      38.401  23.955  26.282  1.00  0.00    -0.376 OA
BRANCH   3   4
ATOM      4  C   UNL A   1      37.056  23.821  25.804  1.00  0.00     0.202 C 
BRANCH   4   5
ATOM      5  C   UNL A   1      36.095  22.813  26.491  1.00  0.00     0.261 C 
BRANCH   5   6
ATOM      6  O   UNL A   1      34.973  23.373  27.216  1.00  0.00    -0.460 OA
BRANCH   6   7
ATOM      7  C   UNL A   1      33.717  23.182  26.731  1.00  0.00     0.339 C 
ATOM      8  O   UNL A   1      32.917  22.404  27.181  1.00  0.00    -0.246 OA
BRANCH   7   9
ATOM      9  C   UNL A   1      33.482  24.171  25.632  1.00  0.00     0.075 A 
ATOM     10  C   UNL A   1      32.851  26.453  24.807  1.00  0.00     0.078 A 
ATOM     11  C   UNL A   1      33.030  25.496  25.855  1.00  0.00     0.045 A 
ATOM     12  N   UNL A   1      33.108  26.212  23.497  1.00  0.00    -0.226 NA
ATOM     13  C   UNL A   1      33.450  24.931  23.230  1.00  0.00     0.182 A 
ATOM     14  C   UNL A   1      33.607  23.934  24.255  1.00  0.00     0.061 A 
ATOM     15  N   UNL A   1      33.640  24.428  22.013  1.00  0.00    -0.154 NA
ATOM     16  C   UNL A   1      33.723  22.742  23.556  1.00  0.00     0.075 A 
ATOM     17  N   UNL A   1      33.797  23.116  22.233  1.00  0.00    -0.275 N 
ATOM     18  H   UNL A   1      33.954  22.470  21.507  1.00  0.00     0.190 HD
BRANCH  10  19
ATOM     19  C   UNL A   1      32.468  27.857  25.112  1.00  0.00     0.046 A 
ATOM     20  C   UNL A   1      31.376  30.452  25.619  1.00  0.00     0.164 A 
ATOM     21  C   UNL A   1      32.440  29.949  26.380  1.00  0.00     0.097 A 
ATOM     22  C   UNL A   1      30.864  29.684  24.578  1.00  0.00     0.161 A 
ATOM     23  C   UNL A   1      33.001  28.676  26.131  1.00  0.00     0.132 A 
ATOM     24  C   UNL A   1      31.406  28.408  24.357  1.00  0.00     0.064 A 
BRANCH  20  25
ATOM     25  O   UNL A   1      30.976  31.739  25.853  1.00  0.00    -0.493 OA
ATOM     26  C   UNL A   1      31.748  32.372  26.876  1.00  0.00     0.278 C 
ENDBRANCH  20  25
BRANCH  22  27
ATOM     27  O   UNL A   1      29.889  29.984  23.670  1.00  0.00    -0.493 OA
ATOM     28  C   UNL A   1      29.181  28.931  23.044  1.00  0.00     0.278 C 
ENDBRANCH  22  27
BRANCH  23  29
ATOM     29  O   UNL A   1      34.014  28.382  27.007  1.00  0.00    -0.496 OA
ATOM     30  C   UNL A   1      35.057  29.337  27.164  1.00  0.00     0.278 C 
ENDBRANCH  23  29
ENDBRANCH  10  19
BRANCH  16  31
ATOM     31  C   UNL A   1      33.630  21.332  23.905  1.00  0.00     0.000 A 
ATOM     32  C   UNL A   1      34.711  20.665  24.487  1.00  0.00     0.012 A 
ATOM     33  C   UNL A   1      32.449  20.620  23.634  1.00  0.00     0.012 A 
ATOM     34  C   UNL A   1      34.587  19.326  24.865  1.00  0.00     0.021 A 
ATOM     35  C   UNL A   1      32.323  19.282  24.016  1.00  0.00     0.021 A 
ATOM     36  C   UNL A   1      33.388  18.646  24.646  1.00  0.00     0.041 A 
ATOM     37  Cl  UNL A   1      33.224  17.019  25.175  1.00  0.00    -0.084 Cl
ENDBRANCH  16  31
ENDBRANCH   7   9
ENDBRANCH   6   7
ENDBRANCH   5   6
ENDBRANCH   4   5
ENDBRANCH   3   4
ENDBRANCH   2   3
ENDBRANCH   1   2
BRANCH   1  38
ATOM     38  O   UNL A   1      41.428  22.127  27.026  1.00  0.00    -0.376 OA
BRANCH  38  39
ATOM     39  C   UNL A   1      41.977  22.688  25.834  1.00  0.00     0.202 C 
BRANCH  39  40
ATOM     40  C   UNL A   1      42.748  23.996  25.973  1.00  0.00     0.261 C 
BRANCH  40  41
ATOM     41  O   UNL A   1      42.131  24.950  26.822  1.00  0.00    -0.460 OA
BRANCH  41  42
ATOM     42  C   UNL A   1      41.487  25.921  26.139  1.00  0.00     0.338 C 
ATOM     43  O   UNL A   1      41.530  26.145  24.940  1.00  0.00    -0.246 OA
BRANCH  42  44
ATOM     44  C   UNL A   1      40.772  26.778  27.081  1.00  0.00     0.060 A 
ATOM     45  C   UNL A   1      40.612  28.110  26.690  1.00  0.00     0.016 A 
ATOM     46  C   UNL A   1      40.703  26.363  28.417  1.00  0.00     0.016 A 
ATOM     47  C   UNL A   1      40.682  29.067  27.668  1.00  0.00     0.010 A 
ATOM     48  C   UNL A   1      40.794  27.322  29.390  1.00  0.00     0.010 A 
ATOM     49  C   UNL A   1      40.891  28.651  28.988  1.00  0.00    -0.014 A 
BRANCH  49  50
ATOM     50  C   UNL A   1      41.138  29.669  29.978  1.00  0.00     0.031 A 
ATOM     51  C   UNL A   1      39.875  30.245  30.468  1.00  0.00     0.074 A 
ATOM     52  C   UNL A   1      42.377  29.969  30.409  1.00  0.00     0.049 A 
ATOM     53  N   UNL A   1      39.353  31.375  30.126  1.00  0.00    -0.248 NA
ATOM     54  C   UNL A   1      38.965  29.358  31.211  1.00  0.00     0.031 C 
ATOM     55  C   UNL A   1      43.614  29.220  30.163  1.00  0.00     0.029 A 
ATOM     56  N   UNL A   1      42.769  30.935  31.282  1.00  0.00    -0.354 N 
ATOM     57  C   UNL A   1      38.183  31.453  30.873  1.00  0.00     0.074 A 
ATOM     58  C   UNL A   1      37.865  30.110  31.270  1.00  0.00     0.031 C 
ATOM     59  C   UNL A   1      44.545  29.598  31.072  1.00  0.00     0.029 A 
ATOM     60  C   UNL A   1      44.015  30.699  31.856  1.00  0.00     0.049 A 
ATOM     61  H   UNL A   1      42.223  31.728  31.488  1.00  0.00     0.167 HD
ATOM     62  C   UNL A   1      37.803  32.639  31.417  1.00  0.00     0.034 A 
ATOM     63  C   UNL A   1      44.507  31.311  32.961  1.00  0.00     0.034 A 
ATOM     64  C   UNL A   1      38.543  33.731  30.832  1.00  0.00     0.049 A 
ATOM     65  C   UNL A   1      43.765  32.581  33.121  1.00  0.00     0.074 A 
ATOM     66  C   UNL A   1      38.632  34.337  29.599  1.00  0.00     0.029 A 
ATOM     67  N   UNL A   1      39.668  34.070  31.539  1.00  0.00    -0.354 N 
ATOM     68  N   UNL A   1      43.841  33.571  32.276  1.00  0.00    -0.248 NA
ATOM     69  C   UNL A   1      42.629  32.624  34.033  1.00  0.00     0.031 C 
ATOM     70  C   UNL A   1      39.965  34.839  29.512  1.00  0.00     0.029 A 
ATOM     71  C   UNL A   1      40.631  34.565  30.709  1.00  0.00     0.049 A 
ATOM     72  H   UNL A   1      39.767  33.969  32.513  1.00  0.00     0.167 HD
ATOM     73  C   UNL A   1      42.551  34.076  32.232  1.00  0.00     0.074 A 
ATOM     74  C   UNL A   1      41.911  33.587  33.449  1.00  0.00     0.031 C 
ATOM     75  C   UNL A   1      42.036  34.564  31.065  1.00  0.00     0.034 A 
BRANCH  62  76
ATOM     76  C   UNL A   1      37.188  32.791  32.796  1.00  0.00     0.023 A 
ATOM     77  C   UNL A   1      36.060  33.637  32.894  1.00  0.00     0.012 A 
ATOM     78  C   UNL A   1      37.807  32.415  34.012  1.00  0.00     0.148 A 
ATOM     79  C   UNL A   1      35.607  34.119  34.126  1.00  0.00     0.002 A 
ATOM     80  C   UNL A   1      37.306  32.831  35.239  1.00  0.00     0.091 A 
ATOM     81  F   UNL A   1      38.973  31.769  34.006  1.00  0.00    -0.205 F 
ATOM     82  C   UNL A   1      36.225  33.711  35.301  1.00  0.00     0.022 A 
BRANCH  80  83
ATOM     83  S   UNL A   1      38.048  32.304  36.791  1.00  0.00     0.127 S 
ATOM     84  O   UNL A   1      39.430  32.738  36.615  1.00  0.00    -0.237 OA
ATOM     85  O   UNL A   1      37.272  33.073  37.763  1.00  0.00    -0.237 OA
ATOM     86  O   UNL A   1      37.834  30.864  36.861  1.00  0.00    -0.744 OA
ENDBRANCH  80  83
ENDBRANCH  62  76
BRANCH  63  87
ATOM     87  C   UNL A   1      45.341  30.757  34.055  1.00  0.00     0.023 A 
ATOM     88  C   UNL A   1      46.527  31.420  34.432  1.00  0.00     0.012 A 
ATOM     89  C   UNL A   1      44.828  29.768  34.924  1.00  0.00     0.148 A 
ATOM     90  C   UNL A   1      47.155  31.142  35.653  1.00  0.00     0.002 A 
ATOM     91  C   UNL A   1      45.458  29.489  36.133  1.00  0.00     0.091 A 
ATOM     92  F   UNL A   1      43.671  29.170  34.611  1.00  0.00    -0.205 F 
ATOM     93  C   UNL A   1      46.615  30.185  36.508  1.00  0.00     0.022 A 
BRANCH  91  94
ATOM     94  S   UNL A   1      44.805  28.287  37.300  1.00  0.00     0.127 S 
ATOM     95  O   UNL A   1      45.213  27.021  36.690  1.00  0.00    -0.237 OA
ATOM     96  O   UNL A   1      45.521  28.635  38.524  1.00  0.00    -0.237 OA
ATOM     97  O   UNL A   1      43.364  28.501  37.329  1.00  0.00    -0.744 OA
ENDBRANCH  91  94
ENDBRANCH  63  87
BRANCH  75  98
ATOM     98  C   UNL A   1      43.010  34.975  29.996  1.00  0.00     0.023 A 
ATOM     99  C   UNL A   1      43.677  36.217  29.989  1.00  0.00     0.012 A 
ATOM    100  C   UNL A   1      43.345  34.014  29.028  1.00  0.00     0.148 A 
ATOM    101  C   UNL A   1      44.643  36.497  29.017  1.00  0.00     0.002 A 
ATOM    102  C   UNL A   1      44.337  34.278  28.096  1.00  0.00     0.091 A 
ATOM    103  F   UNL A   1      42.692  32.840  29.050  1.00  0.00    -0.205 F 
ATOM    104  C   UNL A   1      44.983  35.523  28.079  1.00  0.00     0.022 A 
BRANCH 102 105
ATOM    105  S   UNL A   1      44.891  33.019  26.945  1.00  0.00     0.127 S 
ATOM    106  O   UNL A   1      46.210  33.516  26.561  1.00  0.00    -0.237 OA
ATOM    107  O   UNL A   1      44.907  31.817  27.780  1.00  0.00    -0.237 OA
ATOM    108  O   UNL A   1      43.897  32.986  25.878  1.00  0.00    -0.744 OA
ENDBRANCH 102 105
ENDBRANCH  75  98
ENDBRANCH  49  50
ENDBRANCH  42  44
ENDBRANCH  41  42
ENDBRANCH  40  41
ENDBRANCH  39  40
ENDBRANCH  38  39
ENDBRANCH   1  38
TORSDOF 25
ENDMDL
MODEL 2
REMARK VINA RESULT:      -9.6      2.326      6.683
REMARK SMILES COc1cc(OC)c(-c2cc(C(=O)OCCOCCOCCOC(=O)c3ccc(-c4c5nc(c(-c6cccc(S(=O)(=O)[O-])c6F)c6ccc([nH]6)c(-c6cccc(S(=O)(=O)[O-])c6F)c6nc(c(-c7cccc(S(=O)(=O)[O-])c7F)c7ccc4[nH]7)C=C6)C=C5)cc3)c3c(-c4ccc(Cl)cc4)[nH]nc3n2)cc1OC
REMARK SMILES IDX 19 1 18 2 17 3 16 4 15 5 14 6 12 7 13 8 11 9 9 10 10 11
REMARK SMILES IDX 101 12 100 13 89 14 99 15 90 16 98 17 8 19 3 20 4 21 103 22
REMARK SMILES IDX 5 23 102 24 2 25 1 26 104 27 105 28 6 29 7 30 91 31 92 32
REMARK SMILES IDX 97 33 93 34 96 35 94 36 95 37 20 38 21 39 22 40 23 41 24 42
REMARK SMILES IDX 25 43 26 44 27 45 88 46 28 47 87 48 29 49 30 50 31 51 81 52
REMARK SMILES IDX 32 53 86 54 80 55 82 56 33 57 85 58 79 59 78 60 34 62 66 63
REMARK SMILES IDX 46 64 65 65 47 66 50 67 64 68 83 69 48 70 49 71 63 73 84 74
REMARK SMILES IDX 51 75 35 76 36 77 44 78 37 79 39 80 45 81 38 82 40 83 41 84
REMARK SMILES IDX 42 85 43 86 67 87 68 88 76 89 69 90 71 91 77 92 70 93 72 94
REMARK SMILES IDX 73 95 74 96 75 97 52 98 53 99 61 100 54 101 56 102 62 103
REMARK SMILES IDX 55 104 57 105 58 106 59 107 60 108
REMARK H PARENT 98 18 82 61 50 72
REMARK Flexibility Score: inf
ROOT
ATOM      1  C   UNL A   1      39.576  22.310  26.724  1.00  0.00     0.188 C 
ENDROOT
BRANCH   1   2
ATOM      2  C   UNL A   1      38.811  21.623  25.618  1.00  0.00     0.188 C 
BRANCH   2   3
ATOM      3  O   UNL A   1      37.524  22.126  25.305  1.00  0.00    -0.376 OA
BRANCH   3   4
ATOM      4  C   UNL A   1      36.435  21.245  25.610  1.00  0.00     0.202 C 
BRANCH   4   5
ATOM      5  C   UNL A   1      35.462  21.600  26.767  1.00  0.00     0.261 C 
BRANCH   5   6
ATOM      6  O   UNL A   1      34.709  22.830  26.630  1.00  0.00    -0.460 OA
BRANCH   6   7
ATOM      7  C   UNL A   1      33.402  22.761  26.261  1.00  0.00     0.339 C 
ATOM      8  O   UNL A   1      32.587  22.023  26.751  1.00  0.00    -0.246 OA
BRANCH   7   9
ATOM      9  C   UNL A   1      33.146  23.823  25.238  1.00  0.00     0.075 A 
ATOM     10  C   UNL A   1      32.600  26.182  24.585  1.00  0.00     0.078 A 
ATOM     11  C   UNL A   1      32.799  25.158  25.565  1.00  0.00     0.045 A 
ATOM     12  N   UNL A   1      32.740  26.000  23.248  1.00  0.00    -0.226 NA
ATOM     13  C   UNL A   1      32.977  24.718  22.889  1.00  0.00     0.182 A 
ATOM     14  C   UNL A   1      33.149  23.657  23.844  1.00  0.00     0.061 A 
ATOM     15  N   UNL A   1      33.039  24.274  21.636  1.00  0.00    -0.154 NA
ATOM     16  C   UNL A   1      33.133  22.502  23.078  1.00  0.00     0.075 A 
ATOM     17  N   UNL A   1      33.128  22.945  21.775  1.00  0.00    -0.275 N 
ATOM     18  H   UNL A   1      33.186  22.333  21.006  1.00  0.00     0.190 HD
BRANCH  10  19
ATOM     19  C   UNL A   1      32.334  27.587  24.993  1.00  0.00     0.046 A 
ATOM     20  C   UNL A   1      32.188  30.303  25.877  1.00  0.00     0.164 A 
ATOM     21  C   UNL A   1      31.451  29.858  24.770  1.00  0.00     0.097 A 
ATOM     22  C   UNL A   1      32.979  29.397  26.574  1.00  0.00     0.161 A 
ATOM     23  C   UNL A   1      31.501  28.515  24.332  1.00  0.00     0.132 A 
ATOM     24  C   UNL A   1      33.047  28.073  26.113  1.00  0.00     0.064 A 
BRANCH  20  25
ATOM     25  O   UNL A   1      31.988  31.588  26.301  1.00  0.00    -0.493 OA
ATOM     26  C   UNL A   1      30.687  32.077  25.966  1.00  0.00     0.278 C 
ENDBRANCH  20  25
BRANCH  22  27
ATOM     27  O   UNL A   1      33.724  29.578  27.705  1.00  0.00    -0.493 OA
ATOM     28  C   UNL A   1      35.098  29.240  27.689  1.00  0.00     0.278 C 
ENDBRANCH  22  27
BRANCH  23  29
ATOM     29  O   UNL A   1      30.720  28.309  23.224  1.00  0.00    -0.496 OA
ATOM     30  C   UNL A   1      29.336  28.045  23.424  1.00  0.00     0.278 C 
ENDBRANCH  23  29
ENDBRANCH  10  19
BRANCH  16  31
ATOM     31  C   UNL A   1      32.977  21.082  23.359  1.00  0.00     0.000 A 
ATOM     32  C   UNL A   1      32.146  20.283  22.570  1.00  0.00     0.012 A 
ATOM     33  C   UNL A   1      33.648  20.507  24.450  1.00  0.00     0.012 A 
ATOM     34  C   UNL A   1      32.048  18.912  22.820  1.00  0.00     0.021 A 
ATOM     35  C   UNL A   1      33.554  19.135  24.698  1.00  0.00     0.021 A 
ATOM     36  C   UNL A   1      32.767  18.341  23.870  1.00  0.00     0.041 A 
ATOM     37  Cl  UNL A   1      32.692  16.643  24.128  1.00  0.00    -0.084 Cl
ENDBRANCH  16  31
ENDBRANCH   7   9
ENDBRANCH   6   7
ENDBRANCH   5   6
ENDBRANCH   4   5
ENDBRANCH   3   4
ENDBRANCH   2   3
ENDBRANCH   1   2
BRANCH   1  38
ATOM     38  O   UNL A   1      40.719  21.587  27.181  1.00  0.00    -0.376 OA
BRANCH  38  39
ATOM     39  C   UNL A   1      41.625  21.105  26.189  1.00  0.00     0.202 C 
BRANCH  39  40
ATOM     40  C   UNL A   1      42.760  22.035  25.774  1.00  0.00     0.261 C 
BRANCH  40  41
ATOM     41  O   UNL A   1      43.072  23.037  26.729  1.00  0.00    -0.460 OA
BRANCH  41  42
ATOM     42  C   UNL A   1      42.711  24.275  26.326  1.00  0.00     0.338 C 
ATOM     43  O   UNL A   1      42.968  24.819  25.264  1.00  0.00    -0.246 OA
BRANCH  42  44
ATOM     44  C   UNL A   1      42.023  24.955  27.420  1.00  0.00     0.060 A 
ATOM     45  C   UNL A   1      40.934  25.749  27.053  1.00  0.00     0.016 A 
ATOM     46  C   UNL A   1      42.721  25.129  28.622  1.00  0.00     0.016 A 
ATOM     47  C   UNL A   1      40.735  26.910  27.753  1.00  0.00     0.010 A 
ATOM     48  C   UNL A   1      42.533  26.300  29.306  1.00  0.00     0.010 A 
ATOM     49  C   UNL A   1      41.619  27.214  28.793  1.00  0.00    -0.014 A 
BRANCH  49  50
ATOM     50  C   UNL A   1      41.508  28.516  29.404  1.00  0.00     0.031 A 
ATOM     51  C   UNL A   1      42.501  29.447  28.845  1.00  0.00     0.074 A 
ATOM     52  C   UNL A   1      40.559  28.806  30.314  1.00  0.00     0.049 A 
ATOM     53  N   UNL A   1      43.613  29.813  29.389  1.00  0.00    -0.248 NA
ATOM     54  C   UNL A   1      42.377  29.803  27.423  1.00  0.00     0.031 C 
ATOM     55  C   UNL A   1      39.385  28.001  30.668  1.00  0.00     0.029 A 
ATOM     56  N   UNL A   1      40.368  29.955  31.015  1.00  0.00    -0.354 N 
ATOM     57  C   UNL A   1      44.170  30.698  28.473  1.00  0.00     0.074 A 
ATOM     58  C   UNL A   1      43.538  30.426  27.212  1.00  0.00     0.031 C 
ATOM     59  C   UNL A   1      38.485  28.790  31.300  1.00  0.00     0.029 A 
ATOM     60  C   UNL A   1      39.077  30.099  31.513  1.00  0.00     0.049 A 
ATOM     61  H   UNL A   1      41.077  30.623  31.157  1.00  0.00     0.167 HD
ATOM     62  C   UNL A   1      44.804  31.818  28.909  1.00  0.00     0.034 A 
ATOM     63  C   UNL A   1      38.527  31.251  31.969  1.00  0.00     0.034 A 
ATOM     64  C   UNL A   1      45.085  31.728  30.321  1.00  0.00     0.049 A 
ATOM     65  C   UNL A   1      39.644  32.152  32.330  1.00  0.00     0.074 A 
ATOM     66  C   UNL A   1      45.889  30.967  31.139  1.00  0.00     0.029 A 
ATOM     67  N   UNL A   1      44.115  32.293  31.108  1.00  0.00    -0.354 N 
ATOM     68  N   UNL A   1      40.476  31.913  33.304  1.00  0.00    -0.248 NA
ATOM     69  C   UNL A   1      40.081  33.154  31.367  1.00  0.00     0.031 C 
ATOM     70  C   UNL A   1      45.210  30.900  32.392  1.00  0.00     0.029 A 
ATOM     71  C   UNL A   1      44.040  31.659  32.315  1.00  0.00     0.049 A 
ATOM     72  H   UNL A   1      43.549  33.052  30.839  1.00  0.00     0.167 HD
ATOM     73  C   UNL A   1      41.696  32.360  32.822  1.00  0.00     0.074 A 
ATOM     74  C   UNL A   1      41.362  33.267  31.729  1.00  0.00     0.031 C 
ATOM     75  C   UNL A   1      42.850  31.705  33.142  1.00  0.00     0.034 A 
BRANCH  62  76
ATOM     76  C   UNL A   1      44.705  33.175  28.238  1.00  0.00     0.023 A 
ATOM     77  C   UNL A   1      45.907  33.717  27.731  1.00  0.00     0.012 A 
ATOM     78  C   UNL A   1      43.604  34.059  28.342  1.00  0.00     0.148 A 
ATOM     79  C   UNL A   1      46.020  35.071  27.396  1.00  0.00     0.002 A 
ATOM     80  C   UNL A   1      43.697  35.383  27.932  1.00  0.00     0.091 A 
ATOM     81  F   UNL A   1      42.490  33.681  28.970  1.00  0.00    -0.205 F 
ATOM     82  C   UNL A   1      44.912  35.903  27.488  1.00  0.00     0.022 A 
BRANCH  80  83
ATOM     83  S   UNL A   1      42.283  36.494  28.000  1.00  0.00     0.127 S 
ATOM     84  O   UNL A   1      42.749  37.500  28.949  1.00  0.00    -0.237 OA
ATOM     85  O   UNL A   1      42.195  36.941  26.611  1.00  0.00    -0.237 OA
ATOM     86  O   UNL A   1      41.159  35.676  28.437  1.00  0.00    -0.744 OA
ENDBRANCH  80  83
ENDBRANCH  62  76
BRANCH  63  87
ATOM     87  C   UNL A   1      37.137  31.753  31.832  1.00  0.00     0.023 A 
ATOM     88  C   UNL A   1      36.379  32.028  32.989  1.00  0.00     0.012 A 
ATOM     89  C   UNL A   1      36.668  32.250  30.596  1.00  0.00     0.148 A 
ATOM     90  C   UNL A   1      35.218  32.809  32.924  1.00  0.00     0.002 A 
ATOM     91  C   UNL A   1      35.510  33.020  30.534  1.00  0.00     0.091 A 
ATOM     92  F   UNL A   1      37.407  32.051  29.497  1.00  0.00    -0.205 F 
ATOM     93  C   UNL A   1      34.790  33.314  31.699  1.00  0.00     0.022 A 
BRANCH  91  94
ATOM     94  S   UNL A   1      34.911  33.729  28.994  1.00  0.00     0.127 S 
ATOM     95  O   UNL A   1      34.847  32.553  28.125  1.00  0.00    -0.237 OA
ATOM     96  O   UNL A   1      33.614  34.266  29.394  1.00  0.00    -0.237 OA
ATOM     97  O   UNL A   1      35.907  34.715  28.594  1.00  0.00    -0.744 OA
ENDBRANCH  91  94
ENDBRANCH  63  87
BRANCH  75  98
ATOM     98  C   UNL A   1      42.834  30.825  34.360  1.00  0.00     0.023 A 
ATOM     99  C   UNL A   1      43.028  31.308  35.670  1.00  0.00     0.012 A 
ATOM    100  C   UNL A   1      42.492  29.475  34.173  1.00  0.00     0.148 A 
ATOM    101  C   UNL A   1      42.904  30.451  36.768  1.00  0.00     0.002 A 
ATOM    102  C   UNL A   1      42.323  28.640  35.267  1.00  0.00     0.091 A 
ATOM    103  F   UNL A   1      42.318  29.036  32.917  1.00  0.00    -0.205 F 
ATOM    104  C   UNL A   1      42.539  29.120  36.567  1.00  0.00     0.022 A 
BRANCH 102 105
ATOM    105  S   UNL A   1      41.742  26.955  35.070  1.00  0.00     0.127 S 
ATOM    106  O   UNL A   1      40.598  27.130  34.177  1.00  0.00    -0.237 OA
ATOM    107  O   UNL A   1      42.899  26.294  34.463  1.00  0.00    -0.237 OA
ATOM    108  O   UNL A   1      41.424  26.481  36.412  1.00  0.00    -0.744 OA
ENDBRANCH 102 105
ENDBRANCH  75  98
ENDBRANCH  49  50
ENDBRANCH  42  44
ENDBRANCH  41  42
ENDBRANCH  40  41
ENDBRANCH  39  40
ENDBRANCH  38  39
ENDBRANCH   1  38
TORSDOF 25
ENDMDL
MODEL 3
REMARK VINA RESULT:      -9.2      2.228      6.913
REMARK SMILES COc1cc(OC)c(-c2cc(C(=O)OCCOCCOCCOC(=O)c3ccc(-c4c5nc(c(-c6cccc(S(=O)(=O)[O-])c6F)c6ccc([nH]6)c(-c6cccc(S(=O)(=O)[O-])c6F)c6nc(c(-c7cccc(S(=O)(=O)[O-])c7F)c7ccc4[nH]7)C=C6)C=C5)cc3)c3c(-c4ccc(Cl)cc4)[nH]nc3n2)cc1OC
REMARK SMILES IDX 19 1 18 2 17 3 16 4 15 5 14 6 12 7 13 8 11 9 9 10 10 11
REMARK SMILES IDX 101 12 100 13 89 14 99 15 90 16 98 17 8 19 3 20 4 21 103 22
REMARK SMILES IDX 5 23 102 24 2 25 1 26 104 27 105 28 6 29 7 30 91 31 92 32
REMARK SMILES IDX 97 33 93 34 96 35 94 36 95 37 20 38 21 39 22 40 23 41 24 42
REMARK SMILES IDX 25 43 26 44 27 45 88 46 28 47 87 48 29 49 30 50 31 51 81 52
REMARK SMILES IDX 32 53 86 54 80 55 82 56 33 57 85 58 79 59 78 60 34 62 66 63
REMARK SMILES IDX 46 64 65 65 47 66 50 67 64 68 83 69 48 70 49 71 63 73 84 74
REMARK SMILES IDX 51 75 35 76 36 77 44 78 37 79 39 80 45 81 38 82 40 83 41 84
REMARK SMILES IDX 42 85 43 86 67 87 68 88 76 89 69 90 71 91 77 92 70 93 72 94
REMARK SMILES IDX 73 95 74 96 75 97 52 98 53 99 61 100 54 101 56 102 62 103
REMARK SMILES IDX 55 104 57 105 58 106 59 107 60 108
REMARK H PARENT 98 18 82 61 50 72
REMARK Flexibility Score: inf
ROOT
ATOM      1  C   UNL A   1      39.021  22.472  26.152  1.00  0.00     0.188 C 
ENDROOT
BRANCH   1   2
ATOM      2  C   UNL A   1      38.440  21.510  25.142  1.00  0.00     0.188 C 
BRANCH   2   3
ATOM      3  O   UNL A   1      37.176  21.830  24.589  1.00  0.00    -0.376 OA
BRANCH   3   4
ATOM      4  C   UNL A   1      36.072  21.093  25.128  1.00  0.00     0.202 C 
BRANCH   4   5
ATOM      5  C   UNL A   1      35.355  21.609  26.406  1.00  0.00     0.261 C 
BRANCH   5   6
ATOM      6  O   UNL A   1      34.872  22.974  26.374  1.00  0.00    -0.460 OA
BRANCH   6   7
ATOM      7  C   UNL A   1      33.549  23.206  26.590  1.00  0.00     0.339 C 
ATOM      8  O   UNL A   1      32.930  22.823  27.548  1.00  0.00    -0.246 OA
BRANCH   7   9
ATOM      9  C   UNL A   1      33.046  24.100  25.499  1.00  0.00     0.075 A 
ATOM     10  C   UNL A   1      32.225  26.314  24.653  1.00  0.00     0.078 A 
ATOM     11  C   UNL A   1      32.662  25.449  25.707  1.00  0.00     0.045 A 
ATOM     12  N   UNL A   1      32.148  25.952  23.348  1.00  0.00    -0.226 NA
ATOM     13  C   UNL A   1      32.414  24.645  23.122  1.00  0.00     0.182 A 
ATOM     14  C   UNL A   1      32.823  23.739  24.161  1.00  0.00     0.061 A 
ATOM     15  N   UNL A   1      32.294  24.033  21.947  1.00  0.00    -0.154 NA
ATOM     16  C   UNL A   1      32.762  22.488  23.567  1.00  0.00     0.075 A 
ATOM     17  N   UNL A   1      32.503  22.743  22.239  1.00  0.00    -0.275 N 
ATOM     18  H   UNL A   1      32.474  22.032  21.558  1.00  0.00     0.190 HD
BRANCH  10  19
ATOM     19  C   UNL A   1      31.930  27.747  24.916  1.00  0.00     0.046 A 
ATOM     20  C   UNL A   1      31.009  30.429  25.294  1.00  0.00     0.164 A 
ATOM     21  C   UNL A   1      31.922  29.841  26.182  1.00  0.00     0.097 A 
ATOM     22  C   UNL A   1      30.569  29.702  24.194  1.00  0.00     0.161 A 
ATOM     23  C   UNL A   1      32.398  28.522  25.997  1.00  0.00     0.132 A 
ATOM     24  C   UNL A   1      31.022  28.383  24.036  1.00  0.00     0.064 A 
BRANCH  20  25
ATOM     25  O   UNL A   1      30.696  31.746  25.483  1.00  0.00    -0.493 OA
ATOM     26  C   UNL A   1      31.490  32.356  26.503  1.00  0.00     0.278 C 
ENDBRANCH  20  25
BRANCH  22  27
ATOM     27  O   UNL A   1      29.745  30.079  23.172  1.00  0.00    -0.493 OA
ATOM     28  C   UNL A   1      28.353  30.176  23.406  1.00  0.00     0.278 C 
ENDBRANCH  22  27
BRANCH  23  29
ATOM     29  O   UNL A   1      33.264  28.147  26.993  1.00  0.00    -0.496 OA
ATOM     30  C   UNL A   1      34.609  28.607  26.914  1.00  0.00     0.278 C 
ENDBRANCH  23  29
ENDBRANCH  10  19
BRANCH  16  31
ATOM     31  C   UNL A   1      32.761  21.117  24.054  1.00  0.00     0.000 A 
ATOM     32  C   UNL A   1      32.297  20.814  25.337  1.00  0.00     0.012 A 
ATOM     33  C   UNL A   1      33.250  20.083  23.239  1.00  0.00     0.012 A 
ATOM     34  C   UNL A   1      32.252  19.486  25.771  1.00  0.00     0.021 A 
ATOM     35  C   UNL A   1      33.200  18.755  23.670  1.00  0.00     0.021 A 
ATOM     36  C   UNL A   1      32.685  18.462  24.929  1.00  0.00     0.041 A 
ATOM     37  Cl  UNL A   1      32.562  16.827  25.445  1.00  0.00    -0.084 Cl
ENDBRANCH  16  31
ENDBRANCH   7   9
ENDBRANCH   6   7
ENDBRANCH   5   6
ENDBRANCH   4   5
ENDBRANCH   3   4
ENDBRANCH   2   3
ENDBRANCH   1   2
BRANCH   1  38
ATOM     38  O   UNL A   1      39.887  21.862  27.109  1.00  0.00    -0.376 OA
BRANCH  38  39
ATOM     39  C   UNL A   1      41.029  21.170  26.606  1.00  0.00     0.202 C 
BRANCH  39  40
ATOM     40  C   UNL A   1      42.367  21.901  26.668  1.00  0.00     0.261 C 
BRANCH  40  41
ATOM     41  O   UNL A   1      42.410  22.959  27.611  1.00  0.00    -0.460 OA
BRANCH  41  42
ATOM     42  C   UNL A   1      42.058  24.150  27.079  1.00  0.00     0.338 C 
ATOM     43  O   UNL A   1      42.111  24.490  25.908  1.00  0.00    -0.246 OA
BRANCH  42  44
ATOM     44  C   UNL A   1      41.679  25.064  28.154  1.00  0.00     0.060 A 
ATOM     45  C   UNL A   1      40.502  25.787  27.950  1.00  0.00     0.016 A 
ATOM     46  C   UNL A   1      42.680  25.473  29.044  1.00  0.00     0.016 A 
ATOM     47  C   UNL A   1      40.464  27.075  28.417  1.00  0.00     0.010 A 
ATOM     48  C   UNL A   1      42.648  26.767  29.491  1.00  0.00     0.010 A 
ATOM     49  C   UNL A   1      41.593  27.573  29.077  1.00  0.00    -0.014 A 
BRANCH  49  50
ATOM     50  C   UNL A   1      41.608  28.977  29.405  1.00  0.00     0.031 A 
ATOM     51  C   UNL A   1      42.739  29.658  28.753  1.00  0.00     0.074 A 
ATOM     52  C   UNL A   1      40.654  29.551  30.160  1.00  0.00     0.049 A 
ATOM     53  N   UNL A   1      43.855  30.005  29.300  1.00  0.00    -0.248 NA
ATOM     54  C   UNL A   1      42.740  29.723  27.283  1.00  0.00     0.031 C 
ATOM     55  C   UNL A   1      39.371  28.969  30.572  1.00  0.00     0.029 A 
ATOM     56  N   UNL A   1      40.566  30.834  30.600  1.00  0.00    -0.354 N 
ATOM     57  C   UNL A   1      44.567  30.615  28.273  1.00  0.00     0.074 A 
ATOM     58  C   UNL A   1      43.978  30.158  27.046  1.00  0.00     0.031 C 
ATOM     59  C   UNL A   1      38.541  29.966  30.960  1.00  0.00     0.029 A 
ATOM     60  C   UNL A   1      39.276  31.218  30.955  1.00  0.00     0.049 A 
ATOM     61  H   UNL A   1      41.343  31.436  30.663  1.00  0.00     0.167 HD
ATOM     62  C   UNL A   1      45.309  31.725  28.527  1.00  0.00     0.034 A 
ATOM     63  C   UNL A   1      38.848  32.493  31.127  1.00  0.00     0.034 A 
ATOM     64  C   UNL A   1      45.497  31.900  29.947  1.00  0.00     0.049 A 
ATOM     65  C   UNL A   1      40.045  33.322  31.389  1.00  0.00     0.074 A 
ATOM     66  C   UNL A   1      46.154  31.241  30.962  1.00  0.00     0.029 A 
ATOM     67  N   UNL A   1      44.561  32.718  30.526  1.00  0.00    -0.354 N 
ATOM     68  N   UNL A   1      40.786  33.200  32.455  1.00  0.00    -0.248 NA
ATOM     69  C   UNL A   1      40.656  34.049  30.284  1.00  0.00     0.031 C 
ATOM     70  C   UNL A   1      45.403  31.510  32.144  1.00  0.00     0.029 A 
ATOM     71  C   UNL A   1      44.341  32.359  31.824  1.00  0.00     0.049 A 
ATOM     72  H   UNL A   1      44.109  33.462  30.066  1.00  0.00     0.167 HD
ATOM     73  C   UNL A   1      42.077  33.402  31.992  1.00  0.00     0.074 A 
ATOM     74  C   UNL A   1      41.918  34.093  30.717  1.00  0.00     0.031 C 
ATOM     75  C   UNL A   1      43.122  32.706  32.528  1.00  0.00     0.034 A 
BRANCH  62  76
ATOM     76  C   UNL A   1      45.415  32.916  27.593  1.00  0.00     0.023 A 
ATOM     77  C   UNL A   1      44.366  33.083  26.662  1.00  0.00     0.012 A 
ATOM     78  C   UNL A   1      46.588  33.677  27.371  1.00  0.00     0.148 A 
ATOM     79  C   UNL A   1      44.496  33.920  25.549  1.00  0.00     0.002 A 
ATOM     80  C   UNL A   1      46.682  34.568  26.310  1.00  0.00     0.091 A 
ATOM     81  F   UNL A   1      47.686  33.453  28.093  1.00  0.00    -0.205 F 
ATOM     82  C   UNL A   1      45.652  34.670  25.376  1.00  0.00     0.022 A 
BRANCH  80  83
ATOM     83  S   UNL A   1      48.144  35.588  26.060  1.00  0.00     0.127 S 
ATOM     84  O   UNL A   1      49.039  34.653  25.386  1.00  0.00    -0.237 OA
ATOM     85  O   UNL A   1      47.613  36.660  25.219  1.00  0.00    -0.237 OA
ATOM     86  O   UNL A   1      48.556  36.020  27.389  1.00  0.00    -0.744 OA
ENDBRANCH  80  83
ENDBRANCH  62  76
BRANCH  63  87
ATOM     87  C   UNL A   1      37.541  33.104  30.782  1.00  0.00     0.023 A 
ATOM     88  C   UNL A   1      36.941  32.812  29.540  1.00  0.00     0.012 A 
ATOM     89  C   UNL A   1      36.746  33.717  31.776  1.00  0.00     0.148 A 
ATOM     90  C   UNL A   1      35.585  33.079  29.311  1.00  0.00     0.002 A 
ATOM     91  C   UNL A   1      35.401  33.988  31.543  1.00  0.00     0.091 A 
ATOM     92  F   UNL A   1      37.283  33.947  32.982  1.00  0.00    -0.205 F 
ATOM     93  C   UNL A   1      34.813  33.656  30.316  1.00  0.00     0.022 A 
BRANCH  91  94
ATOM     94  S   UNL A   1      34.335  34.706  32.801  1.00  0.00     0.127 S 
ATOM     95  O   UNL A   1      33.015  34.590  32.179  1.00  0.00    -0.237 OA
ATOM     96  O   UNL A   1      34.559  33.810  33.932  1.00  0.00    -0.237 OA
ATOM     97  O   UNL A   1      34.796  36.076  32.980  1.00  0.00    -0.744 OA
ENDBRANCH  91  94
ENDBRANCH  63  87
BRANCH  75  98
ATOM     98  C   UNL A   1      42.929  32.105  33.892  1.00  0.00     0.023 A 
ATOM     99  C   UNL A   1      43.024  32.845  35.087  1.00  0.00     0.012 A 
ATOM    100  C   UNL A   1      42.522  30.761  33.950  1.00  0.00     0.148 A 
ATOM    101  C   UNL A   1      42.737  32.245  36.318  1.00  0.00     0.002 A 
ATOM    102  C   UNL A   1      42.193  30.184  35.167  1.00  0.00     0.091 A 
ATOM    103  F   UNL A   1      42.445  30.073  32.799  1.00  0.00    -0.205 F 
ATOM    104  C   UNL A   1      42.309  30.918  36.356  1.00  0.00     0.022 A 
BRANCH 102 105
ATOM    105  S   UNL A   1      41.527  28.521  35.257  1.00  0.00     0.127 S 
ATOM    106  O   UNL A   1      42.741  27.707  35.278  1.00  0.00    -0.237 OA
ATOM    107  O   UNL A   1      40.786  28.549  36.519  1.00  0.00    -0.237 OA
ATOM    108  O   UNL A   1      40.685  28.361  34.078  1.00  0.00    -0.744 OA
ENDBRANCH 102 105
ENDBRANCH  75  98
ENDBRANCH  49  50
ENDBRANCH  42  44
ENDBRANCH  41  42
ENDBRANCH  40  41
ENDBRANCH  39  40
ENDBRANCH  38  39
ENDBRANCH   1  38
TORSDOF 25
ENDMDL
