MODEL 1
REMARK VINA RESULT:      -9.8      0.000      0.000
REMARK SMILES CN1C(=O)C[C@@H](C(=O)OCCOCCOCCOC(=O)c2ccc(-c3c4nc(c(-c5cccc(S(=O)(=O)[O-])c5F)c5ccc([nH]5)c(-c5cccc(S(=O)(=O)[O-])c5F)c5nc(c(-c6cccc(S(=O)(=O)[O-])c6F)c6ccc3[nH]6)C=C5)C=C4)cc2)C12CCN(C(=O)c1ccccc1-n1cccn1)CC2
REMARK SMILES IDX 14 1 13 2 12 3 11 4 10 5 9 6 7 7 8 8 6 9 1 10 2 11 3 12
REMARK SMILES IDX 84 13 4 14 5 15 85 16 102 17 86 18 101 19 87 20 88 21 89 22
REMARK SMILES IDX 90 23 91 24 95 25 92 26 94 27 93 28 96 29 97 30 100 31 98 32
REMARK SMILES IDX 99 33 15 34 16 35 17 36 18 37 19 38 20 39 21 40 22 41 83 42
REMARK SMILES IDX 23 43 82 44 24 45 25 46 26 47 76 48 27 49 81 50 75 51 77 52
REMARK SMILES IDX 28 53 80 54 74 55 73 56 29 58 61 59 41 60 60 61 42 62 45 63
REMARK SMILES IDX 59 64 78 65 43 66 44 67 58 69 79 70 46 71 30 72 31 73 39 74
REMARK SMILES IDX 32 75 34 76 40 77 33 78 35 79 36 80 37 81 38 82 62 83 63 84
REMARK SMILES IDX 71 85 64 86 66 87 72 88 65 89 67 90 68 91 69 92 70 93 47 94
REMARK SMILES IDX 48 95 56 96 49 97 51 98 57 99 50 100 52 101 53 102 54 103
REMARK SMILES IDX 55 104
REMARK H PARENT 77 57 45 68
REMARK Flexibility Score: inf
ROOT
ATOM      1  C   UNL A   1      35.719  31.908  27.863  1.00  0.00     0.188 C 
ENDROOT
BRANCH   1   2
ATOM      2  C   UNL A   1      34.213  31.682  27.853  1.00  0.00     0.188 C 
BRANCH   2   3
ATOM      3  O   UNL A   1      33.701  30.640  27.032  1.00  0.00    -0.376 OA
BRANCH   3   4
ATOM      4  C   UNL A   1      32.371  30.189  27.237  1.00  0.00     0.202 C 
BRANCH   4   5
ATOM      5  C   UNL A   1      31.746  29.371  26.095  1.00  0.00     0.261 C 
BRANCH   5   6
ATOM      6  O   UNL A   1      31.811  29.940  24.757  1.00  0.00    -0.463 OA
BRANCH   6   7
ATOM      7  C   UNL A   1      32.606  29.267  23.892  1.00  0.00     0.311 C 
ATOM      8  O   UNL A   1      33.788  29.547  23.707  1.00  0.00    -0.252 OA
BRANCH   7   9
ATOM      9  C   UNL A   1      31.941  28.224  23.001  1.00  0.00     0.134 C 
ATOM     10  C   UNL A   1      29.089  26.192  24.367  1.00  0.00     0.147 C 
ATOM     11  N   UNL A   1      29.991  27.120  23.708  1.00  0.00    -0.339 N 
ATOM     12  C   UNL A   1      29.558  28.320  23.174  1.00  0.00     0.223 C 
ATOM     13  C   UNL A   1      31.398  26.819  23.397  1.00  0.00     0.060 C 
ATOM     14  O   UNL A   1      28.430  28.783  23.246  1.00  0.00    -0.275 OA
ATOM     15  C   UNL A   1      30.703  28.945  22.429  1.00  0.00     0.118 C 
ATOM     16  C   UNL A   1      32.085  26.055  24.544  1.00  0.00     0.051 C 
ATOM     17  C   UNL A   1      31.424  25.885  22.136  1.00  0.00     0.051 C 
ATOM     18  C   UNL A   1      33.455  25.509  24.161  1.00  0.00     0.122 C 
ATOM     19  C   UNL A   1      32.789  25.268  21.820  1.00  0.00     0.122 C 
ATOM     20  N   UNL A   1      33.409  24.647  22.987  1.00  0.00    -0.338 N 
ATOM     21  C   UNL A   1      34.110  23.440  22.782  1.00  0.00     0.256 C 
ATOM     22  O   UNL A   1      34.090  22.860  21.694  1.00  0.00    -0.269 OA
BRANCH  21  23
ATOM     23  C   UNL A   1      34.951  22.793  23.828  1.00  0.00     0.065 A 
ATOM     24  C   UNL A   1      36.303  22.596  23.481  1.00  0.00     0.016 A 
ATOM     25  C   UNL A   1      34.514  22.353  25.086  1.00  0.00     0.077 A 
ATOM     26  C   UNL A   1      37.216  22.047  24.390  1.00  0.00     0.001 A 
ATOM     27  C   UNL A   1      35.444  21.839  26.014  1.00  0.00     0.029 A 
ATOM     28  C   UNL A   1      36.788  21.682  25.664  1.00  0.00     0.002 A 
BRANCH  25  29
ATOM     29  N   UNL A   1      33.156  22.375  25.463  1.00  0.00    -0.240 N 
ATOM     30  C   UNL A   1      32.093  21.752  24.846  1.00  0.00     0.115 A 
ATOM     31  N   UNL A   1      32.750  23.058  26.567  1.00  0.00    -0.177 NA
ATOM     32  C   UNL A   1      30.958  22.128  25.521  1.00  0.00     0.042 A 
ATOM     33  C   UNL A   1      31.421  22.954  26.554  1.00  0.00     0.135 A 
ENDBRANCH  25  29
ENDBRANCH  21  23
ENDBRANCH   7   9
ENDBRANCH   6   7
ENDBRANCH   5   6
ENDBRANCH   4   5
ENDBRANCH   3   4
ENDBRANCH   2   3
ENDBRANCH   1   2
BRANCH   1  34
ATOM     34  O   UNL A   1      36.103  33.048  28.620  1.00  0.00    -0.376 OA
BRANCH  34  35
ATOM     35  C   UNL A   1      35.015  33.629  29.332  1.00  0.00     0.202 C 
BRANCH  35  36
ATOM     36  C   UNL A   1      35.427  33.849  30.797  1.00  0.00     0.261 C 
BRANCH  36  37
ATOM     37  O   UNL A   1      36.771  33.425  31.137  1.00  0.00    -0.460 OA
BRANCH  37  38
ATOM     38  C   UNL A   1      37.461  34.338  31.850  1.00  0.00     0.338 C 
ATOM     39  O   UNL A   1      37.097  34.801  32.916  1.00  0.00    -0.246 OA
BRANCH  38  40
ATOM     40  C   UNL A   1      38.813  34.594  31.326  1.00  0.00     0.060 A 
ATOM     41  C   UNL A   1      38.947  34.796  29.950  1.00  0.00     0.016 A 
ATOM     42  C   UNL A   1      39.946  34.416  32.109  1.00  0.00     0.016 A 
ATOM     43  C   UNL A   1      40.190  34.766  29.332  1.00  0.00     0.010 A 
ATOM     44  C   UNL A   1      41.208  34.433  31.497  1.00  0.00     0.010 A 
ATOM     45  C   UNL A   1      41.339  34.586  30.102  1.00  0.00    -0.014 A 
BRANCH  45  46
ATOM     46  C   UNL A   1      42.669  34.533  29.443  1.00  0.00     0.031 A 
ATOM     47  C   UNL A   1      43.376  33.220  29.269  1.00  0.00     0.074 A 
ATOM     48  C   UNL A   1      43.245  35.670  29.005  1.00  0.00     0.049 A 
ATOM     49  N   UNL A   1      44.608  32.987  28.900  1.00  0.00    -0.248 NA
ATOM     50  C   UNL A   1      42.592  32.005  29.547  1.00  0.00     0.031 C 
ATOM     51  C   UNL A   1      42.639  37.001  29.053  1.00  0.00     0.029 A 
ATOM     52  N   UNL A   1      44.487  35.889  28.462  1.00  0.00    -0.354 N 
ATOM     53  C   UNL A   1      44.768  31.607  28.958  1.00  0.00     0.074 A 
ATOM     54  C   UNL A   1      43.499  31.053  29.376  1.00  0.00     0.031 C 
ATOM     55  C   UNL A   1      43.517  37.902  28.587  1.00  0.00     0.029 A 
ATOM     56  C   UNL A   1      44.772  37.223  28.282  1.00  0.00     0.049 A 
ATOM     57  H   UNL A   1      45.112  35.164  28.227  1.00  0.00     0.167 HD
ATOM     58  C   UNL A   1      45.873  30.873  28.688  1.00  0.00     0.034 A 
ATOM     59  C   UNL A   1      45.929  37.839  27.970  1.00  0.00     0.034 A 
ATOM     60  C   UNL A   1      47.124  31.432  28.243  1.00  0.00     0.049 A 
ATOM     61  C   UNL A   1      47.159  37.008  27.739  1.00  0.00     0.074 A 
ATOM     62  C   UNL A   1      48.298  30.770  27.932  1.00  0.00     0.029 A 
ATOM     63  N   UNL A   1      47.364  32.783  28.050  1.00  0.00    -0.354 N 
ATOM     64  N   UNL A   1      47.290  35.703  27.758  1.00  0.00    -0.248 NA
ATOM     65  C   UNL A   1      48.400  37.732  27.429  1.00  0.00     0.031 C 
ATOM     66  C   UNL A   1      49.257  31.725  27.576  1.00  0.00     0.029 A 
ATOM     67  C   UNL A   1      48.671  32.979  27.638  1.00  0.00     0.049 A 
ATOM     68  H   UNL A   1      46.701  33.499  28.186  1.00  0.00     0.167 HD
ATOM     69  C   UNL A   1      48.619  35.449  27.438  1.00  0.00     0.074 A 
ATOM     70  C   UNL A   1      49.245  36.734  27.205  1.00  0.00     0.031 C 
ATOM     71  C   UNL A   1      49.266  34.261  27.362  1.00  0.00     0.034 A 
BRANCH  58  72
ATOM     72  C   UNL A   1      45.788  29.382  28.876  1.00  0.00     0.023 A 
ATOM     73  C   UNL A   1      46.072  28.813  30.133  1.00  0.00     0.012 A 
ATOM     74  C   UNL A   1      45.375  28.550  27.816  1.00  0.00     0.148 A 
ATOM     75  C   UNL A   1      45.969  27.435  30.324  1.00  0.00     0.002 A 
ATOM     76  C   UNL A   1      45.239  27.184  28.025  1.00  0.00     0.091 A 
ATOM     77  F   UNL A   1      45.136  29.110  26.621  1.00  0.00    -0.205 F 
ATOM     78  C   UNL A   1      45.544  26.623  29.276  1.00  0.00     0.022 A 
BRANCH  76  79
ATOM     79  S   UNL A   1      44.633  26.066  26.756  1.00  0.00     0.127 S 
ATOM     80  O   UNL A   1      43.888  25.093  27.552  1.00  0.00    -0.237 OA
ATOM     81  O   UNL A   1      43.802  26.949  25.937  1.00  0.00    -0.237 OA
ATOM     82  O   UNL A   1      45.815  25.548  26.081  1.00  0.00    -0.744 OA
ENDBRANCH  76  79
ENDBRANCH  58  72
BRANCH  59  83
ATOM     83  C   UNL A   1      45.976  39.325  27.880  1.00  0.00     0.023 A 
ATOM     84  C   UNL A   1      46.244  40.082  29.036  1.00  0.00     0.012 A 
ATOM     85  C   UNL A   1      45.791  39.989  26.651  1.00  0.00     0.148 A 
ATOM     86  C   UNL A   1      46.305  41.475  28.973  1.00  0.00     0.002 A 
ATOM     87  C   UNL A   1      45.913  41.371  26.584  1.00  0.00     0.091 A 
ATOM     88  F   UNL A   1      45.513  39.252  25.566  1.00  0.00    -0.205 F 
ATOM     89  C   UNL A   1      46.154  42.118  27.747  1.00  0.00     0.022 A 
BRANCH  87  90
ATOM     90  S   UNL A   1      45.873  42.264  25.025  1.00  0.00     0.127 S 
ATOM     91  O   UNL A   1      47.007  41.677  24.316  1.00  0.00    -0.237 OA
ATOM     92  O   UNL A   1      44.559  41.897  24.499  1.00  0.00    -0.237 OA
ATOM     93  O   UNL A   1      46.005  43.672  25.379  1.00  0.00    -0.744 OA
ENDBRANCH  87  90
ENDBRANCH  59  83
BRANCH  71  94
ATOM     94  C   UNL A   1      50.723  34.289  26.979  1.00  0.00     0.023 A 
ATOM     95  C   UNL A   1      51.711  34.274  27.983  1.00  0.00     0.012 A 
ATOM     96  C   UNL A   1      51.112  34.265  25.625  1.00  0.00     0.148 A 
ATOM     97  C   UNL A   1      53.064  34.269  27.646  1.00  0.00     0.002 A 
ATOM     98  C   UNL A   1      52.461  34.211  25.297  1.00  0.00     0.091 A 
ATOM     99  F   UNL A   1      50.156  34.300  24.684  1.00  0.00    -0.205 F 
ATOM    100  C   UNL A   1      53.439  34.226  26.305  1.00  0.00     0.022 A 
BRANCH  98 101
ATOM    101  S   UNL A   1      53.031  34.059  23.600  1.00  0.00     0.127 S 
ATOM    102  O   UNL A   1      52.694  35.372  23.054  1.00  0.00    -0.237 OA
ATOM    103  O   UNL A   1      54.464  33.820  23.774  1.00  0.00    -0.237 OA
ATOM    104  O   UNL A   1      52.298  32.936  23.031  1.00  0.00    -0.744 OA
ENDBRANCH  98 101
ENDBRANCH  71  94
ENDBRANCH  45  46
ENDBRANCH  38  40
ENDBRANCH  37  38
ENDBRANCH  36  37
ENDBRANCH  35  36
ENDBRANCH  34  35
ENDBRANCH   1  34
TORSDOF 22
ENDMDL
MODEL 2
REMARK VINA RESULT:      -9.8      7.138     10.086
REMARK SMILES CN1C(=O)C[C@@H](C(=O)OCCOCCOCCOC(=O)c2ccc(-c3c4nc(c(-c5cccc(S(=O)(=O)[O-])c5F)c5ccc([nH]5)c(-c5cccc(S(=O)(=O)[O-])c5F)c5nc(c(-c6cccc(S(=O)(=O)[O-])c6F)c6ccc3[nH]6)C=C5)C=C4)cc2)C12CCN(C(=O)c1ccccc1-n1cccn1)CC2
REMARK SMILES IDX 14 1 13 2 12 3 11 4 10 5 9 6 7 7 8 8 6 9 1 10 2 11 3 12
REMARK SMILES IDX 84 13 4 14 5 15 85 16 102 17 86 18 101 19 87 20 88 21 89 22
REMARK SMILES IDX 90 23 91 24 95 25 92 26 94 27 93 28 96 29 97 30 100 31 98 32
REMARK SMILES IDX 99 33 15 34 16 35 17 36 18 37 19 38 20 39 21 40 22 41 83 42
REMARK SMILES IDX 23 43 82 44 24 45 25 46 26 47 76 48 27 49 81 50 75 51 77 52
REMARK SMILES IDX 28 53 80 54 74 55 73 56 29 58 61 59 41 60 60 61 42 62 45 63
REMARK SMILES IDX 59 64 78 65 43 66 44 67 58 69 79 70 46 71 30 72 31 73 39 74
REMARK SMILES IDX 32 75 34 76 40 77 33 78 35 79 36 80 37 81 38 82 62 83 63 84
REMARK SMILES IDX 71 85 64 86 66 87 72 88 65 89 67 90 68 91 69 92 70 93 47 94
REMARK SMILES IDX 48 95 56 96 49 97 51 98 57 99 50 100 52 101 53 102 54 103
REMARK SMILES IDX 55 104
REMARK H PARENT 77 57 45 68
REMARK Flexibility Score: inf
ROOT
ATOM      1  C   UNL A   1      36.537  29.801  27.533  1.00  0.00     0.188 C 
ENDROOT
BRANCH   1   2
ATOM      2  C   UNL A   1      35.103  29.310  27.382  1.00  0.00     0.188 C 
BRANCH   2   3
ATOM      3  O   UNL A   1      34.871  28.175  26.556  1.00  0.00    -0.376 OA
BRANCH   3   4
ATOM      4  C   UNL A   1      33.538  27.824  26.223  1.00  0.00     0.202 C 
BRANCH   4   5
ATOM      5  C   UNL A   1      33.222  26.320  26.169  1.00  0.00     0.261 C 
BRANCH   5   6
ATOM      6  O   UNL A   1      32.660  25.803  24.930  1.00  0.00    -0.463 OA
BRANCH   6   7
ATOM      7  C   UNL A   1      33.547  25.179  24.120  1.00  0.00     0.311 C 
ATOM      8  O   UNL A   1      34.062  25.720  23.144  1.00  0.00    -0.252 OA
BRANCH   7   9
ATOM      9  C   UNL A   1      33.780  23.692  24.356  1.00  0.00     0.134 C 
ATOM     10  C   UNL A   1      32.854  22.191  27.675  1.00  0.00     0.147 C 
ATOM     11  N   UNL A   1      32.976  22.651  26.303  1.00  0.00    -0.339 N 
ATOM     12  C   UNL A   1      31.903  22.674  25.431  1.00  0.00     0.223 C 
ATOM     13  C   UNL A   1      34.258  22.982  25.658  1.00  0.00     0.060 C 
ATOM     14  O   UNL A   1      30.743  22.398  25.698  1.00  0.00    -0.275 OA
ATOM     15  C   UNL A   1      32.413  23.041  24.066  1.00  0.00     0.118 C 
ATOM     16  C   UNL A   1      35.199  23.738  26.613  1.00  0.00     0.051 C 
ATOM     17  C   UNL A   1      34.966  21.635  25.277  1.00  0.00     0.051 C 
ATOM     18  C   UNL A   1      36.616  23.875  26.069  1.00  0.00     0.122 C 
ATOM     19  C   UNL A   1      36.422  21.779  24.824  1.00  0.00     0.122 C 
ATOM     20  N   UNL A   1      37.219  22.589  25.741  1.00  0.00    -0.338 N 
ATOM     21  C   UNL A   1      38.547  22.180  25.979  1.00  0.00     0.256 C 
ATOM     22  O   UNL A   1      38.981  21.112  25.542  1.00  0.00    -0.269 OA
BRANCH  21  23
ATOM     23  C   UNL A   1      39.536  23.003  26.731  1.00  0.00     0.065 A 
ATOM     24  C   UNL A   1      39.142  24.330  26.997  1.00  0.00     0.016 A 
ATOM     25  C   UNL A   1      40.803  22.585  27.162  1.00  0.00     0.077 A 
ATOM     26  C   UNL A   1      39.953  25.196  27.740  1.00  0.00     0.001 A 
ATOM     27  C   UNL A   1      41.600  23.446  27.945  1.00  0.00     0.029 A 
ATOM     28  C   UNL A   1      41.177  24.747  28.228  1.00  0.00     0.002 A 
BRANCH  25  29
ATOM     29  N   UNL A   1      41.341  21.328  26.816  1.00  0.00    -0.240 N 
ATOM     30  C   UNL A   1      41.179  20.126  27.470  1.00  0.00     0.115 A 
ATOM     31  N   UNL A   1      42.118  21.184  25.709  1.00  0.00    -0.177 NA
ATOM     32  C   UNL A   1      41.957  19.203  26.814  1.00  0.00     0.042 A 
ATOM     33  C   UNL A   1      42.532  19.917  25.756  1.00  0.00     0.135 A 
ENDBRANCH  25  29
ENDBRANCH  21  23
ENDBRANCH   7   9
ENDBRANCH   6   7
ENDBRANCH   5   6
ENDBRANCH   4   5
ENDBRANCH   3   4
ENDBRANCH   2   3
ENDBRANCH   1   2
BRANCH   1  34
ATOM     34  O   UNL A   1      36.691  30.741  28.587  1.00  0.00    -0.376 OA
BRANCH  34  35
ATOM     35  C   UNL A   1      35.493  30.936  29.332  1.00  0.00     0.202 C 
BRANCH  35  36
ATOM     36  C   UNL A   1      35.844  31.130  30.817  1.00  0.00     0.261 C 
BRANCH  36  37
ATOM     37  O   UNL A   1      36.527  30.016  31.445  1.00  0.00    -0.460 OA
BRANCH  37  38
ATOM     38  C   UNL A   1      37.442  30.392  32.363  1.00  0.00     0.338 C 
ATOM     39  O   UNL A   1      37.189  31.032  33.368  1.00  0.00    -0.246 OA
BRANCH  38  40
ATOM     40  C   UNL A   1      38.768  29.790  32.152  1.00  0.00     0.060 A 
ATOM     41  C   UNL A   1      38.854  28.395  32.148  1.00  0.00     0.016 A 
ATOM     42  C   UNL A   1      39.930  30.550  32.186  1.00  0.00     0.016 A 
ATOM     43  C   UNL A   1      40.078  27.745  32.236  1.00  0.00     0.010 A 
ATOM     44  C   UNL A   1      41.172  29.898  32.225  1.00  0.00     0.010 A 
ATOM     45  C   UNL A   1      41.255  28.492  32.274  1.00  0.00    -0.014 A 
BRANCH  45  46
ATOM     46  C   UNL A   1      42.565  27.802  32.387  1.00  0.00     0.031 A 
ATOM     47  C   UNL A   1      43.162  27.530  33.738  1.00  0.00     0.074 A 
ATOM     48  C   UNL A   1      43.222  27.424  31.274  1.00  0.00     0.049 A 
ATOM     49  N   UNL A   1      44.365  27.119  34.042  1.00  0.00    -0.248 NA
ATOM     50  C   UNL A   1      42.289  27.747  34.903  1.00  0.00     0.031 C 
ATOM     51  C   UNL A   1      42.724  27.569  29.904  1.00  0.00     0.029 A 
ATOM     52  N   UNL A   1      44.468  26.868  31.118  1.00  0.00    -0.354 N 
ATOM     53  C   UNL A   1      44.416  27.086  35.431  1.00  0.00     0.074 A 
ATOM     54  C   UNL A   1      43.114  27.497  35.910  1.00  0.00     0.031 C 
ATOM     55  C   UNL A   1      43.663  27.141  29.047  1.00  0.00     0.029 A 
ATOM     56  C   UNL A   1      44.854  26.766  29.801  1.00  0.00     0.049 A 
ATOM     57  H   UNL A   1      45.029  26.574  31.872  1.00  0.00     0.167 HD
ATOM     58  C   UNL A   1      45.454  26.746  36.230  1.00  0.00     0.034 A 
ATOM     59  C   UNL A   1      46.051  26.468  29.259  1.00  0.00     0.034 A 
ATOM     60  C   UNL A   1      46.737  26.308  35.744  1.00  0.00     0.049 A 
ATOM     61  C   UNL A   1      47.207  26.157  30.167  1.00  0.00     0.074 A 
ATOM     62  C   UNL A   1      47.850  25.930  36.474  1.00  0.00     0.029 A 
ATOM     63  N   UNL A   1      47.081  26.196  34.406  1.00  0.00    -0.354 N 
ATOM     64  N   UNL A   1      47.235  26.091  31.476  1.00  0.00    -0.248 NA
ATOM     65  C   UNL A   1      48.496  25.866  29.523  1.00  0.00     0.031 C 
ATOM     66  C   UNL A   1      48.875  25.614  35.576  1.00  0.00     0.029 A 
ATOM     67  C   UNL A   1      48.392  25.768  34.286  1.00  0.00     0.049 A 
ATOM     68  H   UNL A   1      46.480  26.392  33.650  1.00  0.00     0.167 HD
ATOM     69  C   UNL A   1      48.533  25.726  31.812  1.00  0.00     0.074 A 
ATOM     70  C   UNL A   1      49.255  25.560  30.567  1.00  0.00     0.031 C 
ATOM     71  C   UNL A   1      49.083  25.560  33.040  1.00  0.00     0.034 A 
BRANCH  58  72
ATOM     72  C   UNL A   1      45.254  26.841  37.719  1.00  0.00     0.023 A 
ATOM     73  C   UNL A   1      44.890  25.696  38.455  1.00  0.00     0.012 A 
ATOM     74  C   UNL A   1      45.478  28.056  38.395  1.00  0.00     0.148 A 
ATOM     75  C   UNL A   1      44.729  25.766  39.839  1.00  0.00     0.002 A 
ATOM     76  C   UNL A   1      45.353  28.109  39.778  1.00  0.00     0.091 A 
ATOM     77  F   UNL A   1      45.797  29.140  37.673  1.00  0.00    -0.205 F 
ATOM     78  C   UNL A   1      44.969  26.968  40.501  1.00  0.00     0.022 A 
BRANCH  76  79
ATOM     79  S   UNL A   1      45.708  29.594  40.725  1.00  0.00     0.127 S 
ATOM     80  O   UNL A   1      45.809  29.059  42.082  1.00  0.00    -0.237 OA
ATOM     81  O   UNL A   1      46.977  30.035  40.147  1.00  0.00    -0.237 OA
ATOM     82  O   UNL A   1      44.588  30.496  40.491  1.00  0.00    -0.744 OA
ENDBRANCH  76  79
ENDBRANCH  58  72
BRANCH  59  83
ATOM     83  C   UNL A   1      46.215  26.471  27.778  1.00  0.00     0.023 A 
ATOM     84  C   UNL A   1      46.605  27.655  27.125  1.00  0.00     0.012 A 
ATOM     85  C   UNL A   1      46.020  25.300  27.018  1.00  0.00     0.148 A 
ATOM     86  C   UNL A   1      46.777  27.678  25.741  1.00  0.00     0.002 A 
ATOM     87  C   UNL A   1      46.251  25.314  25.649  1.00  0.00     0.091 A 
ATOM     88  F   UNL A   1      45.625  24.188  27.655  1.00  0.00    -0.205 F 
ATOM     89  C   UNL A   1      46.613  26.507  25.005  1.00  0.00     0.022 A 
BRANCH  87  90
ATOM     90  S   UNL A   1      46.200  23.822  24.651  1.00  0.00     0.127 S 
ATOM     91  O   UNL A   1      47.160  24.136  23.596  1.00  0.00    -0.237 OA
ATOM     92  O   UNL A   1      46.641  22.804  25.604  1.00  0.00    -0.237 OA
ATOM     93  O   UNL A   1      44.813  23.684  24.226  1.00  0.00    -0.744 OA
ENDBRANCH  87  90
ENDBRANCH  59  83
BRANCH  71  94
ATOM     94  C   UNL A   1      50.530  25.148  33.101  1.00  0.00     0.023 A 
ATOM     95  C   UNL A   1      51.534  26.130  33.216  1.00  0.00     0.012 A 
ATOM     96  C   UNL A   1      50.890  23.785  33.110  1.00  0.00     0.148 A 
ATOM     97  C   UNL A   1      52.876  25.763  33.304  1.00  0.00     0.002 A 
ATOM     98  C   UNL A   1      52.225  23.427  33.247  1.00  0.00     0.091 A 
ATOM     99  F   UNL A   1      49.921  22.867  32.979  1.00  0.00    -0.205 F 
ATOM    100  C   UNL A   1      53.221  24.414  33.332  1.00  0.00     0.022 A 
BRANCH  98 101
ATOM    101  S   UNL A   1      52.751  21.714  33.385  1.00  0.00     0.127 S 
ATOM    102  O   UNL A   1      52.360  21.177  32.084  1.00  0.00    -0.237 OA
ATOM    103  O   UNL A   1      54.195  21.847  33.582  1.00  0.00    -0.237 OA
ATOM    104  O   UNL A   1      52.035  21.168  34.531  1.00  0.00    -0.744 OA
ENDBRANCH  98 101
ENDBRANCH  71  94
ENDBRANCH  45  46
ENDBRANCH  38  40
ENDBRANCH  37  38
ENDBRANCH  36  37
ENDBRANCH  35  36
ENDBRANCH  34  35
ENDBRANCH   1  34
TORSDOF 22
ENDMDL
MODEL 3
REMARK VINA RESULT:      -9.8      4.936      8.749
REMARK SMILES CN1C(=O)C[C@@H](C(=O)OCCOCCOCCOC(=O)c2ccc(-c3c4nc(c(-c5cccc(S(=O)(=O)[O-])c5F)c5ccc([nH]5)c(-c5cccc(S(=O)(=O)[O-])c5F)c5nc(c(-c6cccc(S(=O)(=O)[O-])c6F)c6ccc3[nH]6)C=C5)C=C4)cc2)C12CCN(C(=O)c1ccccc1-n1cccn1)CC2
REMARK SMILES IDX 14 1 13 2 12 3 11 4 10 5 9 6 7 7 8 8 6 9 1 10 2 11 3 12
REMARK SMILES IDX 84 13 4 14 5 15 85 16 102 17 86 18 101 19 87 20 88 21 89 22
REMARK SMILES IDX 90 23 91 24 95 25 92 26 94 27 93 28 96 29 97 30 100 31 98 32
REMARK SMILES IDX 99 33 15 34 16 35 17 36 18 37 19 38 20 39 21 40 22 41 83 42
REMARK SMILES IDX 23 43 82 44 24 45 25 46 26 47 76 48 27 49 81 50 75 51 77 52
REMARK SMILES IDX 28 53 80 54 74 55 73 56 29 58 61 59 41 60 60 61 42 62 45 63
REMARK SMILES IDX 59 64 78 65 43 66 44 67 58 69 79 70 46 71 30 72 31 73 39 74
REMARK SMILES IDX 32 75 34 76 40 77 33 78 35 79 36 80 37 81 38 82 62 83 63 84
REMARK SMILES IDX 71 85 64 86 66 87 72 88 65 89 67 90 68 91 69 92 70 93 47 94
REMARK SMILES IDX 48 95 56 96 49 97 51 98 57 99 50 100 52 101 53 102 54 103
REMARK SMILES IDX 55 104
REMARK H PARENT 77 57 45 68
REMARK Flexibility Score: inf
ROOT
ATOM      1  C   UNL A   1      40.220  26.477  28.460  1.00  0.00     0.188 C 
ENDROOT
BRANCH   1   2
ATOM      2  C   UNL A   1      40.416  25.627  27.211  1.00  0.00     0.188 C 
BRANCH   2   3
ATOM      3  O   UNL A   1      39.294  24.909  26.710  1.00  0.00    -0.376 OA
BRANCH   3   4
ATOM      4  C   UNL A   1      39.435  23.530  26.410  1.00  0.00     0.202 C 
BRANCH   4   5
ATOM      5  C   UNL A   1      38.173  22.811  25.905  1.00  0.00     0.261 C 
BRANCH   5   6
ATOM      6  O   UNL A   1      37.081  23.644  25.422  1.00  0.00    -0.463 OA
BRANCH   6   7
ATOM      7  C   UNL A   1      36.161  22.995  24.671  1.00  0.00     0.311 C 
ATOM      8  O   UNL A   1      36.252  22.872  23.452  1.00  0.00    -0.252 OA
BRANCH   7   9
ATOM      9  C   UNL A   1      34.883  22.546  25.370  1.00  0.00     0.134 C 
ATOM     10  C   UNL A   1      32.267  20.696  23.406  1.00  0.00     0.147 C 
ATOM     11  N   UNL A   1      33.341  21.159  24.265  1.00  0.00    -0.339 N 
ATOM     12  C   UNL A   1      34.303  20.305  24.774  1.00  0.00     0.223 C 
ATOM     13  C   UNL A   1      33.430  22.524  24.810  1.00  0.00     0.060 C 
ATOM     14  O   UNL A   1      34.425  19.115  24.523  1.00  0.00    -0.275 OA
ATOM     15  C   UNL A   1      35.151  21.074  25.746  1.00  0.00     0.118 C 
ATOM     16  C   UNL A   1      33.021  23.581  23.767  1.00  0.00     0.051 C 
ATOM     17  C   UNL A   1      32.418  22.633  26.003  1.00  0.00     0.051 C 
ATOM     18  C   UNL A   1      32.859  24.975  24.364  1.00  0.00     0.122 C 
ATOM     19  C   UNL A   1      32.192  24.053  26.529  1.00  0.00     0.122 C 
ATOM     20  N   UNL A   1      31.902  25.007  25.463  1.00  0.00    -0.338 N 
ATOM     21  C   UNL A   1      30.935  25.999  25.728  1.00  0.00     0.256 C 
ATOM     22  O   UNL A   1      30.264  25.986  26.761  1.00  0.00    -0.269 OA
BRANCH  21  23
ATOM     23  C   UNL A   1      30.672  27.151  24.818  1.00  0.00     0.065 A 
ATOM     24  C   UNL A   1      29.693  26.930  23.829  1.00  0.00     0.016 A 
ATOM     25  C   UNL A   1      31.321  28.394  24.849  1.00  0.00     0.077 A 
ATOM     26  C   UNL A   1      29.310  27.945  22.944  1.00  0.00     0.001 A 
ATOM     27  C   UNL A   1      30.905  29.427  23.983  1.00  0.00     0.029 A 
ATOM     28  C   UNL A   1      29.907  29.199  23.031  1.00  0.00     0.002 A 
BRANCH  25  29
ATOM     29  N   UNL A   1      32.412  28.656  25.704  1.00  0.00    -0.240 N 
ATOM     30  C   UNL A   1      33.723  28.261  25.553  1.00  0.00     0.115 A 
ATOM     31  N   UNL A   1      32.248  29.392  26.836  1.00  0.00    -0.177 NA
ATOM     32  C   UNL A   1      34.400  28.676  26.674  1.00  0.00     0.042 A 
ATOM     33  C   UNL A   1      33.435  29.343  27.440  1.00  0.00     0.135 A 
ENDBRANCH  25  29
ENDBRANCH  21  23
ENDBRANCH   7   9
ENDBRANCH   6   7
ENDBRANCH   5   6
ENDBRANCH   4   5
ENDBRANCH   3   4
ENDBRANCH   2   3
ENDBRANCH   1   2
BRANCH   1  34
ATOM     34  O   UNL A   1      39.540  27.697  28.197  1.00  0.00    -0.376 OA
BRANCH  34  35
ATOM     35  C   UNL A   1      38.540  27.991  29.167  1.00  0.00     0.202 C 
BRANCH  35  36
ATOM     36  C   UNL A   1      37.615  29.094  28.624  1.00  0.00     0.261 C 
BRANCH  36  37
ATOM     37  O   UNL A   1      37.256  30.129  29.574  1.00  0.00    -0.460 OA
BRANCH  37  38
ATOM     38  C   UNL A   1      37.181  31.360  29.028  1.00  0.00     0.338 C 
ATOM     39  O   UNL A   1      36.203  31.800  28.450  1.00  0.00    -0.246 OA
BRANCH  38  40
ATOM     40  C   UNL A   1      38.326  32.223  29.362  1.00  0.00     0.060 A 
ATOM     41  C   UNL A   1      39.468  31.611  29.884  1.00  0.00     0.016 A 
ATOM     42  C   UNL A   1      38.215  33.607  29.385  1.00  0.00     0.016 A 
ATOM     43  C   UNL A   1      40.478  32.353  30.482  1.00  0.00     0.010 A 
ATOM     44  C   UNL A   1      39.255  34.366  29.944  1.00  0.00     0.010 A 
ATOM     45  C   UNL A   1      40.383  33.744  30.517  1.00  0.00    -0.014 A 
BRANCH  45  46
ATOM     46  C   UNL A   1      41.450  34.541  31.173  1.00  0.00     0.031 A 
ATOM     47  C   UNL A   1      41.425  34.764  32.658  1.00  0.00     0.074 A 
ATOM     48  C   UNL A   1      42.443  35.071  30.431  1.00  0.00     0.049 A 
ATOM     49  N   UNL A   1      42.145  35.578  33.384  1.00  0.00    -0.248 NA
ATOM     50  C   UNL A   1      40.460  33.964  33.430  1.00  0.00     0.031 C 
ATOM     51  C   UNL A   1      42.622  34.876  28.991  1.00  0.00     0.029 A 
ATOM     52  N   UNL A   1      43.471  35.910  30.784  1.00  0.00    -0.354 N 
ATOM     53  C   UNL A   1      41.684  35.434  34.687  1.00  0.00     0.074 A 
ATOM     54  C   UNL A   1      40.635  34.438  34.656  1.00  0.00     0.031 C 
ATOM     55  C   UNL A   1      43.676  35.596  28.578  1.00  0.00     0.029 A 
ATOM     56  C   UNL A   1      44.197  36.360  29.705  1.00  0.00     0.049 A 
ATOM     57  H   UNL A   1      43.668  36.164  31.715  1.00  0.00     0.167 HD
ATOM     58  C   UNL A   1      42.096  36.078  35.805  1.00  0.00     0.034 A 
ATOM     59  C   UNL A   1      45.132  37.327  29.619  1.00  0.00     0.034 A 
ATOM     60  C   UNL A   1      43.162  37.046  35.832  1.00  0.00     0.049 A 
ATOM     61  C   UNL A   1      45.528  38.072  30.862  1.00  0.00     0.074 A 
ATOM     62  C   UNL A   1      43.662  37.743  36.917  1.00  0.00     0.029 A 
ATOM     63  N   UNL A   1      43.887  37.457  34.725  1.00  0.00    -0.354 N 
ATOM     64  N   UNL A   1      45.113  37.903  32.094  1.00  0.00    -0.248 NA
ATOM     65  C   UNL A   1      46.531  39.135  30.706  1.00  0.00     0.031 C 
ATOM     66  C   UNL A   1      44.673  38.596  36.459  1.00  0.00     0.029 A 
ATOM     67  C   UNL A   1      44.821  38.409  35.094  1.00  0.00     0.049 A 
ATOM     68  H   UNL A   1      43.757  37.120  33.808  1.00  0.00     0.167 HD
ATOM     69  C   UNL A   1      45.823  38.817  32.864  1.00  0.00     0.074 A 
ATOM     70  C   UNL A   1      46.711  39.521  31.962  1.00  0.00     0.031 C 
ATOM     71  C   UNL A   1      45.734  39.065  34.194  1.00  0.00     0.034 A 
BRANCH  58  72
ATOM     72  C   UNL A   1      41.389  35.764  37.096  1.00  0.00     0.023 A 
ATOM     73  C   UNL A   1      40.219  36.466  37.446  1.00  0.00     0.012 A 
ATOM     74  C   UNL A   1      41.858  34.736  37.938  1.00  0.00     0.148 A 
ATOM     75  C   UNL A   1      39.540  36.165  38.628  1.00  0.00     0.002 A 
ATOM     76  C   UNL A   1      41.155  34.416  39.092  1.00  0.00     0.091 A 
ATOM     77  F   UNL A   1      42.988  34.099  37.599  1.00  0.00    -0.205 F 
ATOM     78  C   UNL A   1      40.001  35.135  39.444  1.00  0.00     0.022 A 
BRANCH  76  79
ATOM     79  S   UNL A   1      41.633  33.062  40.172  1.00  0.00     0.127 S 
ATOM     80  O   UNL A   1      42.877  33.570  40.748  1.00  0.00    -0.237 OA
ATOM     81  O   UNL A   1      40.509  32.999  41.106  1.00  0.00    -0.237 OA
ATOM     82  O   UNL A   1      41.773  31.894  39.313  1.00  0.00    -0.744 OA
ENDBRANCH  76  79
ENDBRANCH  58  72
BRANCH  59  83
ATOM     83  C   UNL A   1      45.739  37.654  28.299  1.00  0.00     0.023 A 
ATOM     84  C   UNL A   1      45.160  38.655  27.497  1.00  0.00     0.012 A 
ATOM     85  C   UNL A   1      46.907  37.004  27.850  1.00  0.00     0.148 A 
ATOM     86  C   UNL A   1      45.719  38.986  26.262  1.00  0.00     0.002 A 
ATOM     87  C   UNL A   1      47.493  37.380  26.649  1.00  0.00     0.091 A 
ATOM     88  F   UNL A   1      47.431  36.037  28.617  1.00  0.00    -0.205 F 
ATOM     89  C   UNL A   1      46.891  38.360  25.844  1.00  0.00     0.022 A 
BRANCH  87  90
ATOM     90  S   UNL A   1      49.075  36.726  26.105  1.00  0.00     0.127 S 
ATOM     91  O   UNL A   1      49.127  37.183  24.719  1.00  0.00    -0.237 OA
ATOM     92  O   UNL A   1      50.007  37.396  27.011  1.00  0.00    -0.237 OA
ATOM     93  O   UNL A   1      48.987  35.284  26.295  1.00  0.00    -0.744 OA
ENDBRANCH  87  90
ENDBRANCH  59  83
BRANCH  71  94
ATOM     94  C   UNL A   1      46.644  40.120  34.765  1.00  0.00     0.023 A 
ATOM     95  C   UNL A   1      47.910  39.757  35.266  1.00  0.00     0.012 A 
ATOM     96  C   UNL A   1      46.270  41.479  34.747  1.00  0.00     0.148 A 
ATOM     97  C   UNL A   1      48.776  40.726  35.771  1.00  0.00     0.002 A 
ATOM     98  C   UNL A   1      47.159  42.443  35.207  1.00  0.00     0.091 A 
ATOM     99  F   UNL A   1      45.053  41.801  34.286  1.00  0.00    -0.205 F 
ATOM    100  C   UNL A   1      48.407  42.068  35.731  1.00  0.00     0.022 A 
BRANCH  98 101
ATOM    101  S   UNL A   1      46.803  44.202  35.108  1.00  0.00     0.127 S 
ATOM    102  O   UNL A   1      46.035  44.281  33.867  1.00  0.00    -0.237 OA
ATOM    103  O   UNL A   1      46.023  44.430  36.324  1.00  0.00    -0.237 OA
ATOM    104  O   UNL A   1      48.098  44.870  35.089  1.00  0.00    -0.744 OA
ENDBRANCH  98 101
ENDBRANCH  71  94
ENDBRANCH  45  46
ENDBRANCH  38  40
ENDBRANCH  37  38
ENDBRANCH  36  37
ENDBRANCH  35  36
ENDBRANCH  34  35
ENDBRANCH   1  34
TORSDOF 22
ENDMDL
