MODEL 1
REMARK VINA RESULT:     -10.2      0.000      0.000
REMARK SMILES COc1cc(C#N)cc(I)c1OCC(=O)OCCOCCOCCOC(=O)c1ccc(-c2c3nc(c(-c4cccc(S(=O)(=O)[O-])c4F)c4ccc([nH]4)c(-c4cccc(S(=O)(=O)[O-])c4F)c4nc(c(-c5cccc(S(=O)(=O)[O-])c5F)c5ccc2[nH]5)C=C4)C=C3)cc1
REMARK SMILES IDX 20 1 19 2 18 3 17 4 16 5 14 6 15 7 13 8 12 9 11 10 3 11 4 12
REMARK SMILES IDX 5 13 9 14 8 15 10 16 2 17 1 18 6 19 7 20 21 21 22 22 23 23
REMARK SMILES IDX 24 24 25 25 26 26 27 27 28 28 29 29 90 30 30 31 89 32 31 33
REMARK SMILES IDX 32 34 33 35 83 36 34 37 88 38 82 39 84 40 35 41 87 42 81 43
REMARK SMILES IDX 80 44 36 46 68 47 48 48 67 49 49 50 52 51 66 52 85 53 50 54
REMARK SMILES IDX 51 55 65 57 86 58 53 59 37 60 38 61 46 62 39 63 41 64 47 65
REMARK SMILES IDX 40 66 42 67 43 68 44 69 45 70 69 71 70 72 78 73 71 74 73 75
REMARK SMILES IDX 79 76 72 77 74 78 75 79 76 80 77 81 54 82 55 83 63 84 56 85
REMARK SMILES IDX 58 86 64 87 57 88 59 89 60 90 61 91 62 92
REMARK H PARENT 84 45 52 56
REMARK Flexibility Score: inf
ROOT
ATOM      1  C   UNL A   1      33.322  22.516  23.761  1.00  0.00     0.188 C 
ENDROOT
BRANCH   1   2
ATOM      2  O   UNL A   1      31.989  22.854  24.042  1.00  0.00    -0.376 OA
BRANCH   2   3
ATOM      3  C   UNL A   1      31.542  22.832  25.382  1.00  0.00     0.202 C 
BRANCH   3   4
ATOM      4  C   UNL A   1      31.611  24.046  26.335  1.00  0.00     0.261 C 
BRANCH   4   5
ATOM      5  O   UNL A   1      32.713  24.974  26.213  1.00  0.00    -0.461 OA
BRANCH   5   6
ATOM      6  C   UNL A   1      32.434  26.277  26.521  1.00  0.00     0.344 C 
ATOM      7  O   UNL A   1      31.399  26.631  27.079  1.00  0.00    -0.248 OA
BRANCH   6   8
ATOM      8  C   UNL A   1      33.488  27.310  26.055  1.00  0.00     0.352 C 
BRANCH   8   9
ATOM      9  O   UNL A   1      33.366  28.135  24.920  1.00  0.00    -0.477 OA
BRANCH   9  10
ATOM     10  C   UNL A   1      32.191  28.556  24.364  1.00  0.00     0.175 A 
ATOM     11  C   UNL A   1      31.297  29.531  24.832  1.00  0.00     0.163 A 
ATOM     12  C   UNL A   1      30.221  29.953  24.020  1.00  0.00     0.070 A 
ATOM     13  C   UNL A   1      30.054  29.455  22.720  1.00  0.00     0.057 A 
ATOM     14  C   UNL A   1      31.889  27.941  23.126  1.00  0.00     0.060 A 
ATOM     15  C   UNL A   1      30.861  28.404  22.296  1.00  0.00     0.038 A 
ATOM     16  I   UNL A   1      32.950  26.248  22.446  1.00  0.00    -0.040 I 
BRANCH  11  17
ATOM     17  O   UNL A   1      31.307  29.935  26.140  1.00  0.00    -0.493 OA
ATOM     18  C   UNL A   1      32.366  30.819  26.500  1.00  0.00     0.278 C 
ENDBRANCH  11  17
BRANCH  13  19
ATOM     19  C   UNL A   1      29.076  29.993  21.818  1.00  0.00     0.099 C 
ATOM     20  N   UNL A   1      28.294  30.388  21.051  1.00  0.00    -0.192 NA
ENDBRANCH  13  19
ENDBRANCH   9  10
ENDBRANCH   8   9
ENDBRANCH   6   8
ENDBRANCH   5   6
ENDBRANCH   4   5
ENDBRANCH   3   4
ENDBRANCH   2   3
ENDBRANCH   1   2
BRANCH   1  21
ATOM     21  C   UNL A   1      34.401  22.760  24.832  1.00  0.00     0.188 C 
BRANCH  21  22
ATOM     22  O   UNL A   1      35.696  23.203  24.485  1.00  0.00    -0.376 OA
BRANCH  22  23
ATOM     23  C   UNL A   1      36.529  22.329  23.751  1.00  0.00     0.202 C 
BRANCH  23  24
ATOM     24  C   UNL A   1      37.390  21.303  24.499  1.00  0.00     0.261 C 
BRANCH  24  25
ATOM     25  O   UNL A   1      37.727  21.638  25.861  1.00  0.00    -0.460 OA
BRANCH  25  26
ATOM     26  C   UNL A   1      39.048  21.546  26.165  1.00  0.00     0.338 C 
ATOM     27  O   UNL A   1      39.797  20.635  25.854  1.00  0.00    -0.246 OA
BRANCH  26  28
ATOM     28  C   UNL A   1      39.546  22.761  26.843  1.00  0.00     0.060 A 
ATOM     29  C   UNL A   1      40.637  22.711  27.703  1.00  0.00     0.016 A 
ATOM     30  C   UNL A   1      39.049  24.002  26.447  1.00  0.00     0.016 A 
ATOM     31  C   UNL A   1      41.197  23.909  28.181  1.00  0.00     0.010 A 
ATOM     32  C   UNL A   1      39.656  25.190  26.858  1.00  0.00     0.010 A 
ATOM     33  C   UNL A   1      40.721  25.167  27.758  1.00  0.00    -0.014 A 
BRANCH  33  34
ATOM     34  C   UNL A   1      41.355  26.437  28.220  1.00  0.00     0.031 A 
ATOM     35  C   UNL A   1      42.787  26.784  27.869  1.00  0.00     0.074 A 
ATOM     36  C   UNL A   1      40.649  27.287  28.994  1.00  0.00     0.049 A 
ATOM     37  N   UNL A   1      43.416  27.921  28.030  1.00  0.00    -0.248 NA
ATOM     38  C   UNL A   1      43.633  25.724  27.290  1.00  0.00     0.031 C 
ATOM     39  C   UNL A   1      39.322  27.014  29.553  1.00  0.00     0.029 A 
ATOM     40  N   UNL A   1      40.935  28.558  29.434  1.00  0.00    -0.354 N 
ATOM     41  C   UNL A   1      44.714  27.715  27.573  1.00  0.00     0.074 A 
ATOM     42  C   UNL A   1      44.810  26.327  27.188  1.00  0.00     0.031 C 
ATOM     43  C   UNL A   1      38.884  28.104  30.203  1.00  0.00     0.029 A 
ATOM     44  C   UNL A   1      39.896  29.153  30.114  1.00  0.00     0.049 A 
ATOM     45  H   UNL A   1      41.801  29.000  29.277  1.00  0.00     0.167 HD
ATOM     46  C   UNL A   1      45.720  28.610  27.434  1.00  0.00     0.034 A 
ATOM     47  C   UNL A   1      39.755  30.411  30.580  1.00  0.00     0.034 A 
ATOM     48  C   UNL A   1      45.607  30.000  27.774  1.00  0.00     0.049 A 
ATOM     49  C   UNL A   1      40.849  31.412  30.344  1.00  0.00     0.074 A 
ATOM     50  C   UNL A   1      46.526  31.012  27.558  1.00  0.00     0.029 A 
ATOM     51  N   UNL A   1      44.517  30.573  28.404  1.00  0.00    -0.354 N 
ATOM     52  N   UNL A   1      41.989  31.247  29.718  1.00  0.00    -0.248 NA
ATOM     53  C   UNL A   1      40.631  32.779  30.843  1.00  0.00     0.031 C 
ATOM     54  C   UNL A   1      46.001  32.194  28.083  1.00  0.00     0.029 A 
ATOM     55  C   UNL A   1      44.745  31.921  28.602  1.00  0.00     0.049 A 
ATOM     56  H   UNL A   1      43.701  30.092  28.673  1.00  0.00     0.167 HD
ATOM     57  C   UNL A   1      42.617  32.487  29.736  1.00  0.00     0.074 A 
ATOM     58  C   UNL A   1      41.724  33.401  30.416  1.00  0.00     0.031 C 
ATOM     59  C   UNL A   1      43.832  32.827  29.245  1.00  0.00     0.034 A 
BRANCH  46  60
ATOM     60  C   UNL A   1      47.006  28.160  26.790  1.00  0.00     0.023 A 
ATOM     61  C   UNL A   1      48.025  27.632  27.609  1.00  0.00     0.012 A 
ATOM     62  C   UNL A   1      47.149  28.118  25.390  1.00  0.00     0.148 A 
ATOM     63  C   UNL A   1      49.170  27.072  27.045  1.00  0.00     0.002 A 
ATOM     64  C   UNL A   1      48.283  27.534  24.834  1.00  0.00     0.091 A 
ATOM     65  F   UNL A   1      46.166  28.625  24.633  1.00  0.00    -0.205 F 
ATOM     66  C   UNL A   1      49.293  27.012  25.659  1.00  0.00     0.022 A 
BRANCH  64  67
ATOM     67  S   UNL A   1      48.531  27.369  23.062  1.00  0.00     0.127 S 
ATOM     68  O   UNL A   1      48.364  25.927  22.876  1.00  0.00    -0.237 OA
ATOM     69  O   UNL A   1      47.443  28.184  22.523  1.00  0.00    -0.237 OA
ATOM     70  O   UNL A   1      49.871  27.870  22.792  1.00  0.00    -0.744 OA
ENDBRANCH  64  67
ENDBRANCH  46  60
BRANCH  47  71
ATOM     71  C   UNL A   1      38.472  30.808  31.226  1.00  0.00     0.023 A 
ATOM     72  C   UNL A   1      38.301  30.606  32.610  1.00  0.00     0.012 A 
ATOM     73  C   UNL A   1      37.457  31.449  30.492  1.00  0.00     0.148 A 
ATOM     74  C   UNL A   1      37.138  31.035  33.251  1.00  0.00     0.002 A 
ATOM     75  C   UNL A   1      36.315  31.902  31.143  1.00  0.00     0.091 A 
ATOM     76  F   UNL A   1      37.644  31.627  29.177  1.00  0.00    -0.205 F 
ATOM     77  C   UNL A   1      36.150  31.692  32.520  1.00  0.00     0.022 A 
BRANCH  75  78
ATOM     78  S   UNL A   1      35.020  32.821  30.303  1.00  0.00     0.127 S 
ATOM     79  O   UNL A   1      34.064  33.043  31.386  1.00  0.00    -0.237 OA
ATOM     80  O   UNL A   1      35.739  34.016  29.861  1.00  0.00    -0.237 OA
ATOM     81  O   UNL A   1      34.554  31.958  29.226  1.00  0.00    -0.744 OA
ENDBRANCH  75  78
ENDBRANCH  47  71
BRANCH  59  82
ATOM     82  C   UNL A   1      44.302  34.244  29.411  1.00  0.00     0.023 A 
ATOM     83  C   UNL A   1      45.338  34.522  30.323  1.00  0.00     0.012 A 
ATOM     84  C   UNL A   1      43.843  35.256  28.545  1.00  0.00     0.148 A 
ATOM     85  C   UNL A   1      45.915  35.790  30.368  1.00  0.00     0.002 A 
ATOM     86  C   UNL A   1      44.443  36.508  28.574  1.00  0.00     0.091 A 
ATOM     87  F   UNL A   1      42.859  34.959  27.683  1.00  0.00    -0.205 F 
ATOM     88  C   UNL A   1      45.479  36.776  29.486  1.00  0.00     0.022 A 
BRANCH  86  89
ATOM     89  S   UNL A   1      43.997  37.826  27.439  1.00  0.00     0.127 S 
ATOM     90  O   UNL A   1      43.045  37.149  26.559  1.00  0.00    -0.237 OA
ATOM     91  O   UNL A   1      43.404  38.817  28.334  1.00  0.00    -0.237 OA
ATOM     92  O   UNL A   1      45.236  38.244  26.796  1.00  0.00    -0.744 OA
ENDBRANCH  86  89
ENDBRANCH  59  82
ENDBRANCH  33  34
ENDBRANCH  26  28
ENDBRANCH  25  26
ENDBRANCH  24  25
ENDBRANCH  23  24
ENDBRANCH  22  23
ENDBRANCH  21  22
ENDBRANCH   1  21
TORSDOF 24
ENDMDL
MODEL 2
REMARK VINA RESULT:      -9.9      1.516      2.013
REMARK SMILES COc1cc(C#N)cc(I)c1OCC(=O)OCCOCCOCCOC(=O)c1ccc(-c2c3nc(c(-c4cccc(S(=O)(=O)[O-])c4F)c4ccc([nH]4)c(-c4cccc(S(=O)(=O)[O-])c4F)c4nc(c(-c5cccc(S(=O)(=O)[O-])c5F)c5ccc2[nH]5)C=C4)C=C3)cc1
REMARK SMILES IDX 20 1 19 2 18 3 17 4 16 5 14 6 15 7 13 8 12 9 11 10 3 11 4 12
REMARK SMILES IDX 5 13 9 14 8 15 10 16 2 17 1 18 6 19 7 20 21 21 22 22 23 23
REMARK SMILES IDX 24 24 25 25 26 26 27 27 28 28 29 29 90 30 30 31 89 32 31 33
REMARK SMILES IDX 32 34 33 35 83 36 34 37 88 38 82 39 84 40 35 41 87 42 81 43
REMARK SMILES IDX 80 44 36 46 68 47 48 48 67 49 49 50 52 51 66 52 85 53 50 54
REMARK SMILES IDX 51 55 65 57 86 58 53 59 37 60 38 61 46 62 39 63 41 64 47 65
REMARK SMILES IDX 40 66 42 67 43 68 44 69 45 70 69 71 70 72 78 73 71 74 73 75
REMARK SMILES IDX 79 76 72 77 74 78 75 79 76 80 77 81 54 82 55 83 63 84 56 85
REMARK SMILES IDX 58 86 64 87 57 88 59 89 60 90 61 91 62 92
REMARK H PARENT 84 45 52 56
REMARK Flexibility Score: inf
ROOT
ATOM      1  C   UNL A   1      33.412  22.632  23.758  1.00  0.00     0.188 C 
ENDROOT
BRANCH   1   2
ATOM      2  O   UNL A   1      32.032  22.726  23.997  1.00  0.00    -0.376 OA
BRANCH   2   3
ATOM      3  C   UNL A   1      31.556  22.630  25.323  1.00  0.00     0.202 C 
BRANCH   3   4
ATOM      4  C   UNL A   1      31.469  23.825  26.298  1.00  0.00     0.261 C 
BRANCH   4   5
ATOM      5  O   UNL A   1      32.475  24.863  26.230  1.00  0.00    -0.461 OA
BRANCH   5   6
ATOM      6  C   UNL A   1      32.061  26.119  26.579  1.00  0.00     0.344 C 
ATOM      7  O   UNL A   1      30.896  26.392  26.857  1.00  0.00    -0.248 OA
BRANCH   6   8
ATOM      8  C   UNL A   1      33.154  27.214  26.535  1.00  0.00     0.352 C 
BRANCH   8   9
ATOM      9  O   UNL A   1      33.409  28.060  25.438  1.00  0.00    -0.477 OA
BRANCH   9  10
ATOM     10  C   UNL A   1      32.507  28.403  24.471  1.00  0.00     0.175 A 
ATOM     11  C   UNL A   1      32.290  27.805  23.221  1.00  0.00     0.163 A 
ATOM     12  C   UNL A   1      31.185  28.195  22.431  1.00  0.00     0.070 A 
ATOM     13  C   UNL A   1      30.259  29.139  22.896  1.00  0.00     0.057 A 
ATOM     14  C   UNL A   1      31.663  29.480  24.829  1.00  0.00     0.060 A 
ATOM     15  C   UNL A   1      30.533  29.822  24.077  1.00  0.00     0.038 A 
ATOM     16  I   UNL A   1      32.061  30.682  26.519  1.00  0.00    -0.040 I 
BRANCH  11  17
ATOM     17  O   UNL A   1      33.237  27.004  22.641  1.00  0.00    -0.493 OA
ATOM     18  C   UNL A   1      32.806  26.282  21.490  1.00  0.00     0.278 C 
ENDBRANCH  11  17
BRANCH  13  19
ATOM     19  C   UNL A   1      29.040  29.422  22.191  1.00  0.00     0.099 C 
ATOM     20  N   UNL A   1      28.083  29.673  21.579  1.00  0.00    -0.192 NA
ENDBRANCH  13  19
ENDBRANCH   9  10
ENDBRANCH   8   9
ENDBRANCH   6   8
ENDBRANCH   5   6
ENDBRANCH   4   5
ENDBRANCH   3   4
ENDBRANCH   2   3
ENDBRANCH   1   2
BRANCH   1  21
ATOM     21  C   UNL A   1      34.384  22.660  24.951  1.00  0.00     0.188 C 
BRANCH  21  22
ATOM     22  O   UNL A   1      35.709  23.128  24.810  1.00  0.00    -0.376 OA
BRANCH  22  23
ATOM     23  C   UNL A   1      36.591  22.403  23.978  1.00  0.00     0.202 C 
BRANCH  23  24
ATOM     24  C   UNL A   1      37.572  21.405  24.606  1.00  0.00     0.261 C 
BRANCH  24  25
ATOM     25  O   UNL A   1      37.951  21.671  25.973  1.00  0.00    -0.460 OA
BRANCH  25  26
ATOM     26  C   UNL A   1      39.288  21.654  26.211  1.00  0.00     0.338 C 
ATOM     27  O   UNL A   1      40.075  20.798  25.845  1.00  0.00    -0.246 OA
BRANCH  26  28
ATOM     28  C   UNL A   1      39.744  22.885  26.891  1.00  0.00     0.060 A 
ATOM     29  C   UNL A   1      40.811  22.864  27.781  1.00  0.00     0.016 A 
ATOM     30  C   UNL A   1      39.236  24.113  26.469  1.00  0.00     0.016 A 
ATOM     31  C   UNL A   1      41.335  24.076  28.263  1.00  0.00     0.010 A 
ATOM     32  C   UNL A   1      39.808  25.316  26.886  1.00  0.00     0.010 A 
ATOM     33  C   UNL A   1      40.848  25.322  27.815  1.00  0.00    -0.014 A 
BRANCH  33  34
ATOM     34  C   UNL A   1      41.445  26.607  28.283  1.00  0.00     0.031 A 
ATOM     35  C   UNL A   1      42.881  26.975  27.975  1.00  0.00     0.074 A 
ATOM     36  C   UNL A   1      40.698  27.455  29.021  1.00  0.00     0.049 A 
ATOM     37  N   UNL A   1      43.486  28.124  28.143  1.00  0.00    -0.248 NA
ATOM     38  C   UNL A   1      43.764  25.923  27.439  1.00  0.00     0.031 C 
ATOM     39  C   UNL A   1      39.358  27.165  29.540  1.00  0.00     0.029 A 
ATOM     40  N   UNL A   1      40.948  28.734  29.455  1.00  0.00    -0.354 N 
ATOM     41  C   UNL A   1      44.802  27.934  27.733  1.00  0.00     0.074 A 
ATOM     42  C   UNL A   1      44.934  26.544  27.368  1.00  0.00     0.031 C 
ATOM     43  C   UNL A   1      38.881  28.255  30.160  1.00  0.00     0.029 A 
ATOM     44  C   UNL A   1      39.877  29.320  30.093  1.00  0.00     0.049 A 
ATOM     45  H   UNL A   1      41.811  29.190  29.322  1.00  0.00     0.167 HD
ATOM     46  C   UNL A   1      45.796  28.845  27.617  1.00  0.00     0.034 A 
ATOM     47  C   UNL A   1      39.699  30.580  30.539  1.00  0.00     0.034 A 
ATOM     48  C   UNL A   1      45.649  30.237  27.935  1.00  0.00     0.049 A 
ATOM     49  C   UNL A   1      40.784  31.598  30.326  1.00  0.00     0.074 A 
ATOM     50  C   UNL A   1      46.558  31.261  27.738  1.00  0.00     0.029 A 
ATOM     51  N   UNL A   1      44.529  30.798  28.522  1.00  0.00    -0.354 N 
ATOM     52  N   UNL A   1      41.947  31.444  29.742  1.00  0.00    -0.248 NA
ATOM     53  C   UNL A   1      40.526  32.966  30.801  1.00  0.00     0.031 C 
ATOM     54  C   UNL A   1      45.996  32.441  28.230  1.00  0.00     0.029 A 
ATOM     55  C   UNL A   1      44.728  32.152  28.710  1.00  0.00     0.049 A 
ATOM     56  H   UNL A   1      43.712  30.307  28.769  1.00  0.00     0.167 HD
ATOM     57  C   UNL A   1      42.554  32.695  29.765  1.00  0.00     0.074 A 
ATOM     58  C   UNL A   1      41.623  33.602  30.404  1.00  0.00     0.031 C 
ATOM     59  C   UNL A   1      43.779  33.050  29.311  1.00  0.00     0.034 A 
BRANCH  46  60
ATOM     60  C   UNL A   1      47.111  28.410  27.022  1.00  0.00     0.023 A 
ATOM     61  C   UNL A   1      48.191  28.143  27.887  1.00  0.00     0.012 A 
ATOM     62  C   UNL A   1      47.235  28.122  25.649  1.00  0.00     0.148 A 
ATOM     63  C   UNL A   1      49.378  27.602  27.396  1.00  0.00     0.002 A 
ATOM     64  C   UNL A   1      48.413  27.558  25.170  1.00  0.00     0.091 A 
ATOM     65  F   UNL A   1      46.193  28.383  24.846  1.00  0.00    -0.205 F 
ATOM     66  C   UNL A   1      49.484  27.298  26.042  1.00  0.00     0.022 A 
BRANCH  64  67
ATOM     67  S   UNL A   1      48.647  27.091  23.451  1.00  0.00     0.127 S 
ATOM     68  O   UNL A   1      50.099  26.914  23.391  1.00  0.00    -0.237 OA
ATOM     69  O   UNL A   1      47.877  25.853  23.362  1.00  0.00    -0.237 OA
ATOM     70  O   UNL A   1      48.132  28.198  22.657  1.00  0.00    -0.744 OA
ENDBRANCH  64  67
ENDBRANCH  46  60
BRANCH  47  71
ATOM     71  C   UNL A   1      38.389  30.963  31.136  1.00  0.00     0.023 A 
ATOM     72  C   UNL A   1      38.148  30.707  32.500  1.00  0.00     0.012 A 
ATOM     73  C   UNL A   1      37.416  31.644  30.380  1.00  0.00     0.148 A 
ATOM     74  C   UNL A   1      36.958  31.120  33.101  1.00  0.00     0.002 A 
ATOM     75  C   UNL A   1      36.247  32.080  30.991  1.00  0.00     0.091 A 
ATOM     76  F   UNL A   1      37.671  31.873  29.084  1.00  0.00    -0.205 F 
ATOM     77  C   UNL A   1      36.013  31.816  32.350  1.00  0.00     0.022 A 
BRANCH  75  78
ATOM     78  S   UNL A   1      35.003  33.045  30.127  1.00  0.00     0.127 S 
ATOM     79  O   UNL A   1      35.811  34.108  29.533  1.00  0.00    -0.237 OA
ATOM     80  O   UNL A   1      34.474  32.068  29.175  1.00  0.00    -0.237 OA
ATOM     81  O   UNL A   1      34.055  33.477  31.146  1.00  0.00    -0.744 OA
ENDBRANCH  75  78
ENDBRANCH  47  71
BRANCH  59  82
ATOM     82  C   UNL A   1      44.219  34.477  29.475  1.00  0.00     0.023 A 
ATOM     83  C   UNL A   1      43.889  35.416  28.480  1.00  0.00     0.012 A 
ATOM     84  C   UNL A   1      44.800  34.913  30.682  1.00  0.00     0.148 A 
ATOM     85  C   UNL A   1      44.125  36.774  28.687  1.00  0.00     0.002 A 
ATOM     86  C   UNL A   1      45.005  36.269  30.894  1.00  0.00     0.091 A 
ATOM     87  F   UNL A   1      45.098  33.994  31.613  1.00  0.00    -0.205 F 
ATOM     88  C   UNL A   1      44.668  37.202  29.897  1.00  0.00     0.022 A 
BRANCH  86  89
ATOM     89  S   UNL A   1      45.640  36.926  32.440  1.00  0.00     0.127 S 
ATOM     90  O   UNL A   1      44.675  36.399  33.405  1.00  0.00    -0.237 OA
ATOM     91  O   UNL A   1      46.968  36.319  32.510  1.00  0.00    -0.237 OA
ATOM     92  O   UNL A   1      45.636  38.376  32.298  1.00  0.00    -0.744 OA
ENDBRANCH  86  89
ENDBRANCH  59  82
ENDBRANCH  33  34
ENDBRANCH  26  28
ENDBRANCH  25  26
ENDBRANCH  24  25
ENDBRANCH  23  24
ENDBRANCH  22  23
ENDBRANCH  21  22
ENDBRANCH   1  21
TORSDOF 24
ENDMDL
MODEL 3
REMARK VINA RESULT:      -9.5      1.889      2.393
REMARK SMILES COc1cc(C#N)cc(I)c1OCC(=O)OCCOCCOCCOC(=O)c1ccc(-c2c3nc(c(-c4cccc(S(=O)(=O)[O-])c4F)c4ccc([nH]4)c(-c4cccc(S(=O)(=O)[O-])c4F)c4nc(c(-c5cccc(S(=O)(=O)[O-])c5F)c5ccc2[nH]5)C=C4)C=C3)cc1
REMARK SMILES IDX 20 1 19 2 18 3 17 4 16 5 14 6 15 7 13 8 12 9 11 10 3 11 4 12
REMARK SMILES IDX 5 13 9 14 8 15 10 16 2 17 1 18 6 19 7 20 21 21 22 22 23 23
REMARK SMILES IDX 24 24 25 25 26 26 27 27 28 28 29 29 90 30 30 31 89 32 31 33
REMARK SMILES IDX 32 34 33 35 83 36 34 37 88 38 82 39 84 40 35 41 87 42 81 43
REMARK SMILES IDX 80 44 36 46 68 47 48 48 67 49 49 50 52 51 66 52 85 53 50 54
REMARK SMILES IDX 51 55 65 57 86 58 53 59 37 60 38 61 46 62 39 63 41 64 47 65
REMARK SMILES IDX 40 66 42 67 43 68 44 69 45 70 69 71 70 72 78 73 71 74 73 75
REMARK SMILES IDX 79 76 72 77 74 78 75 79 76 80 77 81 54 82 55 83 63 84 56 85
REMARK SMILES IDX 58 86 64 87 57 88 59 89 60 90 61 91 62 92
REMARK H PARENT 84 45 52 56
REMARK Flexibility Score: inf
ROOT
ATOM      1  C   UNL A   1      33.486  22.580  23.791  1.00  0.00     0.188 C 
ENDROOT
BRANCH   1   2
ATOM      2  O   UNL A   1      32.112  22.584  24.076  1.00  0.00    -0.376 OA
BRANCH   2   3
ATOM      3  C   UNL A   1      31.677  22.996  25.356  1.00  0.00     0.202 C 
BRANCH   3   4
ATOM      4  C   UNL A   1      31.053  24.379  25.652  1.00  0.00     0.261 C 
BRANCH   4   5
ATOM      5  O   UNL A   1      31.202  25.439  24.680  1.00  0.00    -0.461 OA
BRANCH   5   6
ATOM      6  C   UNL A   1      30.114  26.250  24.509  1.00  0.00     0.344 C 
ATOM      7  O   UNL A   1      29.135  26.229  25.251  1.00  0.00    -0.248 OA
BRANCH   6   8
ATOM      8  C   UNL A   1      30.157  27.165  23.261  1.00  0.00     0.352 C 
BRANCH   8   9
ATOM      9  O   UNL A   1      30.930  28.337  23.143  1.00  0.00    -0.477 OA
BRANCH   9  10
ATOM     10  C   UNL A   1      31.876  28.760  24.034  1.00  0.00     0.175 A 
ATOM     11  C   UNL A   1      31.771  29.751  25.022  1.00  0.00     0.163 A 
ATOM     12  C   UNL A   1      32.808  29.921  25.967  1.00  0.00     0.070 A 
ATOM     13  C   UNL A   1      33.928  29.077  25.975  1.00  0.00     0.057 A 
ATOM     14  C   UNL A   1      33.097  28.050  23.955  1.00  0.00     0.060 A 
ATOM     15  C   UNL A   1      34.095  28.175  24.928  1.00  0.00     0.038 A 
ATOM     16  I   UNL A   1      33.524  26.764  22.336  1.00  0.00    -0.040 I 
BRANCH  11  17
ATOM     17  O   UNL A   1      30.791  30.706  24.971  1.00  0.00    -0.493 OA
ATOM     18  C   UNL A   1      30.793  31.642  26.046  1.00  0.00     0.278 C 
ENDBRANCH  11  17
BRANCH  13  19
ATOM     19  C   UNL A   1      34.905  29.118  27.025  1.00  0.00     0.099 C 
ATOM     20  N   UNL A   1      35.711  29.202  27.861  1.00  0.00    -0.192 NA
ENDBRANCH  13  19
ENDBRANCH   9  10
ENDBRANCH   8   9
ENDBRANCH   6   8
ENDBRANCH   5   6
ENDBRANCH   4   5
ENDBRANCH   3   4
ENDBRANCH   2   3
ENDBRANCH   1   2
BRANCH   1  21
ATOM     21  C   UNL A   1      34.490  22.851  24.925  1.00  0.00     0.188 C 
BRANCH  21  22
ATOM     22  O   UNL A   1      35.819  23.241  24.654  1.00  0.00    -0.376 OA
BRANCH  22  23
ATOM     23  C   UNL A   1      36.627  22.379  23.879  1.00  0.00     0.202 C 
BRANCH  23  24
ATOM     24  C   UNL A   1      37.536  21.364  24.583  1.00  0.00     0.261 C 
BRANCH  24  25
ATOM     25  O   UNL A   1      37.897  21.678  25.943  1.00  0.00    -0.460 OA
BRANCH  25  26
ATOM     26  C   UNL A   1      39.230  21.651  26.204  1.00  0.00     0.338 C 
ATOM     27  O   UNL A   1      40.016  20.788  25.852  1.00  0.00    -0.246 OA
BRANCH  26  28
ATOM     28  C   UNL A   1      39.685  22.879  26.890  1.00  0.00     0.060 A 
ATOM     29  C   UNL A   1      40.761  22.856  27.770  1.00  0.00     0.016 A 
ATOM     30  C   UNL A   1      39.165  24.107  26.484  1.00  0.00     0.016 A 
ATOM     31  C   UNL A   1      41.282  24.068  28.258  1.00  0.00     0.010 A 
ATOM     32  C   UNL A   1      39.734  25.310  26.906  1.00  0.00     0.010 A 
ATOM     33  C   UNL A   1      40.782  25.314  27.826  1.00  0.00    -0.014 A 
BRANCH  33  34
ATOM     34  C   UNL A   1      41.376  26.599  28.299  1.00  0.00     0.031 A 
ATOM     35  C   UNL A   1      42.824  26.952  28.032  1.00  0.00     0.074 A 
ATOM     36  C   UNL A   1      40.614  27.460  29.007  1.00  0.00     0.049 A 
ATOM     37  N   UNL A   1      43.433  28.098  28.207  1.00  0.00    -0.248 NA
ATOM     38  C   UNL A   1      43.713  25.888  27.532  1.00  0.00     0.031 C 
ATOM     39  C   UNL A   1      39.257  27.186  29.487  1.00  0.00     0.029 A 
ATOM     40  N   UNL A   1      40.862  28.742  29.436  1.00  0.00    -0.354 N 
ATOM     41  C   UNL A   1      44.759  27.894  27.839  1.00  0.00     0.074 A 
ATOM     42  C   UNL A   1      44.890  26.499  27.491  1.00  0.00     0.031 C 
ATOM     43  C   UNL A   1      38.770  28.286  30.083  1.00  0.00     0.029 A 
ATOM     44  C   UNL A   1      39.777  29.342  30.035  1.00  0.00     0.049 A 
ATOM     45  H   UNL A   1      41.732  29.189  29.325  1.00  0.00     0.167 HD
ATOM     46  C   UNL A   1      45.764  28.795  27.744  1.00  0.00     0.034 A 
ATOM     47  C   UNL A   1      39.596  30.608  30.464  1.00  0.00     0.034 A 
ATOM     48  C   UNL A   1      45.619  30.192  28.044  1.00  0.00     0.049 A 
ATOM     49  C   UNL A   1      40.696  31.615  30.275  1.00  0.00     0.074 A 
ATOM     50  C   UNL A   1      46.542  31.207  27.865  1.00  0.00     0.029 A 
ATOM     51  N   UNL A   1      44.486  30.767  28.591  1.00  0.00    -0.354 N 
ATOM     52  N   UNL A   1      41.874  31.446  29.727  1.00  0.00    -0.248 NA
ATOM     53  C   UNL A   1      40.435  32.990  30.728  1.00  0.00     0.031 C 
ATOM     54  C   UNL A   1      45.975  32.395  28.329  1.00  0.00     0.029 A 
ATOM     55  C   UNL A   1      44.690  32.121  28.773  1.00  0.00     0.049 A 
ATOM     56  H   UNL A   1      43.658  30.285  28.819  1.00  0.00     0.167 HD
ATOM     57  C   UNL A   1      42.490  32.692  29.757  1.00  0.00     0.074 A 
ATOM     58  C   UNL A   1      41.548  33.612  30.358  1.00  0.00     0.031 C 
ATOM     59  C   UNL A   1      43.731  33.033  29.337  1.00  0.00     0.034 A 
BRANCH  46  60
ATOM     60  C   UNL A   1      47.092  28.344  27.193  1.00  0.00     0.023 A 
ATOM     61  C   UNL A   1      48.134  28.047  28.095  1.00  0.00     0.012 A 
ATOM     62  C   UNL A   1      47.263  28.071  25.822  1.00  0.00     0.148 A 
ATOM     63  C   UNL A   1      49.328  27.490  27.642  1.00  0.00     0.002 A 
ATOM     64  C   UNL A   1      48.448  27.492  25.381  1.00  0.00     0.091 A 
ATOM     65  F   UNL A   1      46.257  28.361  24.984  1.00  0.00    -0.205 F 
ATOM     66  C   UNL A   1      49.481  27.201  26.289  1.00  0.00     0.022 A 
BRANCH  64  67
ATOM     67  S   UNL A   1      48.739  27.043  23.666  1.00  0.00     0.127 S 
ATOM     68  O   UNL A   1      50.184  26.810  23.664  1.00  0.00    -0.237 OA
ATOM     69  O   UNL A   1      47.927  25.836  23.523  1.00  0.00    -0.237 OA
ATOM     70  O   UNL A   1      48.302  28.180  22.869  1.00  0.00    -0.744 OA
ENDBRANCH  64  67
ENDBRANCH  46  60
BRANCH  47  71
ATOM     71  C   UNL A   1      38.272  31.007  31.017  1.00  0.00     0.023 A 
ATOM     72  C   UNL A   1      38.001  30.799  32.384  1.00  0.00     0.012 A 
ATOM     73  C   UNL A   1      37.315  31.657  30.216  1.00  0.00     0.148 A 
ATOM     74  C   UNL A   1      36.796  31.229  32.942  1.00  0.00     0.002 A 
ATOM     75  C   UNL A   1      36.130  32.111  30.785  1.00  0.00     0.091 A 
ATOM     76  F   UNL A   1      37.597  31.841  28.919  1.00  0.00    -0.205 F 
ATOM     77  C   UNL A   1      35.866  31.894  32.146  1.00  0.00     0.022 A 
BRANCH  75  78
ATOM     78  S   UNL A   1      34.903  33.040  29.859  1.00  0.00     0.127 S 
ATOM     79  O   UNL A   1      35.743  33.958  29.092  1.00  0.00    -0.237 OA
ATOM     80  O   UNL A   1      34.262  31.987  29.071  1.00  0.00    -0.237 OA
ATOM     81  O   UNL A   1      34.043  33.665  30.855  1.00  0.00    -0.744 OA
ENDBRANCH  75  78
ENDBRANCH  47  71
BRANCH  59  82
ATOM     82  C   UNL A   1      44.179  34.458  29.500  1.00  0.00     0.023 A 
ATOM     83  C   UNL A   1      43.845  35.400  28.509  1.00  0.00     0.012 A 
ATOM     84  C   UNL A   1      44.769  34.889  30.705  1.00  0.00     0.148 A 
ATOM     85  C   UNL A   1      44.088  36.757  28.717  1.00  0.00     0.002 A 
ATOM     86  C   UNL A   1      44.981  36.244  30.917  1.00  0.00     0.091 A 
ATOM     87  F   UNL A   1      45.070  33.967  31.632  1.00  0.00    -0.205 F 
ATOM     88  C   UNL A   1      44.641  37.180  29.924  1.00  0.00     0.022 A 
BRANCH  86  89
ATOM     89  S   UNL A   1      45.629  36.895  32.460  1.00  0.00     0.127 S 
ATOM     90  O   UNL A   1      44.688  36.342  33.434  1.00  0.00    -0.237 OA
ATOM     91  O   UNL A   1      46.968  36.310  32.504  1.00  0.00    -0.237 OA
ATOM     92  O   UNL A   1      45.599  38.346  32.334  1.00  0.00    -0.744 OA
ENDBRANCH  86  89
ENDBRANCH  59  82
ENDBRANCH  33  34
ENDBRANCH  26  28
ENDBRANCH  25  26
ENDBRANCH  24  25
ENDBRANCH  23  24
ENDBRANCH  22  23
ENDBRANCH  21  22
ENDBRANCH   1  21
TORSDOF 24
ENDMDL
