MODEL 1
REMARK VINA RESULT:      -7.4      0.000      0.000
REMARK SMILES COc1ccc(F)cc1[C@@H](C(=O)OCCOCCOCCOC(=O)c1ccc(-c2c3nc(c(-c4cccc(S(=O)(=O)[O-])c4F)c4ccc([nH]4)c(-c4cccc(S(=O)(=O)[O-])c4F)c4nc(c(-c5cccc(S(=O)(=O)[O-])c5F)c5ccc2[nH]5)C=C4)C=C3)cc1)[N@@H+](C)CCn1ccnc1C
REMARK SMILES IDX 17 1 16 2 15 3 14 4 13 5 11 6 12 7 10 8 9 9 3 10 4 11 5 12
REMARK SMILES IDX 8 13 6 14 7 15 2 16 1 17 88 18 89 19 90 21 91 22 92 23 93 24
REMARK SMILES IDX 96 25 94 26 95 27 97 28 18 29 19 30 20 31 21 32 22 33 23 34
REMARK SMILES IDX 24 35 25 36 26 37 87 38 27 39 86 40 28 41 29 42 30 43 80 44
REMARK SMILES IDX 31 45 85 46 79 47 81 48 32 49 84 50 78 51 77 52 33 54 65 55
REMARK SMILES IDX 45 56 64 57 46 58 49 59 63 60 82 61 47 62 48 63 62 65 83 66
REMARK SMILES IDX 50 67 34 68 35 69 43 70 36 71 38 72 44 73 37 74 39 75 40 76
REMARK SMILES IDX 41 77 42 78 66 79 67 80 75 81 68 82 70 83 76 84 69 85 71 86
REMARK SMILES IDX 72 87 73 88 74 89 51 90 52 91 60 92 53 93 55 94 61 95 54 96
REMARK SMILES IDX 56 97 57 98 58 99 59 100
REMARK H PARENT 88 20 81 53 49 64
REMARK Flexibility Score: inf
ROOT
ATOM      1  C   UNL A   1      48.257  25.853  23.677  1.00  0.00     0.188 C 
ENDROOT
BRANCH   1   2
ATOM      2  O   UNL A   1      47.242  24.850  23.938  1.00  0.00    -0.376 OA
BRANCH   2   3
ATOM      3  C   UNL A   1      46.322  24.522  24.999  1.00  0.00     0.202 C 
BRANCH   3   4
ATOM      4  C   UNL A   1      44.733  24.481  25.010  1.00  0.00     0.261 C 
BRANCH   4   5
ATOM      5  O   UNL A   1      44.185  23.373  25.774  1.00  0.00    -0.459 OA
BRANCH   5   6
ATOM      6  C   UNL A   1      44.541  22.974  27.043  1.00  0.00     0.370 C 
ATOM      7  O   UNL A   1      45.704  22.955  27.431  1.00  0.00    -0.245 OA
BRANCH   6   8
ATOM      8  C   UNL A   1      43.256  22.790  27.990  1.00  0.00     0.330 C 
BRANCH   8   9
ATOM      9  C   UNL A   1      41.776  22.809  27.516  1.00  0.00     0.066 A 
ATOM     10  C   UNL A   1      41.201  21.809  26.713  1.00  0.00     0.128 A 
ATOM     11  C   UNL A   1      39.881  21.965  26.223  1.00  0.00     0.050 A 
ATOM     12  C   UNL A   1      39.127  23.108  26.499  1.00  0.00     0.043 A 
ATOM     13  C   UNL A   1      40.907  23.875  27.901  1.00  0.00     0.053 A 
ATOM     14  C   UNL A   1      39.645  24.052  27.354  1.00  0.00     0.124 A 
ATOM     15  F   UNL A   1      38.949  25.161  27.638  1.00  0.00    -0.207 F 
BRANCH  10  16
ATOM     16  O   UNL A   1      41.984  20.723  26.437  1.00  0.00    -0.496 OA
ATOM     17  C   UNL A   1      41.277  19.528  26.127  1.00  0.00     0.278 C 
ENDBRANCH  10  16
ENDBRANCH   8   9
BRANCH   8  18
ATOM     18  N   UNL A   1      43.375  23.745  29.110  1.00  0.00    -0.320 N 
ATOM     19  C   UNL A   1      43.808  23.069  30.341  1.00  0.00     0.333 C 
ATOM     20  H   UNL A   1      42.436  24.102  29.284  1.00  0.00     0.348 HD
BRANCH  18  21
ATOM     21  C   UNL A   1      44.138  24.985  28.789  1.00  0.00     0.285 C 
BRANCH  21  22
ATOM     22  C   UNL A   1      43.581  26.491  28.298  1.00  0.00     0.184 C 
BRANCH  22  23
ATOM     23  N   UNL A   1      43.016  27.118  27.084  1.00  0.00    -0.330 N 
ATOM     24  C   UNL A   1      41.686  27.389  26.905  1.00  0.00     0.107 A 
ATOM     25  C   UNL A   1      43.627  27.844  26.023  1.00  0.00     0.105 A 
ATOM     26  C   UNL A   1      41.527  28.139  25.780  1.00  0.00     0.131 A 
ATOM     27  N   UNL A   1      42.727  28.422  25.248  1.00  0.00    -0.242 NA
ATOM     28  C   UNL A   1      45.051  28.040  25.630  1.00  0.00     0.087 C 
ENDBRANCH  22  23
ENDBRANCH  21  22
ENDBRANCH  18  21
ENDBRANCH   8  18
ENDBRANCH   6   8
ENDBRANCH   5   6
ENDBRANCH   4   5
ENDBRANCH   3   4
ENDBRANCH   2   3
ENDBRANCH   1   2
BRANCH   1  29
ATOM     29  C   UNL A   1      48.047  27.449  23.436  1.00  0.00     0.188 C 
BRANCH  29  30
ATOM     30  O   UNL A   1      49.238  28.120  22.985  1.00  0.00    -0.376 OA
BRANCH  30  31
ATOM     31  C   UNL A   1      50.496  27.462  22.770  1.00  0.00     0.202 C 
BRANCH  31  32
ATOM     32  C   UNL A   1      51.589  27.671  23.814  1.00  0.00     0.261 C 
BRANCH  32  33
ATOM     33  O   UNL A   1      51.506  26.703  24.853  1.00  0.00    -0.460 OA
BRANCH  33  34
ATOM     34  C   UNL A   1      51.985  27.162  26.040  1.00  0.00     0.338 C 
ATOM     35  O   UNL A   1      53.047  27.710  26.220  1.00  0.00    -0.246 OA
BRANCH  34  36
ATOM     36  C   UNL A   1      50.856  27.129  26.999  1.00  0.00     0.060 A 
ATOM     37  C   UNL A   1      49.718  26.389  26.665  1.00  0.00     0.016 A 
ATOM     38  C   UNL A   1      50.954  27.777  28.239  1.00  0.00     0.016 A 
ATOM     39  C   UNL A   1      48.622  26.400  27.522  1.00  0.00     0.010 A 
ATOM     40  C   UNL A   1      49.876  27.764  29.108  1.00  0.00     0.010 A 
ATOM     41  C   UNL A   1      48.682  27.152  28.703  1.00  0.00    -0.014 A 
BRANCH  41  42
ATOM     42  C   UNL A   1      47.431  27.623  29.325  1.00  0.00     0.031 A 
ATOM     43  C   UNL A   1      46.862  28.914  28.803  1.00  0.00     0.074 A 
ATOM     44  C   UNL A   1      46.848  26.955  30.330  1.00  0.00     0.049 A 
ATOM     45  N   UNL A   1      45.795  29.558  29.187  1.00  0.00    -0.248 NA
ATOM     46  C   UNL A   1      47.602  29.577  27.711  1.00  0.00     0.031 C 
ATOM     47  C   UNL A   1      47.336  25.712  30.921  1.00  0.00     0.029 A 
ATOM     48  N   UNL A   1      45.723  27.259  31.049  1.00  0.00    -0.354 N 
ATOM     49  C   UNL A   1      45.748  30.701  28.398  1.00  0.00     0.074 A 
ATOM     50  C   UNL A   1      46.905  30.687  27.537  1.00  0.00     0.031 C 
ATOM     51  C   UNL A   1      46.518  25.366  31.932  1.00  0.00     0.029 A 
ATOM     52  C   UNL A   1      45.464  26.373  32.064  1.00  0.00     0.049 A 
ATOM     53  H   UNL A   1      45.153  28.038  30.854  1.00  0.00     0.167 HD
ATOM     54  C   UNL A   1      44.805  31.665  28.370  1.00  0.00     0.034 A 
ATOM     55  C   UNL A   1      44.489  26.389  32.995  1.00  0.00     0.034 A 
ATOM     56  C   UNL A   1      43.644  31.661  29.207  1.00  0.00     0.049 A 
ATOM     57  C   UNL A   1      43.455  27.486  32.955  1.00  0.00     0.074 A 
ATOM     58  C   UNL A   1      42.595  32.559  29.217  1.00  0.00     0.029 A 
ATOM     59  N   UNL A   1      43.388  30.720  30.189  1.00  0.00    -0.354 N 
ATOM     60  N   UNL A   1      43.338  28.479  32.107  1.00  0.00    -0.248 NA
ATOM     61  C   UNL A   1      42.400  27.450  33.979  1.00  0.00     0.031 C 
ATOM     62  C   UNL A   1      41.715  32.177  30.231  1.00  0.00     0.029 A 
ATOM     63  C   UNL A   1      42.203  31.024  30.829  1.00  0.00     0.049 A 
ATOM     64  H   UNL A   1      43.964  29.950  30.400  1.00  0.00     0.167 HD
ATOM     65  C   UNL A   1      42.182  29.163  32.471  1.00  0.00     0.074 A 
ATOM     66  C   UNL A   1      41.627  28.465  33.610  1.00  0.00     0.031 C 
ATOM     67  C   UNL A   1      41.636  30.275  31.921  1.00  0.00     0.034 A 
BRANCH  54  68
ATOM     68  C   UNL A   1      44.968  32.779  27.377  1.00  0.00     0.023 A 
ATOM     69  C   UNL A   1      44.320  32.696  26.129  1.00  0.00     0.012 A 
ATOM     70  C   UNL A   1      45.701  33.933  27.708  1.00  0.00     0.148 A 
ATOM     71  C   UNL A   1      44.410  33.744  25.216  1.00  0.00     0.002 A 
ATOM     72  C   UNL A   1      45.750  34.992  26.811  1.00  0.00     0.091 A 
ATOM     73  F   UNL A   1      46.336  33.970  28.888  1.00  0.00    -0.205 F 
ATOM     74  C   UNL A   1      45.112  34.896  25.562  1.00  0.00     0.022 A 
BRANCH  72  75
ATOM     75  S   UNL A   1      46.561  36.546  27.193  1.00  0.00     0.127 S 
ATOM     76  O   UNL A   1      45.594  37.169  28.095  1.00  0.00    -0.237 OA
ATOM     77  O   UNL A   1      47.795  36.097  27.836  1.00  0.00    -0.237 OA
ATOM     78  O   UNL A   1      46.749  37.227  25.919  1.00  0.00    -0.744 OA
ENDBRANCH  72  75
ENDBRANCH  54  68
BRANCH  55  79
ATOM     79  C   UNL A   1      44.420  25.298  34.006  1.00  0.00     0.023 A 
ATOM     80  C   UNL A   1      43.749  24.101  33.690  1.00  0.00     0.012 A 
ATOM     81  C   UNL A   1      45.046  25.425  35.261  1.00  0.00     0.148 A 
ATOM     82  C   UNL A   1      43.681  23.059  34.614  1.00  0.00     0.002 A 
ATOM     83  C   UNL A   1      45.021  24.362  36.157  1.00  0.00     0.091 A 
ATOM     84  F   UNL A   1      45.667  26.577  35.547  1.00  0.00    -0.205 F 
ATOM     85  C   UNL A   1      44.326  23.185  35.843  1.00  0.00     0.022 A 
BRANCH  83  86
ATOM     86  S   UNL A   1      45.934  24.384  37.705  1.00  0.00     0.127 S 
ATOM     87  O   UNL A   1      45.311  25.507  38.403  1.00  0.00    -0.237 OA
ATOM     88  O   UNL A   1      45.621  23.065  38.255  1.00  0.00    -0.237 OA
ATOM     89  O   UNL A   1      47.330  24.565  37.336  1.00  0.00    -0.744 OA
ENDBRANCH  83  86
ENDBRANCH  55  79
BRANCH  67  90
ATOM     90  C   UNL A   1      40.358  30.818  32.503  1.00  0.00     0.023 A 
ATOM     91  C   UNL A   1      40.418  31.729  33.573  1.00  0.00     0.012 A 
ATOM     92  C   UNL A   1      39.125  30.569  31.867  1.00  0.00     0.148 A 
ATOM     93  C   UNL A   1      39.267  32.384  34.007  1.00  0.00     0.002 A 
ATOM     94  C   UNL A   1      37.992  31.263  32.271  1.00  0.00     0.091 A 
ATOM     95  F   UNL A   1      39.095  29.692  30.853  1.00  0.00    -0.205 F 
ATOM     96  C   UNL A   1      38.059  32.165  33.346  1.00  0.00     0.022 A 
BRANCH  94  97
ATOM     97  S   UNL A   1      36.422  31.137  31.407  1.00  0.00     0.127 S 
ATOM     98  O   UNL A   1      36.761  31.685  30.094  1.00  0.00    -0.237 OA
ATOM     99  O   UNL A   1      36.176  29.695  31.421  1.00  0.00    -0.237 OA
ATOM    100  O   UNL A   1      35.470  31.923  32.179  1.00  0.00    -0.744 OA
ENDBRANCH  94  97
ENDBRANCH  67  90
ENDBRANCH  41  42
ENDBRANCH  34  36
ENDBRANCH  33  34
ENDBRANCH  32  33
ENDBRANCH  31  32
ENDBRANCH  30  31
ENDBRANCH  29  30
ENDBRANCH   1  29
TORSDOF 26
ENDMDL
MODEL 2
REMARK VINA RESULT:      -6.5      4.367      9.583
REMARK SMILES COc1ccc(F)cc1[C@@H](C(=O)OCCOCCOCCOC(=O)c1ccc(-c2c3nc(c(-c4cccc(S(=O)(=O)[O-])c4F)c4ccc([nH]4)c(-c4cccc(S(=O)(=O)[O-])c4F)c4nc(c(-c5cccc(S(=O)(=O)[O-])c5F)c5ccc2[nH]5)C=C4)C=C3)cc1)[N@@H+](C)CCn1ccnc1C
REMARK SMILES IDX 17 1 16 2 15 3 14 4 13 5 11 6 12 7 10 8 9 9 3 10 4 11 5 12
REMARK SMILES IDX 8 13 6 14 7 15 2 16 1 17 88 18 89 19 90 21 91 22 92 23 93 24
REMARK SMILES IDX 96 25 94 26 95 27 97 28 18 29 19 30 20 31 21 32 22 33 23 34
REMARK SMILES IDX 24 35 25 36 26 37 87 38 27 39 86 40 28 41 29 42 30 43 80 44
REMARK SMILES IDX 31 45 85 46 79 47 81 48 32 49 84 50 78 51 77 52 33 54 65 55
REMARK SMILES IDX 45 56 64 57 46 58 49 59 63 60 82 61 47 62 48 63 62 65 83 66
REMARK SMILES IDX 50 67 34 68 35 69 43 70 36 71 38 72 44 73 37 74 39 75 40 76
REMARK SMILES IDX 41 77 42 78 66 79 67 80 75 81 68 82 70 83 76 84 69 85 71 86
REMARK SMILES IDX 72 87 73 88 74 89 51 90 52 91 60 92 53 93 55 94 61 95 54 96
REMARK SMILES IDX 56 97 57 98 58 99 59 100
REMARK H PARENT 88 20 81 53 49 64
REMARK Flexibility Score: inf
ROOT
ATOM      1  C   UNL A   1      43.018  30.876  29.194  1.00  0.00     0.188 C 
ENDROOT
BRANCH   1   2
ATOM      2  O   UNL A   1      42.578  29.494  29.216  1.00  0.00    -0.376 OA
BRANCH   2   3
ATOM      3  C   UNL A   1      41.453  28.731  28.733  1.00  0.00     0.202 C 
BRANCH   3   4
ATOM      4  C   UNL A   1      40.818  28.640  27.279  1.00  0.00     0.261 C 
BRANCH   4   5
ATOM      5  O   UNL A   1      41.753  28.181  26.265  1.00  0.00    -0.459 OA
BRANCH   5   6
ATOM      6  C   UNL A   1      42.055  26.880  25.931  1.00  0.00     0.370 C 
ATOM      7  O   UNL A   1      41.561  26.313  24.963  1.00  0.00    -0.245 OA
BRANCH   6   8
ATOM      8  C   UNL A   1      43.287  26.315  26.795  1.00  0.00     0.330 C 
BRANCH   8   9
ATOM      9  C   UNL A   1      44.784  26.386  26.384  1.00  0.00     0.066 A 
ATOM     10  C   UNL A   1      45.840  25.965  27.209  1.00  0.00     0.128 A 
ATOM     11  C   UNL A   1      47.182  26.179  26.809  1.00  0.00     0.050 A 
ATOM     12  C   UNL A   1      47.495  26.823  25.609  1.00  0.00     0.043 A 
ATOM     13  C   UNL A   1      45.159  26.889  25.100  1.00  0.00     0.053 A 
ATOM     14  C   UNL A   1      46.473  27.161  24.753  1.00  0.00     0.124 A 
ATOM     15  F   UNL A   1      46.739  27.782  23.596  1.00  0.00    -0.207 F 
BRANCH  10  16
ATOM     16  O   UNL A   1      45.492  25.370  28.390  1.00  0.00    -0.496 OA
ATOM     17  C   UNL A   1      45.952  24.034  28.557  1.00  0.00     0.278 C 
ENDBRANCH  10  16
ENDBRANCH   8   9
BRANCH   8  18
ATOM     18  N   UNL A   1      42.990  24.913  27.148  1.00  0.00    -0.320 N 
ATOM     19  C   UNL A   1      41.697  24.800  27.838  1.00  0.00     0.333 C 
ATOM     20  H   UNL A   1      43.706  24.627  27.816  1.00  0.00     0.348 HD
BRANCH  18  21
ATOM     21  C   UNL A   1      43.179  23.939  26.035  1.00  0.00     0.285 C 
BRANCH  21  22
ATOM     22  C   UNL A   1      43.805  22.382  26.066  1.00  0.00     0.184 C 
BRANCH  22  23
ATOM     23  N   UNL A   1      43.367  21.008  25.738  1.00  0.00    -0.330 N 
ATOM     24  C   UNL A   1      44.174  20.054  25.179  1.00  0.00     0.107 A 
ATOM     25  C   UNL A   1      42.234  20.252  26.155  1.00  0.00     0.105 A 
ATOM     26  C   UNL A   1      43.529  18.856  25.190  1.00  0.00     0.131 A 
ATOM     27  N   UNL A   1      42.340  18.984  25.800  1.00  0.00    -0.242 NA
ATOM     28  C   UNL A   1      40.984  20.628  26.873  1.00  0.00     0.087 C 
ENDBRANCH  22  23
ENDBRANCH  21  22
ENDBRANCH  18  21
ENDBRANCH   8  18
ENDBRANCH   6   8
ENDBRANCH   5   6
ENDBRANCH   4   5
ENDBRANCH   3   4
ENDBRANCH   2   3
ENDBRANCH   1   2
BRANCH   1  29
ATOM     29  C   UNL A   1      43.084  31.884  27.918  1.00  0.00     0.188 C 
BRANCH  29  30
ATOM     30  O   UNL A   1      43.765  33.121  28.201  1.00  0.00    -0.376 OA
BRANCH  30  31
ATOM     31  C   UNL A   1      44.066  34.114  27.209  1.00  0.00     0.202 C 
BRANCH  31  32
ATOM     32  C   UNL A   1      44.213  33.648  25.763  1.00  0.00     0.261 C 
BRANCH  32  33
ATOM     33  O   UNL A   1      45.018  32.479  25.675  1.00  0.00    -0.460 OA
BRANCH  33  34
ATOM     34  C   UNL A   1      46.287  32.679  26.120  1.00  0.00     0.338 C 
ATOM     35  O   UNL A   1      46.997  33.623  25.863  1.00  0.00    -0.246 OA
BRANCH  34  36
ATOM     36  C   UNL A   1      46.525  31.688  27.196  1.00  0.00     0.060 A 
ATOM     37  C   UNL A   1      46.978  32.146  28.437  1.00  0.00     0.016 A 
ATOM     38  C   UNL A   1      46.243  30.330  26.990  1.00  0.00     0.016 A 
ATOM     39  C   UNL A   1      47.271  31.224  29.438  1.00  0.00     0.010 A 
ATOM     40  C   UNL A   1      46.504  29.414  27.995  1.00  0.00     0.010 A 
ATOM     41  C   UNL A   1      47.104  29.857  29.181  1.00  0.00    -0.014 A 
BRANCH  41  42
ATOM     42  C   UNL A   1      47.883  28.875  29.958  1.00  0.00     0.031 A 
ATOM     43  C   UNL A   1      49.304  28.644  29.522  1.00  0.00     0.074 A 
ATOM     44  C   UNL A   1      47.343  28.194  30.978  1.00  0.00     0.049 A 
ATOM     45  N   UNL A   1      50.193  27.826  30.013  1.00  0.00    -0.248 NA
ATOM     46  C   UNL A   1      49.786  29.432  28.370  1.00  0.00     0.031 C 
ATOM     47  C   UNL A   1      45.970  28.328  31.459  1.00  0.00     0.029 A 
ATOM     48  N   UNL A   1      47.893  27.226  31.776  1.00  0.00    -0.354 N 
ATOM     49  C   UNL A   1      51.324  27.990  29.222  1.00  0.00     0.074 A 
ATOM     50  C   UNL A   1      51.008  28.957  28.200  1.00  0.00     0.031 C 
ATOM     51  C   UNL A   1      45.778  27.454  32.463  1.00  0.00     0.029 A 
ATOM     52  C   UNL A   1      47.010  26.693  32.681  1.00  0.00     0.049 A 
ATOM     53  H   UNL A   1      48.833  26.941  31.707  1.00  0.00     0.167 HD
ATOM     54  C   UNL A   1      52.534  27.409  29.354  1.00  0.00     0.034 A 
ATOM     55  C   UNL A   1      47.184  25.697  33.572  1.00  0.00     0.034 A 
ATOM     56  C   UNL A   1      52.852  26.469  30.388  1.00  0.00     0.049 A 
ATOM     57  C   UNL A   1      48.541  25.049  33.691  1.00  0.00     0.074 A 
ATOM     58  C   UNL A   1      54.066  25.866  30.649  1.00  0.00     0.029 A 
ATOM     59  N   UNL A   1      51.947  25.992  31.319  1.00  0.00    -0.354 N 
ATOM     60  N   UNL A   1      49.645  25.320  33.037  1.00  0.00    -0.248 NA
ATOM     61  C   UNL A   1      48.688  23.982  34.692  1.00  0.00     0.031 C 
ATOM     62  C   UNL A   1      53.887  24.995  31.724  1.00  0.00     0.029 A 
ATOM     63  C   UNL A   1      52.569  25.081  32.150  1.00  0.00     0.049 A 
ATOM     64  H   UNL A   1      51.001  26.260  31.380  1.00  0.00     0.167 HD
ATOM     65  C   UNL A   1      50.623  24.485  33.569  1.00  0.00     0.074 A 
ATOM     66  C   UNL A   1      49.984  23.706  34.608  1.00  0.00     0.031 C 
ATOM     67  C   UNL A   1      51.928  24.364  33.221  1.00  0.00     0.034 A 
BRANCH  54  68
ATOM     68  C   UNL A   1      53.612  27.801  28.387  1.00  0.00     0.023 A 
ATOM     69  C   UNL A   1      54.534  28.805  28.746  1.00  0.00     0.012 A 
ATOM     70  C   UNL A   1      53.754  27.129  27.160  1.00  0.00     0.148 A 
ATOM     71  C   UNL A   1      55.577  29.144  27.888  1.00  0.00     0.002 A 
ATOM     72  C   UNL A   1      54.822  27.442  26.329  1.00  0.00     0.091 A 
ATOM     73  F   UNL A   1      52.843  26.203  26.829  1.00  0.00    -0.205 F 
ATOM     74  C   UNL A   1      55.729  28.454  26.688  1.00  0.00     0.022 A 
BRANCH  72  75
ATOM     75  S   UNL A   1      55.150  26.560  24.802  1.00  0.00     0.127 S 
ATOM     76  O   UNL A   1      53.946  26.857  24.025  1.00  0.00    -0.237 OA
ATOM     77  O   UNL A   1      56.364  27.219  24.323  1.00  0.00    -0.237 OA
ATOM     78  O   UNL A   1      55.318  25.161  25.171  1.00  0.00    -0.744 OA
ENDBRANCH  72  75
ENDBRANCH  54  68
BRANCH  55  79
ATOM     79  C   UNL A   1      46.056  25.295  34.456  1.00  0.00     0.023 A 
ATOM     80  C   UNL A   1      45.257  24.191  34.101  1.00  0.00     0.012 A 
ATOM     81  C   UNL A   1      45.795  25.973  35.662  1.00  0.00     0.148 A 
ATOM     82  C   UNL A   1      44.203  23.785  34.919  1.00  0.00     0.002 A 
ATOM     83  C   UNL A   1      44.777  25.531  36.499  1.00  0.00     0.091 A 
ATOM     84  F   UNL A   1      46.559  27.030  35.974  1.00  0.00    -0.205 F 
ATOM     85  C   UNL A   1      43.969  24.448  36.123  1.00  0.00     0.022 A 
BRANCH  83  86
ATOM     86  S   UNL A   1      44.491  26.238  38.126  1.00  0.00     0.127 S 
ATOM     87  O   UNL A   1      45.101  25.237  38.998  1.00  0.00    -0.237 OA
ATOM     88  O   UNL A   1      45.220  27.503  38.035  1.00  0.00    -0.237 OA
ATOM     89  O   UNL A   1      43.047  26.383  38.244  1.00  0.00    -0.744 OA
ENDBRANCH  83  86
ENDBRANCH  55  79
BRANCH  67  90
ATOM     90  C   UNL A   1      52.787  23.380  33.968  1.00  0.00     0.023 A 
ATOM     91  C   UNL A   1      53.469  23.797  35.126  1.00  0.00     0.012 A 
ATOM     92  C   UNL A   1      52.763  22.012  33.627  1.00  0.00     0.148 A 
ATOM     93  C   UNL A   1      54.120  22.866  35.935  1.00  0.00     0.002 A 
ATOM     94  C   UNL A   1      53.370  21.085  34.465  1.00  0.00     0.091 A 
ATOM     95  F   UNL A   1      52.112  21.643  32.515  1.00  0.00    -0.205 F 
ATOM     96  C   UNL A   1      54.055  21.511  35.615  1.00  0.00     0.022 A 
BRANCH  94  97
ATOM     97  S   UNL A   1      53.240  19.313  34.200  1.00  0.00     0.127 S 
ATOM     98  O   UNL A   1      51.796  19.102  34.306  1.00  0.00    -0.237 OA
ATOM     99  O   UNL A   1      53.782  19.162  32.850  1.00  0.00    -0.237 OA
ATOM    100  O   UNL A   1      54.035  18.688  35.248  1.00  0.00    -0.744 OA
ENDBRANCH  94  97
ENDBRANCH  67  90
ENDBRANCH  41  42
ENDBRANCH  34  36
ENDBRANCH  33  34
ENDBRANCH  32  33
ENDBRANCH  31  32
ENDBRANCH  30  31
ENDBRANCH  29  30
ENDBRANCH   1  29
TORSDOF 26
ENDMDL
MODEL 3
REMARK VINA RESULT:      -6.5      4.874     11.184
REMARK SMILES COc1ccc(F)cc1[C@@H](C(=O)OCCOCCOCCOC(=O)c1ccc(-c2c3nc(c(-c4cccc(S(=O)(=O)[O-])c4F)c4ccc([nH]4)c(-c4cccc(S(=O)(=O)[O-])c4F)c4nc(c(-c5cccc(S(=O)(=O)[O-])c5F)c5ccc2[nH]5)C=C4)C=C3)cc1)[N@@H+](C)CCn1ccnc1C
REMARK SMILES IDX 17 1 16 2 15 3 14 4 13 5 11 6 12 7 10 8 9 9 3 10 4 11 5 12
REMARK SMILES IDX 8 13 6 14 7 15 2 16 1 17 88 18 89 19 90 21 91 22 92 23 93 24
REMARK SMILES IDX 96 25 94 26 95 27 97 28 18 29 19 30 20 31 21 32 22 33 23 34
REMARK SMILES IDX 24 35 25 36 26 37 87 38 27 39 86 40 28 41 29 42 30 43 80 44
REMARK SMILES IDX 31 45 85 46 79 47 81 48 32 49 84 50 78 51 77 52 33 54 65 55
REMARK SMILES IDX 45 56 64 57 46 58 49 59 63 60 82 61 47 62 48 63 62 65 83 66
REMARK SMILES IDX 50 67 34 68 35 69 43 70 36 71 38 72 44 73 37 74 39 75 40 76
REMARK SMILES IDX 41 77 42 78 66 79 67 80 75 81 68 82 70 83 76 84 69 85 71 86
REMARK SMILES IDX 72 87 73 88 74 89 51 90 52 91 60 92 53 93 55 94 61 95 54 96
REMARK SMILES IDX 56 97 57 98 58 99 59 100
REMARK H PARENT 88 20 81 53 49 64
REMARK Flexibility Score: inf
ROOT
ATOM      1  C   UNL A   1      37.371  31.686  38.054  1.00  0.00     0.188 C 
ENDROOT
BRANCH   1   2
ATOM      2  O   UNL A   1      38.394  32.112  37.119  1.00  0.00    -0.376 OA
BRANCH   2   3
ATOM      3  C   UNL A   1      38.537  32.245  35.690  1.00  0.00     0.202 C 
BRANCH   3   4
ATOM      4  C   UNL A   1      38.451  31.152  34.539  1.00  0.00     0.261 C 
BRANCH   4   5
ATOM      5  O   UNL A   1      37.398  31.408  33.572  1.00  0.00    -0.459 OA
BRANCH   5   6
ATOM      6  C   UNL A   1      37.160  30.734  32.394  1.00  0.00     0.370 C 
ATOM      7  O   UNL A   1      36.401  29.773  32.322  1.00  0.00    -0.245 OA
BRANCH   6   8
ATOM      8  C   UNL A   1      37.784  31.506  31.131  1.00  0.00     0.330 C 
BRANCH   8   9
ATOM      9  C   UNL A   1      39.251  32.003  31.013  1.00  0.00     0.066 A 
ATOM     10  C   UNL A   1      40.321  31.189  30.603  1.00  0.00     0.128 A 
ATOM     11  C   UNL A   1      41.647  31.686  30.642  1.00  0.00     0.050 A 
ATOM     12  C   UNL A   1      41.933  32.974  31.099  1.00  0.00     0.043 A 
ATOM     13  C   UNL A   1      39.582  33.360  31.314  1.00  0.00     0.053 A 
ATOM     14  C   UNL A   1      40.889  33.811  31.420  1.00  0.00     0.124 A 
ATOM     15  F   UNL A   1      41.129  35.051  31.864  1.00  0.00    -0.207 F 
BRANCH  10  16
ATOM     16  O   UNL A   1      40.003  29.924  30.195  1.00  0.00    -0.496 OA
ATOM     17  C   UNL A   1      40.602  28.874  30.946  1.00  0.00     0.278 C 
ENDBRANCH  10  16
ENDBRANCH   8   9
BRANCH   8  18
ATOM     18  N   UNL A   1      36.902  32.647  30.813  1.00  0.00    -0.320 N 
ATOM     19  C   UNL A   1      36.477  32.615  29.407  1.00  0.00     0.333 C 
ATOM     20  H   UNL A   1      37.466  33.488  30.931  1.00  0.00     0.348 HD
BRANCH  18  21
ATOM     21  C   UNL A   1      35.793  32.862  31.786  1.00  0.00     0.285 C 
BRANCH  21  22
ATOM     22  C   UNL A   1      34.332  33.666  31.586  1.00  0.00     0.184 C 
BRANCH  22  23
ATOM     23  N   UNL A   1      33.852  34.988  31.128  1.00  0.00    -0.330 N 
ATOM     24  C   UNL A   1      33.208  35.204  29.940  1.00  0.00     0.107 A 
ATOM     25  C   UNL A   1      33.633  36.208  31.828  1.00  0.00     0.105 A 
ATOM     26  C   UNL A   1      32.729  36.478  29.913  1.00  0.00     0.131 A 
ATOM     27  N   UNL A   1      32.987  37.086  31.082  1.00  0.00    -0.242 NA
ATOM     28  C   UNL A   1      34.011  36.665  33.195  1.00  0.00     0.087 C 
ENDBRANCH  22  23
ENDBRANCH  21  22
ENDBRANCH  18  21
ENDBRANCH   8  18
ENDBRANCH   6   8
ENDBRANCH   5   6
ENDBRANCH   4   5
ENDBRANCH   3   4
ENDBRANCH   2   3
ENDBRANCH   1   2
BRANCH   1  29
ATOM     29  C   UNL A   1      37.306  31.956  39.658  1.00  0.00     0.188 C 
BRANCH  29  30
ATOM     30  O   UNL A   1      38.602  32.133  40.260  1.00  0.00    -0.376 OA
BRANCH  30  31
ATOM     31  C   UNL A   1      38.861  33.026  41.355  1.00  0.00     0.202 C 
BRANCH  31  32
ATOM     32  C   UNL A   1      39.585  34.333  41.044  1.00  0.00     0.261 C 
BRANCH  32  33
ATOM     33  O   UNL A   1      38.681  35.332  40.589  1.00  0.00    -0.460 OA
BRANCH  33  34
ATOM     34  C   UNL A   1      39.291  36.524  40.348  1.00  0.00     0.338 C 
ATOM     35  O   UNL A   1      39.355  37.462  41.106  1.00  0.00    -0.246 OA
BRANCH  34  36
ATOM     36  C   UNL A   1      40.099  36.350  39.118  1.00  0.00     0.060 A 
ATOM     37  C   UNL A   1      39.432  36.185  37.899  1.00  0.00     0.016 A 
ATOM     38  C   UNL A   1      41.498  36.410  39.169  1.00  0.00     0.016 A 
ATOM     39  C   UNL A   1      40.172  35.954  36.744  1.00  0.00     0.010 A 
ATOM     40  C   UNL A   1      42.237  36.211  38.015  1.00  0.00     0.010 A 
ATOM     41  C   UNL A   1      41.570  35.892  36.825  1.00  0.00    -0.014 A 
BRANCH  41  42
ATOM     42  C   UNL A   1      42.320  35.140  35.804  1.00  0.00     0.031 A 
ATOM     43  C   UNL A   1      42.928  35.943  34.685  1.00  0.00     0.074 A 
ATOM     44  C   UNL A   1      42.426  33.805  35.846  1.00  0.00     0.049 A 
ATOM     45  N   UNL A   1      43.611  35.531  33.654  1.00  0.00    -0.248 NA
ATOM     46  C   UNL A   1      42.726  37.405  34.727  1.00  0.00     0.031 C 
ATOM     47  C   UNL A   1      41.853  32.938  36.872  1.00  0.00     0.029 A 
ATOM     48  N   UNL A   1      43.039  32.945  34.974  1.00  0.00    -0.354 N 
ATOM     49  C   UNL A   1      43.904  36.676  32.923  1.00  0.00     0.074 A 
ATOM     50  C   UNL A   1      43.300  37.796  33.602  1.00  0.00     0.031 C 
ATOM     51  C   UNL A   1      42.127  31.659  36.558  1.00  0.00     0.029 A 
ATOM     52  C   UNL A   1      42.880  31.622  35.303  1.00  0.00     0.049 A 
ATOM     53  H   UNL A   1      43.547  33.247  34.186  1.00  0.00     0.167 HD
ATOM     54  C   UNL A   1      44.640  36.791  31.798  1.00  0.00     0.034 A 
ATOM     55  C   UNL A   1      43.291  30.516  34.652  1.00  0.00     0.034 A 
ATOM     56  C   UNL A   1      45.261  35.679  31.142  1.00  0.00     0.049 A 
ATOM     57  C   UNL A   1      44.098  30.667  33.387  1.00  0.00     0.074 A 
ATOM     58  C   UNL A   1      46.078  35.692  30.030  1.00  0.00     0.029 A 
ATOM     59  N   UNL A   1      45.120  34.359  31.533  1.00  0.00    -0.354 N 
ATOM     60  N   UNL A   1      44.495  31.764  32.788  1.00  0.00    -0.248 NA
ATOM     61  C   UNL A   1      44.541  29.432  32.724  1.00  0.00     0.031 C 
ATOM     62  C   UNL A   1      46.410  34.371  29.728  1.00  0.00     0.029 A 
ATOM     63  C   UNL A   1      45.822  33.540  30.671  1.00  0.00     0.049 A 
ATOM     64  H   UNL A   1      44.599  34.050  32.309  1.00  0.00     0.167 HD
ATOM     65  C   UNL A   1      45.262  31.353  31.702  1.00  0.00     0.074 A 
ATOM     66  C   UNL A   1      45.284  29.906  31.731  1.00  0.00     0.031 C 
ATOM     67  C   UNL A   1      45.882  32.104  30.758  1.00  0.00     0.034 A 
BRANCH  54  68
ATOM     68  C   UNL A   1      44.848  38.164  31.230  1.00  0.00     0.023 A 
ATOM     69  C   UNL A   1      45.894  38.968  31.726  1.00  0.00     0.012 A 
ATOM     70  C   UNL A   1      44.056  38.627  30.164  1.00  0.00     0.148 A 
ATOM     71  C   UNL A   1      46.142  40.223  31.174  1.00  0.00     0.002 A 
ATOM     72  C   UNL A   1      44.337  39.860  29.590  1.00  0.00     0.091 A 
ATOM     73  F   UNL A   1      43.047  37.856  29.736  1.00  0.00    -0.205 F 
ATOM     74  C   UNL A   1      45.374  40.662  30.099  1.00  0.00     0.022 A 
BRANCH  72  75
ATOM     75  S   UNL A   1      43.458  40.481  28.154  1.00  0.00     0.127 S 
ATOM     76  O   UNL A   1      44.154  41.743  27.906  1.00  0.00    -0.237 OA
ATOM     77  O   UNL A   1      43.716  39.436  27.163  1.00  0.00    -0.237 OA
ATOM     78  O   UNL A   1      42.065  40.611  28.558  1.00  0.00    -0.744 OA
ENDBRANCH  72  75
ENDBRANCH  54  68
BRANCH  55  79
ATOM     79  C   UNL A   1      42.990  29.174  35.221  1.00  0.00     0.023 A 
ATOM     80  C   UNL A   1      41.901  28.435  34.718  1.00  0.00     0.012 A 
ATOM     81  C   UNL A   1      43.797  28.609  36.227  1.00  0.00     0.148 A 
ATOM     82  C   UNL A   1      41.607  27.169  35.224  1.00  0.00     0.002 A 
ATOM     83  C   UNL A   1      43.531  27.325  36.689  1.00  0.00     0.091 A 
ATOM     84  F   UNL A   1      44.820  29.334  36.702  1.00  0.00    -0.205 F 
ATOM     85  C   UNL A   1      42.427  26.610  36.201  1.00  0.00     0.022 A 
BRANCH  83  86
ATOM     86  S   UNL A   1      44.609  26.474  37.848  1.00  0.00     0.127 S 
ATOM     87  O   UNL A   1      45.932  26.865  37.366  1.00  0.00    -0.237 OA
ATOM     88  O   UNL A   1      44.214  27.076  39.122  1.00  0.00    -0.237 OA
ATOM     89  O   UNL A   1      44.284  25.061  37.724  1.00  0.00    -0.744 OA
ENDBRANCH  83  86
ENDBRANCH  55  79
BRANCH  67  90
ATOM     90  C   UNL A   1      46.667  31.407  29.680  1.00  0.00     0.023 A 
ATOM     91  C   UNL A   1      48.021  31.093  29.902  1.00  0.00     0.012 A 
ATOM     92  C   UNL A   1      46.014  30.903  28.536  1.00  0.00     0.148 A 
ATOM     93  C   UNL A   1      48.716  30.290  29.000  1.00  0.00     0.002 A 
ATOM     94  C   UNL A   1      46.698  30.062  27.669  1.00  0.00     0.091 A 
ATOM     95  F   UNL A   1      44.725  31.222  28.345  1.00  0.00    -0.205 F 
ATOM     96  C   UNL A   1      48.051  29.761  27.895  1.00  0.00     0.022 A 
BRANCH  94  97
ATOM     97  S   UNL A   1      45.897  29.239  26.288  1.00  0.00     0.127 S 
ATOM     98  O   UNL A   1      46.629  29.790  25.148  1.00  0.00    -0.237 OA
ATOM     99  O   UNL A   1      46.172  27.829  26.567  1.00  0.00    -0.237 OA
ATOM    100  O   UNL A   1      44.490  29.608  26.357  1.00  0.00    -0.744 OA
ENDBRANCH  94  97
ENDBRANCH  67  90
ENDBRANCH  41  42
ENDBRANCH  34  36
ENDBRANCH  33  34
ENDBRANCH  32  33
ENDBRANCH  31  32
ENDBRANCH  30  31
ENDBRANCH  29  30
ENDBRANCH   1  29
TORSDOF 26
ENDMDL
