MODEL 1
REMARK VINA RESULT:     -10.2      0.000      0.000
REMARK SMILES CN(Cc1csc(Br)c1)c1cccc(F)c1C(=O)OCCOCCOCCOC(=O)c1ccc(-c2c3nc(c(-c4cccc(S(=O)(=O)[O-])c4F)c4ccc([nH]4)c(-c4cccc(S(=O)(=O)[O-])c4F)c4nc(c(-c5cccc(S(=O)(=O)[O-])c5F)c5ccc2[nH]5)C=C4)C=C3)cc1
REMARK SMILES IDX 23 1 22 2 21 3 20 4 19 5 17 6 18 7 16 8 10 9 11 10 12 11
REMARK SMILES IDX 14 12 13 13 15 14 2 15 1 16 3 17 4 18 5 19 9 20 6 21 7 22
REMARK SMILES IDX 8 23 24 24 25 25 26 26 27 27 28 28 29 29 30 30 31 31 32 32
REMARK SMILES IDX 93 33 33 34 92 35 34 36 35 37 36 38 86 39 37 40 91 41 85 42
REMARK SMILES IDX 87 43 38 44 90 45 84 46 83 47 39 49 71 50 51 51 70 52 52 53
REMARK SMILES IDX 55 54 69 55 88 56 53 57 54 58 68 60 89 61 56 62 40 63 41 64
REMARK SMILES IDX 49 65 42 66 44 67 50 68 43 69 45 70 46 71 47 72 48 73 72 74
REMARK SMILES IDX 73 75 81 76 74 77 76 78 82 79 75 80 77 81 78 82 79 83 80 84
REMARK SMILES IDX 57 85 58 86 66 87 59 88 61 89 67 90 60 91 62 92 63 93 64 94
REMARK SMILES IDX 65 95
REMARK H PARENT 87 48 55 59
REMARK Flexibility Score: inf
ROOT
ATOM      1  C   UNL A   1      30.745  29.384  23.695  1.00  0.00     0.188 C 
ENDROOT
BRANCH   1   2
ATOM      2  O   UNL A   1      29.554  28.609  23.447  1.00  0.00    -0.376 OA
BRANCH   2   3
ATOM      3  C   UNL A   1      29.345  27.186  23.457  1.00  0.00     0.202 C 
BRANCH   3   4
ATOM      4  C   UNL A   1      30.554  26.161  23.916  1.00  0.00     0.261 C 
BRANCH   4   5
ATOM      5  O   UNL A   1      31.829  26.788  24.396  1.00  0.00    -0.460 OA
BRANCH   5   6
ATOM      6  C   UNL A   1      33.044  26.148  24.678  1.00  0.00     0.343 C 
ATOM      7  O   UNL A   1      33.936  26.631  25.354  1.00  0.00    -0.246 OA
BRANCH   6   8
ATOM      8  C   UNL A   1      33.065  24.727  24.062  1.00  0.00     0.119 A 
ATOM      9  C   UNL A   1      32.606  23.473  24.639  1.00  0.00     0.054 A 
ATOM     10  C   UNL A   1      32.298  22.413  23.735  1.00  0.00     0.027 A 
ATOM     11  C   UNL A   1      32.466  22.516  22.356  1.00  0.00     0.005 A 
ATOM     12  C   UNL A   1      33.357  24.734  22.678  1.00  0.00     0.139 A 
ATOM     13  C   UNL A   1      33.041  23.661  21.835  1.00  0.00     0.040 A 
ATOM     14  F   UNL A   1      33.838  25.840  22.084  1.00  0.00    -0.206 F 
BRANCH   9  15
ATOM     15  N   UNL A   1      32.390  23.170  26.019  1.00  0.00    -0.369 N 
ATOM     16  C   UNL A   1      31.139  23.733  26.548  1.00  0.00     0.144 C 
BRANCH  15  17
ATOM     17  C   UNL A   1      33.485  23.453  27.012  1.00  0.00     0.152 C 
BRANCH  17  18
ATOM     18  C   UNL A   1      34.672  22.619  26.791  1.00  0.00    -0.017 A 
ATOM     19  C   UNL A   1      34.634  21.244  26.833  1.00  0.00     0.071 A 
ATOM     20  C   UNL A   1      35.811  23.119  26.106  1.00  0.00     0.033 A 
ATOM     21  S   UNL A   1      35.262  20.771  25.338  1.00  0.00    -0.136 S 
ATOM     22  C   UNL A   1      35.932  22.313  25.011  1.00  0.00     0.070 A 
ATOM     23  Br  UNL A   1      36.570  23.128  23.388  1.00  0.00    -0.039 Br
ENDBRANCH  17  18
ENDBRANCH  15  17
ENDBRANCH   9  15
ENDBRANCH   6   8
ENDBRANCH   5   6
ENDBRANCH   4   5
ENDBRANCH   3   4
ENDBRANCH   2   3
ENDBRANCH   1   2
BRANCH   1  24
ATOM     24  C   UNL A   1      31.279  30.030  24.989  1.00  0.00     0.188 C 
BRANCH  24  25
ATOM     25  O   UNL A   1      30.830  31.310  25.377  1.00  0.00    -0.376 OA
BRANCH  25  26
ATOM     26  C   UNL A   1      31.261  31.697  26.661  1.00  0.00     0.202 C 
BRANCH  26  27
ATOM     27  C   UNL A   1      31.897  33.099  26.828  1.00  0.00     0.261 C 
BRANCH  27  28
ATOM     28  O   UNL A   1      32.551  33.407  28.086  1.00  0.00    -0.460 OA
BRANCH  28  29
ATOM     29  C   UNL A   1      33.745  34.062  27.997  1.00  0.00     0.338 C 
ATOM     30  O   UNL A   1      33.884  35.275  27.857  1.00  0.00    -0.246 OA
BRANCH  29  31
ATOM     31  C   UNL A   1      34.917  33.162  28.221  1.00  0.00     0.060 A 
ATOM     32  C   UNL A   1      34.682  31.823  28.583  1.00  0.00     0.016 A 
ATOM     33  C   UNL A   1      36.231  33.630  28.189  1.00  0.00     0.016 A 
ATOM     34  C   UNL A   1      35.740  30.979  28.966  1.00  0.00     0.010 A 
ATOM     35  C   UNL A   1      37.289  32.788  28.587  1.00  0.00     0.010 A 
ATOM     36  C   UNL A   1      37.051  31.470  29.021  1.00  0.00    -0.014 A 
BRANCH  36  37
ATOM     37  C   UNL A   1      38.124  30.719  29.745  1.00  0.00     0.031 A 
ATOM     38  C   UNL A   1      38.394  31.075  31.189  1.00  0.00     0.074 A 
ATOM     39  C   UNL A   1      38.883  29.769  29.162  1.00  0.00     0.049 A 
ATOM     40  N   UNL A   1      39.328  30.636  31.995  1.00  0.00    -0.248 NA
ATOM     41  C   UNL A   1      37.492  32.064  31.801  1.00  0.00     0.031 C 
ATOM     42  C   UNL A   1      38.751  29.312  27.784  1.00  0.00     0.029 A 
ATOM     43  N   UNL A   1      39.946  29.042  29.655  1.00  0.00    -0.354 N 
ATOM     44  C   UNL A   1      39.150  31.322  33.191  1.00  0.00     0.074 A 
ATOM     45  C   UNL A   1      38.018  32.204  33.008  1.00  0.00     0.031 C 
ATOM     46  C   UNL A   1      39.707  28.398  27.531  1.00  0.00     0.029 A 
ATOM     47  C   UNL A   1      40.550  28.232  28.718  1.00  0.00     0.049 A 
ATOM     48  H   UNL A   1      40.246  29.095  30.591  1.00  0.00     0.167 HD
ATOM     49  C   UNL A   1      39.854  31.227  34.345  1.00  0.00     0.034 A 
ATOM     50  C   UNL A   1      41.669  27.475  28.791  1.00  0.00     0.034 A 
ATOM     51  C   UNL A   1      40.971  30.348  34.551  1.00  0.00     0.049 A 
ATOM     52  C   UNL A   1      42.462  27.413  30.077  1.00  0.00     0.074 A 
ATOM     53  C   UNL A   1      41.710  30.163  35.708  1.00  0.00     0.029 A 
ATOM     54  N   UNL A   1      41.524  29.522  33.588  1.00  0.00    -0.354 N 
ATOM     55  N   UNL A   1      42.214  27.988  31.229  1.00  0.00    -0.248 NA
ATOM     56  C   UNL A   1      43.680  26.582  30.079  1.00  0.00     0.031 C 
ATOM     57  C   UNL A   1      42.732  29.252  35.434  1.00  0.00     0.029 A 
ATOM     58  C   UNL A   1      42.603  28.836  34.119  1.00  0.00     0.049 A 
ATOM     59  H   UNL A   1      41.199  29.436  32.663  1.00  0.00     0.167 HD
ATOM     60  C   UNL A   1      43.218  27.561  32.096  1.00  0.00     0.074 A 
ATOM     61  C   UNL A   1      44.071  26.667  31.345  1.00  0.00     0.031 C 
ATOM     62  C   UNL A   1      43.417  27.895  33.395  1.00  0.00     0.034 A 
BRANCH  49  63
ATOM     63  C   UNL A   1      39.426  32.085  35.507  1.00  0.00     0.023 A 
ATOM     64  C   UNL A   1      38.563  31.551  36.484  1.00  0.00     0.012 A 
ATOM     65  C   UNL A   1      39.965  33.374  35.686  1.00  0.00     0.148 A 
ATOM     66  C   UNL A   1      38.229  32.294  37.614  1.00  0.00     0.002 A 
ATOM     67  C   UNL A   1      39.666  34.089  36.839  1.00  0.00     0.091 A 
ATOM     68  F   UNL A   1      40.771  33.867  34.735  1.00  0.00    -0.205 F 
ATOM     69  C   UNL A   1      38.791  33.555  37.799  1.00  0.00     0.022 A 
BRANCH  67  70
ATOM     70  S   UNL A   1      40.407  35.681  37.214  1.00  0.00     0.127 S 
ATOM     71  O   UNL A   1      39.650  36.572  36.334  1.00  0.00    -0.237 OA
ATOM     72  O   UNL A   1      40.105  35.830  38.638  1.00  0.00    -0.237 OA
ATOM     73  O   UNL A   1      41.822  35.554  36.897  1.00  0.00    -0.744 OA
ENDBRANCH  67  70
ENDBRANCH  49  63
BRANCH  50  74
ATOM     74  C   UNL A   1      42.115  26.685  27.603  1.00  0.00     0.023 A 
ATOM     75  C   UNL A   1      42.822  27.326  26.566  1.00  0.00     0.012 A 
ATOM     76  C   UNL A   1      41.847  25.307  27.499  1.00  0.00     0.148 A 
ATOM     77  C   UNL A   1      43.238  26.611  25.439  1.00  0.00     0.002 A 
ATOM     78  C   UNL A   1      42.316  24.590  26.404  1.00  0.00     0.091 A 
ATOM     79  F   UNL A   1      41.148  24.721  28.481  1.00  0.00    -0.205 F 
ATOM     80  C   UNL A   1      42.997  25.243  25.365  1.00  0.00     0.022 A 
BRANCH  78  81
ATOM     81  S   UNL A   1      42.172  22.804  26.286  1.00  0.00     0.127 S 
ATOM     82  O   UNL A   1      42.668  22.552  24.935  1.00  0.00    -0.237 OA
ATOM     83  O   UNL A   1      43.062  22.365  27.362  1.00  0.00    -0.237 OA
ATOM     84  O   UNL A   1      40.764  22.507  26.508  1.00  0.00    -0.744 OA
ENDBRANCH  78  81
ENDBRANCH  50  74
BRANCH  62  85
ATOM     85  C   UNL A   1      44.574  27.270  34.139  1.00  0.00     0.023 A 
ATOM     86  C   UNL A   1      45.812  27.939  34.208  1.00  0.00     0.012 A 
ATOM     87  C   UNL A   1      44.386  26.088  34.887  1.00  0.00     0.148 A 
ATOM     88  C   UNL A   1      46.848  27.432  34.993  1.00  0.00     0.002 A 
ATOM     89  C   UNL A   1      45.405  25.619  35.707  1.00  0.00     0.091 A 
ATOM     90  F   UNL A   1      43.205  25.459  34.800  1.00  0.00    -0.205 F 
ATOM     91  C   UNL A   1      46.641  26.284  35.754  1.00  0.00     0.022 A 
BRANCH  89  92
ATOM     92  S   UNL A   1      45.194  24.211  36.805  1.00  0.00     0.127 S 
ATOM     93  O   UNL A   1      46.578  23.909  37.171  1.00  0.00    -0.237 OA
ATOM     94  O   UNL A   1      44.389  24.779  37.886  1.00  0.00    -0.237 OA
ATOM     95  O   UNL A   1      44.522  23.184  36.021  1.00  0.00    -0.744 OA
ENDBRANCH  89  92
ENDBRANCH  62  85
ENDBRANCH  36  37
ENDBRANCH  29  31
ENDBRANCH  28  29
ENDBRANCH  27  28
ENDBRANCH  26  27
ENDBRANCH  25  26
ENDBRANCH  24  25
ENDBRANCH   1  24
TORSDOF 23
ENDMDL
MODEL 2
REMARK VINA RESULT:     -10.2      1.841      2.293
REMARK SMILES CN(Cc1csc(Br)c1)c1cccc(F)c1C(=O)OCCOCCOCCOC(=O)c1ccc(-c2c3nc(c(-c4cccc(S(=O)(=O)[O-])c4F)c4ccc([nH]4)c(-c4cccc(S(=O)(=O)[O-])c4F)c4nc(c(-c5cccc(S(=O)(=O)[O-])c5F)c5ccc2[nH]5)C=C4)C=C3)cc1
REMARK SMILES IDX 23 1 22 2 21 3 20 4 19 5 17 6 18 7 16 8 10 9 11 10 12 11
REMARK SMILES IDX 14 12 13 13 15 14 2 15 1 16 3 17 4 18 5 19 9 20 6 21 7 22
REMARK SMILES IDX 8 23 24 24 25 25 26 26 27 27 28 28 29 29 30 30 31 31 32 32
REMARK SMILES IDX 93 33 33 34 92 35 34 36 35 37 36 38 86 39 37 40 91 41 85 42
REMARK SMILES IDX 87 43 38 44 90 45 84 46 83 47 39 49 71 50 51 51 70 52 52 53
REMARK SMILES IDX 55 54 69 55 88 56 53 57 54 58 68 60 89 61 56 62 40 63 41 64
REMARK SMILES IDX 49 65 42 66 44 67 50 68 43 69 45 70 46 71 47 72 48 73 72 74
REMARK SMILES IDX 73 75 81 76 74 77 76 78 82 79 75 80 77 81 78 82 79 83 80 84
REMARK SMILES IDX 57 85 58 86 66 87 59 88 61 89 67 90 60 91 62 92 63 93 64 94
REMARK SMILES IDX 65 95
REMARK H PARENT 87 48 55 59
REMARK Flexibility Score: inf
ROOT
ATOM      1  C   UNL A   1      33.589  28.850  24.142  1.00  0.00     0.188 C 
ENDROOT
BRANCH   1   2
ATOM      2  O   UNL A   1      33.472  27.837  23.123  1.00  0.00    -0.376 OA
BRANCH   2   3
ATOM      3  C   UNL A   1      32.307  27.229  22.537  1.00  0.00     0.202 C 
BRANCH   3   4
ATOM      4  C   UNL A   1      32.407  25.752  21.806  1.00  0.00     0.261 C 
BRANCH   4   5
ATOM      5  O   UNL A   1      32.497  24.555  22.705  1.00  0.00    -0.460 OA
BRANCH   5   6
ATOM      6  C   UNL A   1      31.444  23.758  23.176  1.00  0.00     0.343 C 
ATOM      7  O   UNL A   1      30.266  24.064  23.110  1.00  0.00    -0.246 OA
BRANCH   6   8
ATOM      8  C   UNL A   1      31.985  22.417  23.732  1.00  0.00     0.119 A 
ATOM      9  C   UNL A   1      31.958  21.917  25.098  1.00  0.00     0.054 A 
ATOM     10  C   UNL A   1      32.080  20.506  25.277  1.00  0.00     0.027 A 
ATOM     11  C   UNL A   1      32.271  19.618  24.222  1.00  0.00     0.005 A 
ATOM     12  C   UNL A   1      32.325  21.498  22.712  1.00  0.00     0.139 A 
ATOM     13  C   UNL A   1      32.440  20.122  22.944  1.00  0.00     0.040 A 
ATOM     14  F   UNL A   1      32.423  21.899  21.433  1.00  0.00    -0.206 F 
BRANCH   9  15
ATOM     15  N   UNL A   1      31.792  22.665  26.303  1.00  0.00    -0.369 N 
ATOM     16  C   UNL A   1      30.384  22.951  26.619  1.00  0.00     0.144 C 
BRANCH  15  17
ATOM     17  C   UNL A   1      32.580  23.933  26.494  1.00  0.00     0.152 C 
BRANCH  17  18
ATOM     18  C   UNL A   1      34.025  23.692  26.560  1.00  0.00    -0.017 A 
ATOM     19  C   UNL A   1      34.577  22.679  27.312  1.00  0.00     0.071 A 
ATOM     20  C   UNL A   1      34.903  24.172  25.552  1.00  0.00     0.033 A 
ATOM     21  S   UNL A   1      35.497  21.800  26.202  1.00  0.00    -0.136 S 
ATOM     22  C   UNL A   1      35.470  23.047  25.028  1.00  0.00     0.070 A 
ATOM     23  Br  UNL A   1      35.860  23.058  23.143  1.00  0.00    -0.039 Br
ENDBRANCH  17  18
ENDBRANCH  15  17
ENDBRANCH   9  15
ENDBRANCH   6   8
ENDBRANCH   5   6
ENDBRANCH   4   5
ENDBRANCH   3   4
ENDBRANCH   2   3
ENDBRANCH   1   2
BRANCH   1  24
ATOM     24  C   UNL A   1      33.556  28.745  25.680  1.00  0.00     0.188 C 
BRANCH  24  25
ATOM     25  O   UNL A   1      32.382  29.087  26.385  1.00  0.00    -0.376 OA
BRANCH  25  26
ATOM     26  C   UNL A   1      31.815  30.312  25.982  1.00  0.00     0.202 C 
BRANCH  26  27
ATOM     27  C   UNL A   1      32.245  31.598  26.730  1.00  0.00     0.261 C 
BRANCH  27  28
ATOM     28  O   UNL A   1      33.102  31.458  27.891  1.00  0.00    -0.460 OA
BRANCH  28  29
ATOM     29  C   UNL A   1      34.145  32.335  27.976  1.00  0.00     0.338 C 
ATOM     30  O   UNL A   1      34.045  33.560  28.016  1.00  0.00    -0.246 OA
BRANCH  29  31
ATOM     31  C   UNL A   1      35.462  31.652  28.154  1.00  0.00     0.060 A 
ATOM     32  C   UNL A   1      35.507  30.248  28.117  1.00  0.00     0.016 A 
ATOM     33  C   UNL A   1      36.629  32.355  28.461  1.00  0.00     0.016 A 
ATOM     34  C   UNL A   1      36.684  29.550  28.441  1.00  0.00     0.010 A 
ATOM     35  C   UNL A   1      37.805  31.655  28.799  1.00  0.00     0.010 A 
ATOM     36  C   UNL A   1      37.833  30.247  28.836  1.00  0.00    -0.014 A 
BRANCH  36  37
ATOM     37  C   UNL A   1      38.968  29.543  29.511  1.00  0.00     0.031 A 
ATOM     38  C   UNL A   1      39.403  30.033  30.873  1.00  0.00     0.074 A 
ATOM     39  C   UNL A   1      39.640  28.519  28.949  1.00  0.00     0.049 A 
ATOM     40  N   UNL A   1      40.413  29.651  31.613  1.00  0.00    -0.248 NA
ATOM     41  C   UNL A   1      38.591  31.104  31.476  1.00  0.00     0.031 C 
ATOM     42  C   UNL A   1      39.347  27.930  27.648  1.00  0.00     0.029 A 
ATOM     43  N   UNL A   1      40.739  27.815  29.395  1.00  0.00    -0.354 N 
ATOM     44  C   UNL A   1      40.381  30.457  32.745  1.00  0.00     0.074 A 
ATOM     45  C   UNL A   1      39.251  31.348  32.597  1.00  0.00     0.031 C 
ATOM     46  C   UNL A   1      40.254  26.969  27.387  1.00  0.00     0.029 A 
ATOM     47  C   UNL A   1      41.222  26.899  28.485  1.00  0.00     0.049 A 
ATOM     48  H   UNL A   1      41.143  27.953  30.282  1.00  0.00     0.167 HD
ATOM     49  C   UNL A   1      41.208  30.458  33.818  1.00  0.00     0.034 A 
ATOM     50  C   UNL A   1      42.328  26.123  28.511  1.00  0.00     0.034 A 
ATOM     51  C   UNL A   1      42.327  29.573  33.989  1.00  0.00     0.049 A 
ATOM     52  C   UNL A   1      43.259  26.167  29.703  1.00  0.00     0.074 A 
ATOM     53  C   UNL A   1      43.187  29.484  35.071  1.00  0.00     0.029 A 
ATOM     54  N   UNL A   1      42.755  28.640  33.061  1.00  0.00    -0.354 N 
ATOM     55  N   UNL A   1      43.151  26.860  30.810  1.00  0.00    -0.248 NA
ATOM     56  C   UNL A   1      44.455  25.306  29.657  1.00  0.00     0.031 C 
ATOM     57  C   UNL A   1      44.157  28.522  34.782  1.00  0.00     0.029 A 
ATOM     58  C   UNL A   1      43.874  27.981  33.539  1.00  0.00     0.049 A 
ATOM     59  H   UNL A   1      42.327  28.472  32.191  1.00  0.00     0.167 HD
ATOM     60  C   UNL A   1      44.238  26.494  31.601  1.00  0.00     0.074 A 
ATOM     61  C   UNL A   1      44.987  25.506  30.857  1.00  0.00     0.031 C 
ATOM     62  C   UNL A   1      44.587  26.950  32.830  1.00  0.00     0.034 A 
BRANCH  49  63
ATOM     63  C   UNL A   1      40.927  31.439  34.926  1.00  0.00     0.023 A 
ATOM     64  C   UNL A   1      41.825  32.500  35.159  1.00  0.00     0.012 A 
ATOM     65  C   UNL A   1      39.725  31.373  35.658  1.00  0.00     0.148 A 
ATOM     66  C   UNL A   1      41.538  33.472  36.116  1.00  0.00     0.002 A 
ATOM     67  C   UNL A   1      39.424  32.372  36.575  1.00  0.00     0.091 A 
ATOM     68  F   UNL A   1      38.895  30.345  35.430  1.00  0.00    -0.205 F 
ATOM     69  C   UNL A   1      40.333  33.416  36.812  1.00  0.00     0.022 A 
BRANCH  67  70
ATOM     70  S   UNL A   1      37.861  32.441  37.458  1.00  0.00     0.127 S 
ATOM     71  O   UNL A   1      38.071  33.590  38.339  1.00  0.00    -0.237 OA
ATOM     72  O   UNL A   1      36.909  32.671  36.371  1.00  0.00    -0.237 OA
ATOM     73  O   UNL A   1      37.721  31.160  38.134  1.00  0.00    -0.744 OA
ENDBRANCH  67  70
ENDBRANCH  49  63
BRANCH  50  74
ATOM     74  C   UNL A   1      42.626  25.205  27.369  1.00  0.00     0.023 A 
ATOM     75  C   UNL A   1      43.379  25.677  26.275  1.00  0.00     0.012 A 
ATOM     76  C   UNL A   1      42.172  23.873  27.364  1.00  0.00     0.148 A 
ATOM     77  C   UNL A   1      43.658  24.844  25.189  1.00  0.00     0.002 A 
ATOM     78  C   UNL A   1      42.506  23.031  26.309  1.00  0.00     0.091 A 
ATOM     79  F   UNL A   1      41.433  23.451  28.399  1.00  0.00    -0.205 F 
ATOM     80  C   UNL A   1      43.233  23.518  25.212  1.00  0.00     0.022 A 
BRANCH  78  81
ATOM     81  S   UNL A   1      42.119  21.277  26.314  1.00  0.00     0.127 S 
ATOM     82  O   UNL A   1      42.984  20.777  25.247  1.00  0.00    -0.237 OA
ATOM     83  O   UNL A   1      42.521  20.891  27.667  1.00  0.00    -0.237 OA
ATOM     84  O   UNL A   1      40.688  21.189  26.059  1.00  0.00    -0.744 OA
ENDBRANCH  78  81
ENDBRANCH  50  74
BRANCH  62  85
ATOM     85  C   UNL A   1      45.809  26.370  33.503  1.00  0.00     0.023 A 
ATOM     86  C   UNL A   1      47.046  27.037  33.412  1.00  0.00     0.012 A 
ATOM     87  C   UNL A   1      45.693  25.240  34.341  1.00  0.00     0.148 A 
ATOM     88  C   UNL A   1      48.152  26.578  34.130  1.00  0.00     0.002 A 
ATOM     89  C   UNL A   1      46.785  24.822  35.092  1.00  0.00     0.091 A 
ATOM     90  F   UNL A   1      44.510  24.612  34.405  1.00  0.00    -0.205 F 
ATOM     91  C   UNL A   1      48.019  25.484  34.980  1.00  0.00     0.022 A 
BRANCH  89  92
ATOM     92  S   UNL A   1      46.680  23.489  36.294  1.00  0.00     0.127 S 
ATOM     93  O   UNL A   1      48.017  23.518  36.888  1.00  0.00    -0.237 OA
ATOM     94  O   UNL A   1      45.611  23.954  37.178  1.00  0.00    -0.237 OA
ATOM     95  O   UNL A   1      46.363  22.286  35.537  1.00  0.00    -0.744 OA
ENDBRANCH  89  92
ENDBRANCH  62  85
ENDBRANCH  36  37
ENDBRANCH  29  31
ENDBRANCH  28  29
ENDBRANCH  27  28
ENDBRANCH  26  27
ENDBRANCH  25  26
ENDBRANCH  24  25
ENDBRANCH   1  24
TORSDOF 23
ENDMDL
MODEL 3
REMARK VINA RESULT:      -9.9      1.780      2.192
REMARK SMILES CN(Cc1csc(Br)c1)c1cccc(F)c1C(=O)OCCOCCOCCOC(=O)c1ccc(-c2c3nc(c(-c4cccc(S(=O)(=O)[O-])c4F)c4ccc([nH]4)c(-c4cccc(S(=O)(=O)[O-])c4F)c4nc(c(-c5cccc(S(=O)(=O)[O-])c5F)c5ccc2[nH]5)C=C4)C=C3)cc1
REMARK SMILES IDX 23 1 22 2 21 3 20 4 19 5 17 6 18 7 16 8 10 9 11 10 12 11
REMARK SMILES IDX 14 12 13 13 15 14 2 15 1 16 3 17 4 18 5 19 9 20 6 21 7 22
REMARK SMILES IDX 8 23 24 24 25 25 26 26 27 27 28 28 29 29 30 30 31 31 32 32
REMARK SMILES IDX 93 33 33 34 92 35 34 36 35 37 36 38 86 39 37 40 91 41 85 42
REMARK SMILES IDX 87 43 38 44 90 45 84 46 83 47 39 49 71 50 51 51 70 52 52 53
REMARK SMILES IDX 55 54 69 55 88 56 53 57 54 58 68 60 89 61 56 62 40 63 41 64
REMARK SMILES IDX 49 65 42 66 44 67 50 68 43 69 45 70 46 71 47 72 48 73 72 74
REMARK SMILES IDX 73 75 81 76 74 77 76 78 82 79 75 80 77 81 78 82 79 83 80 84
REMARK SMILES IDX 57 85 58 86 66 87 59 88 61 89 67 90 60 91 62 92 63 93 64 94
REMARK SMILES IDX 65 95
REMARK H PARENT 87 48 55 59
REMARK Flexibility Score: inf
ROOT
ATOM      1  C   UNL A   1      33.695  28.948  24.211  1.00  0.00     0.188 C 
ENDROOT
BRANCH   1   2
ATOM      2  O   UNL A   1      33.669  27.965  23.156  1.00  0.00    -0.376 OA
BRANCH   2   3
ATOM      3  C   UNL A   1      32.561  27.370  22.459  1.00  0.00     0.202 C 
BRANCH   3   4
ATOM      4  C   UNL A   1      32.717  25.894  21.736  1.00  0.00     0.261 C 
BRANCH   4   5
ATOM      5  O   UNL A   1      32.754  24.697  22.639  1.00  0.00    -0.460 OA
BRANCH   5   6
ATOM      6  C   UNL A   1      31.666  23.948  23.110  1.00  0.00     0.343 C 
ATOM      7  O   UNL A   1      30.506  24.319  23.069  1.00  0.00    -0.246 OA
BRANCH   6   8
ATOM      8  C   UNL A   1      32.141  22.569  23.630  1.00  0.00     0.119 A 
ATOM      9  C   UNL A   1      32.136  22.053  24.990  1.00  0.00     0.054 A 
ATOM     10  C   UNL A   1      32.175  20.635  25.149  1.00  0.00     0.027 A 
ATOM     11  C   UNL A   1      32.267  19.751  24.077  1.00  0.00     0.005 A 
ATOM     12  C   UNL A   1      32.382  21.644  22.587  1.00  0.00     0.139 A 
ATOM     13  C   UNL A   1      32.419  20.260  22.800  1.00  0.00     0.040 A 
ATOM     14  F   UNL A   1      32.456  22.054  21.309  1.00  0.00    -0.206 F 
BRANCH   9  15
ATOM     15  N   UNL A   1      32.064  22.794  26.209  1.00  0.00    -0.369 N 
ATOM     16  C   UNL A   1      30.696  23.202  26.561  1.00  0.00     0.144 C 
BRANCH  15  17
ATOM     17  C   UNL A   1      32.969  23.982  26.399  1.00  0.00     0.152 C 
BRANCH  17  18
ATOM     18  C   UNL A   1      34.382  23.602  26.497  1.00  0.00    -0.017 A 
ATOM     19  C   UNL A   1      34.811  22.508  27.214  1.00  0.00     0.071 A 
ATOM     20  C   UNL A   1      35.335  24.043  25.541  1.00  0.00     0.033 A 
ATOM     21  S   UNL A   1      35.683  21.597  26.091  1.00  0.00    -0.136 S 
ATOM     22  C   UNL A   1      35.813  22.894  24.980  1.00  0.00     0.070 A 
ATOM     23  Br  UNL A   1      36.267  22.955  23.110  1.00  0.00    -0.039 Br
ENDBRANCH  17  18
ENDBRANCH  15  17
ENDBRANCH   9  15
ENDBRANCH   6   8
ENDBRANCH   5   6
ENDBRANCH   4   5
ENDBRANCH   3   4
ENDBRANCH   2   3
ENDBRANCH   1   2
BRANCH   1  24
ATOM     24  C   UNL A   1      33.576  28.792  25.741  1.00  0.00     0.188 C 
BRANCH  24  25
ATOM     25  O   UNL A   1      32.325  28.958  26.372  1.00  0.00    -0.376 OA
BRANCH  25  26
ATOM     26  C   UNL A   1      31.595  30.067  25.900  1.00  0.00     0.202 C 
BRANCH  26  27
ATOM     27  C   UNL A   1      31.862  31.448  26.549  1.00  0.00     0.261 C 
BRANCH  27  28
ATOM     28  O   UNL A   1      32.702  31.497  27.730  1.00  0.00    -0.460 OA
BRANCH  28  29
ATOM     29  C   UNL A   1      33.733  32.392  27.695  1.00  0.00     0.338 C 
ATOM     30  O   UNL A   1      33.622  33.600  27.494  1.00  0.00    -0.246 OA
BRANCH  29  31
ATOM     31  C   UNL A   1      35.044  31.778  28.066  1.00  0.00     0.060 A 
ATOM     32  C   UNL A   1      35.114  30.385  28.241  1.00  0.00     0.016 A 
ATOM     33  C   UNL A   1      36.173  32.550  28.346  1.00  0.00     0.016 A 
ATOM     34  C   UNL A   1      36.275  29.775  28.748  1.00  0.00     0.010 A 
ATOM     35  C   UNL A   1      37.332  31.940  28.868  1.00  0.00     0.010 A 
ATOM     36  C   UNL A   1      37.380  30.554  29.116  1.00  0.00    -0.014 A 
BRANCH  36  37
ATOM     37  C   UNL A   1      38.473  29.988  29.967  1.00  0.00     0.031 A 
ATOM     38  C   UNL A   1      38.620  30.508  31.378  1.00  0.00     0.074 A 
ATOM     39  C   UNL A   1      39.351  29.066  29.524  1.00  0.00     0.049 A 
ATOM     40  N   UNL A   1      39.541  30.244  32.271  1.00  0.00    -0.248 NA
ATOM     41  C   UNL A   1      37.594  31.458  31.838  1.00  0.00     0.031 C 
ATOM     42  C   UNL A   1      39.346  28.465  28.196  1.00  0.00     0.029 A 
ATOM     43  N   UNL A   1      40.445  28.498  30.143  1.00  0.00    -0.354 N 
ATOM     44  C   UNL A   1      39.227  31.023  33.380  1.00  0.00     0.074 A 
ATOM     45  C   UNL A   1      38.031  31.766  33.049  1.00  0.00     0.031 C 
ATOM     46  C   UNL A   1      40.396  27.629  28.087  1.00  0.00     0.029 A 
ATOM     47  C   UNL A   1      41.178  27.665  29.326  1.00  0.00     0.049 A 
ATOM     48  H   UNL A   1      40.682  28.672  31.082  1.00  0.00     0.167 HD
ATOM     49  C   UNL A   1      39.866  31.111  34.572  1.00  0.00     0.034 A 
ATOM     50  C   UNL A   1      42.356  27.033  29.533  1.00  0.00     0.034 A 
ATOM     51  C   UNL A   1      41.046  30.371  34.923  1.00  0.00     0.049 A 
ATOM     52  C   UNL A   1      43.072  27.176  30.858  1.00  0.00     0.074 A 
ATOM     53  C   UNL A   1      41.727  30.374  36.129  1.00  0.00     0.029 A 
ATOM     54  N   UNL A   1      41.731  29.514  34.080  1.00  0.00    -0.354 N 
ATOM     55  N   UNL A   1      42.702  27.832  31.930  1.00  0.00    -0.248 NA
ATOM     56  C   UNL A   1      44.360  26.474  31.008  1.00  0.00     0.031 C 
ATOM     57  C   UNL A   1      42.845  29.547  36.004  1.00  0.00     0.029 A 
ATOM     58  C   UNL A   1      42.834  28.993  34.734  1.00  0.00     0.049 A 
ATOM     59  H   UNL A   1      41.472  29.307  33.154  1.00  0.00     0.167 HD
ATOM     60  C   UNL A   1      43.687  27.594  32.887  1.00  0.00     0.074 A 
ATOM     61  C   UNL A   1      44.664  26.720  32.276  1.00  0.00     0.031 C 
ATOM     62  C   UNL A   1      43.776  28.072  34.153  1.00  0.00     0.034 A 
BRANCH  49  63
ATOM     63  C   UNL A   1      39.290  32.032  35.615  1.00  0.00     0.023 A 
ATOM     64  C   UNL A   1      38.301  31.551  36.497  1.00  0.00     0.012 A 
ATOM     65  C   UNL A   1      39.807  33.330  35.793  1.00  0.00     0.148 A 
ATOM     66  C   UNL A   1      37.822  32.356  37.528  1.00  0.00     0.002 A 
ATOM     67  C   UNL A   1      39.359  34.108  36.853  1.00  0.00     0.091 A 
ATOM     68  F   UNL A   1      40.735  33.771  34.932  1.00  0.00    -0.205 F 
ATOM     69  C   UNL A   1      38.361  33.627  37.715  1.00  0.00     0.022 A 
BRANCH  67  70
ATOM     70  S   UNL A   1      40.051  35.721  37.234  1.00  0.00     0.127 S 
ATOM     71  O   UNL A   1      39.401  36.026  38.509  1.00  0.00    -0.237 OA
ATOM     72  O   UNL A   1      41.480  35.424  37.333  1.00  0.00    -0.237 OA
ATOM     73  O   UNL A   1      39.682  36.592  36.127  1.00  0.00    -0.744 OA
ENDBRANCH  67  70
ENDBRANCH  49  63
BRANCH  50  74
ATOM     74  C   UNL A   1      42.945  26.179  28.457  1.00  0.00     0.023 A 
ATOM     75  C   UNL A   1      42.431  24.886  28.235  1.00  0.00     0.012 A 
ATOM     76  C   UNL A   1      44.005  26.641  27.654  1.00  0.00     0.148 A 
ATOM     77  C   UNL A   1      42.974  24.062  27.246  1.00  0.00     0.002 A 
ATOM     78  C   UNL A   1      44.500  25.840  26.631  1.00  0.00     0.091 A 
ATOM     79  F   UNL A   1      44.500  27.862  27.900  1.00  0.00    -0.205 F 
ATOM     80  C   UNL A   1      43.999  24.544  26.436  1.00  0.00     0.022 A 
BRANCH  78  81
ATOM     81  S   UNL A   1      45.723  26.425  25.453  1.00  0.00     0.127 S 
ATOM     82  O   UNL A   1      45.949  25.233  24.640  1.00  0.00    -0.237 OA
ATOM     83  O   UNL A   1      44.994  27.502  24.783  1.00  0.00    -0.237 OA
ATOM     84  O   UNL A   1      46.857  26.869  26.252  1.00  0.00    -0.744 OA
ENDBRANCH  78  81
ENDBRANCH  50  74
BRANCH  62  85
ATOM     85  C   UNL A   1      44.938  27.640  35.015  1.00  0.00     0.023 A 
ATOM     86  C   UNL A   1      46.087  28.451  35.108  1.00  0.00     0.012 A 
ATOM     87  C   UNL A   1      44.830  26.501  35.841  1.00  0.00     0.148 A 
ATOM     88  C   UNL A   1      47.114  28.125  35.994  1.00  0.00     0.002 A 
ATOM     89  C   UNL A   1      45.834  26.213  36.758  1.00  0.00     0.091 A 
ATOM     90  F   UNL A   1      43.735  25.735  35.730  1.00  0.00    -0.205 F 
ATOM     91  C   UNL A   1      46.982  27.019  36.830  1.00  0.00     0.022 A 
BRANCH  89  92
ATOM     92  S   UNL A   1      45.702  24.872  37.949  1.00  0.00     0.127 S 
ATOM     93  O   UNL A   1      46.860  25.123  38.808  1.00  0.00    -0.237 OA
ATOM     94  O   UNL A   1      44.409  25.142  38.577  1.00  0.00    -0.237 OA
ATOM     95  O   UNL A   1      45.758  23.639  37.177  1.00  0.00    -0.744 OA
ENDBRANCH  89  92
ENDBRANCH  62  85
ENDBRANCH  36  37
ENDBRANCH  29  31
ENDBRANCH  28  29
ENDBRANCH  27  28
ENDBRANCH  26  27
ENDBRANCH  25  26
ENDBRANCH  24  25
ENDBRANCH   1  24
TORSDOF 23
ENDMDL
