MODEL 1
REMARK VINA RESULT:     -11.1      0.000      0.000
REMARK SMILES O=C(OCCOCCOCCOC(=O)c1noc(-c2ccccc2C(F)(F)F)n1)c1ccc(-c2c3nc(c(-c4cccc(S(=O)(=O)[O-])c4F)c4ccc([nH]4)c(-c4cccc(S(=O)(=O)[O-])c4F)c4nc(c(-c5cccc(S(=O)(=O)[O-])c5F)c5ccc2[nH]5)C=C4)C=C3)cc1
REMARK SMILES IDX 7 1 6 2 5 3 4 4 3 5 2 6 1 7 30 8 31 9 92 10 32 11 91 12
REMARK SMILES IDX 33 13 34 14 35 15 85 16 36 17 90 18 84 19 86 20 37 21 89 22
REMARK SMILES IDX 83 23 82 24 38 26 70 27 50 28 69 29 51 30 54 31 68 32 87 33
REMARK SMILES IDX 52 34 53 35 67 37 88 38 55 39 39 40 40 41 48 42 41 43 43 44
REMARK SMILES IDX 49 45 42 46 44 47 45 48 46 49 47 50 71 51 72 52 80 53 73 54
REMARK SMILES IDX 75 55 81 56 74 57 76 58 77 59 78 60 79 61 56 62 57 63 65 64
REMARK SMILES IDX 58 65 60 66 66 67 59 68 61 69 62 70 63 71 64 72 8 73 9 74
REMARK SMILES IDX 10 75 11 76 12 77 13 78 14 79 15 80 16 81 29 82 17 83 18 84
REMARK SMILES IDX 19 85 20 86 24 87 21 88 23 89 22 90 25 91 26 92 27 93 28 94
REMARK H PARENT 86 25 54 36
REMARK Flexibility Score: inf
ROOT
ATOM      1  C   UNL A   1      34.939  18.173  24.594  1.00  0.00     0.188 C 
ENDROOT
BRANCH   1   2
ATOM      2  O   UNL A   1      36.050  19.081  24.602  1.00  0.00    -0.376 OA
BRANCH   2   3
ATOM      3  C   UNL A   1      35.692  20.435  24.891  1.00  0.00     0.202 C 
BRANCH   3   4
ATOM      4  C   UNL A   1      36.756  21.223  25.663  1.00  0.00     0.261 C 
BRANCH   4   5
ATOM      5  O   UNL A   1      38.083  20.853  25.260  1.00  0.00    -0.460 OA
BRANCH   5   6
ATOM      6  C   UNL A   1      39.241  21.017  25.951  1.00  0.00     0.338 C 
ATOM      7  O   UNL A   1      40.003  20.056  26.051  1.00  0.00    -0.246 OA
BRANCH   6   8
ATOM      8  C   UNL A   1      39.672  22.325  26.537  1.00  0.00     0.060 A 
ATOM      9  C   UNL A   1      39.166  23.573  26.170  1.00  0.00     0.016 A 
ATOM     10  C   UNL A   1      40.626  22.280  27.568  1.00  0.00     0.016 A 
ATOM     11  C   UNL A   1      39.708  24.748  26.686  1.00  0.00     0.010 A 
ATOM     12  C   UNL A   1      41.116  23.457  28.150  1.00  0.00     0.010 A 
ATOM     13  C   UNL A   1      40.700  24.703  27.668  1.00  0.00    -0.014 A 
BRANCH  13  14
ATOM     14  C   UNL A   1      41.338  25.968  28.105  1.00  0.00     0.031 A 
ATOM     15  C   UNL A   1      42.750  26.262  27.675  1.00  0.00     0.074 A 
ATOM     16  C   UNL A   1      40.621  26.886  28.783  1.00  0.00     0.049 A 
ATOM     17  N   UNL A   1      43.467  27.335  27.882  1.00  0.00    -0.248 NA
ATOM     18  C   UNL A   1      43.442  25.221  26.896  1.00  0.00     0.031 C 
ATOM     19  C   UNL A   1      39.226  26.727  29.201  1.00  0.00     0.029 A 
ATOM     20  N   UNL A   1      40.950  28.144  29.213  1.00  0.00    -0.354 N 
ATOM     21  C   UNL A   1      44.694  27.093  27.275  1.00  0.00     0.074 A 
ATOM     22  C   UNL A   1      44.634  25.765  26.707  1.00  0.00     0.031 C 
ATOM     23  C   UNL A   1      38.810  27.854  29.801  1.00  0.00     0.029 A 
ATOM     24  C   UNL A   1      39.914  28.805  29.831  1.00  0.00     0.049 A 
ATOM     25  H   UNL A   1      41.844  28.538  29.092  1.00  0.00     0.167 HD
ATOM     26  C   UNL A   1      45.766  27.912  27.176  1.00  0.00     0.034 A 
ATOM     27  C   UNL A   1      39.862  30.045  30.349  1.00  0.00     0.034 A 
ATOM     28  C   UNL A   1      45.816  29.236  27.728  1.00  0.00     0.049 A 
ATOM     29  C   UNL A   1      41.084  30.916  30.258  1.00  0.00     0.074 A 
ATOM     30  C   UNL A   1      46.870  30.131  27.734  1.00  0.00     0.029 A 
ATOM     31  N   UNL A   1      44.755  29.859  28.368  1.00  0.00    -0.354 N 
ATOM     32  N   UNL A   1      42.227  30.674  29.664  1.00  0.00    -0.248 NA
ATOM     33  C   UNL A   1      40.997  32.242  30.888  1.00  0.00     0.031 C 
ATOM     34  C   UNL A   1      46.445  31.297  28.380  1.00  0.00     0.029 A 
ATOM     35  C   UNL A   1      45.125  31.130  28.767  1.00  0.00     0.049 A 
ATOM     36  H   UNL A   1      43.870  29.456  28.515  1.00  0.00     0.167 HD
ATOM     37  C   UNL A   1      42.993  31.818  29.840  1.00  0.00     0.074 A 
ATOM     38  C   UNL A   1      42.172  32.765  30.567  1.00  0.00     0.031 C 
ATOM     39  C   UNL A   1      44.271  32.060  29.458  1.00  0.00     0.034 A 
BRANCH  26  40
ATOM     40  C   UNL A   1      46.955  27.396  26.413  1.00  0.00     0.023 A 
ATOM     41  C   UNL A   1      47.010  27.580  25.017  1.00  0.00     0.012 A 
ATOM     42  C   UNL A   1      48.011  26.737  27.068  1.00  0.00     0.148 A 
ATOM     43  C   UNL A   1      48.088  27.092  24.279  1.00  0.00     0.002 A 
ATOM     44  C   UNL A   1      49.096  26.276  26.330  1.00  0.00     0.091 A 
ATOM     45  F   UNL A   1      47.924  26.547  28.393  1.00  0.00    -0.205 F 
ATOM     46  C   UNL A   1      49.132  26.446  24.935  1.00  0.00     0.022 A 
BRANCH  44  47
ATOM     47  S   UNL A   1      50.507  25.464  27.087  1.00  0.00     0.127 S 
ATOM     48  O   UNL A   1      50.932  26.464  28.065  1.00  0.00    -0.237 OA
ATOM     49  O   UNL A   1      49.900  24.265  27.666  1.00  0.00    -0.237 OA
ATOM     50  O   UNL A   1      51.447  25.206  26.005  1.00  0.00    -0.744 OA
ENDBRANCH  44  47
ENDBRANCH  26  40
BRANCH  27  51
ATOM     51  C   UNL A   1      38.612  30.575  30.957  1.00  0.00     0.023 A 
ATOM     52  C   UNL A   1      38.333  30.281  32.306  1.00  0.00     0.012 A 
ATOM     53  C   UNL A   1      37.675  31.300  30.198  1.00  0.00     0.148 A 
ATOM     54  C   UNL A   1      37.122  30.670  32.879  1.00  0.00     0.002 A 
ATOM     55  C   UNL A   1      36.472  31.689  30.776  1.00  0.00     0.091 A 
ATOM     56  F   UNL A   1      37.978  31.586  28.923  1.00  0.00    -0.205 F 
ATOM     57  C   UNL A   1      36.190  31.367  32.115  1.00  0.00     0.022 A 
BRANCH  55  58
ATOM     58  S   UNL A   1      35.188  32.555  29.867  1.00  0.00     0.127 S 
ATOM     59  O   UNL A   1      35.906  33.724  29.362  1.00  0.00    -0.237 OA
ATOM     60  O   UNL A   1      34.826  31.572  28.846  1.00  0.00    -0.237 OA
ATOM     61  O   UNL A   1      34.146  32.860  30.839  1.00  0.00    -0.744 OA
ENDBRANCH  55  58
ENDBRANCH  27  51
BRANCH  39  62
ATOM     62  C   UNL A   1      44.854  33.393  29.827  1.00  0.00     0.023 A 
ATOM     63  C   UNL A   1      45.560  33.524  31.038  1.00  0.00     0.012 A 
ATOM     64  C   UNL A   1      44.760  34.491  28.953  1.00  0.00     0.148 A 
ATOM     65  C   UNL A   1      46.149  34.739  31.384  1.00  0.00     0.002 A 
ATOM     66  C   UNL A   1      45.382  35.687  29.286  1.00  0.00     0.091 A 
ATOM     67  F   UNL A   1      44.056  34.351  27.819  1.00  0.00    -0.205 F 
ATOM     68  C   UNL A   1      46.070  35.816  30.503  1.00  0.00     0.022 A 
BRANCH  66  69
ATOM     69  S   UNL A   1      45.396  37.088  28.162  1.00  0.00     0.127 S 
ATOM     70  O   UNL A   1      44.235  37.849  28.618  1.00  0.00    -0.237 OA
ATOM     71  O   UNL A   1      46.688  37.713  28.448  1.00  0.00    -0.237 OA
ATOM     72  O   UNL A   1      45.294  36.515  26.826  1.00  0.00    -0.744 OA
ENDBRANCH  66  69
ENDBRANCH  39  62
ENDBRANCH  13  14
ENDBRANCH   6   8
ENDBRANCH   5   6
ENDBRANCH   4   5
ENDBRANCH   3   4
ENDBRANCH   2   3
ENDBRANCH   1   2
BRANCH   1  73
ATOM     73  C   UNL A   1      33.636  18.899  24.944  1.00  0.00     0.188 C 
BRANCH  73  74
ATOM     74  O   UNL A   1      32.816  19.227  23.814  1.00  0.00    -0.376 OA
BRANCH  74  75
ATOM     75  C   UNL A   1      32.299  20.556  23.760  1.00  0.00     0.202 C 
BRANCH  75  76
ATOM     76  C   UNL A   1      32.001  21.196  25.115  1.00  0.00     0.261 C 
BRANCH  76  77
ATOM     77  O   UNL A   1      32.977  22.182  25.486  1.00  0.00    -0.457 OA
BRANCH  77  78
ATOM     78  C   UNL A   1      32.722  22.808  26.678  1.00  0.00     0.380 C 
ATOM     79  O   UNL A   1      33.152  22.408  27.756  1.00  0.00    -0.242 OA
BRANCH  78  80
ATOM     80  C   UNL A   1      31.872  23.995  26.571  1.00  0.00     0.281 A 
ATOM     81  N   UNL A   1      30.630  24.128  27.077  1.00  0.00    -0.049 NA
ATOM     82  N   UNL A   1      32.276  25.064  25.813  1.00  0.00    -0.181 NA
ATOM     83  O   UNL A   1      30.187  25.350  26.526  1.00  0.00    -0.333 OA
ATOM     84  C   UNL A   1      31.223  25.836  25.777  1.00  0.00     0.259 A 
BRANCH  84  85
ATOM     85  C   UNL A   1      31.040  27.053  24.999  1.00  0.00     0.052 A 
ATOM     86  C   UNL A   1      30.520  27.002  23.695  1.00  0.00     0.014 A 
ATOM     87  C   UNL A   1      31.329  28.315  25.579  1.00  0.00     0.068 A 
ATOM     88  C   UNL A   1      30.259  28.175  22.986  1.00  0.00     0.001 A 
ATOM     89  C   UNL A   1      31.060  29.482  24.845  1.00  0.00     0.014 A 
ATOM     90  C   UNL A   1      30.527  29.411  23.563  1.00  0.00     0.001 A 
BRANCH  87  91
ATOM     91  C   UNL A   1      31.899  28.462  26.973  1.00  0.00     0.417 C 
ATOM     92  F   UNL A   1      31.017  28.115  27.960  1.00  0.00    -0.166 F 
ATOM     93  F   UNL A   1      33.008  27.707  27.206  1.00  0.00    -0.166 F 
ATOM     94  F   UNL A   1      32.231  29.754  27.273  1.00  0.00    -0.166 F 
ENDBRANCH  87  91
ENDBRANCH  84  85
ENDBRANCH  78  80
ENDBRANCH  77  78
ENDBRANCH  76  77
ENDBRANCH  75  76
ENDBRANCH  74  75
ENDBRANCH  73  74
ENDBRANCH   1  73
TORSDOF 22
ENDMDL
MODEL 2
REMARK VINA RESULT:     -10.7      2.377      3.037
REMARK SMILES O=C(OCCOCCOCCOC(=O)c1noc(-c2ccccc2C(F)(F)F)n1)c1ccc(-c2c3nc(c(-c4cccc(S(=O)(=O)[O-])c4F)c4ccc([nH]4)c(-c4cccc(S(=O)(=O)[O-])c4F)c4nc(c(-c5cccc(S(=O)(=O)[O-])c5F)c5ccc2[nH]5)C=C4)C=C3)cc1
REMARK SMILES IDX 7 1 6 2 5 3 4 4 3 5 2 6 1 7 30 8 31 9 92 10 32 11 91 12
REMARK SMILES IDX 33 13 34 14 35 15 85 16 36 17 90 18 84 19 86 20 37 21 89 22
REMARK SMILES IDX 83 23 82 24 38 26 70 27 50 28 69 29 51 30 54 31 68 32 87 33
REMARK SMILES IDX 52 34 53 35 67 37 88 38 55 39 39 40 40 41 48 42 41 43 43 44
REMARK SMILES IDX 49 45 42 46 44 47 45 48 46 49 47 50 71 51 72 52 80 53 73 54
REMARK SMILES IDX 75 55 81 56 74 57 76 58 77 59 78 60 79 61 56 62 57 63 65 64
REMARK SMILES IDX 58 65 60 66 66 67 59 68 61 69 62 70 63 71 64 72 8 73 9 74
REMARK SMILES IDX 10 75 11 76 12 77 13 78 14 79 15 80 16 81 29 82 17 83 18 84
REMARK SMILES IDX 19 85 20 86 24 87 21 88 23 89 22 90 25 91 26 92 27 93 28 94
REMARK H PARENT 86 25 54 36
REMARK Flexibility Score: inf
ROOT
ATOM      1  C   UNL A   1      34.283  19.487  24.624  1.00  0.00     0.188 C 
ENDROOT
BRANCH   1   2
ATOM      2  O   UNL A   1      35.537  20.088  24.976  1.00  0.00    -0.376 OA
BRANCH   2   3
ATOM      3  C   UNL A   1      35.417  21.196  25.873  1.00  0.00     0.202 C 
BRANCH   3   4
ATOM      4  C   UNL A   1      36.532  22.240  25.745  1.00  0.00     0.261 C 
BRANCH   4   5
ATOM      5  O   UNL A   1      37.783  21.635  25.382  1.00  0.00    -0.460 OA
BRANCH   5   6
ATOM      6  C   UNL A   1      38.966  21.704  26.046  1.00  0.00     0.338 C 
ATOM      7  O   UNL A   1      39.624  20.672  26.175  1.00  0.00    -0.246 OA
BRANCH   6   8
ATOM      8  C   UNL A   1      39.545  22.981  26.567  1.00  0.00     0.060 A 
ATOM      9  C   UNL A   1      39.140  24.260  26.182  1.00  0.00     0.016 A 
ATOM     10  C   UNL A   1      40.541  22.876  27.554  1.00  0.00     0.016 A 
ATOM     11  C   UNL A   1      39.814  25.393  26.633  1.00  0.00     0.010 A 
ATOM     12  C   UNL A   1      41.165  24.018  28.073  1.00  0.00     0.010 A 
ATOM     13  C   UNL A   1      40.844  25.283  27.569  1.00  0.00    -0.014 A 
BRANCH  13  14
ATOM     14  C   UNL A   1      41.618  26.494  27.934  1.00  0.00     0.031 A 
ATOM     15  C   UNL A   1      43.008  26.668  27.383  1.00  0.00     0.074 A 
ATOM     16  C   UNL A   1      41.039  27.473  28.657  1.00  0.00     0.049 A 
ATOM     17  N   UNL A   1      43.824  27.680  27.514  1.00  0.00    -0.248 NA
ATOM     18  C   UNL A   1      43.544  25.569  26.562  1.00  0.00     0.031 C 
ATOM     19  C   UNL A   1      39.676  27.432  29.193  1.00  0.00     0.029 A 
ATOM     20  N   UNL A   1      41.504  28.702  29.041  1.00  0.00    -0.354 N 
ATOM     21  C   UNL A   1      44.971  27.335  26.808  1.00  0.00     0.074 A 
ATOM     22  C   UNL A   1      44.755  26.012  26.266  1.00  0.00     0.031 C 
ATOM     23  C   UNL A   1      39.405  28.593  29.811  1.00  0.00     0.029 A 
ATOM     24  C   UNL A   1      40.581  29.450  29.734  1.00  0.00     0.049 A 
ATOM     25  H   UNL A   1      42.414  29.021  28.840  1.00  0.00     0.167 HD
ATOM     26  C   UNL A   1      46.094  28.062  26.608  1.00  0.00     0.034 A 
ATOM     27  C   UNL A   1      40.675  30.694  30.238  1.00  0.00     0.034 A 
ATOM     28  C   UNL A   1      46.298  29.381  27.136  1.00  0.00     0.049 A 
ATOM     29  C   UNL A   1      41.951  31.461  30.032  1.00  0.00     0.074 A 
ATOM     30  C   UNL A   1      47.419  30.186  27.041  1.00  0.00     0.029 A 
ATOM     31  N   UNL A   1      45.350  30.093  27.854  1.00  0.00    -0.354 N 
ATOM     32  N   UNL A   1      43.016  31.122  29.348  1.00  0.00    -0.248 NA
ATOM     33  C   UNL A   1      42.026  32.794  30.650  1.00  0.00     0.031 C 
ATOM     34  C   UNL A   1      47.146  31.388  27.705  1.00  0.00     0.029 A 
ATOM     35  C   UNL A   1      45.855  31.332  28.204  1.00  0.00     0.049 A 
ATOM     36  H   UNL A   1      44.451  29.765  28.081  1.00  0.00     0.167 HD
ATOM     37  C   UNL A   1      43.885  32.200  29.443  1.00  0.00     0.074 A 
ATOM     38  C   UNL A   1      43.208  33.217  30.224  1.00  0.00     0.031 C 
ATOM     39  C   UNL A   1      45.141  32.334  28.952  1.00  0.00     0.034 A 
BRANCH  26  40
ATOM     40  C   UNL A   1      47.168  27.445  25.755  1.00  0.00     0.023 A 
ATOM     41  C   UNL A   1      48.039  26.495  26.326  1.00  0.00     0.012 A 
ATOM     42  C   UNL A   1      47.318  27.798  24.402  1.00  0.00     0.148 A 
ATOM     43  C   UNL A   1      49.060  25.923  25.568  1.00  0.00     0.002 A 
ATOM     44  C   UNL A   1      48.322  27.203  23.644  1.00  0.00     0.091 A 
ATOM     45  F   UNL A   1      46.497  28.726  23.888  1.00  0.00    -0.205 F 
ATOM     46  C   UNL A   1      49.197  26.272  24.228  1.00  0.00     0.022 A 
BRANCH  44  47
ATOM     47  S   UNL A   1      48.557  27.560  21.900  1.00  0.00     0.127 S 
ATOM     48  O   UNL A   1      47.255  28.114  21.535  1.00  0.00    -0.237 OA
ATOM     49  O   UNL A   1      49.648  28.537  21.929  1.00  0.00    -0.237 OA
ATOM     50  O   UNL A   1      48.897  26.290  21.275  1.00  0.00    -0.744 OA
ENDBRANCH  44  47
ENDBRANCH  26  40
BRANCH  27  51
ATOM     51  C   UNL A   1      39.528  31.328  30.943  1.00  0.00     0.023 A 
ATOM     52  C   UNL A   1      38.646  32.145  30.210  1.00  0.00     0.012 A 
ATOM     53  C   UNL A   1      39.349  31.186  32.331  1.00  0.00     0.148 A 
ATOM     54  C   UNL A   1      37.624  32.841  30.855  1.00  0.00     0.002 A 
ATOM     55  C   UNL A   1      38.325  31.879  32.969  1.00  0.00     0.091 A 
ATOM     56  F   UNL A   1      40.189  30.383  33.000  1.00  0.00    -0.205 F 
ATOM     57  C   UNL A   1      37.467  32.714  32.233  1.00  0.00     0.022 A 
BRANCH  55  58
ATOM     58  S   UNL A   1      38.063  31.816  34.744  1.00  0.00     0.127 S 
ATOM     59  O   UNL A   1      39.087  32.735  35.237  1.00  0.00    -0.237 OA
ATOM     60  O   UNL A   1      36.691  32.308  34.864  1.00  0.00    -0.237 OA
ATOM     61  O   UNL A   1      38.264  30.424  35.128  1.00  0.00    -0.744 OA
ENDBRANCH  55  58
ENDBRANCH  27  51
BRANCH  39  62
ATOM     62  C   UNL A   1      45.860  33.617  29.252  1.00  0.00     0.023 A 
ATOM     63  C   UNL A   1      46.699  33.688  30.381  1.00  0.00     0.012 A 
ATOM     64  C   UNL A   1      45.757  34.723  28.389  1.00  0.00     0.148 A 
ATOM     65  C   UNL A   1      47.411  34.853  30.658  1.00  0.00     0.002 A 
ATOM     66  C   UNL A   1      46.500  35.866  28.650  1.00  0.00     0.091 A 
ATOM     67  F   UNL A   1      44.928  34.643  27.337  1.00  0.00    -0.205 F 
ATOM     68  C   UNL A   1      47.322  35.937  29.787  1.00  0.00     0.022 A 
BRANCH  66  69
ATOM     69  S   UNL A   1      46.501  37.268  27.526  1.00  0.00     0.127 S 
ATOM     70  O   UNL A   1      45.170  37.176  26.931  1.00  0.00    -0.237 OA
ATOM     71  O   UNL A   1      46.688  38.402  28.432  1.00  0.00    -0.237 OA
ATOM     72  O   UNL A   1      47.618  37.038  26.620  1.00  0.00    -0.744 OA
ENDBRANCH  66  69
ENDBRANCH  39  62
ENDBRANCH  13  14
ENDBRANCH   6   8
ENDBRANCH   5   6
ENDBRANCH   4   5
ENDBRANCH   3   4
ENDBRANCH   2   3
ENDBRANCH   1   2
BRANCH   1  73
ATOM     73  C   UNL A   1      33.196  19.850  25.640  1.00  0.00     0.188 C 
BRANCH  73  74
ATOM     74  O   UNL A   1      32.020  20.441  25.070  1.00  0.00    -0.376 OA
BRANCH  74  75
ATOM     75  C   UNL A   1      32.148  21.772  24.572  1.00  0.00     0.202 C 
BRANCH  75  76
ATOM     76  C   UNL A   1      32.268  22.859  25.638  1.00  0.00     0.261 C 
BRANCH  76  77
ATOM     77  O   UNL A   1      32.007  24.172  25.120  1.00  0.00    -0.457 OA
BRANCH  77  78
ATOM     78  C   UNL A   1      31.865  25.140  26.079  1.00  0.00     0.380 C 
ATOM     79  O   UNL A   1      31.163  25.004  27.077  1.00  0.00    -0.242 OA
BRANCH  78  80
ATOM     80  C   UNL A   1      32.609  26.373  25.813  1.00  0.00     0.281 A 
ATOM     81  N   UNL A   1      33.269  26.669  24.677  1.00  0.00    -0.049 NA
ATOM     82  N   UNL A   1      32.774  27.304  26.806  1.00  0.00    -0.181 NA
ATOM     83  O   UNL A   1      33.971  27.848  25.011  1.00  0.00    -0.333 OA
ATOM     84  C   UNL A   1      33.629  28.151  26.299  1.00  0.00     0.259 A 
BRANCH  84  85
ATOM     85  C   UNL A   1      34.267  29.276  26.968  1.00  0.00     0.052 A 
ATOM     86  C   UNL A   1      35.596  29.187  27.416  1.00  0.00     0.014 A 
ATOM     87  C   UNL A   1      33.568  30.501  27.119  1.00  0.00     0.068 A 
ATOM     88  C   UNL A   1      36.235  30.296  27.972  1.00  0.00     0.001 A 
ATOM     89  C   UNL A   1      34.231  31.602  27.685  1.00  0.00     0.014 A 
ATOM     90  C   UNL A   1      35.554  31.499  28.103  1.00  0.00     0.001 A 
BRANCH  87  91
ATOM     91  C   UNL A   1      32.132  30.681  26.675  1.00  0.00     0.417 C 
ATOM     92  F   UNL A   1      31.660  31.951  26.865  1.00  0.00    -0.166 F 
ATOM     93  F   UNL A   1      31.918  30.416  25.357  1.00  0.00    -0.166 F 
ATOM     94  F   UNL A   1      31.260  29.900  27.382  1.00  0.00    -0.166 F 
ENDBRANCH  87  91
ENDBRANCH  84  85
ENDBRANCH  78  80
ENDBRANCH  77  78
ENDBRANCH  76  77
ENDBRANCH  75  76
ENDBRANCH  74  75
ENDBRANCH  73  74
ENDBRANCH   1  73
TORSDOF 22
ENDMDL
MODEL 3
REMARK VINA RESULT:     -10.3      5.422     10.548
REMARK SMILES O=C(OCCOCCOCCOC(=O)c1noc(-c2ccccc2C(F)(F)F)n1)c1ccc(-c2c3nc(c(-c4cccc(S(=O)(=O)[O-])c4F)c4ccc([nH]4)c(-c4cccc(S(=O)(=O)[O-])c4F)c4nc(c(-c5cccc(S(=O)(=O)[O-])c5F)c5ccc2[nH]5)C=C4)C=C3)cc1
REMARK SMILES IDX 7 1 6 2 5 3 4 4 3 5 2 6 1 7 30 8 31 9 92 10 32 11 91 12
REMARK SMILES IDX 33 13 34 14 35 15 85 16 36 17 90 18 84 19 86 20 37 21 89 22
REMARK SMILES IDX 83 23 82 24 38 26 70 27 50 28 69 29 51 30 54 31 68 32 87 33
REMARK SMILES IDX 52 34 53 35 67 37 88 38 55 39 39 40 40 41 48 42 41 43 43 44
REMARK SMILES IDX 49 45 42 46 44 47 45 48 46 49 47 50 71 51 72 52 80 53 73 54
REMARK SMILES IDX 75 55 81 56 74 57 76 58 77 59 78 60 79 61 56 62 57 63 65 64
REMARK SMILES IDX 58 65 60 66 66 67 59 68 61 69 62 70 63 71 64 72 8 73 9 74
REMARK SMILES IDX 10 75 11 76 12 77 13 78 14 79 15 80 16 81 29 82 17 83 18 84
REMARK SMILES IDX 19 85 20 86 24 87 21 88 23 89 22 90 25 91 26 92 27 93 28 94
REMARK H PARENT 86 25 54 36
REMARK Flexibility Score: inf
ROOT
ATOM      1  C   UNL A   1      32.095  30.517  26.084  1.00  0.00     0.188 C 
ENDROOT
BRANCH   1   2
ATOM      2  O   UNL A   1      32.607  30.615  27.421  1.00  0.00    -0.376 OA
BRANCH   2   3
ATOM      3  C   UNL A   1      33.362  31.805  27.667  1.00  0.00     0.202 C 
BRANCH   3   4
ATOM      4  C   UNL A   1      32.737  33.083  27.095  1.00  0.00     0.261 C 
BRANCH   4   5
ATOM      5  O   UNL A   1      32.327  33.982  28.138  1.00  0.00    -0.460 OA
BRANCH   5   6
ATOM      6  C   UNL A   1      33.114  34.766  28.919  1.00  0.00     0.338 C 
ATOM      7  O   UNL A   1      32.725  35.903  29.185  1.00  0.00    -0.246 OA
BRANCH   6   8
ATOM      8  C   UNL A   1      34.396  34.297  29.532  1.00  0.00     0.060 A 
ATOM      9  C   UNL A   1      35.670  34.559  29.025  1.00  0.00     0.016 A 
ATOM     10  C   UNL A   1      34.303  33.577  30.736  1.00  0.00     0.016 A 
ATOM     11  C   UNL A   1      36.803  33.984  29.597  1.00  0.00     0.010 A 
ATOM     12  C   UNL A   1      35.448  33.066  31.362  1.00  0.00     0.010 A 
ATOM     13  C   UNL A   1      36.702  33.219  30.760  1.00  0.00    -0.014 A 
BRANCH  13  14
ATOM     14  C   UNL A   1      37.908  32.524  31.271  1.00  0.00     0.031 A 
ATOM     15  C   UNL A   1      38.445  32.892  32.628  1.00  0.00     0.074 A 
ATOM     16  C   UNL A   1      38.445  31.504  30.574  1.00  0.00     0.049 A 
ATOM     17  N   UNL A   1      39.438  32.361  33.292  1.00  0.00    -0.248 NA
ATOM     18  C   UNL A   1      37.767  33.989  33.341  1.00  0.00     0.031 C 
ATOM     19  C   UNL A   1      37.968  31.026  29.274  1.00  0.00     0.029 A 
ATOM     20  N   UNL A   1      39.485  30.663  30.869  1.00  0.00    -0.354 N 
ATOM     21  C   UNL A   1      39.513  33.066  34.488  1.00  0.00     0.074 A 
ATOM     22  C   UNL A   1      38.479  34.075  34.453  1.00  0.00     0.031 C 
ATOM     23  C   UNL A   1      38.693  29.960  28.896  1.00  0.00     0.029 A 
ATOM     24  C   UNL A   1      39.700  29.694  29.916  1.00  0.00     0.049 A 
ATOM     25  H   UNL A   1      40.028  30.743  31.687  1.00  0.00     0.167 HD
ATOM     26  C   UNL A   1      40.350  32.874  35.533  1.00  0.00     0.034 A 
ATOM     27  C   UNL A   1      40.601  28.697  29.880  1.00  0.00     0.034 A 
ATOM     28  C   UNL A   1      41.366  31.861  35.570  1.00  0.00     0.049 A 
ATOM     29  C   UNL A   1      41.544  28.535  31.040  1.00  0.00     0.074 A 
ATOM     30  C   UNL A   1      42.305  31.614  36.555  1.00  0.00     0.029 A 
ATOM     31  N   UNL A   1      41.568  30.917  34.575  1.00  0.00    -0.354 N 
ATOM     32  N   UNL A   1      41.586  29.202  32.167  1.00  0.00    -0.248 NA
ATOM     33  C   UNL A   1      42.548  27.466  30.930  1.00  0.00     0.031 C 
ATOM     34  C   UNL A   1      43.077  30.518  36.152  1.00  0.00     0.029 A 
ATOM     35  C   UNL A   1      42.612  30.080  34.922  1.00  0.00     0.049 A 
ATOM     36  H   UNL A   1      41.045  30.853  33.744  1.00  0.00     0.167 HD
ATOM     37  C   UNL A   1      42.612  28.629  32.906  1.00  0.00     0.074 A 
ATOM     38  C   UNL A   1      43.144  27.540  32.111  1.00  0.00     0.031 C 
ATOM     39  C   UNL A   1      43.092  28.984  34.123  1.00  0.00     0.034 A 
BRANCH  26  40
ATOM     40  C   UNL A   1      40.171  33.769  36.729  1.00  0.00     0.023 A 
ATOM     41  C   UNL A   1      39.057  33.577  37.570  1.00  0.00     0.012 A 
ATOM     42  C   UNL A   1      41.094  34.789  37.022  1.00  0.00     0.148 A 
ATOM     43  C   UNL A   1      38.850  34.406  38.673  1.00  0.00     0.002 A 
ATOM     44  C   UNL A   1      40.896  35.594  38.138  1.00  0.00     0.091 A 
ATOM     45  F   UNL A   1      42.130  34.972  36.191  1.00  0.00    -0.205 F 
ATOM     46  C   UNL A   1      39.771  35.409  38.960  1.00  0.00     0.022 A 
BRANCH  44  47
ATOM     47  S   UNL A   1      42.045  36.890  38.613  1.00  0.00     0.127 S 
ATOM     48  O   UNL A   1      42.535  37.340  37.311  1.00  0.00    -0.237 OA
ATOM     49  O   UNL A   1      41.170  37.844  39.296  1.00  0.00    -0.237 OA
ATOM     50  O   UNL A   1      43.035  36.253  39.470  1.00  0.00    -0.744 OA
ENDBRANCH  44  47
ENDBRANCH  26  40
BRANCH  27  51
ATOM     51  C   UNL A   1      40.642  27.735  28.746  1.00  0.00     0.023 A 
ATOM     52  C   UNL A   1      39.786  26.617  28.770  1.00  0.00     0.012 A 
ATOM     53  C   UNL A   1      41.562  27.880  27.691  1.00  0.00     0.148 A 
ATOM     54  C   UNL A   1      39.871  25.639  27.779  1.00  0.00     0.002 A 
ATOM     55  C   UNL A   1      41.639  26.904  26.704  1.00  0.00     0.091 A 
ATOM     56  F   UNL A   1      42.349  28.966  27.682  1.00  0.00    -0.205 F 
ATOM     57  C   UNL A   1      40.800  25.778  26.751  1.00  0.00     0.022 A 
BRANCH  55  58
ATOM     58  S   UNL A   1      42.829  26.969  25.359  1.00  0.00     0.127 S 
ATOM     59  O   UNL A   1      44.097  27.067  26.079  1.00  0.00    -0.237 OA
ATOM     60  O   UNL A   1      42.601  25.686  24.694  1.00  0.00    -0.237 OA
ATOM     61  O   UNL A   1      42.483  28.149  24.577  1.00  0.00    -0.744 OA
ENDBRANCH  55  58
ENDBRANCH  27  51
BRANCH  39  62
ATOM     62  C   UNL A   1      44.251  28.192  34.658  1.00  0.00     0.023 A 
ATOM     63  C   UNL A   1      45.557  28.520  34.247  1.00  0.00     0.012 A 
ATOM     64  C   UNL A   1      44.054  27.175  35.609  1.00  0.00     0.148 A 
ATOM     65  C   UNL A   1      46.653  27.830  34.762  1.00  0.00     0.002 A 
ATOM     66  C   UNL A   1      45.153  26.519  36.147  1.00  0.00     0.091 A 
ATOM     67  F   UNL A   1      42.799  26.860  35.964  1.00  0.00    -0.205 F 
ATOM     68  C   UNL A   1      46.452  26.839  35.720  1.00  0.00     0.022 A 
BRANCH  66  69
ATOM     69  S   UNL A   1      44.976  25.293  37.448  1.00  0.00     0.127 S 
ATOM     70  O   UNL A   1      46.366  24.918  37.699  1.00  0.00    -0.237 OA
ATOM     71  O   UNL A   1      44.346  26.059  38.524  1.00  0.00    -0.237 OA
ATOM     72  O   UNL A   1      44.130  24.249  36.885  1.00  0.00    -0.744 OA
ENDBRANCH  66  69
ENDBRANCH  39  62
ENDBRANCH  13  14
ENDBRANCH   6   8
ENDBRANCH   5   6
ENDBRANCH   4   5
ENDBRANCH   3   4
ENDBRANCH   2   3
ENDBRANCH   1   2
BRANCH   1  73
ATOM     73  C   UNL A   1      31.849  29.055  25.698  1.00  0.00     0.188 C 
BRANCH  73  74
ATOM     74  O   UNL A   1      32.258  28.713  24.367  1.00  0.00    -0.376 OA
BRANCH  74  75
ATOM     75  C   UNL A   1      31.562  27.637  23.738  1.00  0.00     0.202 C 
BRANCH  75  76
ATOM     76  C   UNL A   1      30.554  26.907  24.623  1.00  0.00     0.261 C 
BRANCH  76  77
ATOM     77  O   UNL A   1      30.748  25.485  24.622  1.00  0.00    -0.457 OA
BRANCH  77  78
ATOM     78  C   UNL A   1      30.601  24.894  25.850  1.00  0.00     0.380 C 
ATOM     79  O   UNL A   1      29.641  25.100  26.587  1.00  0.00    -0.242 OA
BRANCH  78  80
ATOM     80  C   UNL A   1      31.697  24.001  26.230  1.00  0.00     0.281 A 
ATOM     81  N   UNL A   1      31.812  23.344  27.400  1.00  0.00    -0.049 NA
ATOM     82  N   UNL A   1      32.785  23.859  25.408  1.00  0.00    -0.181 NA
ATOM     83  O   UNL A   1      33.117  22.807  27.341  1.00  0.00    -0.333 OA
ATOM     84  C   UNL A   1      33.630  23.170  26.127  1.00  0.00     0.259 A 
BRANCH  84  85
ATOM     85  C   UNL A   1      35.010  22.839  25.800  1.00  0.00     0.052 A 
ATOM     86  C   UNL A   1      36.040  23.774  26.001  1.00  0.00     0.014 A 
ATOM     87  C   UNL A   1      35.337  21.541  25.333  1.00  0.00     0.068 A 
ATOM     88  C   UNL A   1      37.372  23.424  25.777  1.00  0.00     0.001 A 
ATOM     89  C   UNL A   1      36.684  21.212  25.111  1.00  0.00     0.014 A 
ATOM     90  C   UNL A   1      37.691  22.146  25.335  1.00  0.00     0.001 A 
BRANCH  87  91
ATOM     91  C   UNL A   1      34.290  20.477  25.081  1.00  0.00     0.417 C 
ATOM     92  F   UNL A   1      33.260  20.905  24.289  1.00  0.00    -0.166 F 
ATOM     93  F   UNL A   1      34.766  19.357  24.472  1.00  0.00    -0.166 F 
ATOM     94  F   UNL A   1      33.669  20.067  26.230  1.00  0.00    -0.166 F 
ENDBRANCH  87  91
ENDBRANCH  84  85
ENDBRANCH  78  80
ENDBRANCH  77  78
ENDBRANCH  76  77
ENDBRANCH  75  76
ENDBRANCH  74  75
ENDBRANCH  73  74
ENDBRANCH   1  73
TORSDOF 22
ENDMDL
