MODEL 1
REMARK VINA RESULT:     -10.5      0.000      0.000
REMARK SMILES Cc1nc(C[NH2+][C@@H](C(=O)OCCOCCOCCOC(=O)c2ccc(-c3c4nc(c(-c5cccc(S(=O)(=O)[O-])c5F)c5ccc([nH]5)c(-c5cccc(S(=O)(=O)[O-])c5F)c5nc(c(-c6cccc(S(=O)(=O)[O-])c6F)c6ccc3[nH]6)C=C5)C=C4)cc2)c2ccccc2)sc1C
REMARK SMILES IDX 14 1 13 2 12 3 11 4 10 5 8 6 9 7 7 8 6 9 5 12 4 13 1 14 2 15
REMARK SMILES IDX 3 16 92 17 91 18 93 19 85 20 86 21 90 22 87 23 89 24 88 25
REMARK SMILES IDX 15 26 16 27 17 28 18 29 19 30 20 31 21 32 22 33 23 34 84 35
REMARK SMILES IDX 24 36 83 37 25 38 26 39 27 40 77 41 28 42 82 43 76 44 78 45
REMARK SMILES IDX 29 46 81 47 75 48 74 49 30 51 62 52 42 53 61 54 43 55 46 56
REMARK SMILES IDX 60 57 79 58 44 59 45 60 59 62 80 63 47 64 31 65 32 66 40 67
REMARK SMILES IDX 33 68 35 69 41 70 34 71 36 72 37 73 38 74 39 75 63 76 64 77
REMARK SMILES IDX 72 78 65 79 67 80 73 81 66 82 68 83 69 84 70 85 71 86 48 87
REMARK SMILES IDX 49 88 57 89 50 90 52 91 58 92 51 93 53 94 54 95 55 96 56 97
REMARK H PARENT 6 10 6 11 78 50 46 61
REMARK Flexibility Score: inf
ROOT
ATOM      1  C   UNL A   1      32.882  20.027  25.813  1.00  0.00     0.188 C 
ENDROOT
BRANCH   1   2
ATOM      2  O   UNL A   1      31.711  20.810  25.607  1.00  0.00    -0.376 OA
BRANCH   2   3
ATOM      3  C   UNL A   1      31.796  22.216  25.817  1.00  0.00     0.202 C 
BRANCH   3   4
ATOM      4  C   UNL A   1      30.644  22.927  26.547  1.00  0.00     0.261 C 
BRANCH   4   5
ATOM      5  O   UNL A   1      31.007  24.180  27.169  1.00  0.00    -0.459 OA
BRANCH   5   6
ATOM      6  C   UNL A   1      30.718  25.310  26.468  1.00  0.00     0.369 C 
ATOM      7  O   UNL A   1      29.578  25.764  26.381  1.00  0.00    -0.245 OA
BRANCH   6   8
ATOM      8  C   UNL A   1      31.937  26.025  25.808  1.00  0.00     0.325 C 
BRANCH   8   9
ATOM      9  N   UNL A   1      33.311  25.595  26.143  1.00  0.00    -0.325 N 
ATOM     10  H   UNL A   1      33.619  26.159  26.935  1.00  0.00     0.347 HD
ATOM     11  H   UNL A   1      33.225  24.592  26.312  1.00  0.00     0.347 HD
BRANCH   9  12
ATOM     12  C   UNL A   1      34.343  25.695  25.115  1.00  0.00     0.330 C 
BRANCH  12  13
ATOM     13  C   UNL A   1      33.818  25.241  23.759  1.00  0.00     0.148 A 
ATOM     14  C   UNL A   1      32.803  22.579  21.548  1.00  0.00     0.068 C 
ATOM     15  C   UNL A   1      33.107  23.923  22.110  1.00  0.00     0.052 A 
ATOM     16  N   UNL A   1      33.609  23.989  23.402  1.00  0.00    -0.240 NA
ATOM     17  C   UNL A   1      32.950  25.148  21.483  1.00  0.00     0.025 A 
ATOM     18  S   UNL A   1      33.448  26.402  22.540  1.00  0.00    -0.118 S 
ATOM     19  C   UNL A   1      32.446  25.447  20.114  1.00  0.00     0.058 C 
ENDBRANCH  12  13
ENDBRANCH   9  12
ENDBRANCH   8   9
BRANCH   8  20
ATOM     20  C   UNL A   1      31.768  27.546  25.950  1.00  0.00     0.021 A 
ATOM     21  C   UNL A   1      31.346  28.377  24.895  1.00  0.00     0.010 A 
ATOM     22  C   UNL A   1      32.142  28.167  27.156  1.00  0.00     0.010 A 
ATOM     23  C   UNL A   1      31.326  29.769  25.034  1.00  0.00     0.001 A 
ATOM     24  C   UNL A   1      32.117  29.559  27.293  1.00  0.00     0.001 A 
ATOM     25  C   UNL A   1      31.718  30.360  26.229  1.00  0.00     0.000 A 
ENDBRANCH   8  20
ENDBRANCH   6   8
ENDBRANCH   5   6
ENDBRANCH   4   5
ENDBRANCH   3   4
ENDBRANCH   2   3
ENDBRANCH   1   2
BRANCH   1  26
ATOM     26  C   UNL A   1      33.410  19.185  24.637  1.00  0.00     0.188 C 
BRANCH  26  27
ATOM     27  O   UNL A   1      34.818  19.085  24.579  1.00  0.00    -0.376 OA
BRANCH  27  28
ATOM     28  C   UNL A   1      35.565  20.226  24.956  1.00  0.00     0.202 C 
BRANCH  28  29
ATOM     29  C   UNL A   1      37.101  20.129  24.959  1.00  0.00     0.261 C 
BRANCH  29  30
ATOM     30  O   UNL A   1      37.816  21.241  25.526  1.00  0.00    -0.460 OA
BRANCH  30  31
ATOM     31  C   UNL A   1      39.040  20.980  26.047  1.00  0.00     0.338 C 
ATOM     32  O   UNL A   1      39.675  19.952  25.921  1.00  0.00    -0.246 OA
BRANCH  31  33
ATOM     33  C   UNL A   1      39.584  22.248  26.595  1.00  0.00     0.060 A 
ATOM     34  C   UNL A   1      39.027  23.457  26.159  1.00  0.00     0.016 A 
ATOM     35  C   UNL A   1      40.634  22.252  27.518  1.00  0.00     0.016 A 
ATOM     36  C   UNL A   1      39.546  24.672  26.613  1.00  0.00     0.010 A 
ATOM     37  C   UNL A   1      41.165  23.472  27.959  1.00  0.00     0.010 A 
ATOM     38  C   UNL A   1      40.645  24.689  27.483  1.00  0.00    -0.014 A 
BRANCH  38  39
ATOM     39  C   UNL A   1      41.378  25.965  27.689  1.00  0.00     0.031 A 
ATOM     40  C   UNL A   1      40.689  27.060  28.460  1.00  0.00     0.074 A 
ATOM     41  C   UNL A   1      42.641  26.143  27.261  1.00  0.00     0.049 A 
ATOM     42  N   UNL A   1      41.137  28.233  28.822  1.00  0.00    -0.248 NA
ATOM     43  C   UNL A   1      39.302  26.790  28.873  1.00  0.00     0.031 C 
ATOM     44  C   UNL A   1      43.428  25.168  26.511  1.00  0.00     0.029 A 
ATOM     45  N   UNL A   1      43.485  27.219  27.401  1.00  0.00    -0.354 N 
ATOM     46  C   UNL A   1      40.083  28.851  29.486  1.00  0.00     0.074 A 
ATOM     47  C   UNL A   1      38.970  27.928  29.459  1.00  0.00     0.031 C 
ATOM     48  C   UNL A   1      44.650  25.681  26.276  1.00  0.00     0.029 A 
ATOM     49  C   UNL A   1      44.721  27.034  26.826  1.00  0.00     0.049 A 
ATOM     50  H   UNL A   1      43.229  28.046  27.871  1.00  0.00     0.167 HD
ATOM     51  C   UNL A   1      40.040  30.070  30.073  1.00  0.00     0.034 A 
ATOM     52  C   UNL A   1      45.780  27.866  26.748  1.00  0.00     0.034 A 
ATOM     53  C   UNL A   1      41.138  30.999  30.088  1.00  0.00     0.049 A 
ATOM     54  C   UNL A   1      45.695  29.238  27.373  1.00  0.00     0.074 A 
ATOM     55  C   UNL A   1      41.191  32.261  30.654  1.00  0.00     0.029 A 
ATOM     56  N   UNL A   1      42.370  30.777  29.493  1.00  0.00    -0.354 N 
ATOM     57  N   UNL A   1      44.721  29.775  28.069  1.00  0.00    -0.248 NA
ATOM     58  C   UNL A   1      46.869  30.111  27.219  1.00  0.00     0.031 C 
ATOM     59  C   UNL A   1      42.445  32.814  30.370  1.00  0.00     0.029 A 
ATOM     60  C   UNL A   1      43.191  31.878  29.671  1.00  0.00     0.049 A 
ATOM     61  H   UNL A   1      42.625  29.955  29.014  1.00  0.00     0.167 HD
ATOM     62  C   UNL A   1      45.183  31.025  28.475  1.00  0.00     0.074 A 
ATOM     63  C   UNL A   1      46.530  31.156  27.961  1.00  0.00     0.031 C 
ATOM     64  C   UNL A   1      44.549  31.979  29.201  1.00  0.00     0.034 A 
BRANCH  51  65
ATOM     65  C   UNL A   1      38.746  30.462  30.737  1.00  0.00     0.023 A 
ATOM     66  C   UNL A   1      38.516  30.119  32.086  1.00  0.00     0.012 A 
ATOM     67  C   UNL A   1      37.754  31.164  30.025  1.00  0.00     0.148 A 
ATOM     68  C   UNL A   1      37.300  30.418  32.698  1.00  0.00     0.002 A 
ATOM     69  C   UNL A   1      36.564  31.503  30.658  1.00  0.00     0.091 A 
ATOM     70  F   UNL A   1      37.979  31.461  28.738  1.00  0.00    -0.205 F 
ATOM     71  C   UNL A   1      36.328  31.115  31.987  1.00  0.00     0.022 A 
BRANCH  69  72
ATOM     72  S   UNL A   1      35.283  32.468  29.850  1.00  0.00     0.127 S 
ATOM     73  O   UNL A   1      34.838  31.549  28.803  1.00  0.00    -0.237 OA
ATOM     74  O   UNL A   1      34.321  32.669  30.933  1.00  0.00    -0.237 OA
ATOM     75  O   UNL A   1      35.933  33.685  29.382  1.00  0.00    -0.744 OA
ENDBRANCH  69  72
ENDBRANCH  51  65
BRANCH  52  76
ATOM     76  C   UNL A   1      47.046  27.423  26.092  1.00  0.00     0.023 A 
ATOM     77  C   UNL A   1      47.242  27.675  24.720  1.00  0.00     0.012 A 
ATOM     78  C   UNL A   1      48.043  26.735  26.810  1.00  0.00     0.148 A 
ATOM     79  C   UNL A   1      48.388  27.219  24.066  1.00  0.00     0.002 A 
ATOM     80  C   UNL A   1      49.208  26.333  26.166  1.00  0.00     0.091 A 
ATOM     81  F   UNL A   1      47.832  26.488  28.110  1.00  0.00    -0.205 F 
ATOM     82  C   UNL A   1      49.374  26.556  24.790  1.00  0.00     0.022 A 
BRANCH  80  83
ATOM     83  S   UNL A   1      50.583  25.574  27.037  1.00  0.00     0.127 S 
ATOM     84  O   UNL A   1      49.955  24.385  27.611  1.00  0.00    -0.237 OA
ATOM     85  O   UNL A   1      51.518  25.310  25.944  1.00  0.00    -0.237 OA
ATOM     86  O   UNL A   1      51.040  26.568  27.998  1.00  0.00    -0.744 OA
ENDBRANCH  80  83
ENDBRANCH  52  76
BRANCH  64  87
ATOM     87  C   UNL A   1      45.321  33.230  29.546  1.00  0.00     0.023 A 
ATOM     88  C   UNL A   1      46.104  33.286  30.717  1.00  0.00     0.012 A 
ATOM     89  C   UNL A   1      45.310  34.338  28.674  1.00  0.00     0.148 A 
ATOM     90  C   UNL A   1      46.821  34.440  31.037  1.00  0.00     0.002 A 
ATOM     91  C   UNL A   1      46.072  35.462  28.971  1.00  0.00     0.091 A 
ATOM     92  F   UNL A   1      44.548  34.277  27.572  1.00  0.00    -0.205 F 
ATOM     93  C   UNL A   1      46.813  35.522  30.161  1.00  0.00     0.022 A 
BRANCH  91  94
ATOM     94  S   UNL A   1      46.203  36.857  27.847  1.00  0.00     0.127 S 
ATOM     95  O   UNL A   1      46.542  36.196  26.588  1.00  0.00    -0.237 OA
ATOM     96  O   UNL A   1      44.854  37.422  27.894  1.00  0.00    -0.237 OA
ATOM     97  O   UNL A   1      47.237  37.721  28.400  1.00  0.00    -0.744 OA
ENDBRANCH  91  94
ENDBRANCH  64  87
ENDBRANCH  38  39
ENDBRANCH  31  33
ENDBRANCH  30  31
ENDBRANCH  29  30
ENDBRANCH  28  29
ENDBRANCH  27  28
ENDBRANCH  26  27
ENDBRANCH   1  26
TORSDOF 24
ENDMDL
MODEL 2
REMARK VINA RESULT:      -9.8      1.881      7.844
REMARK SMILES Cc1nc(C[NH2+][C@@H](C(=O)OCCOCCOCCOC(=O)c2ccc(-c3c4nc(c(-c5cccc(S(=O)(=O)[O-])c5F)c5ccc([nH]5)c(-c5cccc(S(=O)(=O)[O-])c5F)c5nc(c(-c6cccc(S(=O)(=O)[O-])c6F)c6ccc3[nH]6)C=C5)C=C4)cc2)c2ccccc2)sc1C
REMARK SMILES IDX 14 1 13 2 12 3 11 4 10 5 8 6 9 7 7 8 6 9 5 12 4 13 1 14 2 15
REMARK SMILES IDX 3 16 92 17 91 18 93 19 85 20 86 21 90 22 87 23 89 24 88 25
REMARK SMILES IDX 15 26 16 27 17 28 18 29 19 30 20 31 21 32 22 33 23 34 84 35
REMARK SMILES IDX 24 36 83 37 25 38 26 39 27 40 77 41 28 42 82 43 76 44 78 45
REMARK SMILES IDX 29 46 81 47 75 48 74 49 30 51 62 52 42 53 61 54 43 55 46 56
REMARK SMILES IDX 60 57 79 58 44 59 45 60 59 62 80 63 47 64 31 65 32 66 40 67
REMARK SMILES IDX 33 68 35 69 41 70 34 71 36 72 37 73 38 74 39 75 63 76 64 77
REMARK SMILES IDX 72 78 65 79 67 80 73 81 66 82 68 83 69 84 70 85 71 86 48 87
REMARK SMILES IDX 49 88 57 89 50 90 52 91 58 92 51 93 53 94 54 95 55 96 56 97
REMARK H PARENT 6 10 6 11 78 50 46 61
REMARK Flexibility Score: inf
ROOT
ATOM      1  C   UNL A   1      33.032  20.242  25.682  1.00  0.00     0.188 C 
ENDROOT
BRANCH   1   2
ATOM      2  O   UNL A   1      32.106  21.285  25.397  1.00  0.00    -0.376 OA
BRANCH   2   3
ATOM      3  C   UNL A   1      32.201  22.492  26.147  1.00  0.00     0.202 C 
BRANCH   3   4
ATOM      4  C   UNL A   1      30.920  23.088  26.757  1.00  0.00     0.261 C 
BRANCH   4   5
ATOM      5  O   UNL A   1      31.060  24.438  27.251  1.00  0.00    -0.459 OA
BRANCH   5   6
ATOM      6  C   UNL A   1      30.825  25.437  26.357  1.00  0.00     0.369 C 
ATOM      7  O   UNL A   1      29.690  25.814  26.066  1.00  0.00    -0.245 OA
BRANCH   6   8
ATOM      8  C   UNL A   1      32.093  26.111  25.748  1.00  0.00     0.325 C 
BRANCH   8   9
ATOM      9  N   UNL A   1      33.437  25.620  26.121  1.00  0.00    -0.325 N 
ATOM     10  H   UNL A   1      33.781  26.225  26.867  1.00  0.00     0.347 HD
ATOM     11  H   UNL A   1      33.285  24.642  26.369  1.00  0.00     0.347 HD
BRANCH   9  12
ATOM     12  C   UNL A   1      34.471  25.572  25.093  1.00  0.00     0.330 C 
BRANCH  12  13
ATOM     13  C   UNL A   1      33.899  25.126  23.754  1.00  0.00     0.148 A 
ATOM     14  C   UNL A   1      32.642  22.499  21.626  1.00  0.00     0.068 C 
ATOM     15  C   UNL A   1      33.064  23.828  22.147  1.00  0.00     0.052 A 
ATOM     16  N   UNL A   1      33.580  23.887  23.434  1.00  0.00    -0.240 NA
ATOM     17  C   UNL A   1      33.008  25.043  21.486  1.00  0.00     0.025 A 
ATOM     18  S   UNL A   1      33.621  26.279  22.503  1.00  0.00    -0.118 S 
ATOM     19  C   UNL A   1      32.522  25.345  20.111  1.00  0.00     0.058 C 
ENDBRANCH  12  13
ENDBRANCH   9  12
ENDBRANCH   8   9
BRANCH   8  20
ATOM     20  C   UNL A   1      31.980  27.635  25.905  1.00  0.00     0.021 A 
ATOM     21  C   UNL A   1      32.199  28.303  27.125  1.00  0.00     0.010 A 
ATOM     22  C   UNL A   1      31.540  28.406  24.813  1.00  0.00     0.010 A 
ATOM     23  C   UNL A   1      31.964  29.676  27.250  1.00  0.00     0.001 A 
ATOM     24  C   UNL A   1      31.310  29.779  24.941  1.00  0.00     0.001 A 
ATOM     25  C   UNL A   1      31.512  30.412  26.162  1.00  0.00     0.000 A 
ENDBRANCH   8  20
ENDBRANCH   6   8
ENDBRANCH   5   6
ENDBRANCH   4   5
ENDBRANCH   3   4
ENDBRANCH   2   3
ENDBRANCH   1   2
BRANCH   1  26
ATOM     26  C   UNL A   1      34.096  19.903  24.621  1.00  0.00     0.188 C 
BRANCH  26  27
ATOM     27  O   UNL A   1      35.415  20.250  24.988  1.00  0.00    -0.376 OA
BRANCH  27  28
ATOM     28  C   UNL A   1      35.617  21.536  25.544  1.00  0.00     0.202 C 
BRANCH  28  29
ATOM     29  C   UNL A   1      36.608  22.487  24.851  1.00  0.00     0.261 C 
BRANCH  29  30
ATOM     30  O   UNL A   1      37.317  23.408  25.697  1.00  0.00    -0.460 OA
BRANCH  30  31
ATOM     31  C   UNL A   1      38.498  22.983  26.210  1.00  0.00     0.338 C 
ATOM     32  O   UNL A   1      38.984  21.877  26.087  1.00  0.00    -0.246 OA
BRANCH  31  33
ATOM     33  C   UNL A   1      39.218  24.167  26.745  1.00  0.00     0.060 A 
ATOM     34  C   UNL A   1      39.178  24.404  28.126  1.00  0.00     0.016 A 
ATOM     35  C   UNL A   1      39.914  25.038  25.903  1.00  0.00     0.016 A 
ATOM     36  C   UNL A   1      39.800  25.535  28.660  1.00  0.00     0.010 A 
ATOM     37  C   UNL A   1      40.523  26.181  26.440  1.00  0.00     0.010 A 
ATOM     38  C   UNL A   1      40.440  26.453  27.817  1.00  0.00    -0.014 A 
BRANCH  38  39
ATOM     39  C   UNL A   1      40.802  27.791  28.354  1.00  0.00     0.031 A 
ATOM     40  C   UNL A   1      42.251  28.197  28.327  1.00  0.00     0.074 A 
ATOM     41  C   UNL A   1      39.875  28.655  28.806  1.00  0.00     0.049 A 
ATOM     42  N   UNL A   1      42.807  29.326  28.677  1.00  0.00    -0.248 NA
ATOM     43  C   UNL A   1      43.200  27.183  27.837  1.00  0.00     0.031 C 
ATOM     44  C   UNL A   1      38.440  28.397  28.883  1.00  0.00     0.029 A 
ATOM     45  N   UNL A   1      40.012  29.936  29.286  1.00  0.00    -0.354 N 
ATOM     46  C   UNL A   1      44.172  29.154  28.474  1.00  0.00     0.074 A 
ATOM     47  C   UNL A   1      44.358  27.805  27.985  1.00  0.00     0.031 C 
ATOM     48  C   UNL A   1      37.823  29.494  29.360  1.00  0.00     0.029 A 
ATOM     49  C   UNL A   1      38.823  30.520  29.657  1.00  0.00     0.049 A 
ATOM     50  H   UNL A   1      40.881  30.394  29.357  1.00  0.00     0.167 HD
ATOM     51  C   UNL A   1      45.182  30.034  28.666  1.00  0.00     0.034 A 
ATOM     52  C   UNL A   1      38.575  31.738  30.183  1.00  0.00     0.034 A 
ATOM     53  C   UNL A   1      45.006  31.370  29.167  1.00  0.00     0.049 A 
ATOM     54  C   UNL A   1      39.723  32.688  30.428  1.00  0.00     0.074 A 
ATOM     55  C   UNL A   1      45.968  32.337  29.400  1.00  0.00     0.029 A 
ATOM     56  N   UNL A   1      43.789  31.923  29.534  1.00  0.00    -0.354 N 
ATOM     57  N   UNL A   1      40.998  32.541  30.152  1.00  0.00    -0.248 NA
ATOM     58  C   UNL A   1      39.391  33.985  31.039  1.00  0.00     0.031 C 
ATOM     59  C   UNL A   1      45.335  33.463  29.940  1.00  0.00     0.029 A 
ATOM     60  C   UNL A   1      43.973  33.215  29.997  1.00  0.00     0.049 A 
ATOM     61  H   UNL A   1      42.920  31.464  29.474  1.00  0.00     0.167 HD
ATOM     62  C   UNL A   1      41.608  33.741  30.509  1.00  0.00     0.074 A 
ATOM     63  C   UNL A   1      40.561  34.608  31.006  1.00  0.00     0.031 C 
ATOM     64  C   UNL A   1      42.917  34.090  30.441  1.00  0.00     0.034 A 
BRANCH  51  65
ATOM     65  C   UNL A   1      46.574  29.559  28.336  1.00  0.00     0.023 A 
ATOM     66  C   UNL A   1      47.095  29.756  27.040  1.00  0.00     0.012 A 
ATOM     67  C   UNL A   1      47.363  28.911  29.306  1.00  0.00     0.148 A 
ATOM     68  C   UNL A   1      48.355  29.266  26.699  1.00  0.00     0.002 A 
ATOM     69  C   UNL A   1      48.638  28.471  28.973  1.00  0.00     0.091 A 
ATOM     70  F   UNL A   1      46.843  28.712  30.525  1.00  0.00    -0.205 F 
ATOM     71  C   UNL A   1      49.128  28.631  27.667  1.00  0.00     0.022 A 
BRANCH  69  72
ATOM     72  S   UNL A   1      49.740  27.712  30.170  1.00  0.00     0.127 S 
ATOM     73  O   UNL A   1      50.928  27.455  29.356  1.00  0.00    -0.237 OA
ATOM     74  O   UNL A   1      49.898  28.777  31.160  1.00  0.00    -0.237 OA
ATOM     75  O   UNL A   1      49.047  26.528  30.659  1.00  0.00    -0.744 OA
ENDBRANCH  69  72
ENDBRANCH  51  65
BRANCH  52  76
ATOM     76  C   UNL A   1      37.176  32.167  30.476  1.00  0.00     0.023 A 
ATOM     77  C   UNL A   1      36.648  31.976  31.769  1.00  0.00     0.012 A 
ATOM     78  C   UNL A   1      36.359  32.739  29.482  1.00  0.00     0.148 A 
ATOM     79  C   UNL A   1      35.324  32.311  32.057  1.00  0.00     0.002 A 
ATOM     80  C   UNL A   1      35.059  33.123  29.791  1.00  0.00     0.091 A 
ATOM     81  F   UNL A   1      36.871  32.897  28.254  1.00  0.00    -0.205 F 
ATOM     82  C   UNL A   1      34.533  32.892  31.071  1.00  0.00     0.022 A 
BRANCH  80  83
ATOM     83  S   UNL A   1      34.000  33.982  28.621  1.00  0.00     0.127 S 
ATOM     84  O   UNL A   1      33.615  32.902  27.716  1.00  0.00    -0.237 OA
ATOM     85  O   UNL A   1      32.930  34.469  29.490  1.00  0.00    -0.237 OA
ATOM     86  O   UNL A   1      34.826  35.028  28.034  1.00  0.00    -0.744 OA
ENDBRANCH  80  83
ENDBRANCH  52  76
BRANCH  64  87
ATOM     87  C   UNL A   1      43.293  35.495  30.848  1.00  0.00     0.023 A 
ATOM     88  C   UNL A   1      43.637  35.784  32.184  1.00  0.00     0.012 A 
ATOM     89  C   UNL A   1      43.356  36.522  29.886  1.00  0.00     0.148 A 
ATOM     90  C   UNL A   1      43.987  37.081  32.563  1.00  0.00     0.002 A 
ATOM     91  C   UNL A   1      43.762  37.798  30.259  1.00  0.00     0.091 A 
ATOM     92  F   UNL A   1      43.012  36.238  28.621  1.00  0.00    -0.205 F 
ATOM     93  C   UNL A   1      44.060  38.084  31.600  1.00  0.00     0.022 A 
BRANCH  91  94
ATOM     94  S   UNL A   1      43.984  39.123  29.066  1.00  0.00     0.127 S 
ATOM     95  O   UNL A   1      45.072  38.602  28.240  1.00  0.00    -0.237 OA
ATOM     96  O   UNL A   1      42.681  39.166  28.402  1.00  0.00    -0.237 OA
ATOM     97  O   UNL A   1      44.302  40.313  29.844  1.00  0.00    -0.744 OA
ENDBRANCH  91  94
ENDBRANCH  64  87
ENDBRANCH  38  39
ENDBRANCH  31  33
ENDBRANCH  30  31
ENDBRANCH  29  30
ENDBRANCH  28  29
ENDBRANCH  27  28
ENDBRANCH  26  27
ENDBRANCH   1  26
TORSDOF 24
ENDMDL
MODEL 3
REMARK VINA RESULT:      -9.8      2.469      8.031
REMARK SMILES Cc1nc(C[NH2+][C@@H](C(=O)OCCOCCOCCOC(=O)c2ccc(-c3c4nc(c(-c5cccc(S(=O)(=O)[O-])c5F)c5ccc([nH]5)c(-c5cccc(S(=O)(=O)[O-])c5F)c5nc(c(-c6cccc(S(=O)(=O)[O-])c6F)c6ccc3[nH]6)C=C5)C=C4)cc2)c2ccccc2)sc1C
REMARK SMILES IDX 14 1 13 2 12 3 11 4 10 5 8 6 9 7 7 8 6 9 5 12 4 13 1 14 2 15
REMARK SMILES IDX 3 16 92 17 91 18 93 19 85 20 86 21 90 22 87 23 89 24 88 25
REMARK SMILES IDX 15 26 16 27 17 28 18 29 19 30 20 31 21 32 22 33 23 34 84 35
REMARK SMILES IDX 24 36 83 37 25 38 26 39 27 40 77 41 28 42 82 43 76 44 78 45
REMARK SMILES IDX 29 46 81 47 75 48 74 49 30 51 62 52 42 53 61 54 43 55 46 56
REMARK SMILES IDX 60 57 79 58 44 59 45 60 59 62 80 63 47 64 31 65 32 66 40 67
REMARK SMILES IDX 33 68 35 69 41 70 34 71 36 72 37 73 38 74 39 75 63 76 64 77
REMARK SMILES IDX 72 78 65 79 67 80 73 81 66 82 68 83 69 84 70 85 71 86 48 87
REMARK SMILES IDX 49 88 57 89 50 90 52 91 58 92 51 93 53 94 54 95 55 96 56 97
REMARK H PARENT 6 10 6 11 78 50 46 61
REMARK Flexibility Score: inf
ROOT
ATOM      1  C   UNL A   1      34.555  21.363  26.016  1.00  0.00     0.188 C 
ENDROOT
BRANCH   1   2
ATOM      2  O   UNL A   1      33.601  22.296  26.510  1.00  0.00    -0.376 OA
BRANCH   2   3
ATOM      3  C   UNL A   1      32.998  23.197  25.586  1.00  0.00     0.202 C 
BRANCH   3   4
ATOM      4  C   UNL A   1      32.051  24.285  26.121  1.00  0.00     0.261 C 
BRANCH   4   5
ATOM      5  O   UNL A   1      31.316  24.999  25.102  1.00  0.00    -0.459 OA
BRANCH   5   6
ATOM      6  C   UNL A   1      30.334  25.834  25.537  1.00  0.00     0.369 C 
ATOM      7  O   UNL A   1      29.422  25.459  26.273  1.00  0.00    -0.245 OA
BRANCH   6   8
ATOM      8  C   UNL A   1      30.458  27.320  25.078  1.00  0.00     0.325 C 
BRANCH   8   9
ATOM      9  N   UNL A   1      30.339  27.657  23.644  1.00  0.00    -0.325 N 
ATOM     10  H   UNL A   1      30.903  28.492  23.483  1.00  0.00     0.347 HD
ATOM     11  H   UNL A   1      30.642  26.810  23.162  1.00  0.00     0.347 HD
BRANCH   9  12
ATOM     12  C   UNL A   1      29.012  27.923  23.098  1.00  0.00     0.330 C 
BRANCH  12  13
ATOM     13  C   UNL A   1      28.866  29.382  22.686  1.00  0.00     0.148 A 
ATOM     14  C   UNL A   1      27.914  31.840  20.224  1.00  0.00     0.068 C 
ATOM     15  C   UNL A   1      28.396  31.191  21.474  1.00  0.00     0.052 A 
ATOM     16  N   UNL A   1      28.427  29.805  21.516  1.00  0.00    -0.240 NA
ATOM     17  C   UNL A   1      28.834  31.819  22.628  1.00  0.00     0.025 A 
ATOM     18  S   UNL A   1      29.295  30.640  23.783  1.00  0.00    -0.118 S 
ATOM     19  C   UNL A   1      28.936  33.274  22.928  1.00  0.00     0.058 C 
ENDBRANCH  12  13
ENDBRANCH   9  12
ENDBRANCH   8   9
BRANCH   8  20
ATOM     20  C   UNL A   1      31.717  27.939  25.706  1.00  0.00     0.021 A 
ATOM     21  C   UNL A   1      31.760  28.428  27.025  1.00  0.00     0.010 A 
ATOM     22  C   UNL A   1      32.859  28.126  24.906  1.00  0.00     0.010 A 
ATOM     23  C   UNL A   1      32.889  29.095  27.512  1.00  0.00     0.001 A 
ATOM     24  C   UNL A   1      33.987  28.790  25.398  1.00  0.00     0.001 A 
ATOM     25  C   UNL A   1      33.998  29.284  26.697  1.00  0.00     0.000 A 
ENDBRANCH   8  20
ENDBRANCH   6   8
ENDBRANCH   5   6
ENDBRANCH   4   5
ENDBRANCH   3   4
ENDBRANCH   2   3
ENDBRANCH   1   2
BRANCH   1  26
ATOM     26  C   UNL A   1      35.127  21.587  24.603  1.00  0.00     0.188 C 
BRANCH  26  27
ATOM     27  O   UNL A   1      36.505  21.895  24.575  1.00  0.00    -0.376 OA
BRANCH  27  28
ATOM     28  C   UNL A   1      37.395  20.856  24.212  1.00  0.00     0.202 C 
BRANCH  28  29
ATOM     29  C   UNL A   1      38.271  20.225  25.308  1.00  0.00     0.261 C 
BRANCH  29  30
ATOM     30  O   UNL A   1      38.741  21.105  26.343  1.00  0.00    -0.460 OA
BRANCH  30  31
ATOM     31  C   UNL A   1      40.084  21.196  26.507  1.00  0.00     0.338 C 
ATOM     32  O   UNL A   1      40.921  20.445  26.047  1.00  0.00    -0.246 OA
BRANCH  31  33
ATOM     33  C   UNL A   1      40.381  22.505  27.141  1.00  0.00     0.060 A 
ATOM     34  C   UNL A   1      39.596  23.611  26.789  1.00  0.00     0.016 A 
ATOM     35  C   UNL A   1      41.423  22.649  28.063  1.00  0.00     0.016 A 
ATOM     36  C   UNL A   1      39.878  24.869  27.326  1.00  0.00     0.010 A 
ATOM     37  C   UNL A   1      41.714  23.916  28.586  1.00  0.00     0.010 A 
ATOM     38  C   UNL A   1      40.964  25.039  28.195  1.00  0.00    -0.014 A 
BRANCH  38  39
ATOM     39  C   UNL A   1      41.441  26.416  28.489  1.00  0.00     0.031 A 
ATOM     40  C   UNL A   1      42.824  26.799  28.033  1.00  0.00     0.074 A 
ATOM     41  C   UNL A   1      40.660  27.330  29.093  1.00  0.00     0.049 A 
ATOM     42  N   UNL A   1      43.440  27.948  28.115  1.00  0.00    -0.248 NA
ATOM     43  C   UNL A   1      43.618  25.732  27.401  1.00  0.00     0.031 C 
ATOM     44  C   UNL A   1      39.303  27.098  29.580  1.00  0.00     0.029 A 
ATOM     45  N   UNL A   1      40.906  28.647  29.399  1.00  0.00    -0.354 N 
ATOM     46  C   UNL A   1      44.701  27.740  27.567  1.00  0.00     0.074 A 
ATOM     47  C   UNL A   1      44.764  26.350  27.172  1.00  0.00     0.031 C 
ATOM     48  C   UNL A   1      38.825  28.242  30.102  1.00  0.00     0.029 A 
ATOM     49  C   UNL A   1      39.854  29.278  30.022  1.00  0.00     0.049 A 
ATOM     50  H   UNL A   1      41.756  29.099  29.189  1.00  0.00     0.167 HD
ATOM     51  C   UNL A   1      45.714  28.621  27.396  1.00  0.00     0.034 A 
ATOM     52  C   UNL A   1      39.743  30.542  30.480  1.00  0.00     0.034 A 
ATOM     53  C   UNL A   1      45.663  30.000  27.801  1.00  0.00     0.049 A 
ATOM     54  C   UNL A   1      40.902  31.496  30.317  1.00  0.00     0.074 A 
ATOM     55  C   UNL A   1      46.640  30.972  27.675  1.00  0.00     0.029 A 
ATOM     56  N   UNL A   1      44.584  30.599  28.431  1.00  0.00    -0.354 N 
ATOM     57  N   UNL A   1      42.056  31.308  29.721  1.00  0.00    -0.248 NA
ATOM     58  C   UNL A   1      40.732  32.848  30.873  1.00  0.00     0.031 C 
ATOM     59  C   UNL A   1      46.163  32.151  28.260  1.00  0.00     0.029 A 
ATOM     60  C   UNL A   1      44.870  31.927  28.706  1.00  0.00     0.049 A 
ATOM     61  H   UNL A   1      43.737  30.148  28.651  1.00  0.00     0.167 HD
ATOM     62  C   UNL A   1      42.726  32.528  29.788  1.00  0.00     0.074 A 
ATOM     63  C   UNL A   1      41.841  33.451  30.468  1.00  0.00     0.031 C 
ATOM     64  C   UNL A   1      43.963  32.852  29.336  1.00  0.00     0.034 A 
BRANCH  51  65
ATOM     65  C   UNL A   1      46.970  28.099  26.748  1.00  0.00     0.023 A 
ATOM     66  C   UNL A   1      48.043  27.655  27.550  1.00  0.00     0.012 A 
ATOM     67  C   UNL A   1      47.092  28.055  25.345  1.00  0.00     0.148 A 
ATOM     68  C   UNL A   1      49.236  27.229  26.967  1.00  0.00     0.002 A 
ATOM     69  C   UNL A   1      48.266  27.580  24.773  1.00  0.00     0.091 A 
ATOM     70  F   UNL A   1      46.073  28.502  24.599  1.00  0.00    -0.205 F 
ATOM     71  C   UNL A   1      49.344  27.185  25.581  1.00  0.00     0.022 A 
BRANCH  69  72
ATOM     72  S   UNL A   1      48.473  27.411  22.997  1.00  0.00     0.127 S 
ATOM     73  O   UNL A   1      47.362  28.217  22.493  1.00  0.00    -0.237 OA
ATOM     74  O   UNL A   1      49.796  27.998  22.785  1.00  0.00    -0.237 OA
ATOM     75  O   UNL A   1      48.390  25.984  22.717  1.00  0.00    -0.744 OA
ENDBRANCH  69  72
ENDBRANCH  51  65
BRANCH  52  76
ATOM     76  C   UNL A   1      38.470  31.015  31.100  1.00  0.00     0.023 A 
ATOM     77  C   UNL A   1      38.264  30.838  32.483  1.00  0.00     0.012 A 
ATOM     78  C   UNL A   1      37.456  31.615  30.330  1.00  0.00     0.148 A 
ATOM     79  C   UNL A   1      37.060  31.214  33.081  1.00  0.00     0.002 A 
ATOM     80  C   UNL A   1      36.281  32.039  30.941  1.00  0.00     0.091 A 
ATOM     81  F   UNL A   1      37.661  31.759  29.014  1.00  0.00    -0.205 F 
ATOM     82  C   UNL A   1      36.073  31.822  32.312  1.00  0.00     0.022 A 
BRANCH  80  83
ATOM     83  S   UNL A   1      34.998  32.934  30.057  1.00  0.00     0.127 S 
ATOM     84  O   UNL A   1      34.541  31.931  29.097  1.00  0.00    -0.237 OA
ATOM     85  O   UNL A   1      34.052  33.235  31.130  1.00  0.00    -0.237 OA
ATOM     86  O   UNL A   1      35.654  34.100  29.482  1.00  0.00    -0.744 OA
ENDBRANCH  80  83
ENDBRANCH  52  76
BRANCH  64  87
ATOM     87  C   UNL A   1      44.417  34.284  29.495  1.00  0.00     0.023 A 
ATOM     88  C   UNL A   1      44.200  35.222  28.465  1.00  0.00     0.012 A 
ATOM     89  C   UNL A   1      45.016  34.711  30.698  1.00  0.00     0.148 A 
ATOM     90  C   UNL A   1      44.617  36.545  28.612  1.00  0.00     0.002 A 
ATOM     91  C   UNL A   1      45.376  36.043  30.858  1.00  0.00     0.091 A 
ATOM     92  F   UNL A   1      45.231  33.804  31.663  1.00  0.00    -0.205 F 
ATOM     93  C   UNL A   1      45.195  36.958  29.810  1.00  0.00     0.022 A 
BRANCH  91  94
ATOM     94  S   UNL A   1      46.029  36.683  32.405  1.00  0.00     0.127 S 
ATOM     95  O   UNL A   1      44.913  36.448  33.320  1.00  0.00    -0.237 OA
ATOM     96  O   UNL A   1      47.192  35.824  32.630  1.00  0.00    -0.237 OA
ATOM     97  O   UNL A   1      46.353  38.081  32.155  1.00  0.00    -0.744 OA
ENDBRANCH  91  94
ENDBRANCH  64  87
ENDBRANCH  38  39
ENDBRANCH  31  33
ENDBRANCH  30  31
ENDBRANCH  29  30
ENDBRANCH  28  29
ENDBRANCH  27  28
ENDBRANCH  26  27
ENDBRANCH   1  26
TORSDOF 24
ENDMDL
