MODEL 1
REMARK VINA RESULT:     -10.8      0.000      0.000
REMARK SMILES CC[C@@H]1C=CCN1S(=O)(=O)c1sc2c(c1C(=O)OCCOCCOCCOC(=O)c1ccc(-c3c4nc(c(-c5cccc(S(=O)(=O)[O-])c5F)c5ccc([nH]5)c(-c5cccc(S(=O)(=O)[O-])c5F)c5nc(c(-c6cccc(S(=O)(=O)[O-])c6F)c6ccc3[nH]6)C=C5)C=C4)cc1)CC[NH2+]C2
REMARK SMILES IDX 22 1 21 2 20 3 19 4 18 5 16 6 17 7 15 8 11 9 12 10 13 11
REMARK SMILES IDX 14 12 96 13 93 14 95 15 94 16 8 19 9 20 10 21 7 22 3 23 4 24
REMARK SMILES IDX 5 25 6 26 2 27 1 28 23 29 24 30 25 31 26 32 27 33 28 34
REMARK SMILES IDX 29 35 30 36 31 37 92 38 32 39 91 40 33 41 34 42 35 43 85 44
REMARK SMILES IDX 36 45 90 46 84 47 86 48 37 49 89 50 83 51 82 52 38 54 70 55
REMARK SMILES IDX 50 56 69 57 51 58 54 59 68 60 87 61 52 62 53 63 67 65 88 66
REMARK SMILES IDX 55 67 39 68 40 69 48 70 41 71 43 72 49 73 42 74 44 75 45 76
REMARK SMILES IDX 46 77 47 78 71 79 72 80 80 81 73 82 75 83 81 84 74 85 76 86
REMARK SMILES IDX 77 87 78 88 79 89 56 90 57 91 65 92 58 93 60 94 66 95 59 96
REMARK SMILES IDX 61 97 62 98 63 99 64 100
REMARK H PARENT 95 17 95 18 86 53 54 64
REMARK Flexibility Score: inf
ROOT
ATOM      1  C   UNL A   1      33.139  26.882  23.995  1.00  0.00     0.188 C 
ENDROOT
BRANCH   1   2
ATOM      2  O   UNL A   1      33.788  26.343  22.865  1.00  0.00    -0.376 OA
BRANCH   2   3
ATOM      3  C   UNL A   1      33.023  25.818  21.792  1.00  0.00     0.202 C 
BRANCH   3   4
ATOM      4  C   UNL A   1      33.082  24.336  21.374  1.00  0.00     0.261 C 
BRANCH   4   5
ATOM      5  O   UNL A   1      33.396  23.409  22.426  1.00  0.00    -0.460 OA
BRANCH   5   6
ATOM      6  C   UNL A   1      32.409  22.553  22.795  1.00  0.00     0.340 C 
ATOM      7  O   UNL A   1      32.133  21.518  22.193  1.00  0.00    -0.246 OA
BRANCH   6   8
ATOM      8  C   UNL A   1      31.814  22.846  24.101  1.00  0.00     0.095 A 
ATOM      9  C   UNL A   1      32.075  22.166  25.295  1.00  0.00     0.150 A 
ATOM     10  S   UNL A   1      31.334  22.973  26.620  1.00  0.00    -0.120 S 
ATOM     11  C   UNL A   1      30.629  24.150  25.655  1.00  0.00     0.064 A 
ATOM     12  C   UNL A   1      30.873  23.938  24.318  1.00  0.00    -0.007 A 
ATOM     13  C   UNL A   1      29.857  25.301  26.225  1.00  0.00     0.308 C 
ATOM     14  C   UNL A   1      30.179  24.806  23.299  1.00  0.00     0.099 C 
ATOM     15  N   UNL A   1      28.926  25.857  25.233  1.00  0.00    -0.342 N 
ATOM     16  C   UNL A   1      29.611  26.093  23.945  1.00  0.00     0.265 C 
ATOM     17  H   UNL A   1      28.159  25.201  25.089  1.00  0.00     0.346 HD
ATOM     18  H   UNL A   1      28.571  26.747  25.581  1.00  0.00     0.346 HD
BRANCH   9  19
ATOM     19  S   UNL A   1      33.150  20.795  25.755  1.00  0.00     0.254 S 
ATOM     20  O   UNL A   1      32.341  19.622  25.482  1.00  0.00    -0.206 OA
ATOM     21  O   UNL A   1      33.579  21.070  27.108  1.00  0.00    -0.206 OA
BRANCH  19  22
ATOM     22  N   UNL A   1      34.565  20.676  24.787  1.00  0.00    -0.186 NA
ATOM     23  C   UNL A   1      35.701  21.545  25.272  1.00  0.00     0.096 C 
ATOM     24  C   UNL A   1      36.871  20.609  25.299  1.00  0.00    -0.010 C 
ATOM     25  C   UNL A   1      36.546  19.399  24.848  1.00  0.00    -0.013 C 
ATOM     26  C   UNL A   1      35.099  19.311  24.541  1.00  0.00     0.130 C 
BRANCH  23  27
ATOM     27  C   UNL A   1      35.889  22.763  24.346  1.00  0.00     0.021 C 
ATOM     28  C   UNL A   1      35.711  24.140  24.987  1.00  0.00     0.006 C 
ENDBRANCH  23  27
ENDBRANCH  19  22
ENDBRANCH   9  19
ENDBRANCH   6   8
ENDBRANCH   5   6
ENDBRANCH   4   5
ENDBRANCH   3   4
ENDBRANCH   2   3
ENDBRANCH   1   2
BRANCH   1  29
ATOM     29  C   UNL A   1      32.842  28.394  24.097  1.00  0.00     0.188 C 
BRANCH  29  30
ATOM     30  O   UNL A   1      33.492  29.221  25.034  1.00  0.00    -0.376 OA
BRANCH  30  31
ATOM     31  C   UNL A   1      32.855  29.943  26.074  1.00  0.00     0.202 C 
BRANCH  31  32
ATOM     32  C   UNL A   1      33.551  30.711  27.194  1.00  0.00     0.261 C 
BRANCH  32  33
ATOM     33  O   UNL A   1      34.926  30.452  27.325  1.00  0.00    -0.460 OA
BRANCH  33  34
ATOM     34  C   UNL A   1      35.596  31.490  27.862  1.00  0.00     0.338 C 
ATOM     35  O   UNL A   1      35.503  32.668  27.558  1.00  0.00    -0.246 OA
BRANCH  34  36
ATOM     36  C   UNL A   1      36.488  30.983  28.901  1.00  0.00     0.060 A 
ATOM     37  C   UNL A   1      37.537  31.830  29.260  1.00  0.00     0.016 A 
ATOM     38  C   UNL A   1      36.474  29.613  29.199  1.00  0.00     0.016 A 
ATOM     39  C   UNL A   1      38.718  31.245  29.631  1.00  0.00     0.010 A 
ATOM     40  C   UNL A   1      37.658  29.029  29.559  1.00  0.00     0.010 A 
ATOM     41  C   UNL A   1      38.781  29.849  29.640  1.00  0.00    -0.014 A 
BRANCH  41  42
ATOM     42  C   UNL A   1      40.097  29.265  29.633  1.00  0.00     0.031 A 
ATOM     43  C   UNL A   1      40.702  29.155  30.967  1.00  0.00     0.074 A 
ATOM     44  C   UNL A   1      40.654  28.832  28.487  1.00  0.00     0.049 A 
ATOM     45  N   UNL A   1      41.731  29.785  31.425  1.00  0.00    -0.248 NA
ATOM     46  C   UNL A   1      39.965  28.367  31.965  1.00  0.00     0.031 C 
ATOM     47  C   UNL A   1      39.993  28.631  27.190  1.00  0.00     0.029 A 
ATOM     48  N   UNL A   1      41.898  28.326  28.287  1.00  0.00    -0.354 N 
ATOM     49  C   UNL A   1      41.912  29.271  32.703  1.00  0.00     0.074 A 
ATOM     50  C   UNL A   1      40.696  28.585  33.055  1.00  0.00     0.031 C 
ATOM     51  C   UNL A   1      40.755  27.806  26.438  1.00  0.00     0.029 A 
ATOM     52  C   UNL A   1      41.994  27.540  27.147  1.00  0.00     0.049 A 
ATOM     53  H   UNL A   1      42.656  28.500  28.890  1.00  0.00     0.167 HD
ATOM     54  C   UNL A   1      43.149  29.185  33.257  1.00  0.00     0.034 A 
ATOM     55  C   UNL A   1      42.973  26.645  26.883  1.00  0.00     0.034 A 
ATOM     56  C   UNL A   1      44.098  30.047  32.605  1.00  0.00     0.049 A 
ATOM     57  C   UNL A   1      44.126  26.967  27.755  1.00  0.00     0.074 A 
ATOM     58  C   UNL A   1      44.188  31.403  32.369  1.00  0.00     0.029 A 
ATOM     59  N   UNL A   1      45.004  29.451  31.764  1.00  0.00    -0.354 N 
ATOM     60  N   UNL A   1      44.845  28.050  27.644  1.00  0.00    -0.248 NA
ATOM     61  C   UNL A   1      44.244  26.269  29.026  1.00  0.00     0.031 C 
ATOM     62  C   UNL A   1      44.827  31.521  31.101  1.00  0.00     0.029 A 
ATOM     63  C   UNL A   1      45.112  30.231  30.643  1.00  0.00     0.049 A 
ATOM     64  H   UNL A   1      45.491  28.613  31.935  1.00  0.00     0.167 HD
ATOM     65  C   UNL A   1      45.157  28.401  28.952  1.00  0.00     0.074 A 
ATOM     66  C   UNL A   1      44.874  27.205  29.740  1.00  0.00     0.031 C 
ATOM     67  C   UNL A   1      45.333  29.708  29.311  1.00  0.00     0.034 A 
BRANCH  54  68
ATOM     68  C   UNL A   1      43.578  28.039  34.135  1.00  0.00     0.023 A 
ATOM     69  C   UNL A   1      43.400  26.734  33.634  1.00  0.00     0.012 A 
ATOM     70  C   UNL A   1      43.896  28.163  35.509  1.00  0.00     0.148 A 
ATOM     71  C   UNL A   1      43.503  25.614  34.465  1.00  0.00     0.002 A 
ATOM     72  C   UNL A   1      44.096  27.044  36.305  1.00  0.00     0.091 A 
ATOM     73  F   UNL A   1      43.869  29.360  36.105  1.00  0.00    -0.205 F 
ATOM     74  C   UNL A   1      43.868  25.766  35.797  1.00  0.00     0.022 A 
BRANCH  72  75
ATOM     75  S   UNL A   1      44.645  27.213  38.006  1.00  0.00     0.127 S 
ATOM     76  O   UNL A   1      43.575  26.532  38.729  1.00  0.00    -0.237 OA
ATOM     77  O   UNL A   1      45.927  26.508  37.984  1.00  0.00    -0.237 OA
ATOM     78  O   UNL A   1      44.765  28.651  38.221  1.00  0.00    -0.744 OA
ENDBRANCH  72  75
ENDBRANCH  54  68
BRANCH  55  79
ATOM     79  C   UNL A   1      42.861  25.358  26.159  1.00  0.00     0.023 A 
ATOM     80  C   UNL A   1      43.754  25.070  25.112  1.00  0.00     0.012 A 
ATOM     81  C   UNL A   1      42.044  24.314  26.650  1.00  0.00     0.148 A 
ATOM     82  C   UNL A   1      43.847  23.778  24.582  1.00  0.00     0.002 A 
ATOM     83  C   UNL A   1      42.126  23.035  26.109  1.00  0.00     0.091 A 
ATOM     84  F   UNL A   1      41.254  24.550  27.706  1.00  0.00    -0.205 F 
ATOM     85  C   UNL A   1      43.037  22.760  25.082  1.00  0.00     0.022 A 
BRANCH  83  86
ATOM     86  S   UNL A   1      41.113  21.674  26.704  1.00  0.00     0.127 S 
ATOM     87  O   UNL A   1      39.823  21.960  26.074  1.00  0.00    -0.237 OA
ATOM     88  O   UNL A   1      41.814  20.514  26.162  1.00  0.00    -0.237 OA
ATOM     89  O   UNL A   1      41.105  21.788  28.157  1.00  0.00    -0.744 OA
ENDBRANCH  83  86
ENDBRANCH  55  79
BRANCH  67  90
ATOM     90  C   UNL A   1      45.473  30.734  28.211  1.00  0.00     0.023 A 
ATOM     91  C   UNL A   1      44.350  31.339  27.609  1.00  0.00     0.012 A 
ATOM     92  C   UNL A   1      46.754  31.228  27.905  1.00  0.00     0.148 A 
ATOM     93  C   UNL A   1      44.501  32.393  26.705  1.00  0.00     0.002 A 
ATOM     94  C   UNL A   1      46.898  32.307  27.041  1.00  0.00     0.091 A 
ATOM     95  F   UNL A   1      47.814  30.650  28.491  1.00  0.00    -0.205 F 
ATOM     96  C   UNL A   1      45.774  32.886  26.431  1.00  0.00     0.022 A 
BRANCH  94  97
ATOM     97  S   UNL A   1      48.495  33.074  26.752  1.00  0.00     0.127 S 
ATOM     98  O   UNL A   1      48.196  34.008  25.670  1.00  0.00    -0.237 OA
ATOM     99  O   UNL A   1      48.784  33.703  28.042  1.00  0.00    -0.237 OA
ATOM    100  O   UNL A   1      49.402  31.984  26.410  1.00  0.00    -0.744 OA
ENDBRANCH  94  97
ENDBRANCH  67  90
ENDBRANCH  41  42
ENDBRANCH  34  36
ENDBRANCH  33  34
ENDBRANCH  32  33
ENDBRANCH  31  32
ENDBRANCH  30  31
ENDBRANCH  29  30
ENDBRANCH   1  29
TORSDOF 23
ENDMDL
MODEL 2
REMARK VINA RESULT:     -10.2      2.097      2.492
REMARK SMILES CC[C@@H]1C=CCN1S(=O)(=O)c1sc2c(c1C(=O)OCCOCCOCCOC(=O)c1ccc(-c3c4nc(c(-c5cccc(S(=O)(=O)[O-])c5F)c5ccc([nH]5)c(-c5cccc(S(=O)(=O)[O-])c5F)c5nc(c(-c6cccc(S(=O)(=O)[O-])c6F)c6ccc3[nH]6)C=C5)C=C4)cc1)CC[NH2+]C2
REMARK SMILES IDX 22 1 21 2 20 3 19 4 18 5 16 6 17 7 15 8 11 9 12 10 13 11
REMARK SMILES IDX 14 12 96 13 93 14 95 15 94 16 8 19 9 20 10 21 7 22 3 23 4 24
REMARK SMILES IDX 5 25 6 26 2 27 1 28 23 29 24 30 25 31 26 32 27 33 28 34
REMARK SMILES IDX 29 35 30 36 31 37 92 38 32 39 91 40 33 41 34 42 35 43 85 44
REMARK SMILES IDX 36 45 90 46 84 47 86 48 37 49 89 50 83 51 82 52 38 54 70 55
REMARK SMILES IDX 50 56 69 57 51 58 54 59 68 60 87 61 52 62 53 63 67 65 88 66
REMARK SMILES IDX 55 67 39 68 40 69 48 70 41 71 43 72 49 73 42 74 44 75 45 76
REMARK SMILES IDX 46 77 47 78 71 79 72 80 80 81 73 82 75 83 81 84 74 85 76 86
REMARK SMILES IDX 77 87 78 88 79 89 56 90 57 91 65 92 58 93 60 94 66 95 59 96
REMARK SMILES IDX 61 97 62 98 63 99 64 100
REMARK H PARENT 95 17 95 18 86 53 54 64
REMARK Flexibility Score: inf
ROOT
ATOM      1  C   UNL A   1      33.164  27.459  24.206  1.00  0.00     0.188 C 
ENDROOT
BRANCH   1   2
ATOM      2  O   UNL A   1      33.826  27.081  23.020  1.00  0.00    -0.376 OA
BRANCH   2   3
ATOM      3  C   UNL A   1      33.111  26.420  21.989  1.00  0.00     0.202 C 
BRANCH   3   4
ATOM      4  C   UNL A   1      33.344  24.940  21.630  1.00  0.00     0.261 C 
BRANCH   4   5
ATOM      5  O   UNL A   1      33.714  24.089  22.727  1.00  0.00    -0.460 OA
BRANCH   5   6
ATOM      6  C   UNL A   1      32.819  23.132  23.082  1.00  0.00     0.340 C 
ATOM      7  O   UNL A   1      32.704  22.049  22.512  1.00  0.00    -0.246 OA
BRANCH   6   8
ATOM      8  C   UNL A   1      32.120  23.397  24.341  1.00  0.00     0.095 A 
ATOM      9  C   UNL A   1      32.444  22.859  25.590  1.00  0.00     0.150 A 
ATOM     10  S   UNL A   1      31.507  23.603  26.826  1.00  0.00    -0.120 S 
ATOM     11  C   UNL A   1      30.646  24.562  25.753  1.00  0.00     0.064 A 
ATOM     12  C   UNL A   1      30.987  24.309  24.444  1.00  0.00    -0.007 A 
ATOM     13  C   UNL A   1      29.653  25.586  26.209  1.00  0.00     0.308 C 
ATOM     14  C   UNL A   1      30.195  24.963  23.340  1.00  0.00     0.099 C 
ATOM     15  N   UNL A   1      28.683  25.893  25.148  1.00  0.00    -0.342 N 
ATOM     16  C   UNL A   1      29.373  26.163  23.869  1.00  0.00     0.265 C 
ATOM     17  H   UNL A   1      28.056  25.098  25.026  1.00  0.00     0.346 HD
ATOM     18  H   UNL A   1      28.156  26.724  25.416  1.00  0.00     0.346 HD
BRANCH   9  19
ATOM     19  S   UNL A   1      33.727  21.744  26.188  1.00  0.00     0.254 S 
ATOM     20  O   UNL A   1      33.186  20.426  25.918  1.00  0.00    -0.206 OA
ATOM     21  O   UNL A   1      33.991  22.145  27.552  1.00  0.00    -0.206 OA
BRANCH  19  22
ATOM     22  N   UNL A   1      35.208  21.874  25.325  1.00  0.00    -0.186 NA
ATOM     23  C   UNL A   1      36.381  22.252  26.196  1.00  0.00     0.096 C 
ATOM     24  C   UNL A   1      37.430  21.247  25.826  1.00  0.00    -0.010 C 
ATOM     25  C   UNL A   1      37.016  20.437  24.855  1.00  0.00    -0.013 C 
ATOM     26  C   UNL A   1      35.605  20.709  24.492  1.00  0.00     0.130 C 
BRANCH  23  27
ATOM     27  C   UNL A   1      36.796  23.716  25.949  1.00  0.00     0.021 C 
ATOM     28  C   UNL A   1      35.777  24.600  25.228  1.00  0.00     0.006 C 
ENDBRANCH  23  27
ENDBRANCH  19  22
ENDBRANCH   9  19
ENDBRANCH   6   8
ENDBRANCH   5   6
ENDBRANCH   4   5
ENDBRANCH   3   4
ENDBRANCH   2   3
ENDBRANCH   1   2
BRANCH   1  29
ATOM     29  C   UNL A   1      33.089  28.939  24.639  1.00  0.00     0.188 C 
BRANCH  29  30
ATOM     30  O   UNL A   1      33.935  29.469  25.634  1.00  0.00    -0.376 OA
BRANCH  30  31
ATOM     31  C   UNL A   1      33.514  29.953  26.898  1.00  0.00     0.202 C 
BRANCH  31  32
ATOM     32  C   UNL A   1      34.399  30.621  27.946  1.00  0.00     0.261 C 
BRANCH  32  33
ATOM     33  O   UNL A   1      35.740  30.202  27.944  1.00  0.00    -0.460 OA
BRANCH  33  34
ATOM     34  C   UNL A   1      36.591  31.197  28.263  1.00  0.00     0.338 C 
ATOM     35  O   UNL A   1      36.685  32.290  27.728  1.00  0.00    -0.246 OA
BRANCH  34  36
ATOM     36  C   UNL A   1      37.420  30.762  29.384  1.00  0.00     0.060 A 
ATOM     37  C   UNL A   1      38.565  31.524  29.617  1.00  0.00     0.016 A 
ATOM     38  C   UNL A   1      37.242  29.470  29.899  1.00  0.00     0.016 A 
ATOM     39  C   UNL A   1      39.668  30.870  30.096  1.00  0.00     0.010 A 
ATOM     40  C   UNL A   1      38.349  28.815  30.366  1.00  0.00     0.010 A 
ATOM     41  C   UNL A   1      39.562  29.498  30.331  1.00  0.00    -0.014 A 
BRANCH  41  42
ATOM     42  C   UNL A   1      40.799  28.767  30.440  1.00  0.00     0.031 A 
ATOM     43  C   UNL A   1      41.304  28.661  31.815  1.00  0.00     0.074 A 
ATOM     44  C   UNL A   1      41.369  28.212  29.354  1.00  0.00     0.049 A 
ATOM     45  N   UNL A   1      42.371  29.193  32.310  1.00  0.00    -0.248 NA
ATOM     46  C   UNL A   1      40.421  28.017  32.797  1.00  0.00     0.031 C 
ATOM     47  C   UNL A   1      40.769  28.017  28.027  1.00  0.00     0.029 A 
ATOM     48  N   UNL A   1      42.555  27.556  29.261  1.00  0.00    -0.354 N 
ATOM     49  C   UNL A   1      42.412  28.731  33.620  1.00  0.00     0.074 A 
ATOM     50  C   UNL A   1      41.105  28.208  33.921  1.00  0.00     0.031 C 
ATOM     51  C   UNL A   1      41.472  27.072  27.367  1.00  0.00     0.029 A 
ATOM     52  C   UNL A   1      42.626  26.704  28.169  1.00  0.00     0.049 A 
ATOM     53  H   UNL A   1      43.290  27.675  29.904  1.00  0.00     0.167 HD
ATOM     54  C   UNL A   1      43.594  28.534  34.259  1.00  0.00     0.034 A 
ATOM     55  C   UNL A   1      43.507  25.689  28.012  1.00  0.00     0.034 A 
ATOM     56  C   UNL A   1      44.676  29.245  33.632  1.00  0.00     0.049 A 
ATOM     57  C   UNL A   1      44.635  25.924  28.943  1.00  0.00     0.074 A 
ATOM     58  C   UNL A   1      44.939  30.567  33.339  1.00  0.00     0.029 A 
ATOM     59  N   UNL A   1      45.555  28.505  32.881  1.00  0.00    -0.354 N 
ATOM     60  N   UNL A   1      45.482  26.910  28.829  1.00  0.00    -0.248 NA
ATOM     61  C   UNL A   1      44.593  25.287  30.250  1.00  0.00     0.031 C 
ATOM     62  C   UNL A   1      45.663  30.542  32.112  1.00  0.00     0.029 A 
ATOM     63  C   UNL A   1      45.821  29.206  31.735  1.00  0.00     0.049 A 
ATOM     64  H   UNL A   1      45.928  27.627  33.123  1.00  0.00     0.167 HD
ATOM     65  C   UNL A   1      45.754  27.293  30.138  1.00  0.00     0.074 A 
ATOM     66  C   UNL A   1      45.284  26.182  30.960  1.00  0.00     0.031 C 
ATOM     67  C   UNL A   1      46.060  28.589  30.446  1.00  0.00     0.034 A 
BRANCH  54  68
ATOM     68  C   UNL A   1      43.831  27.395  35.215  1.00  0.00     0.023 A 
ATOM     69  C   UNL A   1      44.158  27.722  36.546  1.00  0.00     0.012 A 
ATOM     70  C   UNL A   1      44.006  26.047  34.821  1.00  0.00     0.148 A 
ATOM     71  C   UNL A   1      44.663  26.762  37.429  1.00  0.00     0.002 A 
ATOM     72  C   UNL A   1      44.412  25.079  35.730  1.00  0.00     0.091 A 
ATOM     73  F   UNL A   1      43.926  25.702  33.532  1.00  0.00    -0.205 F 
ATOM     74  C   UNL A   1      44.774  25.436  37.027  1.00  0.00     0.022 A 
BRANCH  72  75
ATOM     75  S   UNL A   1      44.487  23.349  35.256  1.00  0.00     0.127 S 
ATOM     76  O   UNL A   1      45.458  23.385  34.167  1.00  0.00    -0.237 OA
ATOM     77  O   UNL A   1      44.958  22.716  36.488  1.00  0.00    -0.237 OA
ATOM     78  O   UNL A   1      43.117  22.998  34.899  1.00  0.00    -0.744 OA
ENDBRANCH  72  75
ENDBRANCH  54  68
BRANCH  55  79
ATOM     79  C   UNL A   1      43.288  24.387  27.343  1.00  0.00     0.023 A 
ATOM     80  C   UNL A   1      42.017  23.788  27.388  1.00  0.00     0.012 A 
ATOM     81  C   UNL A   1      44.250  23.852  26.456  1.00  0.00     0.148 A 
ATOM     82  C   UNL A   1      41.705  22.701  26.561  1.00  0.00     0.002 A 
ATOM     83  C   UNL A   1      43.943  22.762  25.650  1.00  0.00     0.091 A 
ATOM     84  F   UNL A   1      45.435  24.468  26.337  1.00  0.00    -0.205 F 
ATOM     85  C   UNL A   1      42.666  22.190  25.691  1.00  0.00     0.022 A 
BRANCH  83  86
ATOM     86  S   UNL A   1      45.132  22.050  24.503  1.00  0.00     0.127 S 
ATOM     87  O   UNL A   1      45.400  23.177  23.608  1.00  0.00    -0.237 OA
ATOM     88  O   UNL A   1      46.236  21.697  25.390  1.00  0.00    -0.237 OA
ATOM     89  O   UNL A   1      44.449  20.931  23.864  1.00  0.00    -0.744 OA
ENDBRANCH  83  86
ENDBRANCH  55  79
BRANCH  67  90
ATOM     90  C   UNL A   1      46.387  29.531  29.311  1.00  0.00     0.023 A 
ATOM     91  C   UNL A   1      47.674  29.588  28.738  1.00  0.00     0.012 A 
ATOM     92  C   UNL A   1      45.339  30.238  28.695  1.00  0.00     0.148 A 
ATOM     93  C   UNL A   1      47.917  30.351  27.593  1.00  0.00     0.002 A 
ATOM     94  C   UNL A   1      45.574  30.958  27.529  1.00  0.00     0.091 A 
ATOM     95  F   UNL A   1      44.117  30.168  29.245  1.00  0.00    -0.205 F 
ATOM     96  C   UNL A   1      46.865  31.026  26.981  1.00  0.00     0.022 A 
BRANCH  94  97
ATOM     97  S   UNL A   1      44.236  31.738  26.620  1.00  0.00     0.127 S 
ATOM     98  O   UNL A   1      43.744  32.721  27.581  1.00  0.00    -0.237 OA
ATOM     99  O   UNL A   1      44.929  32.308  25.463  1.00  0.00    -0.237 OA
ATOM    100  O   UNL A   1      43.307  30.666  26.283  1.00  0.00    -0.744 OA
ENDBRANCH  94  97
ENDBRANCH  67  90
ENDBRANCH  41  42
ENDBRANCH  34  36
ENDBRANCH  33  34
ENDBRANCH  32  33
ENDBRANCH  31  32
ENDBRANCH  30  31
ENDBRANCH  29  30
ENDBRANCH   1  29
TORSDOF 23
ENDMDL
MODEL 3
REMARK VINA RESULT:     -10.1      1.298      3.274
REMARK SMILES CC[C@@H]1C=CCN1S(=O)(=O)c1sc2c(c1C(=O)OCCOCCOCCOC(=O)c1ccc(-c3c4nc(c(-c5cccc(S(=O)(=O)[O-])c5F)c5ccc([nH]5)c(-c5cccc(S(=O)(=O)[O-])c5F)c5nc(c(-c6cccc(S(=O)(=O)[O-])c6F)c6ccc3[nH]6)C=C5)C=C4)cc1)CC[NH2+]C2
REMARK SMILES IDX 22 1 21 2 20 3 19 4 18 5 16 6 17 7 15 8 11 9 12 10 13 11
REMARK SMILES IDX 14 12 96 13 93 14 95 15 94 16 8 19 9 20 10 21 7 22 3 23 4 24
REMARK SMILES IDX 5 25 6 26 2 27 1 28 23 29 24 30 25 31 26 32 27 33 28 34
REMARK SMILES IDX 29 35 30 36 31 37 92 38 32 39 91 40 33 41 34 42 35 43 85 44
REMARK SMILES IDX 36 45 90 46 84 47 86 48 37 49 89 50 83 51 82 52 38 54 70 55
REMARK SMILES IDX 50 56 69 57 51 58 54 59 68 60 87 61 52 62 53 63 67 65 88 66
REMARK SMILES IDX 55 67 39 68 40 69 48 70 41 71 43 72 49 73 42 74 44 75 45 76
REMARK SMILES IDX 46 77 47 78 71 79 72 80 80 81 73 82 75 83 81 84 74 85 76 86
REMARK SMILES IDX 77 87 78 88 79 89 56 90 57 91 65 92 58 93 60 94 66 95 59 96
REMARK SMILES IDX 61 97 62 98 63 99 64 100
REMARK H PARENT 95 17 95 18 86 53 54 64
REMARK Flexibility Score: inf
ROOT
ATOM      1  C   UNL A   1      33.326  26.452  26.486  1.00  0.00     0.188 C 
ENDROOT
BRANCH   1   2
ATOM      2  O   UNL A   1      33.502  25.120  26.058  1.00  0.00    -0.376 OA
BRANCH   2   3
ATOM      3  C   UNL A   1      34.673  24.408  26.425  1.00  0.00     0.202 C 
BRANCH   3   4
ATOM      4  C   UNL A   1      35.955  24.415  25.571  1.00  0.00     0.261 C 
BRANCH   4   5
ATOM      5  O   UNL A   1      36.268  23.175  24.916  1.00  0.00    -0.460 OA
BRANCH   5   6
ATOM      6  C   UNL A   1      35.802  23.023  23.650  1.00  0.00     0.340 C 
ATOM      7  O   UNL A   1      36.500  23.117  22.643  1.00  0.00    -0.246 OA
BRANCH   6   8
ATOM      8  C   UNL A   1      34.425  22.531  23.569  1.00  0.00     0.095 A 
ATOM      9  C   UNL A   1      33.337  23.219  23.023  1.00  0.00     0.150 A 
ATOM     10  S   UNL A   1      31.960  22.192  22.934  1.00  0.00    -0.120 S 
ATOM     11  C   UNL A   1      32.742  20.894  23.653  1.00  0.00     0.064 A 
ATOM     12  C   UNL A   1      34.025  21.209  24.035  1.00  0.00    -0.007 A 
ATOM     13  C   UNL A   1      32.094  19.553  23.812  1.00  0.00     0.308 C 
ATOM     14  C   UNL A   1      34.816  20.211  24.843  1.00  0.00     0.099 C 
ATOM     15  N   UNL A   1      32.724  18.785  24.895  1.00  0.00    -0.342 N 
ATOM     16  C   UNL A   1      34.195  18.796  24.759  1.00  0.00     0.265 C 
ATOM     17  H   UNL A   1      32.468  19.198  25.792  1.00  0.00     0.346 HD
ATOM     18  H   UNL A   1      32.399  17.819  24.844  1.00  0.00     0.346 HD
BRANCH   9  19
ATOM     19  S   UNL A   1      33.128  24.825  22.233  1.00  0.00     0.254 S 
ATOM     20  O   UNL A   1      33.269  24.530  20.820  1.00  0.00    -0.206 OA
ATOM     21  O   UNL A   1      34.074  25.707  22.880  1.00  0.00    -0.206 OA
BRANCH  19  22
ATOM     22  N   UNL A   1      31.565  25.503  22.458  1.00  0.00    -0.186 NA
ATOM     23  C   UNL A   1      31.338  26.043  23.850  1.00  0.00     0.096 C 
ATOM     24  C   UNL A   1      30.784  27.414  23.608  1.00  0.00    -0.010 C 
ATOM     25  C   UNL A   1      30.626  27.660  22.310  1.00  0.00    -0.013 C 
ATOM     26  C   UNL A   1      31.135  26.540  21.484  1.00  0.00     0.130 C 
BRANCH  23  27
ATOM     27  C   UNL A   1      30.399  25.115  24.648  1.00  0.00     0.021 C 
ATOM     28  C   UNL A   1      29.107  25.742  25.174  1.00  0.00     0.006 C 
ENDBRANCH  23  27
ENDBRANCH  19  22
ENDBRANCH   9  19
ENDBRANCH   6   8
ENDBRANCH   5   6
ENDBRANCH   4   5
ENDBRANCH   3   4
ENDBRANCH   2   3
ENDBRANCH   1   2
BRANCH   1  29
ATOM     29  C   UNL A   1      34.055  27.618  25.782  1.00  0.00     0.188 C 
BRANCH  29  30
ATOM     30  O   UNL A   1      33.399  28.824  25.461  1.00  0.00    -0.376 OA
BRANCH  30  31
ATOM     31  C   UNL A   1      32.799  29.705  26.395  1.00  0.00     0.202 C 
BRANCH  31  32
ATOM     32  C   UNL A   1      33.530  30.701  27.291  1.00  0.00     0.261 C 
BRANCH  32  33
ATOM     33  O   UNL A   1      34.924  30.534  27.348  1.00  0.00    -0.460 OA
BRANCH  33  34
ATOM     34  C   UNL A   1      35.545  31.585  27.918  1.00  0.00     0.338 C 
ATOM     35  O   UNL A   1      35.414  32.765  27.635  1.00  0.00    -0.246 OA
BRANCH  34  36
ATOM     36  C   UNL A   1      36.437  31.091  28.964  1.00  0.00     0.060 A 
ATOM     37  C   UNL A   1      37.509  31.924  29.284  1.00  0.00     0.016 A 
ATOM     38  C   UNL A   1      36.394  29.732  29.306  1.00  0.00     0.016 A 
ATOM     39  C   UNL A   1      38.680  31.323  29.663  1.00  0.00     0.010 A 
ATOM     40  C   UNL A   1      37.568  29.132  29.672  1.00  0.00     0.010 A 
ATOM     41  C   UNL A   1      38.710  29.928  29.716  1.00  0.00    -0.014 A 
BRANCH  41  42
ATOM     42  C   UNL A   1      40.012  29.313  29.715  1.00  0.00     0.031 A 
ATOM     43  C   UNL A   1      40.616  29.205  31.049  1.00  0.00     0.074 A 
ATOM     44  C   UNL A   1      40.557  28.854  28.573  1.00  0.00     0.049 A 
ATOM     45  N   UNL A   1      41.660  29.815  31.499  1.00  0.00    -0.248 NA
ATOM     46  C   UNL A   1      39.862  28.445  32.057  1.00  0.00     0.031 C 
ATOM     47  C   UNL A   1      39.891  28.653  27.279  1.00  0.00     0.029 A 
ATOM     48  N   UNL A   1      41.789  28.316  28.378  1.00  0.00    -0.354 N 
ATOM     49  C   UNL A   1      41.831  29.312  32.783  1.00  0.00     0.074 A 
ATOM     50  C   UNL A   1      40.599  28.658  33.143  1.00  0.00     0.031 C 
ATOM     51  C   UNL A   1      40.632  27.802  26.536  1.00  0.00     0.029 A 
ATOM     52  C   UNL A   1      41.866  27.515  27.247  1.00  0.00     0.049 A 
ATOM     53  H   UNL A   1      42.552  28.480  28.978  1.00  0.00     0.167 HD
ATOM     54  C   UNL A   1      43.065  29.203  33.337  1.00  0.00     0.034 A 
ATOM     55  C   UNL A   1      42.823  26.594  26.993  1.00  0.00     0.034 A 
ATOM     56  C   UNL A   1      44.034  30.035  32.674  1.00  0.00     0.049 A 
ATOM     57  C   UNL A   1      43.985  26.899  27.860  1.00  0.00     0.074 A 
ATOM     58  C   UNL A   1      44.155  31.386  32.422  1.00  0.00     0.029 A 
ATOM     59  N   UNL A   1      44.925  29.409  31.839  1.00  0.00    -0.354 N 
ATOM     60  N   UNL A   1      44.729  27.964  27.735  1.00  0.00    -0.248 NA
ATOM     61  C   UNL A   1      44.087  26.214  29.139  1.00  0.00     0.031 C 
ATOM     62  C   UNL A   1      44.795  31.474  31.152  1.00  0.00     0.029 A 
ATOM     63  C   UNL A   1      45.049  30.173  30.709  1.00  0.00     0.049 A 
ATOM     64  H   UNL A   1      45.392  28.561  32.020  1.00  0.00     0.167 HD
ATOM     65  C   UNL A   1      45.050  28.323  29.040  1.00  0.00     0.074 A 
ATOM     66  C   UNL A   1      44.740  27.143  29.841  1.00  0.00     0.031 C 
ATOM     67  C   UNL A   1      45.257  29.629  29.383  1.00  0.00     0.034 A 
BRANCH  54  68
ATOM     68  C   UNL A   1      43.468  28.058  34.228  1.00  0.00     0.023 A 
ATOM     69  C   UNL A   1      43.152  26.755  33.794  1.00  0.00     0.012 A 
ATOM     70  C   UNL A   1      43.897  28.204  35.569  1.00  0.00     0.148 A 
ATOM     71  C   UNL A   1      43.230  25.660  34.660  1.00  0.00     0.002 A 
ATOM     72  C   UNL A   1      44.068  27.101  36.394  1.00  0.00     0.091 A 
ATOM     73  F   UNL A   1      44.008  29.419  36.116  1.00  0.00    -0.205 F 
ATOM     74  C   UNL A   1      43.704  25.829  35.955  1.00  0.00     0.022 A 
BRANCH  72  75
ATOM     75  S   UNL A   1      44.755  27.284  38.043  1.00  0.00     0.127 S 
ATOM     76  O   UNL A   1      46.112  26.784  37.853  1.00  0.00    -0.237 OA
ATOM     77  O   UNL A   1      44.649  28.728  38.257  1.00  0.00    -0.237 OA
ATOM     78  O   UNL A   1      43.882  26.494  38.903  1.00  0.00    -0.744 OA
ENDBRANCH  72  75
ENDBRANCH  54  68
BRANCH  55  79
ATOM     79  C   UNL A   1      42.680  25.303  26.284  1.00  0.00     0.023 A 
ATOM     80  C   UNL A   1      43.574  24.976  25.248  1.00  0.00     0.012 A 
ATOM     81  C   UNL A   1      41.830  24.288  26.780  1.00  0.00     0.148 A 
ATOM     82  C   UNL A   1      43.633  23.675  24.734  1.00  0.00     0.002 A 
ATOM     83  C   UNL A   1      41.880  23.001  26.256  1.00  0.00     0.091 A 
ATOM     84  F   UNL A   1      41.038  24.560  27.827  1.00  0.00    -0.205 F 
ATOM     85  C   UNL A   1      42.791  22.687  25.240  1.00  0.00     0.022 A 
BRANCH  83  86
ATOM     86  S   UNL A   1      40.823  21.676  26.859  1.00  0.00     0.127 S 
ATOM     87  O   UNL A   1      41.086  21.712  28.299  1.00  0.00    -0.237 OA
ATOM     88  O   UNL A   1      39.497  22.144  26.467  1.00  0.00    -0.237 OA
ATOM     89  O   UNL A   1      41.289  20.463  26.198  1.00  0.00    -0.744 OA
ENDBRANCH  83  86
ENDBRANCH  55  79
BRANCH  67  90
ATOM     90  C   UNL A   1      45.420  30.639  28.271  1.00  0.00     0.023 A 
ATOM     91  C   UNL A   1      44.310  31.250  27.652  1.00  0.00     0.012 A 
ATOM     92  C   UNL A   1      46.709  31.112  27.970  1.00  0.00     0.148 A 
ATOM     93  C   UNL A   1      44.482  32.290  26.735  1.00  0.00     0.002 A 
ATOM     94  C   UNL A   1      46.874  32.179  27.094  1.00  0.00     0.091 A 
ATOM     95  F   UNL A   1      47.757  30.529  28.573  1.00  0.00    -0.205 F 
ATOM     96  C   UNL A   1      45.763  32.763  26.466  1.00  0.00     0.022 A 
BRANCH  94  97
ATOM     97  S   UNL A   1      48.484  32.921  26.808  1.00  0.00     0.127 S 
ATOM     98  O   UNL A   1      48.811  33.460  28.126  1.00  0.00    -0.237 OA
ATOM     99  O   UNL A   1      49.295  31.772  26.399  1.00  0.00    -0.237 OA
ATOM    100  O   UNL A   1      48.285  33.908  25.755  1.00  0.00    -0.744 OA
ENDBRANCH  94  97
ENDBRANCH  67  90
ENDBRANCH  41  42
ENDBRANCH  34  36
ENDBRANCH  33  34
ENDBRANCH  32  33
ENDBRANCH  31  32
ENDBRANCH  30  31
ENDBRANCH  29  30
ENDBRANCH   1  29
TORSDOF 23
ENDMDL
