MODEL 1
REMARK VINA RESULT:      -9.2      0.000      0.000
REMARK SMILES CC(C)c1ccc(S[C@H](C)[C@@H](C)C(=O)OCCOCCOCCOC(=O)c2ccc(-c3c4nc(c(-c5cccc(S(=O)(=O)[O-])c5F)c5ccc([nH]5)c(-c5cccc(S(=O)(=O)[O-])c5F)c5nc(c(-c6cccc(S(=O)(=O)[O-])c6F)c6ccc3[nH]6)C=C5)C=C4)cc2)cc1
REMARK SMILES IDX 19 1 18 2 17 3 16 4 15 5 13 6 14 7 11 8 12 9 9 10 10 11 8 12
REMARK SMILES IDX 7 13 4 14 5 15 91 16 6 17 90 18 2 19 1 20 3 21 20 22 21 23
REMARK SMILES IDX 22 24 23 25 24 26 25 27 26 28 27 29 28 30 89 31 29 32 88 33
REMARK SMILES IDX 30 34 31 35 32 36 82 37 33 38 87 39 81 40 83 41 34 42 86 43
REMARK SMILES IDX 80 44 79 45 35 47 67 48 47 49 66 50 48 51 51 52 65 53 84 54
REMARK SMILES IDX 49 55 50 56 64 58 85 59 52 60 36 61 37 62 45 63 38 64 40 65
REMARK SMILES IDX 46 66 39 67 41 68 42 69 43 70 44 71 68 72 69 73 77 74 70 75
REMARK SMILES IDX 72 76 78 77 71 78 73 79 74 80 75 81 76 82 53 83 54 84 62 85
REMARK SMILES IDX 55 86 57 87 63 88 56 89 58 90 59 91 60 92 61 93
REMARK H PARENT 83 46 51 57
REMARK Flexibility Score: inf
ROOT
ATOM      1  C   UNL A   1      31.168  26.586  26.505  1.00  0.00     0.188 C 
ENDROOT
BRANCH   1   2
ATOM      2  O   UNL A   1      31.605  25.270  26.180  1.00  0.00    -0.376 OA
BRANCH   2   3
ATOM      3  C   UNL A   1      30.921  24.148  26.709  1.00  0.00     0.202 C 
BRANCH   3   4
ATOM      4  C   UNL A   1      31.624  22.784  26.576  1.00  0.00     0.261 C 
BRANCH   4   5
ATOM      5  O   UNL A   1      32.085  22.358  25.263  1.00  0.00    -0.463 OA
BRANCH   5   6
ATOM      6  C   UNL A   1      33.428  22.439  25.067  1.00  0.00     0.309 C 
ATOM      7  O   UNL A   1      34.249  22.168  25.942  1.00  0.00    -0.252 OA
BRANCH   6   8
ATOM      8  C   UNL A   1      33.896  23.076  23.750  1.00  0.00     0.109 C 
ATOM      9  C   UNL A   1      34.946  24.103  24.224  1.00  0.00     0.021 C 
BRANCH   8  10
ATOM     10  C   UNL A   1      32.923  23.703  22.690  1.00  0.00     0.062 C 
ATOM     11  C   UNL A   1      31.467  23.575  23.125  1.00  0.00     0.020 C 
BRANCH  10  12
ATOM     12  S   UNL A   1      33.344  25.453  22.159  1.00  0.00    -0.122 SA
BRANCH  12  13
ATOM     13  C   UNL A   1      32.144  26.756  22.464  1.00  0.00     0.008 A 
ATOM     14  C   UNL A   1      29.905  28.498  23.074  1.00  0.00    -0.045 A 
ATOM     15  C   UNL A   1      31.164  28.990  22.696  1.00  0.00     0.005 A 
ATOM     16  C   UNL A   1      29.787  27.113  23.159  1.00  0.00     0.005 A 
ATOM     17  C   UNL A   1      32.253  28.139  22.385  1.00  0.00     0.015 A 
ATOM     18  C   UNL A   1      30.887  26.278  22.889  1.00  0.00     0.015 A 
BRANCH  14  19
ATOM     19  C   UNL A   1      28.779  29.460  23.448  1.00  0.00     0.013 C 
ATOM     20  C   UNL A   1      29.127  30.922  23.137  1.00  0.00     0.012 C 
ATOM     21  C   UNL A   1      27.404  29.152  22.831  1.00  0.00     0.012 C 
ENDBRANCH  14  19
ENDBRANCH  12  13
ENDBRANCH  10  12
ENDBRANCH   8  10
ENDBRANCH   6   8
ENDBRANCH   5   6
ENDBRANCH   4   5
ENDBRANCH   3   4
ENDBRANCH   2   3
ENDBRANCH   1   2
BRANCH   1  22
ATOM     22  C   UNL A   1      32.059  27.777  26.164  1.00  0.00     0.188 C 
BRANCH  22  23
ATOM     23  O   UNL A   1      31.459  29.036  26.432  1.00  0.00    -0.376 OA
BRANCH  23  24
ATOM     24  C   UNL A   1      32.127  30.142  25.847  1.00  0.00     0.202 C 
BRANCH  24  25
ATOM     25  C   UNL A   1      32.561  31.119  26.941  1.00  0.00     0.261 C 
BRANCH  25  26
ATOM     26  O   UNL A   1      33.633  30.620  27.767  1.00  0.00    -0.460 OA
BRANCH  26  27
ATOM     27  C   UNL A   1      34.755  31.365  27.796  1.00  0.00     0.338 C 
ATOM     28  O   UNL A   1      34.825  32.588  27.670  1.00  0.00    -0.246 OA
BRANCH  27  29
ATOM     29  C   UNL A   1      35.890  30.508  28.178  1.00  0.00     0.060 A 
ATOM     30  C   UNL A   1      35.830  29.764  29.364  1.00  0.00     0.016 A 
ATOM     31  C   UNL A   1      37.034  30.471  27.386  1.00  0.00     0.016 A 
ATOM     32  C   UNL A   1      36.934  29.038  29.803  1.00  0.00     0.010 A 
ATOM     33  C   UNL A   1      38.138  29.734  27.819  1.00  0.00     0.010 A 
ATOM     34  C   UNL A   1      38.109  29.047  29.049  1.00  0.00    -0.014 A 
BRANCH  34  35
ATOM     35  C   UNL A   1      39.359  28.466  29.592  1.00  0.00     0.031 A 
ATOM     36  C   UNL A   1      39.995  29.118  30.788  1.00  0.00     0.074 A 
ATOM     37  C   UNL A   1      39.942  27.402  29.011  1.00  0.00     0.049 A 
ATOM     38  N   UNL A   1      41.156  28.887  31.340  1.00  0.00    -0.248 NA
ATOM     39  C   UNL A   1      39.217  30.184  31.446  1.00  0.00     0.031 C 
ATOM     40  C   UNL A   1      39.410  26.662  27.868  1.00  0.00     0.029 A 
ATOM     41  N   UNL A   1      41.137  26.785  29.286  1.00  0.00    -0.354 N 
ATOM     42  C   UNL A   1      41.276  29.811  32.370  1.00  0.00     0.074 A 
ATOM     43  C   UNL A   1      40.066  30.605  32.372  1.00  0.00     0.031 C 
ATOM     44  C   UNL A   1      40.294  25.713  27.513  1.00  0.00     0.029 A 
ATOM     45  C   UNL A   1      41.468  25.807  28.379  1.00  0.00     0.049 A 
ATOM     46  H   UNL A   1      41.702  27.020  30.058  1.00  0.00     0.167 HD
ATOM     47  C   UNL A   1      42.298  29.979  33.240  1.00  0.00     0.034 A 
ATOM     48  C   UNL A   1      42.606  25.097  28.240  1.00  0.00     0.034 A 
ATOM     49  C   UNL A   1      43.482  29.165  33.261  1.00  0.00     0.049 A 
ATOM     50  C   UNL A   1      43.741  25.324  29.206  1.00  0.00     0.074 A 
ATOM     51  C   UNL A   1      44.550  29.224  34.139  1.00  0.00     0.029 A 
ATOM     52  N   UNL A   1      43.760  28.151  32.359  1.00  0.00    -0.354 N 
ATOM     53  N   UNL A   1      43.803  26.133  30.235  1.00  0.00    -0.248 NA
ATOM     54  C   UNL A   1      44.957  24.519  29.005  1.00  0.00     0.031 C 
ATOM     55  C   UNL A   1      45.488  28.262  33.750  1.00  0.00     0.029 A 
ATOM     56  C   UNL A   1      44.989  27.583  32.650  1.00  0.00     0.049 A 
ATOM     57  H   UNL A   1      43.171  27.874  31.620  1.00  0.00     0.167 HD
ATOM     58  C   UNL A   1      45.042  25.907  30.827  1.00  0.00     0.074 A 
ATOM     59  C   UNL A   1      45.692  24.871  30.050  1.00  0.00     0.031 C 
ATOM     60  C   UNL A   1      45.598  26.510  31.907  1.00  0.00     0.034 A 
BRANCH  47  61
ATOM     61  C   UNL A   1      42.177  31.082  34.258  1.00  0.00     0.023 A 
ATOM     62  C   UNL A   1      41.421  30.876  35.430  1.00  0.00     0.012 A 
ATOM     63  C   UNL A   1      42.863  32.299  34.081  1.00  0.00     0.148 A 
ATOM     64  C   UNL A   1      41.325  31.876  36.396  1.00  0.00     0.002 A 
ATOM     65  C   UNL A   1      42.800  33.274  35.069  1.00  0.00     0.091 A 
ATOM     66  F   UNL A   1      43.556  32.484  32.948  1.00  0.00    -0.205 F 
ATOM     67  C   UNL A   1      42.024  33.069  36.222  1.00  0.00     0.022 A 
BRANCH  65  68
ATOM     68  S   UNL A   1      43.727  34.810  34.975  1.00  0.00     0.127 S 
ATOM     69  O   UNL A   1      45.091  34.319  34.784  1.00  0.00    -0.237 OA
ATOM     70  O   UNL A   1      43.138  35.451  33.799  1.00  0.00    -0.237 OA
ATOM     71  O   UNL A   1      43.483  35.504  36.232  1.00  0.00    -0.744 OA
ENDBRANCH  65  68
ENDBRANCH  47  61
BRANCH  48  72
ATOM     72  C   UNL A   1      42.729  24.083  27.153  1.00  0.00     0.023 A 
ATOM     73  C   UNL A   1      43.415  24.419  25.969  1.00  0.00     0.012 A 
ATOM     74  C   UNL A   1      42.172  22.795  27.283  1.00  0.00     0.148 A 
ATOM     75  C   UNL A   1      43.514  23.503  24.921  1.00  0.00     0.002 A 
ATOM     76  C   UNL A   1      42.323  21.870  26.256  1.00  0.00     0.091 A 
ATOM     77  F   UNL A   1      41.506  22.501  28.409  1.00  0.00    -0.205 F 
ATOM     78  C   UNL A   1      42.977  22.227  25.068  1.00  0.00     0.022 A 
BRANCH  76  79
ATOM     79  S   UNL A   1      41.764  20.169  26.400  1.00  0.00     0.127 S 
ATOM     80  O   UNL A   1      42.169  19.837  27.764  1.00  0.00    -0.237 OA
ATOM     81  O   UNL A   1      40.321  20.307  26.203  1.00  0.00    -0.237 OA
ATOM     82  O   UNL A   1      42.450  19.439  25.342  1.00  0.00    -0.744 OA
ENDBRANCH  76  79
ENDBRANCH  48  72
BRANCH  60  83
ATOM     83  C   UNL A   1      46.958  26.038  32.357  1.00  0.00     0.023 A 
ATOM     84  C   UNL A   1      47.067  25.067  33.371  1.00  0.00     0.012 A 
ATOM     85  C   UNL A   1      48.124  26.500  31.714  1.00  0.00     0.148 A 
ATOM     86  C   UNL A   1      48.316  24.587  33.761  1.00  0.00     0.002 A 
ATOM     87  C   UNL A   1      49.362  25.980  32.073  1.00  0.00     0.091 A 
ATOM     88  F   UNL A   1      48.003  27.436  30.761  1.00  0.00    -0.205 F 
ATOM     89  C   UNL A   1      49.462  25.032  33.105  1.00  0.00     0.022 A 
BRANCH  87  90
ATOM     90  S   UNL A   1      50.878  26.421  31.217  1.00  0.00     0.127 S 
ATOM     91  O   UNL A   1      51.004  27.840  31.543  1.00  0.00    -0.237 OA
ATOM     92  O   UNL A   1      51.866  25.557  31.865  1.00  0.00    -0.237 OA
ATOM     93  O   UNL A   1      50.646  26.122  29.810  1.00  0.00    -0.744 OA
ENDBRANCH  87  90
ENDBRANCH  60  83
ENDBRANCH  34  35
ENDBRANCH  27  29
ENDBRANCH  26  27
ENDBRANCH  25  26
ENDBRANCH  24  25
ENDBRANCH  23  24
ENDBRANCH  22  23
ENDBRANCH   1  22
TORSDOF 24
ENDMDL
MODEL 2
REMARK VINA RESULT:      -9.1      1.545      7.848
REMARK SMILES CC(C)c1ccc(S[C@H](C)[C@@H](C)C(=O)OCCOCCOCCOC(=O)c2ccc(-c3c4nc(c(-c5cccc(S(=O)(=O)[O-])c5F)c5ccc([nH]5)c(-c5cccc(S(=O)(=O)[O-])c5F)c5nc(c(-c6cccc(S(=O)(=O)[O-])c6F)c6ccc3[nH]6)C=C5)C=C4)cc2)cc1
REMARK SMILES IDX 19 1 18 2 17 3 16 4 15 5 13 6 14 7 11 8 12 9 9 10 10 11 8 12
REMARK SMILES IDX 7 13 4 14 5 15 91 16 6 17 90 18 2 19 1 20 3 21 20 22 21 23
REMARK SMILES IDX 22 24 23 25 24 26 25 27 26 28 27 29 28 30 89 31 29 32 88 33
REMARK SMILES IDX 30 34 31 35 32 36 82 37 33 38 87 39 81 40 83 41 34 42 86 43
REMARK SMILES IDX 80 44 79 45 35 47 67 48 47 49 66 50 48 51 51 52 65 53 84 54
REMARK SMILES IDX 49 55 50 56 64 58 85 59 52 60 36 61 37 62 45 63 38 64 40 65
REMARK SMILES IDX 46 66 39 67 41 68 42 69 43 70 44 71 68 72 69 73 77 74 70 75
REMARK SMILES IDX 72 76 78 77 71 78 73 79 74 80 75 81 76 82 53 83 54 84 62 85
REMARK SMILES IDX 55 86 57 87 63 88 56 89 58 90 59 91 60 92 61 93
REMARK H PARENT 83 46 51 57
REMARK Flexibility Score: inf
ROOT
ATOM      1  C   UNL A   1      31.657  25.808  26.451  1.00  0.00     0.188 C 
ENDROOT
BRANCH   1   2
ATOM      2  O   UNL A   1      32.300  24.661  25.905  1.00  0.00    -0.376 OA
BRANCH   2   3
ATOM      3  C   UNL A   1      32.471  23.502  26.701  1.00  0.00     0.202 C 
BRANCH   3   4
ATOM      4  C   UNL A   1      31.939  22.179  26.118  1.00  0.00     0.261 C 
BRANCH   4   5
ATOM      5  O   UNL A   1      31.985  21.978  24.677  1.00  0.00    -0.463 OA
BRANCH   5   6
ATOM      6  C   UNL A   1      33.231  21.825  24.155  1.00  0.00     0.309 C 
ATOM      7  O   UNL A   1      34.056  21.037  24.612  1.00  0.00    -0.252 OA
BRANCH   6   8
ATOM      8  C   UNL A   1      33.651  22.826  23.068  1.00  0.00     0.109 C 
ATOM      9  C   UNL A   1      34.814  23.587  23.739  1.00  0.00     0.021 C 
BRANCH   8  10
ATOM     10  C   UNL A   1      32.657  23.815  22.361  1.00  0.00     0.062 C 
ATOM     11  C   UNL A   1      31.253  23.706  22.945  1.00  0.00     0.020 C 
BRANCH  10  12
ATOM     12  S   UNL A   1      33.240  25.596  22.263  1.00  0.00    -0.122 SA
BRANCH  12  13
ATOM     13  C   UNL A   1      32.039  26.908  22.528  1.00  0.00     0.008 A 
ATOM     14  C   UNL A   1      29.814  28.672  23.119  1.00  0.00    -0.045 A 
ATOM     15  C   UNL A   1      31.042  29.144  22.630  1.00  0.00     0.005 A 
ATOM     16  C   UNL A   1      29.720  27.298  23.324  1.00  0.00     0.005 A 
ATOM     17  C   UNL A   1      32.124  28.281  22.328  1.00  0.00     0.015 A 
ATOM     18  C   UNL A   1      30.816  26.455  23.062  1.00  0.00     0.015 A 
BRANCH  14  19
ATOM     19  C   UNL A   1      28.696  29.651  23.475  1.00  0.00     0.013 C 
ATOM     20  C   UNL A   1      29.127  31.116  23.323  1.00  0.00     0.012 C 
ATOM     21  C   UNL A   1      27.371  29.459  22.718  1.00  0.00     0.012 C 
ENDBRANCH  14  19
ENDBRANCH  12  13
ENDBRANCH  10  12
ENDBRANCH   8  10
ENDBRANCH   6   8
ENDBRANCH   5   6
ENDBRANCH   4   5
ENDBRANCH   3   4
ENDBRANCH   2   3
ENDBRANCH   1   2
BRANCH   1  22
ATOM     22  C   UNL A   1      32.326  27.174  26.322  1.00  0.00     0.188 C 
BRANCH  22  23
ATOM     23  O   UNL A   1      31.462  28.264  26.611  1.00  0.00    -0.376 OA
BRANCH  23  24
ATOM     24  C   UNL A   1      31.880  29.505  26.067  1.00  0.00     0.202 C 
BRANCH  24  25
ATOM     25  C   UNL A   1      32.466  30.383  27.176  1.00  0.00     0.261 C 
BRANCH  25  26
ATOM     26  O   UNL A   1      33.742  29.919  27.663  1.00  0.00    -0.460 OA
BRANCH  26  27
ATOM     27  C   UNL A   1      34.723  30.841  27.720  1.00  0.00     0.338 C 
ATOM     28  O   UNL A   1      34.589  32.061  27.618  1.00  0.00    -0.246 OA
BRANCH  27  29
ATOM     29  C   UNL A   1      35.981  30.178  28.101  1.00  0.00     0.060 A 
ATOM     30  C   UNL A   1      36.072  29.514  29.332  1.00  0.00     0.016 A 
ATOM     31  C   UNL A   1      37.089  30.247  27.261  1.00  0.00     0.016 A 
ATOM     32  C   UNL A   1      37.284  28.980  29.764  1.00  0.00     0.010 A 
ATOM     33  C   UNL A   1      38.302  29.702  27.687  1.00  0.00     0.010 A 
ATOM     34  C   UNL A   1      38.416  29.102  28.957  1.00  0.00    -0.014 A 
BRANCH  34  35
ATOM     35  C   UNL A   1      39.755  28.738  29.476  1.00  0.00     0.031 A 
ATOM     36  C   UNL A   1      40.506  27.618  28.810  1.00  0.00     0.074 A 
ATOM     37  C   UNL A   1      40.280  29.363  30.546  1.00  0.00     0.049 A 
ATOM     38  N   UNL A   1      41.611  27.026  29.177  1.00  0.00    -0.248 NA
ATOM     39  C   UNL A   1      39.924  27.089  27.563  1.00  0.00     0.031 C 
ATOM     40  C   UNL A   1      39.668  30.482  31.260  1.00  0.00     0.029 A 
ATOM     41  N   UNL A   1      41.438  29.112  31.239  1.00  0.00    -0.354 N 
ATOM     42  C   UNL A   1      41.828  26.020  28.244  1.00  0.00     0.074 A 
ATOM     43  C   UNL A   1      40.743  26.084  27.288  1.00  0.00     0.031 C 
ATOM     44  C   UNL A   1      40.437  30.797  32.316  1.00  0.00     0.029 A 
ATOM     45  C   UNL A   1      41.572  29.878  32.373  1.00  0.00     0.049 A 
ATOM     46  H   UNL A   1      42.107  28.448  30.953  1.00  0.00     0.167 HD
ATOM     47  C   UNL A   1      42.843  25.127  28.185  1.00  0.00     0.034 A 
ATOM     48  C   UNL A   1      42.484  29.816  33.364  1.00  0.00     0.034 A 
ATOM     49  C   UNL A   1      43.940  25.090  29.112  1.00  0.00     0.049 A 
ATOM     50  C   UNL A   1      43.589  28.793  33.287  1.00  0.00     0.074 A 
ATOM     51  C   UNL A   1      45.044  24.256  29.104  1.00  0.00     0.029 A 
ATOM     52  N   UNL A   1      44.068  25.913  30.219  1.00  0.00    -0.354 N 
ATOM     53  N   UNL A   1      43.837  27.911  32.350  1.00  0.00    -0.248 NA
ATOM     54  C   UNL A   1      44.556  28.773  34.397  1.00  0.00     0.031 C 
ATOM     55  C   UNL A   1      45.827  24.558  30.223  1.00  0.00     0.029 A 
ATOM     56  C   UNL A   1      45.226  25.601  30.909  1.00  0.00     0.049 A 
ATOM     57  H   UNL A   1      43.429  26.618  30.477  1.00  0.00     0.167 HD
ATOM     58  C   UNL A   1      45.008  27.262  32.734  1.00  0.00     0.074 A 
ATOM     59  C   UNL A   1      45.428  27.865  33.982  1.00  0.00     0.031 C 
ATOM     60  C   UNL A   1      45.667  26.250  32.117  1.00  0.00     0.034 A 
BRANCH  47  61
ATOM     61  C   UNL A   1      42.825  24.120  27.066  1.00  0.00     0.023 A 
ATOM     62  C   UNL A   1      43.500  24.397  25.860  1.00  0.00     0.012 A 
ATOM     63  C   UNL A   1      42.190  22.874  27.234  1.00  0.00     0.148 A 
ATOM     64  C   UNL A   1      43.519  23.461  24.826  1.00  0.00     0.002 A 
ATOM     65  C   UNL A   1      42.252  21.928  26.217  1.00  0.00     0.091 A 
ATOM     66  F   UNL A   1      41.533  22.640  28.379  1.00  0.00    -0.205 F 
ATOM     67  C   UNL A   1      42.905  22.224  25.010  1.00  0.00     0.022 A 
BRANCH  65  68
ATOM     68  S   UNL A   1      41.563  20.278  26.386  1.00  0.00     0.127 S 
ATOM     69  O   UNL A   1      42.314  19.540  25.372  1.00  0.00    -0.237 OA
ATOM     70  O   UNL A   1      41.909  19.941  27.768  1.00  0.00    -0.237 OA
ATOM     71  O   UNL A   1      40.135  20.410  26.132  1.00  0.00    -0.744 OA
ENDBRANCH  65  68
ENDBRANCH  47  61
BRANCH  48  72
ATOM     72  C   UNL A   1      42.411  30.765  34.512  1.00  0.00     0.023 A 
ATOM     73  C   UNL A   1      41.730  30.380  35.683  1.00  0.00     0.012 A 
ATOM     74  C   UNL A   1      43.005  32.041  34.449  1.00  0.00     0.148 A 
ATOM     75  C   UNL A   1      41.614  31.261  36.759  1.00  0.00     0.002 A 
ATOM     76  C   UNL A   1      42.931  32.892  35.546  1.00  0.00     0.091 A 
ATOM     77  F   UNL A   1      43.631  32.396  33.318  1.00  0.00    -0.205 F 
ATOM     78  C   UNL A   1      42.222  32.512  36.695  1.00  0.00     0.022 A 
BRANCH  76  79
ATOM     79  S   UNL A   1      43.779  34.476  35.597  1.00  0.00     0.127 S 
ATOM     80  O   UNL A   1      45.129  34.078  35.988  1.00  0.00    -0.237 OA
ATOM     81  O   UNL A   1      43.647  34.933  34.214  1.00  0.00    -0.237 OA
ATOM     82  O   UNL A   1      43.051  35.279  36.571  1.00  0.00    -0.744 OA
ENDBRANCH  76  79
ENDBRANCH  48  72
BRANCH  60  83
ATOM     83  C   UNL A   1      46.946  25.756  32.745  1.00  0.00     0.023 A 
ATOM     84  C   UNL A   1      48.167  26.393  32.454  1.00  0.00     0.012 A 
ATOM     85  C   UNL A   1      46.921  24.709  33.688  1.00  0.00     0.148 A 
ATOM     86  C   UNL A   1      49.348  25.976  33.065  1.00  0.00     0.002 A 
ATOM     87  C   UNL A   1      48.094  24.331  34.332  1.00  0.00     0.091 A 
ATOM     88  F   UNL A   1      45.752  24.103  33.942  1.00  0.00    -0.205 F 
ATOM     89  C   UNL A   1      49.311  24.956  34.013  1.00  0.00     0.022 A 
BRANCH  87  90
ATOM     90  S   UNL A   1      48.123  23.097  35.636  1.00  0.00     0.127 S 
ATOM     91  O   UNL A   1      49.522  23.139  36.058  1.00  0.00    -0.237 OA
ATOM     92  O   UNL A   1      47.177  23.647  36.608  1.00  0.00    -0.237 OA
ATOM     93  O   UNL A   1      47.694  21.849  35.018  1.00  0.00    -0.744 OA
ENDBRANCH  87  90
ENDBRANCH  60  83
ENDBRANCH  34  35
ENDBRANCH  27  29
ENDBRANCH  26  27
ENDBRANCH  25  26
ENDBRANCH  24  25
ENDBRANCH  23  24
ENDBRANCH  22  23
ENDBRANCH   1  22
TORSDOF 24
ENDMDL
MODEL 3
REMARK VINA RESULT:      -9.1      2.474      7.792
REMARK SMILES CC(C)c1ccc(S[C@H](C)[C@@H](C)C(=O)OCCOCCOCCOC(=O)c2ccc(-c3c4nc(c(-c5cccc(S(=O)(=O)[O-])c5F)c5ccc([nH]5)c(-c5cccc(S(=O)(=O)[O-])c5F)c5nc(c(-c6cccc(S(=O)(=O)[O-])c6F)c6ccc3[nH]6)C=C5)C=C4)cc2)cc1
REMARK SMILES IDX 19 1 18 2 17 3 16 4 15 5 13 6 14 7 11 8 12 9 9 10 10 11 8 12
REMARK SMILES IDX 7 13 4 14 5 15 91 16 6 17 90 18 2 19 1 20 3 21 20 22 21 23
REMARK SMILES IDX 22 24 23 25 24 26 25 27 26 28 27 29 28 30 89 31 29 32 88 33
REMARK SMILES IDX 30 34 31 35 32 36 82 37 33 38 87 39 81 40 83 41 34 42 86 43
REMARK SMILES IDX 80 44 79 45 35 47 67 48 47 49 66 50 48 51 51 52 65 53 84 54
REMARK SMILES IDX 49 55 50 56 64 58 85 59 52 60 36 61 37 62 45 63 38 64 40 65
REMARK SMILES IDX 46 66 39 67 41 68 42 69 43 70 44 71 68 72 69 73 77 74 70 75
REMARK SMILES IDX 72 76 78 77 71 78 73 79 74 80 75 81 76 82 53 83 54 84 62 85
REMARK SMILES IDX 55 86 57 87 63 88 56 89 58 90 59 91 60 92 61 93
REMARK H PARENT 83 46 51 57
REMARK Flexibility Score: inf
ROOT
ATOM      1  C   UNL A   1      32.086  25.508  26.312  1.00  0.00     0.188 C 
ENDROOT
BRANCH   1   2
ATOM      2  O   UNL A   1      32.938  24.390  26.087  1.00  0.00    -0.376 OA
BRANCH   2   3
ATOM      3  C   UNL A   1      33.797  23.939  27.120  1.00  0.00     0.202 C 
BRANCH   3   4
ATOM      4  C   UNL A   1      33.708  22.446  27.490  1.00  0.00     0.261 C 
BRANCH   4   5
ATOM      5  O   UNL A   1      33.695  21.459  26.420  1.00  0.00    -0.463 OA
BRANCH   5   6
ATOM      6  C   UNL A   1      34.832  21.396  25.677  1.00  0.00     0.309 C 
ATOM      7  O   UNL A   1      35.954  21.332  26.175  1.00  0.00    -0.252 OA
BRANCH   6   8
ATOM      8  C   UNL A   1      34.678  21.604  24.162  1.00  0.00     0.109 C 
ATOM      9  C   UNL A   1      35.482  22.898  23.915  1.00  0.00     0.021 C 
BRANCH   8  10
ATOM     10  C   UNL A   1      33.294  21.643  23.423  1.00  0.00     0.062 C 
ATOM     11  C   UNL A   1      32.134  21.547  24.406  1.00  0.00     0.020 C 
BRANCH  10  12
ATOM     12  S   UNL A   1      33.075  23.064  22.216  1.00  0.00    -0.122 SA
BRANCH  12  13
ATOM     13  C   UNL A   1      31.938  24.388  22.646  1.00  0.00     0.008 A 
ATOM     14  C   UNL A   1      30.448  26.820  23.172  1.00  0.00    -0.045 A 
ATOM     15  C   UNL A   1      29.921  25.544  23.420  1.00  0.00     0.005 A 
ATOM     16  C   UNL A   1      31.733  26.862  22.638  1.00  0.00     0.005 A 
ATOM     17  C   UNL A   1      30.654  24.356  23.176  1.00  0.00     0.015 A 
ATOM     18  C   UNL A   1      32.436  25.675  22.359  1.00  0.00     0.015 A 
BRANCH  14  19
ATOM     19  C   UNL A   1      29.596  28.068  23.406  1.00  0.00     0.013 C 
ATOM     20  C   UNL A   1      29.871  29.170  22.374  1.00  0.00     0.012 C 
ATOM     21  C   UNL A   1      28.076  27.837  23.469  1.00  0.00     0.012 C 
ENDBRANCH  14  19
ENDBRANCH  12  13
ENDBRANCH  10  12
ENDBRANCH   8  10
ENDBRANCH   6   8
ENDBRANCH   5   6
ENDBRANCH   4   5
ENDBRANCH   3   4
ENDBRANCH   2   3
ENDBRANCH   1   2
BRANCH   1  22
ATOM     22  C   UNL A   1      32.667  26.918  26.250  1.00  0.00     0.188 C 
BRANCH  22  23
ATOM     23  O   UNL A   1      31.685  27.943  26.246  1.00  0.00    -0.376 OA
BRANCH  23  24
ATOM     24  C   UNL A   1      32.153  29.203  25.792  1.00  0.00     0.202 C 
BRANCH  24  25
ATOM     25  C   UNL A   1      32.606  30.045  26.987  1.00  0.00     0.261 C 
BRANCH  25  26
ATOM     26  O   UNL A   1      33.912  29.686  27.482  1.00  0.00    -0.460 OA
BRANCH  26  27
ATOM     27  C   UNL A   1      34.770  30.705  27.679  1.00  0.00     0.338 C 
ATOM     28  O   UNL A   1      34.510  31.906  27.612  1.00  0.00    -0.246 OA
BRANCH  27  29
ATOM     29  C   UNL A   1      36.052  30.164  28.163  1.00  0.00     0.060 A 
ATOM     30  C   UNL A   1      36.113  29.537  29.415  1.00  0.00     0.016 A 
ATOM     31  C   UNL A   1      37.206  30.314  27.399  1.00  0.00     0.016 A 
ATOM     32  C   UNL A   1      37.333  29.121  29.942  1.00  0.00     0.010 A 
ATOM     33  C   UNL A   1      38.429  29.887  27.922  1.00  0.00     0.010 A 
ATOM     34  C   UNL A   1      38.505  29.326  29.212  1.00  0.00    -0.014 A 
BRANCH  34  35
ATOM     35  C   UNL A   1      39.831  29.094  29.831  1.00  0.00     0.031 A 
ATOM     36  C   UNL A   1      40.618  27.884  29.412  1.00  0.00     0.074 A 
ATOM     37  C   UNL A   1      40.311  29.920  30.778  1.00  0.00     0.049 A 
ATOM     38  N   UNL A   1      41.719  27.393  29.918  1.00  0.00    -0.248 NA
ATOM     39  C   UNL A   1      40.086  27.117  28.270  1.00  0.00     0.031 C 
ATOM     40  C   UNL A   1      39.660  31.141  31.249  1.00  0.00     0.029 A 
ATOM     41  N   UNL A   1      41.448  29.827  31.542  1.00  0.00    -0.354 N 
ATOM     42  C   UNL A   1      41.981  26.234  29.199  1.00  0.00     0.074 A 
ATOM     43  C   UNL A   1      40.928  26.095  28.216  1.00  0.00     0.031 C 
ATOM     44  C   UNL A   1      40.388  31.665  32.249  1.00  0.00     0.029 A 
ATOM     45  C   UNL A   1      41.533  30.796  32.514  1.00  0.00     0.049 A 
ATOM     46  H   UNL A   1      42.135  29.135  31.407  1.00  0.00     0.167 HD
ATOM     47  C   UNL A   1      43.010  25.366  29.341  1.00  0.00     0.034 A 
ATOM     48  C   UNL A   1      42.412  30.940  33.526  1.00  0.00     0.034 A 
ATOM     49  C   UNL A   1      44.075  25.527  30.292  1.00  0.00     0.049 A 
ATOM     50  C   UNL A   1      43.533  29.943  33.678  1.00  0.00     0.074 A 
ATOM     51  C   UNL A   1      45.191  24.728  30.475  1.00  0.00     0.029 A 
ATOM     52  N   UNL A   1      44.154  26.547  31.226  1.00  0.00    -0.354 N 
ATOM     53  N   UNL A   1      43.825  28.905  32.932  1.00  0.00    -0.248 NA
ATOM     54  C   UNL A   1      44.462  30.153  34.799  1.00  0.00     0.031 C 
ATOM     55  C   UNL A   1      45.931  25.252  31.539  1.00  0.00     0.029 A 
ATOM     56  C   UNL A   1      45.293  26.393  31.997  1.00  0.00     0.049 A 
ATOM     57  H   UNL A   1      43.498  27.274  31.326  1.00  0.00     0.167 HD
ATOM     58  C   UNL A   1      44.990  28.364  33.467  1.00  0.00     0.074 A 
ATOM     59  C   UNL A   1      45.360  29.200  34.591  1.00  0.00     0.031 C 
ATOM     60  C   UNL A   1      45.685  27.268  33.073  1.00  0.00     0.034 A 
BRANCH  47  61
ATOM     61  C   UNL A   1      43.043  24.166  28.433  1.00  0.00     0.023 A 
ATOM     62  C   UNL A   1      42.155  23.093  28.654  1.00  0.00     0.012 A 
ATOM     63  C   UNL A   1      43.912  24.129  27.325  1.00  0.00     0.148 A 
ATOM     64  C   UNL A   1      42.151  21.989  27.803  1.00  0.00     0.002 A 
ATOM     65  C   UNL A   1      43.871  23.045  26.455  1.00  0.00     0.091 A 
ATOM     66  F   UNL A   1      44.766  25.147  27.147  1.00  0.00    -0.205 F 
ATOM     67  C   UNL A   1      43.000  21.971  26.699  1.00  0.00     0.022 A 
BRANCH  65  68
ATOM     68  S   UNL A   1      44.867  22.964  24.963  1.00  0.00     0.127 S 
ATOM     69  O   UNL A   1      44.663  24.298  24.400  1.00  0.00    -0.237 OA
ATOM     70  O   UNL A   1      46.207  22.727  25.500  1.00  0.00    -0.237 OA
ATOM     71  O   UNL A   1      44.324  21.865  24.177  1.00  0.00    -0.744 OA
ENDBRANCH  65  68
ENDBRANCH  47  61
BRANCH  48  72
ATOM     72  C   UNL A   1      42.288  32.087  34.470  1.00  0.00     0.023 A 
ATOM     73  C   UNL A   1      42.855  33.330  34.126  1.00  0.00     0.012 A 
ATOM     74  C   UNL A   1      41.617  31.955  35.702  1.00  0.00     0.148 A 
ATOM     75  C   UNL A   1      42.786  34.411  35.006  1.00  0.00     0.002 A 
ATOM     76  C   UNL A   1      41.506  33.052  36.550  1.00  0.00     0.091 A 
ATOM     77  F   UNL A   1      41.102  30.759  36.021  1.00  0.00    -0.205 F 
ATOM     78  C   UNL A   1      42.104  34.275  36.212  1.00  0.00     0.022 A 
BRANCH  76  79
ATOM     79  S   UNL A   1      40.550  33.003  38.071  1.00  0.00     0.127 S 
ATOM     80  O   UNL A   1      40.396  34.424  38.371  1.00  0.00    -0.237 OA
ATOM     81  O   UNL A   1      39.327  32.329  37.637  1.00  0.00    -0.237 OA
ATOM     82  O   UNL A   1      41.356  32.242  39.016  1.00  0.00    -0.744 OA
ENDBRANCH  76  79
ENDBRANCH  48  72
BRANCH  60  83
ATOM     83  C   UNL A   1      46.948  26.926  33.822  1.00  0.00     0.023 A 
ATOM     84  C   UNL A   1      48.173  27.503  33.437  1.00  0.00     0.012 A 
ATOM     85  C   UNL A   1      46.903  26.095  34.960  1.00  0.00     0.148 A 
ATOM     86  C   UNL A   1      49.340  27.232  34.152  1.00  0.00     0.002 A 
ATOM     87  C   UNL A   1      48.059  25.870  35.697  1.00  0.00     0.091 A 
ATOM     88  F   UNL A   1      45.730  25.542  35.303  1.00  0.00    -0.205 F 
ATOM     89  C   UNL A   1      49.281  26.428  35.288  1.00  0.00     0.022 A 
BRANCH  87  90
ATOM     90  S   UNL A   1      48.059  24.930  37.228  1.00  0.00     0.127 S 
ATOM     91  O   UNL A   1      46.869  25.450  37.898  1.00  0.00    -0.237 OA
ATOM     92  O   UNL A   1      47.935  23.553  36.748  1.00  0.00    -0.237 OA
ATOM     93  O   UNL A   1      49.325  25.228  37.883  1.00  0.00    -0.744 OA
ENDBRANCH  87  90
ENDBRANCH  60  83
ENDBRANCH  34  35
ENDBRANCH  27  29
ENDBRANCH  26  27
ENDBRANCH  25  26
ENDBRANCH  24  25
ENDBRANCH  23  24
ENDBRANCH  22  23
ENDBRANCH   1  22
TORSDOF 24
ENDMDL
