MODEL 1
REMARK VINA RESULT:      -7.9      0.000      0.000
REMARK SMILES CC1=C2C(=O)N(C[C@H]3CCCO3)C(=O)N=C2S[C@@H]1C(=O)OCCOCCOCCOC(=O)c1ccc(-c2c3nc(c(-c4cccc(S(=O)(=O)[O-])c4F)c4ccc([nH]4)c(-c4cccc(S(=O)(=O)[O-])c4F)c4nc(c(-c5cccc(S(=O)(=O)[O-])c5F)c5ccc2[nH]5)C=C4)C=C3)cc1
REMARK SMILES IDX 26 1 25 2 24 3 23 4 22 5 21 6 19 7 20 8 18 9 1 10 2 11 3 12
REMARK SMILES IDX 4 13 16 14 17 15 5 16 6 17 15 18 13 19 14 20 7 21 8 22 9 23
REMARK SMILES IDX 12 24 10 25 11 26 27 27 28 28 29 29 30 30 31 31 32 32 33 33
REMARK SMILES IDX 34 34 95 35 35 36 94 37 36 38 37 39 38 40 88 41 39 42 93 43
REMARK SMILES IDX 87 44 89 45 40 46 92 47 86 48 85 49 41 51 73 52 53 53 72 54
REMARK SMILES IDX 54 55 57 56 71 57 90 58 55 59 56 60 70 62 91 63 58 64 42 65
REMARK SMILES IDX 43 66 51 67 44 68 46 69 52 70 45 71 47 72 48 73 49 74 50 75
REMARK SMILES IDX 74 76 75 77 83 78 76 79 78 80 84 81 77 82 79 83 80 84 81 85
REMARK SMILES IDX 82 86 59 87 60 88 68 89 61 90 63 91 69 92 62 93 64 94 65 95
REMARK SMILES IDX 66 96 67 97
REMARK H PARENT 89 50 57 61
REMARK Flexibility Score: inf
ROOT
ATOM      1  C   UNL A   1      43.478  23.454  28.174  1.00  0.00     0.188 C 
ENDROOT
BRANCH   1   2
ATOM      2  C   UNL A   1      44.183  23.017  29.464  1.00  0.00     0.188 C 
BRANCH   2   3
ATOM      3  O   UNL A   1      43.587  23.282  30.728  1.00  0.00    -0.376 OA
BRANCH   3   4
ATOM      4  C   UNL A   1      44.385  23.629  31.850  1.00  0.00     0.202 C 
BRANCH   4   5
ATOM      5  C   UNL A   1      43.860  23.267  33.239  1.00  0.00     0.261 C 
BRANCH   5   6
ATOM      6  O   UNL A   1      44.858  23.341  34.271  1.00  0.00    -0.462 OA
BRANCH   6   7
ATOM      7  C   UNL A   1      44.668  24.300  35.210  1.00  0.00     0.323 C 
ATOM      8  O   UNL A   1      45.391  24.450  36.192  1.00  0.00    -0.251 OA
BRANCH   7   9
ATOM      9  C   UNL A   1      43.449  25.193  34.989  1.00  0.00     0.189 C 
ATOM     10  C   UNL A   1      44.847  26.778  33.483  1.00  0.00     0.042 C 
ATOM     11  C   UNL A   1      43.871  26.588  34.604  1.00  0.00    -0.033 C 
ATOM     12  C   UNL A   1      43.251  27.572  35.264  1.00  0.00     0.073 C 
ATOM     13  C   UNL A   1      43.378  29.011  35.144  1.00  0.00     0.264 C 
ATOM     14  C   UNL A   1      42.176  27.126  36.117  1.00  0.00     0.116 C 
ATOM     15  S   UNL A   1      42.334  25.438  36.436  1.00  0.00    -0.086 SA
ATOM     16  O   UNL A   1      44.468  29.560  35.109  1.00  0.00    -0.268 OA
ATOM     17  N   UNL A   1      42.143  29.605  35.150  1.00  0.00    -0.256 N 
ATOM     18  N   UNL A   1      41.216  27.868  36.530  1.00  0.00    -0.186 NA
ATOM     19  C   UNL A   1      41.127  29.142  36.000  1.00  0.00     0.351 C 
ATOM     20  O   UNL A   1      40.151  29.845  36.253  1.00  0.00    -0.246 OA
BRANCH  17  21
ATOM     21  C   UNL A   1      41.834  30.669  34.196  1.00  0.00     0.163 C 
BRANCH  21  22
ATOM     22  C   UNL A   1      41.172  30.314  32.852  1.00  0.00     0.138 C 
ATOM     23  C   UNL A   1      41.456  28.921  32.292  1.00  0.00     0.036 C 
ATOM     24  O   UNL A   1      39.737  30.348  33.067  1.00  0.00    -0.376 OA
ATOM     25  C   UNL A   1      40.328  28.074  32.805  1.00  0.00     0.031 C 
ATOM     26  C   UNL A   1      39.184  29.050  32.808  1.00  0.00     0.160 C 
ENDBRANCH  21  22
ENDBRANCH  17  21
ENDBRANCH   7   9
ENDBRANCH   6   7
ENDBRANCH   5   6
ENDBRANCH   4   5
ENDBRANCH   3   4
ENDBRANCH   2   3
ENDBRANCH   1   2
BRANCH   1  27
ATOM     27  O   UNL A   1      43.702  22.616  27.055  1.00  0.00    -0.376 OA
BRANCH  27  28
ATOM     28  C   UNL A   1      42.619  22.509  26.140  1.00  0.00     0.202 C 
BRANCH  28  29
ATOM     29  C   UNL A   1      41.298  22.155  26.835  1.00  0.00     0.261 C 
BRANCH  29  30
ATOM     30  O   UNL A   1      40.159  22.170  25.957  1.00  0.00    -0.460 OA
BRANCH  30  31
ATOM     31  C   UNL A   1      39.144  22.996  26.308  1.00  0.00     0.338 C 
ATOM     32  O   UNL A   1      37.965  22.708  26.400  1.00  0.00    -0.246 OA
BRANCH  31  33
ATOM     33  C   UNL A   1      39.737  24.259  26.798  1.00  0.00     0.060 A 
ATOM     34  C   UNL A   1      39.770  24.494  28.180  1.00  0.00     0.016 A 
ATOM     35  C   UNL A   1      40.274  25.191  25.908  1.00  0.00     0.016 A 
ATOM     36  C   UNL A   1      40.309  25.684  28.672  1.00  0.00     0.010 A 
ATOM     37  C   UNL A   1      40.797  26.388  26.401  1.00  0.00     0.010 A 
ATOM     38  C   UNL A   1      40.790  26.654  27.781  1.00  0.00    -0.014 A 
BRANCH  38  39
ATOM     39  C   UNL A   1      41.106  28.018  28.267  1.00  0.00     0.031 A 
ATOM     40  C   UNL A   1      42.552  28.432  28.333  1.00  0.00     0.074 A 
ATOM     41  C   UNL A   1      40.141  28.865  28.667  1.00  0.00     0.049 A 
ATOM     42  N   UNL A   1      43.073  29.555  28.752  1.00  0.00    -0.248 NA
ATOM     43  C   UNL A   1      43.541  27.445  27.866  1.00  0.00     0.031 C 
ATOM     44  C   UNL A   1      38.707  28.583  28.660  1.00  0.00     0.029 A 
ATOM     45  N   UNL A   1      40.234  30.133  29.186  1.00  0.00    -0.354 N 
ATOM     46  C   UNL A   1      44.447  29.407  28.616  1.00  0.00     0.074 A 
ATOM     47  C   UNL A   1      44.683  28.080  28.088  1.00  0.00     0.031 C 
ATOM     48  C   UNL A   1      38.055  29.638  29.182  1.00  0.00     0.029 A 
ATOM     49  C   UNL A   1      39.024  30.660  29.573  1.00  0.00     0.049 A 
ATOM     50  H   UNL A   1      41.086  30.619  29.273  1.00  0.00     0.167 HD
ATOM     51  C   UNL A   1      45.428  30.298  28.885  1.00  0.00     0.034 A 
ATOM     52  C   UNL A   1      38.739  31.826  30.187  1.00  0.00     0.034 A 
ATOM     53  C   UNL A   1      45.202  31.620  29.401  1.00  0.00     0.049 A 
ATOM     54  C   UNL A   1      39.856  32.790  30.506  1.00  0.00     0.074 A 
ATOM     55  C   UNL A   1      46.133  32.606  29.674  1.00  0.00     0.029 A 
ATOM     56  N   UNL A   1      43.962  32.137  29.732  1.00  0.00    -0.354 N 
ATOM     57  N   UNL A   1      41.137  32.689  30.243  1.00  0.00    -0.248 NA
ATOM     58  C   UNL A   1      39.481  34.046  31.178  1.00  0.00     0.031 C 
ATOM     59  C   UNL A   1      45.455  33.717  30.185  1.00  0.00     0.029 A 
ATOM     60  C   UNL A   1      44.100  33.427  30.214  1.00  0.00     0.049 A 
ATOM     61  H   UNL A   1      43.106  31.658  29.639  1.00  0.00     0.167 HD
ATOM     62  C   UNL A   1      41.712  33.878  30.682  1.00  0.00     0.074 A 
ATOM     63  C   UNL A   1      40.637  34.695  31.206  1.00  0.00     0.031 C 
ATOM     64  C   UNL A   1      43.014  34.255  30.671  1.00  0.00     0.034 A 
BRANCH  51  65
ATOM     65  C   UNL A   1      46.842  29.885  28.584  1.00  0.00     0.023 A 
ATOM     66  C   UNL A   1      47.401  30.208  27.331  1.00  0.00     0.012 A 
ATOM     67  C   UNL A   1      47.633  29.237  29.550  1.00  0.00     0.148 A 
ATOM     68  C   UNL A   1      48.721  29.872  27.035  1.00  0.00     0.002 A 
ATOM     69  C   UNL A   1      48.958  28.937  29.263  1.00  0.00     0.091 A 
ATOM     70  F   UNL A   1      47.071  28.915  30.725  1.00  0.00    -0.205 F 
ATOM     71  C   UNL A   1      49.502  29.247  28.004  1.00  0.00     0.022 A 
BRANCH  69  72
ATOM     72  S   UNL A   1      50.066  28.194  30.465  1.00  0.00     0.127 S 
ATOM     73  O   UNL A   1      50.152  29.247  31.476  1.00  0.00    -0.237 OA
ATOM     74  O   UNL A   1      49.317  27.009  30.883  1.00  0.00    -0.237 OA
ATOM     75  O   UNL A   1      51.303  27.911  29.750  1.00  0.00    -0.744 OA
ENDBRANCH  69  72
ENDBRANCH  51  65
BRANCH  52  76
ATOM     76  C   UNL A   1      37.327  32.181  30.513  1.00  0.00     0.023 A 
ATOM     77  C   UNL A   1      36.811  31.868  31.785  1.00  0.00     0.012 A 
ATOM     78  C   UNL A   1      36.491  32.808  29.569  1.00  0.00     0.148 A 
ATOM     79  C   UNL A   1      35.479  32.138  32.100  1.00  0.00     0.002 A 
ATOM     80  C   UNL A   1      35.179  33.123  29.908  1.00  0.00     0.091 A 
ATOM     81  F   UNL A   1      36.990  33.075  28.354  1.00  0.00    -0.205 F 
ATOM     82  C   UNL A   1      34.666  32.774  31.166  1.00  0.00     0.022 A 
BRANCH  80  83
ATOM     83  S   UNL A   1      34.105  34.049  28.804  1.00  0.00     0.127 S 
ATOM     84  O   UNL A   1      35.002  35.094  28.322  1.00  0.00    -0.237 OA
ATOM     85  O   UNL A   1      33.745  33.037  27.809  1.00  0.00    -0.237 OA
ATOM     86  O   UNL A   1      32.992  34.492  29.633  1.00  0.00    -0.744 OA
ENDBRANCH  80  83
ENDBRANCH  52  76
BRANCH  64  87
ATOM     87  C   UNL A   1      43.358  35.621  31.205  1.00  0.00     0.023 A 
ATOM     88  C   UNL A   1      43.628  35.784  32.578  1.00  0.00     0.012 A 
ATOM     89  C   UNL A   1      43.492  36.724  30.338  1.00  0.00     0.148 A 
ATOM     90  C   UNL A   1      43.996  37.031  33.085  1.00  0.00     0.002 A 
ATOM     91  C   UNL A   1      43.902  37.953  30.843  1.00  0.00     0.091 A 
ATOM     92  F   UNL A   1      43.213  36.554  29.038  1.00  0.00    -0.205 F 
ATOM     93  C   UNL A   1      44.145  38.111  32.218  1.00  0.00     0.022 A 
BRANCH  91  94
ATOM     94  S   UNL A   1      44.208  39.369  29.781  1.00  0.00     0.127 S 
ATOM     95  O   UNL A   1      45.249  38.857  28.891  1.00  0.00    -0.237 OA
ATOM     96  O   UNL A   1      42.906  39.571  29.142  1.00  0.00    -0.237 OA
ATOM     97  O   UNL A   1      44.613  40.451  30.669  1.00  0.00    -0.744 OA
ENDBRANCH  91  94
ENDBRANCH  64  87
ENDBRANCH  38  39
ENDBRANCH  31  33
ENDBRANCH  30  31
ENDBRANCH  29  30
ENDBRANCH  28  29
ENDBRANCH  27  28
ENDBRANCH   1  27
TORSDOF 22
ENDMDL
MODEL 2
REMARK VINA RESULT:      -6.9      8.494     16.889
REMARK SMILES CC1=C2C(=O)N(C[C@H]3CCCO3)C(=O)N=C2S[C@@H]1C(=O)OCCOCCOCCOC(=O)c1ccc(-c2c3nc(c(-c4cccc(S(=O)(=O)[O-])c4F)c4ccc([nH]4)c(-c4cccc(S(=O)(=O)[O-])c4F)c4nc(c(-c5cccc(S(=O)(=O)[O-])c5F)c5ccc2[nH]5)C=C4)C=C3)cc1
REMARK SMILES IDX 26 1 25 2 24 3 23 4 22 5 21 6 19 7 20 8 18 9 1 10 2 11 3 12
REMARK SMILES IDX 4 13 16 14 17 15 5 16 6 17 15 18 13 19 14 20 7 21 8 22 9 23
REMARK SMILES IDX 12 24 10 25 11 26 27 27 28 28 29 29 30 30 31 31 32 32 33 33
REMARK SMILES IDX 34 34 95 35 35 36 94 37 36 38 37 39 38 40 88 41 39 42 93 43
REMARK SMILES IDX 87 44 89 45 40 46 92 47 86 48 85 49 41 51 73 52 53 53 72 54
REMARK SMILES IDX 54 55 57 56 71 57 90 58 55 59 56 60 70 62 91 63 58 64 42 65
REMARK SMILES IDX 43 66 51 67 44 68 46 69 52 70 45 71 47 72 48 73 49 74 50 75
REMARK SMILES IDX 74 76 75 77 83 78 76 79 78 80 84 81 77 82 79 83 80 84 81 85
REMARK SMILES IDX 82 86 59 87 60 88 68 89 61 90 63 91 69 92 62 93 64 94 65 95
REMARK SMILES IDX 66 96 67 97
REMARK H PARENT 89 50 57 61
REMARK Flexibility Score: inf
ROOT
ATOM      1  C   UNL A   1      46.659  42.776  28.474  1.00  0.00     0.188 C 
ENDROOT
BRANCH   1   2
ATOM      2  C   UNL A   1      46.547  42.894  26.948  1.00  0.00     0.188 C 
BRANCH   2   3
ATOM      3  O   UNL A   1      46.546  41.725  26.139  1.00  0.00    -0.376 OA
BRANCH   3   4
ATOM      4  C   UNL A   1      45.540  40.735  26.292  1.00  0.00     0.202 C 
BRANCH   4   5
ATOM      5  C   UNL A   1      44.152  41.035  25.729  1.00  0.00     0.261 C 
BRANCH   5   6
ATOM      6  O   UNL A   1      44.173  41.828  24.529  1.00  0.00    -0.462 OA
BRANCH   6   7
ATOM      7  C   UNL A   1      42.999  42.409  24.183  1.00  0.00     0.323 C 
ATOM      8  O   UNL A   1      41.897  41.920  24.420  1.00  0.00    -0.251 OA
BRANCH   7   9
ATOM      9  C   UNL A   1      43.127  43.732  23.429  1.00  0.00     0.189 C 
ATOM     10  C   UNL A   1      42.305  42.598  21.244  1.00  0.00     0.042 C 
ATOM     11  C   UNL A   1      43.280  43.490  21.949  1.00  0.00    -0.033 C 
ATOM     12  C   UNL A   1      44.259  44.184  21.359  1.00  0.00     0.073 C 
ATOM     13  C   UNL A   1      44.676  44.227  19.971  1.00  0.00     0.264 C 
ATOM     14  C   UNL A   1      44.891  45.159  22.214  1.00  0.00     0.116 C 
ATOM     15  S   UNL A   1      44.567  44.795  23.868  1.00  0.00    -0.086 SA
ATOM     16  O   UNL A   1      44.841  43.210  19.316  1.00  0.00    -0.268 OA
ATOM     17  N   UNL A   1      44.905  45.521  19.577  1.00  0.00    -0.256 N 
ATOM     18  N   UNL A   1      45.552  46.175  21.798  1.00  0.00    -0.186 NA
ATOM     19  C   UNL A   1      45.529  46.434  20.441  1.00  0.00     0.351 C 
ATOM     20  O   UNL A   1      46.027  47.470  20.005  1.00  0.00    -0.246 OA
BRANCH  17  21
ATOM     21  C   UNL A   1      44.411  45.995  18.286  1.00  0.00     0.163 C 
BRANCH  21  22
ATOM     22  C   UNL A   1      42.933  46.402  18.142  1.00  0.00     0.138 C 
ATOM     23  C   UNL A   1      42.457  46.783  16.741  1.00  0.00     0.036 C 
ATOM     24  O   UNL A   1      42.139  45.243  18.506  1.00  0.00    -0.376 OA
ATOM     25  C   UNL A   1      41.919  45.505  16.167  1.00  0.00     0.031 C 
ATOM     26  C   UNL A   1      41.341  44.838  17.384  1.00  0.00     0.160 C 
ENDBRANCH  21  22
ENDBRANCH  17  21
ENDBRANCH   7   9
ENDBRANCH   6   7
ENDBRANCH   5   6
ENDBRANCH   4   5
ENDBRANCH   3   4
ENDBRANCH   2   3
ENDBRANCH   1   2
BRANCH   1  27
ATOM     27  O   UNL A   1      45.473  43.074  29.187  1.00  0.00    -0.376 OA
BRANCH  27  28
ATOM     28  C   UNL A   1      45.360  42.476  30.472  1.00  0.00     0.202 C 
BRANCH  28  29
ATOM     29  C   UNL A   1      46.206  41.203  30.601  1.00  0.00     0.261 C 
BRANCH  29  30
ATOM     30  O   UNL A   1      45.440  40.028  30.923  1.00  0.00    -0.460 OA
BRANCH  30  31
ATOM     31  C   UNL A   1      46.125  39.004  31.486  1.00  0.00     0.338 C 
ATOM     32  O   UNL A   1      47.318  38.781  31.387  1.00  0.00    -0.246 OA
BRANCH  31  33
ATOM     33  C   UNL A   1      45.225  38.329  32.445  1.00  0.00     0.060 A 
ATOM     34  C   UNL A   1      44.115  39.033  32.934  1.00  0.00     0.016 A 
ATOM     35  C   UNL A   1      45.459  37.010  32.841  1.00  0.00     0.016 A 
ATOM     36  C   UNL A   1      43.256  38.427  33.852  1.00  0.00     0.010 A 
ATOM     37  C   UNL A   1      44.608  36.413  33.773  1.00  0.00     0.010 A 
ATOM     38  C   UNL A   1      43.521  37.128  34.306  1.00  0.00    -0.014 A 
BRANCH  38  39
ATOM     39  C   UNL A   1      42.785  36.582  35.471  1.00  0.00     0.031 A 
ATOM     40  C   UNL A   1      41.621  35.664  35.212  1.00  0.00     0.074 A 
ATOM     41  C   UNL A   1      43.120  36.910  36.732  1.00  0.00     0.049 A 
ATOM     42  N   UNL A   1      40.811  35.093  36.063  1.00  0.00    -0.248 NA
ATOM     43  C   UNL A   1      41.332  35.351  33.801  1.00  0.00     0.031 C 
ATOM     44  C   UNL A   1      44.218  37.794  37.117  1.00  0.00     0.029 A 
ATOM     45  N   UNL A   1      42.540  36.553  37.924  1.00  0.00    -0.354 N 
ATOM     46  C   UNL A   1      39.908  34.368  35.297  1.00  0.00     0.074 A 
ATOM     47  C   UNL A   1      40.259  34.580  33.909  1.00  0.00     0.031 C 
ATOM     48  C   UNL A   1      44.214  37.935  38.455  1.00  0.00     0.029 A 
ATOM     49  C   UNL A   1      43.105  37.166  39.018  1.00  0.00     0.049 A 
ATOM     50  H   UNL A   1      41.790  35.918  37.990  1.00  0.00     0.167 HD
ATOM     51  C   UNL A   1      38.889  33.578  35.706  1.00  0.00     0.034 A 
ATOM     52  C   UNL A   1      42.754  37.122  40.319  1.00  0.00     0.034 A 
ATOM     53  C   UNL A   1      38.539  33.356  37.082  1.00  0.00     0.049 A 
ATOM     54  C   UNL A   1      41.593  36.258  40.746  1.00  0.00     0.074 A 
ATOM     55  C   UNL A   1      37.541  32.545  37.594  1.00  0.00     0.029 A 
ATOM     56  N   UNL A   1      39.165  33.952  38.162  1.00  0.00    -0.354 N 
ATOM     57  N   UNL A   1      40.836  35.470  40.020  1.00  0.00    -0.248 NA
ATOM     58  C   UNL A   1      41.258  36.252  42.180  1.00  0.00     0.031 C 
ATOM     59  C   UNL A   1      37.556  32.663  38.987  1.00  0.00     0.029 A 
ATOM     60  C   UNL A   1      38.573  33.534  39.342  1.00  0.00     0.049 A 
ATOM     61  H   UNL A   1      39.921  34.580  38.102  1.00  0.00     0.167 HD
ATOM     62  C   UNL A   1      39.964  34.850  40.910  1.00  0.00     0.074 A 
ATOM     63  C   UNL A   1      40.301  35.336  42.232  1.00  0.00     0.031 C 
ATOM     64  C   UNL A   1      38.962  33.973  40.657  1.00  0.00     0.034 A 
BRANCH  51  65
ATOM     65  C   UNL A   1      38.101  32.859  34.647  1.00  0.00     0.023 A 
ATOM     66  C   UNL A   1      38.460  31.540  34.300  1.00  0.00     0.012 A 
ATOM     67  C   UNL A   1      36.980  33.456  34.042  1.00  0.00     0.148 A 
ATOM     68  C   UNL A   1      37.726  30.833  33.349  1.00  0.00     0.002 A 
ATOM     69  C   UNL A   1      36.231  32.733  33.122  1.00  0.00     0.091 A 
ATOM     70  F   UNL A   1      36.675  34.720  34.368  1.00  0.00    -0.205 F 
ATOM     71  C   UNL A   1      36.606  31.425  32.769  1.00  0.00     0.022 A 
BRANCH  69  72
ATOM     72  S   UNL A   1      34.735  33.380  32.368  1.00  0.00     0.127 S 
ATOM     73  O   UNL A   1      34.231  32.205  31.659  1.00  0.00    -0.237 OA
ATOM     74  O   UNL A   1      33.946  33.771  33.536  1.00  0.00    -0.237 OA
ATOM     75  O   UNL A   1      35.159  34.487  31.522  1.00  0.00    -0.744 OA
ENDBRANCH  69  72
ENDBRANCH  51  65
BRANCH  52  76
ATOM     76  C   UNL A   1      43.532  37.887  41.336  1.00  0.00     0.023 A 
ATOM     77  C   UNL A   1      43.163  39.213  41.636  1.00  0.00     0.012 A 
ATOM     78  C   UNL A   1      44.641  37.319  41.993  1.00  0.00     0.148 A 
ATOM     79  C   UNL A   1      43.904  39.971  42.542  1.00  0.00     0.002 A 
ATOM     80  C   UNL A   1      45.344  38.064  42.934  1.00  0.00     0.091 A 
ATOM     81  F   UNL A   1      44.995  36.066  41.676  1.00  0.00    -0.205 F 
ATOM     82  C   UNL A   1      44.988  39.395  43.199  1.00  0.00     0.022 A 
BRANCH  80  83
ATOM     83  S   UNL A   1      46.676  37.355  43.909  1.00  0.00     0.127 S 
ATOM     84  O   UNL A   1      45.955  36.418  44.765  1.00  0.00    -0.237 OA
ATOM     85  O   UNL A   1      47.511  36.733  42.880  1.00  0.00    -0.237 OA
ATOM     86  O   UNL A   1      47.303  38.485  44.583  1.00  0.00    -0.744 OA
ENDBRANCH  80  83
ENDBRANCH  52  76
BRANCH  64  87
ATOM     87  C   UNL A   1      38.174  33.445  41.828  1.00  0.00     0.023 A 
ATOM     88  C   UNL A   1      37.040  34.149  42.279  1.00  0.00     0.012 A 
ATOM     89  C   UNL A   1      38.507  32.215  42.428  1.00  0.00     0.148 A 
ATOM     90  C   UNL A   1      36.268  33.652  43.329  1.00  0.00     0.002 A 
ATOM     91  C   UNL A   1      37.708  31.704  43.444  1.00  0.00     0.091 A 
ATOM     92  F   UNL A   1      39.600  31.567  41.998  1.00  0.00    -0.205 F 
ATOM     93  C   UNL A   1      36.594  32.426  43.904  1.00  0.00     0.022 A 
BRANCH  91  94
ATOM     94  S   UNL A   1      38.004  30.088  44.173  1.00  0.00     0.127 S 
ATOM     95  O   UNL A   1      36.816  29.914  45.008  1.00  0.00    -0.237 OA
ATOM     96  O   UNL A   1      38.056  29.216  42.998  1.00  0.00    -0.237 OA
ATOM     97  O   UNL A   1      39.267  30.203  44.890  1.00  0.00    -0.744 OA
ENDBRANCH  91  94
ENDBRANCH  64  87
ENDBRANCH  38  39
ENDBRANCH  31  33
ENDBRANCH  30  31
ENDBRANCH  29  30
ENDBRANCH  28  29
ENDBRANCH  27  28
ENDBRANCH   1  27
TORSDOF 22
ENDMDL
MODEL 3
REMARK VINA RESULT:      -6.8      3.424      9.170
REMARK SMILES CC1=C2C(=O)N(C[C@H]3CCCO3)C(=O)N=C2S[C@@H]1C(=O)OCCOCCOCCOC(=O)c1ccc(-c2c3nc(c(-c4cccc(S(=O)(=O)[O-])c4F)c4ccc([nH]4)c(-c4cccc(S(=O)(=O)[O-])c4F)c4nc(c(-c5cccc(S(=O)(=O)[O-])c5F)c5ccc2[nH]5)C=C4)C=C3)cc1
REMARK SMILES IDX 26 1 25 2 24 3 23 4 22 5 21 6 19 7 20 8 18 9 1 10 2 11 3 12
REMARK SMILES IDX 4 13 16 14 17 15 5 16 6 17 15 18 13 19 14 20 7 21 8 22 9 23
REMARK SMILES IDX 12 24 10 25 11 26 27 27 28 28 29 29 30 30 31 31 32 32 33 33
REMARK SMILES IDX 34 34 95 35 35 36 94 37 36 38 37 39 38 40 88 41 39 42 93 43
REMARK SMILES IDX 87 44 89 45 40 46 92 47 86 48 85 49 41 51 73 52 53 53 72 54
REMARK SMILES IDX 54 55 57 56 71 57 90 58 55 59 56 60 70 62 91 63 58 64 42 65
REMARK SMILES IDX 43 66 51 67 44 68 46 69 52 70 45 71 47 72 48 73 49 74 50 75
REMARK SMILES IDX 74 76 75 77 83 78 76 79 78 80 84 81 77 82 79 83 80 84 81 85
REMARK SMILES IDX 82 86 59 87 60 88 68 89 61 90 63 91 69 92 62 93 64 94 65 95
REMARK SMILES IDX 66 96 67 97
REMARK H PARENT 89 50 57 61
REMARK Flexibility Score: inf
ROOT
ATOM      1  C   UNL A   1      45.886  32.358  36.567  1.00  0.00     0.188 C 
ENDROOT
BRANCH   1   2
ATOM      2  C   UNL A   1      44.956  33.565  36.738  1.00  0.00     0.188 C 
BRANCH   2   3
ATOM      3  O   UNL A   1      45.481  34.818  37.156  1.00  0.00    -0.376 OA
BRANCH   3   4
ATOM      4  C   UNL A   1      44.621  35.913  37.432  1.00  0.00     0.202 C 
BRANCH   4   5
ATOM      5  C   UNL A   1      43.256  35.939  36.746  1.00  0.00     0.261 C 
BRANCH   5   6
ATOM      6  O   UNL A   1      42.936  37.205  36.142  1.00  0.00    -0.462 OA
BRANCH   6   7
ATOM      7  C   UNL A   1      42.774  37.195  34.797  1.00  0.00     0.323 C 
ATOM      8  O   UNL A   1      42.563  38.201  34.125  1.00  0.00    -0.251 OA
BRANCH   7   9
ATOM      9  C   UNL A   1      42.841  35.815  34.145  1.00  0.00     0.189 C 
ATOM     10  C   UNL A   1      44.671  36.646  32.504  1.00  0.00     0.042 C 
ATOM     11  C   UNL A   1      43.388  35.912  32.744  1.00  0.00    -0.033 C 
ATOM     12  C   UNL A   1      42.699  35.238  31.817  1.00  0.00     0.073 C 
ATOM     13  C   UNL A   1      42.938  35.083  30.395  1.00  0.00     0.264 C 
ATOM     14  C   UNL A   1      41.644  34.410  32.349  1.00  0.00     0.116 C 
ATOM     15  S   UNL A   1      41.242  34.919  33.948  1.00  0.00    -0.086 SA
ATOM     16  O   UNL A   1      43.199  36.037  29.678  1.00  0.00    -0.268 OA
ATOM     17  N   UNL A   1      42.758  33.778  30.016  1.00  0.00    -0.256 N 
ATOM     18  N   UNL A   1      41.122  33.411  31.740  1.00  0.00    -0.186 NA
ATOM     19  C   UNL A   1      41.714  33.011  30.557  1.00  0.00     0.351 C 
ATOM     20  O   UNL A   1      41.344  31.977  30.004  1.00  0.00    -0.246 OA
BRANCH  17  21
ATOM     21  C   UNL A   1      43.714  33.134  29.117  1.00  0.00     0.163 C 
BRANCH  21  22
ATOM     22  C   UNL A   1      45.190  33.014  29.539  1.00  0.00     0.138 C 
ATOM     23  C   UNL A   1      45.461  32.511  30.957  1.00  0.00     0.036 C 
ATOM     24  O   UNL A   1      45.798  32.026  28.668  1.00  0.00    -0.376 OA
ATOM     25  C   UNL A   1      45.625  31.028  30.804  1.00  0.00     0.031 C 
ATOM     26  C   UNL A   1      46.280  30.926  29.453  1.00  0.00     0.160 C 
ENDBRANCH  21  22
ENDBRANCH  17  21
ENDBRANCH   7   9
ENDBRANCH   6   7
ENDBRANCH   5   6
ENDBRANCH   4   5
ENDBRANCH   3   4
ENDBRANCH   2   3
ENDBRANCH   1   2
BRANCH   1  27
ATOM     27  O   UNL A   1      46.451  31.861  37.767  1.00  0.00    -0.376 OA
BRANCH  27  28
ATOM     28  C   UNL A   1      47.698  31.194  37.630  1.00  0.00     0.202 C 
BRANCH  28  29
ATOM     29  C   UNL A   1      47.568  29.673  37.785  1.00  0.00     0.261 C 
BRANCH  29  30
ATOM     30  O   UNL A   1      48.480  28.927  36.959  1.00  0.00    -0.460 OA
BRANCH  30  31
ATOM     31  C   UNL A   1      48.062  27.699  36.567  1.00  0.00     0.338 C 
ATOM     32  O   UNL A   1      48.437  26.625  37.000  1.00  0.00    -0.246 OA
BRANCH  31  33
ATOM     33  C   UNL A   1      46.890  27.881  35.684  1.00  0.00     0.060 A 
ATOM     34  C   UNL A   1      46.901  28.937  34.762  1.00  0.00     0.016 A 
ATOM     35  C   UNL A   1      45.802  27.008  35.749  1.00  0.00     0.016 A 
ATOM     36  C   UNL A   1      45.802  29.143  33.926  1.00  0.00     0.010 A 
ATOM     37  C   UNL A   1      44.696  27.226  34.924  1.00  0.00     0.010 A 
ATOM     38  C   UNL A   1      44.678  28.312  34.031  1.00  0.00    -0.014 A 
BRANCH  38  39
ATOM     39  C   UNL A   1      43.413  28.683  33.353  1.00  0.00     0.031 A 
ATOM     40  C   UNL A   1      43.251  28.323  31.901  1.00  0.00     0.074 A 
ATOM     41  C   UNL A   1      42.437  29.347  33.998  1.00  0.00     0.049 A 
ATOM     42  N   UNL A   1      42.254  28.569  31.093  1.00  0.00    -0.248 NA
ATOM     43  C   UNL A   1      44.365  27.587  31.278  1.00  0.00     0.031 C 
ATOM     44  C   UNL A   1      42.474  29.760  35.400  1.00  0.00     0.029 A 
ATOM     45  N   UNL A   1      41.230  29.815  33.540  1.00  0.00    -0.354 N 
ATOM     46  C   UNL A   1      42.624  28.037  29.865  1.00  0.00     0.074 A 
ATOM     47  C   UNL A   1      43.943  27.465  30.028  1.00  0.00     0.031 C 
ATOM     48  C   UNL A   1      41.352  30.450  35.679  1.00  0.00     0.029 A 
ATOM     49  C   UNL A   1      40.528  30.539  34.474  1.00  0.00     0.049 A 
ATOM     50  H   UNL A   1      40.899  29.648  32.627  1.00  0.00     0.167 HD
ATOM     51  C   UNL A   1      41.924  28.006  28.708  1.00  0.00     0.034 A 
ATOM     52  C   UNL A   1      39.363  31.209  34.361  1.00  0.00     0.034 A 
ATOM     53  C   UNL A   1      40.611  28.565  28.540  1.00  0.00     0.049 A 
ATOM     54  C   UNL A   1      38.618  31.186  33.049  1.00  0.00     0.074 A 
ATOM     55  C   UNL A   1      39.810  28.553  27.412  1.00  0.00     0.029 A 
ATOM     56  N   UNL A   1      39.911  29.244  29.521  1.00  0.00    -0.354 N 
ATOM     57  N   UNL A   1      38.919  30.559  31.936  1.00  0.00    -0.248 NA
ATOM     58  C   UNL A   1      37.353  31.936  32.988  1.00  0.00     0.031 C 
ATOM     59  C   UNL A   1      38.629  29.240  27.708  1.00  0.00     0.029 A 
ATOM     60  C   UNL A   1      38.688  29.664  29.026  1.00  0.00     0.049 A 
ATOM     61  H   UNL A   1      40.234  29.406  30.437  1.00  0.00     0.167 HD
ATOM     62  C   UNL A   1      37.867  30.809  31.060  1.00  0.00     0.074 A 
ATOM     63  C   UNL A   1      36.909  31.625  31.778  1.00  0.00     0.031 C 
ATOM     64  C   UNL A   1      37.714  30.418  29.771  1.00  0.00     0.034 A 
BRANCH  51  65
ATOM     65  C   UNL A   1      42.553  27.305  27.535  1.00  0.00     0.023 A 
ATOM     66  C   UNL A   1      43.312  28.055  26.613  1.00  0.00     0.012 A 
ATOM     67  C   UNL A   1      42.447  25.912  27.378  1.00  0.00     0.148 A 
ATOM     68  C   UNL A   1      43.938  27.429  25.537  1.00  0.00     0.002 A 
ATOM     69  C   UNL A   1      43.103  25.289  26.323  1.00  0.00     0.091 A 
ATOM     70  F   UNL A   1      41.697  25.225  28.252  1.00  0.00    -0.205 F 
ATOM     71  C   UNL A   1      43.843  26.046  25.399  1.00  0.00     0.022 A 
BRANCH  69  72
ATOM     72  S   UNL A   1      43.098  23.508  26.096  1.00  0.00     0.127 S 
ATOM     73  O   UNL A   1      41.666  23.227  26.008  1.00  0.00    -0.237 OA
ATOM     74  O   UNL A   1      43.827  23.356  24.837  1.00  0.00    -0.237 OA
ATOM     75  O   UNL A   1      43.774  22.952  27.260  1.00  0.00    -0.744 OA
ENDBRANCH  69  72
ENDBRANCH  51  65
BRANCH  52  76
ATOM     76  C   UNL A   1      38.793  31.933  35.534  1.00  0.00     0.023 A 
ATOM     77  C   UNL A   1      38.895  33.336  35.597  1.00  0.00     0.012 A 
ATOM     78  C   UNL A   1      38.169  31.243  36.591  1.00  0.00     0.148 A 
ATOM     79  C   UNL A   1      38.420  34.036  36.706  1.00  0.00     0.002 A 
ATOM     80  C   UNL A   1      37.651  31.951  37.670  1.00  0.00     0.091 A 
ATOM     81  F   UNL A   1      38.105  29.905  36.528  1.00  0.00    -0.205 F 
ATOM     82  C   UNL A   1      37.789  33.346  37.738  1.00  0.00     0.022 A 
BRANCH  80  83
ATOM     83  S   UNL A   1      36.719  31.148  38.980  1.00  0.00     0.127 S 
ATOM     84  O   UNL A   1      37.640  31.251  40.108  1.00  0.00    -0.237 OA
ATOM     85  O   UNL A   1      35.531  31.998  39.074  1.00  0.00    -0.237 OA
ATOM     86  O   UNL A   1      36.453  29.802  38.492  1.00  0.00    -0.744 OA
ENDBRANCH  80  83
ENDBRANCH  52  76
BRANCH  64  87
ATOM     87  C   UNL A   1      36.454  30.827  29.054  1.00  0.00     0.023 A 
ATOM     88  C   UNL A   1      35.608  29.839  28.513  1.00  0.00     0.012 A 
ATOM     89  C   UNL A   1      36.068  32.180  28.987  1.00  0.00     0.148 A 
ATOM     90  C   UNL A   1      34.412  30.194  27.888  1.00  0.00     0.002 A 
ATOM     91  C   UNL A   1      34.853  32.523  28.402  1.00  0.00     0.091 A 
ATOM     92  F   UNL A   1      36.894  33.109  29.491  1.00  0.00    -0.205 F 
ATOM     93  C   UNL A   1      34.029  31.533  27.843  1.00  0.00     0.022 A 
BRANCH  91  94
ATOM     94  S   UNL A   1      34.243  34.213  28.387  1.00  0.00     0.127 S 
ATOM     95  O   UNL A   1      34.648  34.689  29.708  1.00  0.00    -0.237 OA
ATOM     96  O   UNL A   1      34.983  34.806  27.272  1.00  0.00    -0.237 OA
ATOM     97  O   UNL A   1      32.806  34.113  28.166  1.00  0.00    -0.744 OA
ENDBRANCH  91  94
ENDBRANCH  64  87
ENDBRANCH  38  39
ENDBRANCH  31  33
ENDBRANCH  30  31
ENDBRANCH  29  30
ENDBRANCH  28  29
ENDBRANCH  27  28
ENDBRANCH   1  27
TORSDOF 22
ENDMDL
