MODEL 1
REMARK VINA RESULT:     -10.9      0.000      0.000
REMARK SMILES O=C(OCCOCCOCCOC(=O)c1ccc(-c2c(F)cccc2F)cn1)c1ccc(-c2c3nc(c(-c4cccc(S(=O)(=O)[O-])c4F)c4ccc([nH]4)c(-c4cccc(S(=O)(=O)[O-])c4F)c4nc(c(-c5cccc(S(=O)(=O)[O-])c5F)c5ccc2[nH]5)C=C4)C=C3)cc1
REMARK SMILES IDX 7 1 6 2 5 3 4 4 3 5 2 6 1 7 29 8 30 9 91 10 31 11 90 12
REMARK SMILES IDX 32 13 33 14 34 15 84 16 35 17 89 18 83 19 85 20 36 21 88 22
REMARK SMILES IDX 82 23 81 24 37 26 69 27 49 28 68 29 50 30 53 31 67 32 86 33
REMARK SMILES IDX 51 34 52 35 66 37 87 38 54 39 38 40 39 41 47 42 40 43 42 44
REMARK SMILES IDX 48 45 41 46 43 47 44 48 45 49 46 50 70 51 71 52 79 53 72 54
REMARK SMILES IDX 74 55 80 56 73 57 75 58 76 59 77 60 78 61 55 62 56 63 64 64
REMARK SMILES IDX 57 65 59 66 65 67 58 68 60 69 61 70 62 71 63 72 8 73 9 74
REMARK SMILES IDX 10 75 11 76 12 77 13 78 14 79 15 80 16 81 28 82 17 83 27 84
REMARK SMILES IDX 18 85 19 86 20 87 25 88 21 89 22 90 24 91 26 92 23 93
REMARK H PARENT 85 25 53 36
REMARK Flexibility Score: inf
ROOT
ATOM      1  C   UNL A   1      32.941  29.704  26.241  1.00  0.00     0.188 C 
ENDROOT
BRANCH   1   2
ATOM      2  O   UNL A   1      31.711  30.340  25.871  1.00  0.00    -0.376 OA
BRANCH   2   3
ATOM      3  C   UNL A   1      31.479  31.587  26.531  1.00  0.00     0.202 C 
BRANCH   3   4
ATOM      4  C   UNL A   1      32.674  32.119  27.333  1.00  0.00     0.261 C 
BRANCH   4   5
ATOM      5  O   UNL A   1      32.639  33.549  27.467  1.00  0.00    -0.460 OA
BRANCH   5   6
ATOM      6  C   UNL A   1      33.102  34.311  28.492  1.00  0.00     0.338 C 
ATOM      7  O   UNL A   1      32.425  35.280  28.836  1.00  0.00    -0.246 OA
BRANCH   6   8
ATOM      8  C   UNL A   1      34.360  34.023  29.256  1.00  0.00     0.060 A 
ATOM      9  C   UNL A   1      35.646  34.422  28.888  1.00  0.00     0.016 A 
ATOM     10  C   UNL A   1      34.222  33.302  30.457  1.00  0.00     0.016 A 
ATOM     11  C   UNL A   1      36.767  33.978  29.580  1.00  0.00     0.010 A 
ATOM     12  C   UNL A   1      35.343  32.910  31.201  1.00  0.00     0.010 A 
ATOM     13  C   UNL A   1      36.624  33.188  30.719  1.00  0.00    -0.014 A 
BRANCH  13  14
ATOM     14  C   UNL A   1      37.836  32.554  31.279  1.00  0.00     0.031 A 
ATOM     15  C   UNL A   1      38.309  32.983  32.639  1.00  0.00     0.074 A 
ATOM     16  C   UNL A   1      38.404  31.515  30.640  1.00  0.00     0.049 A 
ATOM     17  N   UNL A   1      39.271  32.491  33.371  1.00  0.00    -0.248 NA
ATOM     18  C   UNL A   1      37.589  34.106  33.268  1.00  0.00     0.031 C 
ATOM     19  C   UNL A   1      37.974  30.989  29.343  1.00  0.00     0.029 A 
ATOM     20  N   UNL A   1      39.438  30.695  31.010  1.00  0.00    -0.354 N 
ATOM     21  C   UNL A   1      39.299  33.266  34.525  1.00  0.00     0.074 A 
ATOM     22  C   UNL A   1      38.257  34.259  34.400  1.00  0.00     0.031 C 
ATOM     23  C   UNL A   1      38.720  29.914  29.040  1.00  0.00     0.029 A 
ATOM     24  C   UNL A   1      39.704  29.701  30.098  1.00  0.00     0.049 A 
ATOM     25  H   UNL A   1      39.943  30.807  31.848  1.00  0.00     0.167 HD
ATOM     26  C   UNL A   1      40.115  33.154  35.598  1.00  0.00     0.034 A 
ATOM     27  C   UNL A   1      40.640  28.733  30.121  1.00  0.00     0.034 A 
ATOM     28  C   UNL A   1      41.130  32.147  35.722  1.00  0.00     0.049 A 
ATOM     29  C   UNL A   1      41.548  28.643  31.319  1.00  0.00     0.074 A 
ATOM     30  C   UNL A   1      42.031  31.952  36.751  1.00  0.00     0.029 A 
ATOM     31  N   UNL A   1      41.377  31.164  34.775  1.00  0.00    -0.354 N 
ATOM     32  N   UNL A   1      41.525  29.348  32.427  1.00  0.00    -0.248 NA
ATOM     33  C   UNL A   1      42.597  27.615  31.284  1.00  0.00     0.031 C 
ATOM     34  C   UNL A   1      42.835  30.856  36.418  1.00  0.00     0.029 A 
ATOM     35  C   UNL A   1      42.421  30.360  35.190  1.00  0.00     0.049 A 
ATOM     36  H   UNL A   1      40.881  31.055  33.931  1.00  0.00     0.167 HD
ATOM     37  C   UNL A   1      42.537  28.835  33.228  1.00  0.00     0.074 A 
ATOM     38  C   UNL A   1      43.136  27.740  32.489  1.00  0.00     0.031 C 
ATOM     39  C   UNL A   1      42.953  29.242  34.452  1.00  0.00     0.034 A 
BRANCH  26  40
ATOM     40  C   UNL A   1      39.936  34.159  36.702  1.00  0.00     0.023 A 
ATOM     41  C   UNL A   1      40.334  35.497  36.505  1.00  0.00     0.012 A 
ATOM     42  C   UNL A   1      39.392  33.772  37.941  1.00  0.00     0.148 A 
ATOM     43  C   UNL A   1      40.224  36.427  37.539  1.00  0.00     0.002 A 
ATOM     44  C   UNL A   1      39.255  34.713  38.956  1.00  0.00     0.091 A 
ATOM     45  F   UNL A   1      39.051  32.488  38.117  1.00  0.00    -0.205 F 
ATOM     46  C   UNL A   1      39.679  36.037  38.760  1.00  0.00     0.022 A 
BRANCH  44  47
ATOM     47  S   UNL A   1      38.522  34.313  40.545  1.00  0.00     0.127 S 
ATOM     48  O   UNL A   1      38.297  35.644  41.110  1.00  0.00    -0.237 OA
ATOM     49  O   UNL A   1      37.305  33.602  40.155  1.00  0.00    -0.237 OA
ATOM     50  O   UNL A   1      39.504  33.494  41.242  1.00  0.00    -0.744 OA
ENDBRANCH  44  47
ENDBRANCH  26  40
BRANCH  27  51
ATOM     51  C   UNL A   1      40.735  27.756  28.997  1.00  0.00     0.023 A 
ATOM     52  C   UNL A   1      39.857  26.656  28.947  1.00  0.00     0.012 A 
ATOM     53  C   UNL A   1      41.667  27.931  27.957  1.00  0.00     0.148 A 
ATOM     54  C   UNL A   1      39.922  25.740  27.895  1.00  0.00     0.002 A 
ATOM     55  C   UNL A   1      41.681  27.054  26.878  1.00  0.00     0.091 A 
ATOM     56  F   UNL A   1      42.522  28.963  28.029  1.00  0.00    -0.205 F 
ATOM     57  C   UNL A   1      40.823  25.945  26.853  1.00  0.00     0.022 A 
BRANCH  55  58
ATOM     58  S   UNL A   1      42.697  27.370  25.430  1.00  0.00     0.127 S 
ATOM     59  O   UNL A   1      42.520  26.142  24.661  1.00  0.00    -0.237 OA
ATOM     60  O   UNL A   1      42.059  28.556  24.858  1.00  0.00    -0.237 OA
ATOM     61  O   UNL A   1      44.034  27.616  25.956  1.00  0.00    -0.744 OA
ENDBRANCH  55  58
ENDBRANCH  27  51
BRANCH  39  62
ATOM     62  C   UNL A   1      44.093  28.491  35.082  1.00  0.00     0.023 A 
ATOM     63  C   UNL A   1      45.418  28.857  34.774  1.00  0.00     0.012 A 
ATOM     64  C   UNL A   1      43.853  27.492  36.043  1.00  0.00     0.148 A 
ATOM     65  C   UNL A   1      46.489  28.220  35.399  1.00  0.00     0.002 A 
ATOM     66  C   UNL A   1      44.924  26.894  36.695  1.00  0.00     0.091 A 
ATOM     67  F   UNL A   1      42.584  27.142  36.302  1.00  0.00    -0.205 F 
ATOM     68  C   UNL A   1      46.243  27.250  36.368  1.00  0.00     0.022 A 
BRANCH  66  69
ATOM     69  S   UNL A   1      44.681  25.710  38.024  1.00  0.00     0.127 S 
ATOM     70  O   UNL A   1      43.882  24.681  37.364  1.00  0.00    -0.237 OA
ATOM     71  O   UNL A   1      46.051  25.308  38.344  1.00  0.00    -0.237 OA
ATOM     72  O   UNL A   1      44.011  26.449  39.087  1.00  0.00    -0.744 OA
ENDBRANCH  66  69
ENDBRANCH  39  62
ENDBRANCH  13  14
ENDBRANCH   6   8
ENDBRANCH   5   6
ENDBRANCH   4   5
ENDBRANCH   3   4
ENDBRANCH   2   3
ENDBRANCH   1   2
BRANCH   1  73
ATOM     73  C   UNL A   1      33.066  28.294  25.656  1.00  0.00     0.188 C 
BRANCH  73  74
ATOM     74  O   UNL A   1      34.024  28.158  24.602  1.00  0.00    -0.376 OA
BRANCH  74  75
ATOM     75  C   UNL A   1      33.757  28.890  23.406  1.00  0.00     0.202 C 
BRANCH  75  76
ATOM     76  C   UNL A   1      33.056  28.124  22.280  1.00  0.00     0.261 C 
BRANCH  76  77
ATOM     77  O   UNL A   1      33.638  26.838  22.008  1.00  0.00    -0.459 OA
BRANCH  77  78
ATOM     78  C   UNL A   1      32.738  25.886  21.644  1.00  0.00     0.356 C 
ATOM     79  O   UNL A   1      31.887  25.994  20.771  1.00  0.00    -0.244 OA
BRANCH  78  80
ATOM     80  C   UNL A   1      32.831  24.673  22.495  1.00  0.00     0.148 A 
ATOM     81  C   UNL A   1      31.654  24.233  23.081  1.00  0.00     0.037 A 
ATOM     82  N   UNL A   1      33.987  23.956  22.475  1.00  0.00    -0.249 NA
ATOM     83  C   UNL A   1      31.628  22.954  23.624  1.00  0.00     0.013 A 
ATOM     84  C   UNL A   1      33.914  22.704  23.009  1.00  0.00     0.121 A 
ATOM     85  C   UNL A   1      32.759  22.130  23.549  1.00  0.00     0.006 A 
BRANCH  85  86
ATOM     86  C   UNL A   1      32.666  20.716  23.932  1.00  0.00     0.055 A 
ATOM     87  C   UNL A   1      32.909  20.323  25.259  1.00  0.00     0.134 A 
ATOM     88  C   UNL A   1      32.355  19.699  23.024  1.00  0.00     0.134 A 
ATOM     89  F   UNL A   1      33.132  21.253  26.204  1.00  0.00    -0.206 F 
ATOM     90  C   UNL A   1      32.883  18.988  25.659  1.00  0.00     0.040 A 
ATOM     91  C   UNL A   1      32.321  18.354  23.408  1.00  0.00     0.040 A 
ATOM     92  F   UNL A   1      32.069  20.001  21.747  1.00  0.00    -0.206 F 
ATOM     93  C   UNL A   1      32.596  17.996  24.728  1.00  0.00     0.006 A 
ENDBRANCH  85  86
ENDBRANCH  78  80
ENDBRANCH  77  78
ENDBRANCH  76  77
ENDBRANCH  75  76
ENDBRANCH  74  75
ENDBRANCH  73  74
ENDBRANCH   1  73
TORSDOF 21
ENDMDL
MODEL 2
REMARK VINA RESULT:     -10.8      1.912      2.413
REMARK SMILES O=C(OCCOCCOCCOC(=O)c1ccc(-c2c(F)cccc2F)cn1)c1ccc(-c2c3nc(c(-c4cccc(S(=O)(=O)[O-])c4F)c4ccc([nH]4)c(-c4cccc(S(=O)(=O)[O-])c4F)c4nc(c(-c5cccc(S(=O)(=O)[O-])c5F)c5ccc2[nH]5)C=C4)C=C3)cc1
REMARK SMILES IDX 7 1 6 2 5 3 4 4 3 5 2 6 1 7 29 8 30 9 91 10 31 11 90 12
REMARK SMILES IDX 32 13 33 14 34 15 84 16 35 17 89 18 83 19 85 20 36 21 88 22
REMARK SMILES IDX 82 23 81 24 37 26 69 27 49 28 68 29 50 30 53 31 67 32 86 33
REMARK SMILES IDX 51 34 52 35 66 37 87 38 54 39 38 40 39 41 47 42 40 43 42 44
REMARK SMILES IDX 48 45 41 46 43 47 44 48 45 49 46 50 70 51 71 52 79 53 72 54
REMARK SMILES IDX 74 55 80 56 73 57 75 58 76 59 77 60 78 61 55 62 56 63 64 64
REMARK SMILES IDX 57 65 59 66 65 67 58 68 60 69 61 70 62 71 63 72 8 73 9 74
REMARK SMILES IDX 10 75 11 76 12 77 13 78 14 79 15 80 16 81 28 82 17 83 27 84
REMARK SMILES IDX 18 85 19 86 20 87 25 88 21 89 22 90 24 91 26 92 23 93
REMARK H PARENT 85 25 53 36
REMARK Flexibility Score: inf
ROOT
ATOM      1  C   UNL A   1      32.230  29.295  26.313  1.00  0.00     0.188 C 
ENDROOT
BRANCH   1   2
ATOM      2  O   UNL A   1      32.432  30.492  27.076  1.00  0.00    -0.376 OA
BRANCH   2   3
ATOM      3  C   UNL A   1      31.434  31.494  26.864  1.00  0.00     0.202 C 
BRANCH   3   4
ATOM      4  C   UNL A   1      31.978  32.922  26.731  1.00  0.00     0.261 C 
BRANCH   4   5
ATOM      5  O   UNL A   1      32.376  33.467  27.999  1.00  0.00    -0.460 OA
BRANCH   5   6
ATOM      6  C   UNL A   1      33.581  33.982  28.355  1.00  0.00     0.338 C 
ATOM      7  O   UNL A   1      33.665  35.202  28.490  1.00  0.00    -0.246 OA
BRANCH   6   8
ATOM      8  C   UNL A   1      34.801  33.157  28.636  1.00  0.00     0.060 A 
ATOM      9  C   UNL A   1      34.804  31.835  29.085  1.00  0.00     0.016 A 
ATOM     10  C   UNL A   1      36.049  33.768  28.410  1.00  0.00     0.016 A 
ATOM     11  C   UNL A   1      35.982  31.202  29.464  1.00  0.00     0.010 A 
ATOM     12  C   UNL A   1      37.246  33.111  28.721  1.00  0.00     0.010 A 
ATOM     13  C   UNL A   1      37.208  31.850  29.319  1.00  0.00    -0.014 A 
BRANCH  13  14
ATOM     14  C   UNL A   1      38.396  31.233  29.946  1.00  0.00     0.031 A 
ATOM     15  C   UNL A   1      38.720  31.585  31.370  1.00  0.00     0.074 A 
ATOM     16  C   UNL A   1      39.072  30.269  29.296  1.00  0.00     0.049 A 
ATOM     17  N   UNL A   1      39.637  31.086  32.155  1.00  0.00    -0.248 NA
ATOM     18  C   UNL A   1      37.890  32.625  32.003  1.00  0.00     0.031 C 
ATOM     19  C   UNL A   1      38.789  29.818  27.931  1.00  0.00     0.029 A 
ATOM     20  N   UNL A   1      40.110  29.473  29.704  1.00  0.00    -0.354 N 
ATOM     21  C   UNL A   1      39.520  31.777  33.355  1.00  0.00     0.074 A 
ATOM     22  C   UNL A   1      38.444  32.728  33.201  1.00  0.00     0.031 C 
ATOM     23  C   UNL A   1      39.614  28.803  27.628  1.00  0.00     0.029 A 
ATOM     24  C   UNL A   1      40.508  28.560  28.757  1.00  0.00     0.049 A 
ATOM     25  H   UNL A   1      40.530  29.547  30.592  1.00  0.00     0.167 HD
ATOM     26  C   UNL A   1      40.240  31.626  34.490  1.00  0.00     0.034 A 
ATOM     27  C   UNL A   1      41.487  27.636  28.802  1.00  0.00     0.034 A 
ATOM     28  C   UNL A   1      41.291  30.660  34.641  1.00  0.00     0.049 A 
ATOM     29  C   UNL A   1      42.287  27.503  30.072  1.00  0.00     0.074 A 
ATOM     30  C   UNL A   1      42.104  30.433  35.735  1.00  0.00     0.029 A 
ATOM     31  N   UNL A   1      41.674  29.760  33.658  1.00  0.00    -0.354 N 
ATOM     32  N   UNL A   1      42.128  28.125  31.217  1.00  0.00    -0.248 NA
ATOM     33  C   UNL A   1      43.387  26.529  30.067  1.00  0.00     0.031 C 
ATOM     34  C   UNL A   1      42.990  29.401  35.406  1.00  0.00     0.029 A 
ATOM     35  C   UNL A   1      42.716  28.976  34.114  1.00  0.00     0.049 A 
ATOM     36  H   UNL A   1      41.262  29.689  32.766  1.00  0.00     0.167 HD
ATOM     37  C   UNL A   1      43.088  27.602  32.074  1.00  0.00     0.074 A 
ATOM     38  C   UNL A   1      43.808  26.592  31.323  1.00  0.00     0.031 C 
ATOM     39  C   UNL A   1      43.370  27.940  33.356  1.00  0.00     0.034 A 
BRANCH  26  40
ATOM     40  C   UNL A   1      39.910  32.540  35.637  1.00  0.00     0.023 A 
ATOM     41  C   UNL A   1      40.567  33.782  35.757  1.00  0.00     0.012 A 
ATOM     42  C   UNL A   1      38.964  32.159  36.607  1.00  0.00     0.148 A 
ATOM     43  C   UNL A   1      40.310  34.616  36.846  1.00  0.00     0.002 A 
ATOM     44  C   UNL A   1      38.689  33.011  37.672  1.00  0.00     0.091 A 
ATOM     45  F   UNL A   1      38.376  30.960  36.491  1.00  0.00    -0.205 F 
ATOM     46  C   UNL A   1      39.368  34.233  37.798  1.00  0.00     0.022 A 
BRANCH  44  47
ATOM     47  S   UNL A   1      37.459  32.623  38.920  1.00  0.00     0.127 S 
ATOM     48  O   UNL A   1      37.635  33.728  39.862  1.00  0.00    -0.237 OA
ATOM     49  O   UNL A   1      36.214  32.669  38.153  1.00  0.00    -0.237 OA
ATOM     50  O   UNL A   1      37.808  31.303  39.428  1.00  0.00    -0.744 OA
ENDBRANCH  44  47
ENDBRANCH  26  40
BRANCH  27  51
ATOM     51  C   UNL A   1      41.735  26.748  27.630  1.00  0.00     0.023 A 
ATOM     52  C   UNL A   1      42.434  27.240  26.511  1.00  0.00     0.012 A 
ATOM     53  C   UNL A   1      41.312  25.405  27.631  1.00  0.00     0.148 A 
ATOM     54  C   UNL A   1      42.688  26.419  25.410  1.00  0.00     0.002 A 
ATOM     55  C   UNL A   1      41.627  24.574  26.562  1.00  0.00     0.091 A 
ATOM     56  F   UNL A   1      40.618  24.953  28.686  1.00  0.00    -0.205 F 
ATOM     57  C   UNL A   1      42.298  25.082  25.441  1.00  0.00     0.022 A 
BRANCH  55  58
ATOM     58  S   UNL A   1      41.305  22.808  26.625  1.00  0.00     0.127 S 
ATOM     59  O   UNL A   1      41.860  22.443  27.925  1.00  0.00    -0.237 OA
ATOM     60  O   UNL A   1      39.845  22.755  26.538  1.00  0.00    -0.237 OA
ATOM     61  O   UNL A   1      41.983  22.261  25.456  1.00  0.00    -0.744 OA
ENDBRANCH  55  58
ENDBRANCH  27  51
BRANCH  39  62
ATOM     62  C   UNL A   1      44.486  27.198  34.038  1.00  0.00     0.023 A 
ATOM     63  C   UNL A   1      45.760  27.792  34.127  1.00  0.00     0.012 A 
ATOM     64  C   UNL A   1      44.249  25.963  34.668  1.00  0.00     0.148 A 
ATOM     65  C   UNL A   1      46.791  27.153  34.815  1.00  0.00     0.002 A 
ATOM     66  C   UNL A   1      45.268  25.353  35.390  1.00  0.00     0.091 A 
ATOM     67  F   UNL A   1      43.036  25.404  34.549  1.00  0.00    -0.205 F 
ATOM     68  C   UNL A   1      46.541  25.942  35.458  1.00  0.00     0.022 A 
BRANCH  66  69
ATOM     69  S   UNL A   1      44.992  23.846  36.327  1.00  0.00     0.127 S 
ATOM     70  O   UNL A   1      44.614  24.372  37.636  1.00  0.00    -0.237 OA
ATOM     71  O   UNL A   1      43.901  23.209  35.587  1.00  0.00    -0.237 OA
ATOM     72  O   UNL A   1      46.253  23.118  36.276  1.00  0.00    -0.744 OA
ENDBRANCH  66  69
ENDBRANCH  39  62
ENDBRANCH  13  14
ENDBRANCH   6   8
ENDBRANCH   5   6
ENDBRANCH   4   5
ENDBRANCH   3   4
ENDBRANCH   2   3
ENDBRANCH   1   2
BRANCH   1  73
ATOM     73  C   UNL A   1      31.797  29.590  24.874  1.00  0.00     0.188 C 
BRANCH  73  74
ATOM     74  O   UNL A   1      32.667  29.073  23.862  1.00  0.00    -0.376 OA
BRANCH  74  75
ATOM     75  C   UNL A   1      32.038  28.546  22.695  1.00  0.00     0.202 C 
BRANCH  75  76
ATOM     76  C   UNL A   1      31.093  27.360  22.907  1.00  0.00     0.261 C 
BRANCH  76  77
ATOM     77  O   UNL A   1      31.709  26.242  23.566  1.00  0.00    -0.459 OA
BRANCH  77  78
ATOM     78  C   UNL A   1      30.967  25.102  23.541  1.00  0.00     0.356 C 
ATOM     79  O   UNL A   1      29.756  25.035  23.374  1.00  0.00    -0.244 OA
BRANCH  78  80
ATOM     80  C   UNL A   1      31.783  23.896  23.825  1.00  0.00     0.148 A 
ATOM     81  C   UNL A   1      31.301  23.035  24.801  1.00  0.00     0.037 A 
ATOM     82  N   UNL A   1      32.811  23.597  22.986  1.00  0.00    -0.249 NA
ATOM     83  C   UNL A   1      31.854  21.763  24.886  1.00  0.00     0.013 A 
ATOM     84  C   UNL A   1      33.317  22.337  23.098  1.00  0.00     0.121 A 
ATOM     85  C   UNL A   1      32.851  21.363  23.986  1.00  0.00     0.006 A 
BRANCH  85  86
ATOM     86  C   UNL A   1      33.282  19.960  23.943  1.00  0.00     0.055 A 
ATOM     87  C   UNL A   1      34.365  19.527  24.726  1.00  0.00     0.134 A 
ATOM     88  C   UNL A   1      32.672  19.000  23.130  1.00  0.00     0.134 A 
ATOM     89  F   UNL A   1      34.948  20.373  25.592  1.00  0.00    -0.206 F 
ATOM     90  C   UNL A   1      34.844  18.218  24.680  1.00  0.00     0.040 A 
ATOM     91  C   UNL A   1      33.135  17.681  23.074  1.00  0.00     0.040 A 
ATOM     92  F   UNL A   1      31.604  19.328  22.385  1.00  0.00    -0.206 F 
ATOM     93  C   UNL A   1      34.232  17.291  23.843  1.00  0.00     0.006 A 
ENDBRANCH  85  86
ENDBRANCH  78  80
ENDBRANCH  77  78
ENDBRANCH  76  77
ENDBRANCH  75  76
ENDBRANCH  74  75
ENDBRANCH  73  74
ENDBRANCH   1  73
TORSDOF 21
ENDMDL
MODEL 3
REMARK VINA RESULT:     -10.6      2.059      7.952
REMARK SMILES O=C(OCCOCCOCCOC(=O)c1ccc(-c2c(F)cccc2F)cn1)c1ccc(-c2c3nc(c(-c4cccc(S(=O)(=O)[O-])c4F)c4ccc([nH]4)c(-c4cccc(S(=O)(=O)[O-])c4F)c4nc(c(-c5cccc(S(=O)(=O)[O-])c5F)c5ccc2[nH]5)C=C4)C=C3)cc1
REMARK SMILES IDX 7 1 6 2 5 3 4 4 3 5 2 6 1 7 29 8 30 9 91 10 31 11 90 12
REMARK SMILES IDX 32 13 33 14 34 15 84 16 35 17 89 18 83 19 85 20 36 21 88 22
REMARK SMILES IDX 82 23 81 24 37 26 69 27 49 28 68 29 50 30 53 31 67 32 86 33
REMARK SMILES IDX 51 34 52 35 66 37 87 38 54 39 38 40 39 41 47 42 40 43 42 44
REMARK SMILES IDX 48 45 41 46 43 47 44 48 45 49 46 50 70 51 71 52 79 53 72 54
REMARK SMILES IDX 74 55 80 56 73 57 75 58 76 59 77 60 78 61 55 62 56 63 64 64
REMARK SMILES IDX 57 65 59 66 65 67 58 68 60 69 61 70 62 71 63 72 8 73 9 74
REMARK SMILES IDX 10 75 11 76 12 77 13 78 14 79 15 80 16 81 28 82 17 83 27 84
REMARK SMILES IDX 18 85 19 86 20 87 25 88 21 89 22 90 24 91 26 92 23 93
REMARK H PARENT 85 25 53 36
REMARK Flexibility Score: inf
ROOT
ATOM      1  C   UNL A   1      32.778  29.460  26.236  1.00  0.00     0.188 C 
ENDROOT
BRANCH   1   2
ATOM      2  O   UNL A   1      32.973  30.852  26.517  1.00  0.00    -0.376 OA
BRANCH   2   3
ATOM      3  C   UNL A   1      31.769  31.554  26.838  1.00  0.00     0.202 C 
BRANCH   3   4
ATOM      4  C   UNL A   1      31.886  33.083  26.788  1.00  0.00     0.261 C 
BRANCH   4   5
ATOM      5  O   UNL A   1      32.635  33.602  27.899  1.00  0.00    -0.460 OA
BRANCH   5   6
ATOM      6  C   UNL A   1      33.951  33.935  27.947  1.00  0.00     0.338 C 
ATOM      7  O   UNL A   1      34.266  35.074  27.602  1.00  0.00    -0.246 OA
BRANCH   6   8
ATOM      8  C   UNL A   1      35.036  33.021  28.434  1.00  0.00     0.060 A 
ATOM      9  C   UNL A   1      34.846  31.747  28.971  1.00  0.00     0.016 A 
ATOM     10  C   UNL A   1      36.359  33.487  28.321  1.00  0.00     0.016 A 
ATOM     11  C   UNL A   1      35.898  31.035  29.535  1.00  0.00     0.010 A 
ATOM     12  C   UNL A   1      37.436  32.745  28.823  1.00  0.00     0.010 A 
ATOM     13  C   UNL A   1      37.194  31.546  29.498  1.00  0.00    -0.014 A 
BRANCH  13  14
ATOM     14  C   UNL A   1      38.229  30.870  30.309  1.00  0.00     0.031 A 
ATOM     15  C   UNL A   1      39.135  29.880  29.634  1.00  0.00     0.074 A 
ATOM     16  C   UNL A   1      38.439  31.253  31.581  1.00  0.00     0.049 A 
ATOM     17  N   UNL A   1      40.178  29.256  30.114  1.00  0.00    -0.248 NA
ATOM     18  C   UNL A   1      38.840  29.562  28.226  1.00  0.00     0.031 C 
ATOM     19  C   UNL A   1      37.647  32.253  32.300  1.00  0.00     0.029 A 
ATOM     20  N   UNL A   1      39.401  30.876  32.481  1.00  0.00    -0.354 N 
ATOM     21  C   UNL A   1      40.637  28.446  29.082  1.00  0.00     0.074 A 
ATOM     22  C   UNL A   1      39.765  28.656  27.950  1.00  0.00     0.031 C 
ATOM     23  C   UNL A   1      38.176  32.432  33.521  1.00  0.00     0.029 A 
ATOM     24  C   UNL A   1      39.314  31.532  33.685  1.00  0.00     0.049 A 
ATOM     25  H   UNL A   1      40.089  30.198  32.284  1.00  0.00     0.167 HD
ATOM     26  C   UNL A   1      41.697  27.606  29.076  1.00  0.00     0.034 A 
ATOM     27  C   UNL A   1      40.072  31.414  34.793  1.00  0.00     0.034 A 
ATOM     28  C   UNL A   1      42.572  27.424  30.199  1.00  0.00     0.049 A 
ATOM     29  C   UNL A   1      41.235  30.458  34.765  1.00  0.00     0.074 A 
ATOM     30  C   UNL A   1      43.662  26.583  30.317  1.00  0.00     0.029 A 
ATOM     31  N   UNL A   1      42.448  28.097  31.405  1.00  0.00    -0.354 N 
ATOM     32  N   UNL A   1      41.690  29.740  33.764  1.00  0.00    -0.248 NA
ATOM     33  C   UNL A   1      42.003  30.306  36.009  1.00  0.00     0.031 C 
ATOM     34  C   UNL A   1      44.191  26.740  31.603  1.00  0.00     0.029 A 
ATOM     35  C   UNL A   1      43.438  27.690  32.279  1.00  0.00     0.049 A 
ATOM     36  H   UNL A   1      41.756  28.768  31.609  1.00  0.00     0.167 HD
ATOM     37  C   UNL A   1      42.808  29.073  34.248  1.00  0.00     0.074 A 
ATOM     38  C   UNL A   1      42.978  29.493  35.626  1.00  0.00     0.031 C 
ATOM     39  C   UNL A   1      43.610  28.175  33.625  1.00  0.00     0.034 A 
BRANCH  26  40
ATOM     40  C   UNL A   1      41.945  26.824  27.816  1.00  0.00     0.023 A 
ATOM     41  C   UNL A   1      42.434  27.480  26.667  1.00  0.00     0.012 A 
ATOM     42  C   UNL A   1      41.674  25.444  27.764  1.00  0.00     0.148 A 
ATOM     43  C   UNL A   1      42.616  26.778  25.475  1.00  0.00     0.002 A 
ATOM     44  C   UNL A   1      41.889  24.745  26.581  1.00  0.00     0.091 A 
ATOM     45  F   UNL A   1      41.179  24.848  28.858  1.00  0.00    -0.205 F 
ATOM     46  C   UNL A   1      42.350  25.412  25.435  1.00  0.00     0.022 A 
BRANCH  44  47
ATOM     47  S   UNL A   1      41.619  22.975  26.448  1.00  0.00     0.127 S 
ATOM     48  O   UNL A   1      42.228  22.680  25.152  1.00  0.00    -0.237 OA
ATOM     49  O   UNL A   1      42.359  22.461  27.601  1.00  0.00    -0.237 OA
ATOM     50  O   UNL A   1      40.177  22.785  26.523  1.00  0.00    -0.744 OA
ENDBRANCH  44  47
ENDBRANCH  26  40
BRANCH  27  51
ATOM     51  C   UNL A   1      39.777  32.246  35.995  1.00  0.00     0.023 A 
ATOM     52  C   UNL A   1      40.467  33.458  36.196  1.00  0.00     0.012 A 
ATOM     53  C   UNL A   1      38.790  31.863  36.923  1.00  0.00     0.148 A 
ATOM     54  C   UNL A   1      40.194  34.257  37.308  1.00  0.00     0.002 A 
ATOM     55  C   UNL A   1      38.475  32.696  37.990  1.00  0.00     0.091 A 
ATOM     56  F   UNL A   1      38.161  30.692  36.741  1.00  0.00    -0.205 F 
ATOM     57  C   UNL A   1      39.188  33.885  38.198  1.00  0.00     0.022 A 
BRANCH  55  58
ATOM     58  S   UNL A   1      37.075  32.353  39.062  1.00  0.00     0.127 S 
ATOM     59  O   UNL A   1      37.204  30.916  39.281  1.00  0.00    -0.237 OA
ATOM     60  O   UNL A   1      37.366  33.187  40.229  1.00  0.00    -0.237 OA
ATOM     61  O   UNL A   1      35.907  32.790  38.305  1.00  0.00    -0.744 OA
ENDBRANCH  55  58
ENDBRANCH  27  51
BRANCH  39  62
ATOM     62  C   UNL A   1      44.755  27.604  34.413  1.00  0.00     0.023 A 
ATOM     63  C   UNL A   1      45.983  28.292  34.450  1.00  0.00     0.012 A 
ATOM     64  C   UNL A   1      44.586  26.441  35.188  1.00  0.00     0.148 A 
ATOM     65  C   UNL A   1      47.036  27.816  35.231  1.00  0.00     0.002 A 
ATOM     66  C   UNL A   1      45.624  25.998  35.998  1.00  0.00     0.091 A 
ATOM     67  F   UNL A   1      43.416  25.787  35.118  1.00  0.00    -0.205 F 
ATOM     68  C   UNL A   1      46.852  26.679  36.015  1.00  0.00     0.022 A 
BRANCH  66  69
ATOM     69  S   UNL A   1      45.426  24.602  37.110  1.00  0.00     0.127 S 
ATOM     70  O   UNL A   1      44.142  24.901  37.739  1.00  0.00    -0.237 OA
ATOM     71  O   UNL A   1      45.405  23.464  36.189  1.00  0.00    -0.237 OA
ATOM     72  O   UNL A   1      46.587  24.635  37.991  1.00  0.00    -0.744 OA
ENDBRANCH  66  69
ENDBRANCH  39  62
ENDBRANCH  13  14
ENDBRANCH   6   8
ENDBRANCH   5   6
ENDBRANCH   4   5
ENDBRANCH   3   4
ENDBRANCH   2   3
ENDBRANCH   1   2
BRANCH   1  73
ATOM     73  C   UNL A   1      31.710  29.227  25.164  1.00  0.00     0.188 C 
BRANCH  73  74
ATOM     74  O   UNL A   1      32.216  28.876  23.872  1.00  0.00    -0.376 OA
BRANCH  74  75
ATOM     75  C   UNL A   1      31.281  28.913  22.795  1.00  0.00     0.202 C 
BRANCH  75  76
ATOM     76  C   UNL A   1      30.395  27.676  22.619  1.00  0.00     0.261 C 
BRANCH  76  77
ATOM     77  O   UNL A   1      31.106  26.433  22.745  1.00  0.00    -0.459 OA
BRANCH  77  78
ATOM     78  C   UNL A   1      30.653  25.631  23.744  1.00  0.00     0.356 C 
ATOM     79  O   UNL A   1      29.665  25.832  24.438  1.00  0.00    -0.244 OA
BRANCH  78  80
ATOM     80  C   UNL A   1      31.551  24.474  23.984  1.00  0.00     0.148 A 
ATOM     81  C   UNL A   1      32.095  23.866  22.861  1.00  0.00     0.037 A 
ATOM     82  N   UNL A   1      31.953  24.219  25.258  1.00  0.00    -0.249 NA
ATOM     83  C   UNL A   1      33.161  22.993  23.038  1.00  0.00     0.013 A 
ATOM     84  C   UNL A   1      33.007  23.365  25.385  1.00  0.00     0.121 A 
ATOM     85  C   UNL A   1      33.683  22.763  24.319  1.00  0.00     0.006 A 
BRANCH  85  86
ATOM     86  C   UNL A   1      34.934  22.011  24.479  1.00  0.00     0.055 A 
ATOM     87  C   UNL A   1      34.902  20.634  24.759  1.00  0.00     0.134 A 
ATOM     88  C   UNL A   1      36.197  22.603  24.383  1.00  0.00     0.134 A 
ATOM     89  F   UNL A   1      33.727  19.982  24.784  1.00  0.00    -0.206 F 
ATOM     90  C   UNL A   1      36.060  19.889  24.971  1.00  0.00     0.040 A 
ATOM     91  C   UNL A   1      37.370  21.869  24.588  1.00  0.00     0.040 A 
ATOM     92  F   UNL A   1      36.309  23.905  24.076  1.00  0.00    -0.206 F 
ATOM     93  C   UNL A   1      37.302  20.510  24.894  1.00  0.00     0.006 A 
ENDBRANCH  85  86
ENDBRANCH  78  80
ENDBRANCH  77  78
ENDBRANCH  76  77
ENDBRANCH  75  76
ENDBRANCH  74  75
ENDBRANCH  73  74
ENDBRANCH   1  73
TORSDOF 21
ENDMDL
