MODEL 1
REMARK VINA RESULT:     -10.5      0.000      0.000
REMARK SMILES Cc1nc(S(=O)(=O)N2C[C@@H](C(=O)OCCOCCOCCOC(=O)c3ccc(-c4c5nc(c(-c6cccc(S(=O)(=O)[O-])c6F)c6ccc([nH]6)c(-c6cccc(S(=O)(=O)[O-])c6F)c6nc(c(-c7cccc(S(=O)(=O)[O-])c7F)c7ccc4[nH]7)C=C6)C=C5)cc3)c3ccccc32)cn1C
REMARK SMILES IDX 18 1 17 2 16 3 15 4 14 5 13 6 11 7 12 8 10 9 8 10 9 11 93 12
REMARK SMILES IDX 88 13 92 14 89 15 91 16 90 17 5 18 6 19 7 20 4 21 1 22 2 23
REMARK SMILES IDX 3 24 95 25 94 26 96 27 19 28 20 29 21 30 22 31 23 32 24 33
REMARK SMILES IDX 25 34 26 35 87 36 27 37 86 38 28 39 29 40 30 41 80 42 31 43
REMARK SMILES IDX 85 44 79 45 81 46 32 47 84 48 78 49 77 50 33 52 65 53 45 54
REMARK SMILES IDX 64 55 46 56 49 57 63 58 82 59 47 60 48 61 62 63 83 64 50 65
REMARK SMILES IDX 34 66 35 67 43 68 36 69 38 70 44 71 37 72 39 73 40 74 41 75
REMARK SMILES IDX 42 76 66 77 67 78 75 79 68 80 70 81 76 82 69 83 71 84 72 85
REMARK SMILES IDX 73 86 74 87 51 88 52 89 60 90 53 91 55 92 61 93 54 94 56 95
REMARK SMILES IDX 57 96 58 97 59 98
REMARK H PARENT 81 51 49 62
REMARK Flexibility Score: inf
ROOT
ATOM      1  C   UNL A   1      37.189  21.656  25.777  1.00  0.00     0.188 C 
ENDROOT
BRANCH   1   2
ATOM      2  C   UNL A   1      37.456  23.151  25.620  1.00  0.00     0.188 C 
BRANCH   2   3
ATOM      3  O   UNL A   1      36.379  23.981  25.210  1.00  0.00    -0.376 OA
BRANCH   3   4
ATOM      4  C   UNL A   1      35.214  23.394  24.641  1.00  0.00     0.202 C 
BRANCH   4   5
ATOM      5  C   UNL A   1      35.283  22.989  23.167  1.00  0.00     0.261 C 
BRANCH   5   6
ATOM      6  O   UNL A   1      34.210  23.506  22.332  1.00  0.00    -0.463 OA
BRANCH   6   7
ATOM      7  C   UNL A   1      32.998  22.945  22.562  1.00  0.00     0.315 C 
ATOM      8  O   UNL A   1      32.743  21.771  22.298  1.00  0.00    -0.251 OA
BRANCH   7   9
ATOM      9  C   UNL A   1      31.901  23.821  23.097  1.00  0.00     0.152 C 
ATOM     10  N   UNL A   1      31.597  26.096  23.778  1.00  0.00    -0.263 N 
ATOM     11  C   UNL A   1      32.390  25.268  22.851  1.00  0.00     0.156 C 
ATOM     12  C   UNL A   1      31.133  25.266  24.832  1.00  0.00     0.056 A 
ATOM     13  C   UNL A   1      31.379  23.918  24.517  1.00  0.00    -0.008 A 
ATOM     14  C   UNL A   1      30.410  25.651  25.951  1.00  0.00     0.027 A 
ATOM     15  C   UNL A   1      30.879  22.942  25.368  1.00  0.00     0.007 A 
ATOM     16  C   UNL A   1      29.950  24.662  26.817  1.00  0.00     0.002 A 
ATOM     17  C   UNL A   1      30.184  23.316  26.528  1.00  0.00     0.000 A 
BRANCH  10  18
ATOM     18  S   UNL A   1      31.968  27.720  23.971  1.00  0.00     0.283 S 
ATOM     19  O   UNL A   1      32.918  28.088  22.933  1.00  0.00    -0.199 OA
ATOM     20  O   UNL A   1      32.240  27.959  25.371  1.00  0.00    -0.199 OA
BRANCH  18  21
ATOM     21  C   UNL A   1      30.585  28.741  23.618  1.00  0.00     0.194 A 
ATOM     22  C   UNL A   1      28.948  31.950  23.788  1.00  0.00     0.088 C 
ATOM     23  C   UNL A   1      29.417  30.562  23.554  1.00  0.00     0.106 A 
ATOM     24  N   UNL A   1      30.460  30.018  24.145  1.00  0.00    -0.220 NA
ATOM     25  N   UNL A   1      28.854  29.675  22.667  1.00  0.00    -0.337 N 
ATOM     26  C   UNL A   1      29.545  28.495  22.743  1.00  0.00     0.129 A 
ATOM     27  C   UNL A   1      27.777  29.952  21.747  1.00  0.00     0.151 C 
ENDBRANCH  18  21
ENDBRANCH  10  18
ENDBRANCH   7   9
ENDBRANCH   6   7
ENDBRANCH   5   6
ENDBRANCH   4   5
ENDBRANCH   3   4
ENDBRANCH   2   3
ENDBRANCH   1   2
BRANCH   1  28
ATOM     28  O   UNL A   1      37.712  20.888  24.706  1.00  0.00    -0.376 OA
BRANCH  28  29
ATOM     29  C   UNL A   1      38.283  19.628  25.029  1.00  0.00     0.202 C 
BRANCH  29  30
ATOM     30  C   UNL A   1      39.445  19.806  26.010  1.00  0.00     0.261 C 
BRANCH  30  31
ATOM     31  O   UNL A   1      40.700  19.355  25.477  1.00  0.00    -0.460 OA
BRANCH  31  32
ATOM     32  C   UNL A   1      41.757  19.411  26.322  1.00  0.00     0.338 C 
ATOM     33  O   UNL A   1      42.524  18.501  26.595  1.00  0.00    -0.246 OA
BRANCH  32  34
ATOM     34  C   UNL A   1      41.989  20.830  26.661  1.00  0.00     0.060 A 
ATOM     35  C   UNL A   1      42.011  21.769  25.620  1.00  0.00     0.016 A 
ATOM     36  C   UNL A   1      42.133  21.236  27.991  1.00  0.00     0.016 A 
ATOM     37  C   UNL A   1      42.229  23.116  25.906  1.00  0.00     0.010 A 
ATOM     38  C   UNL A   1      42.358  22.582  28.273  1.00  0.00     0.010 A 
ATOM     39  C   UNL A   1      42.445  23.519  27.231  1.00  0.00    -0.014 A 
BRANCH  39  40
ATOM     40  C   UNL A   1      42.965  24.873  27.525  1.00  0.00     0.031 A 
ATOM     41  C   UNL A   1      42.008  25.893  28.073  1.00  0.00     0.074 A 
ATOM     42  C   UNL A   1      44.242  25.203  27.270  1.00  0.00     0.049 A 
ATOM     43  N   UNL A   1      42.212  27.150  28.361  1.00  0.00    -0.248 NA
ATOM     44  C   UNL A   1      40.630  25.432  28.320  1.00  0.00     0.031 C 
ATOM     45  C   UNL A   1      45.261  24.303  26.733  1.00  0.00     0.029 A 
ATOM     46  N   UNL A   1      44.890  26.405  27.407  1.00  0.00    -0.354 N 
ATOM     47  C   UNL A   1      40.987  27.638  28.798  1.00  0.00     0.074 A 
ATOM     48  C   UNL A   1      40.041  26.546  28.723  1.00  0.00     0.031 C 
ATOM     49  C   UNL A   1      46.404  24.993  26.566  1.00  0.00     0.029 A 
ATOM     50  C   UNL A   1      46.189  26.383  26.963  1.00  0.00     0.049 A 
ATOM     51  H   UNL A   1      44.462  27.207  27.787  1.00  0.00     0.167 HD
ATOM     52  C   UNL A   1      40.678  28.877  29.243  1.00  0.00     0.034 A 
ATOM     53  C   UNL A   1      47.095  27.378  26.878  1.00  0.00     0.034 A 
ATOM     54  C   UNL A   1      41.620  29.959  29.330  1.00  0.00     0.049 A 
ATOM     55  C   UNL A   1      46.719  28.760  27.348  1.00  0.00     0.074 A 
ATOM     56  C   UNL A   1      41.419  31.238  29.815  1.00  0.00     0.029 A 
ATOM     57  N   UNL A   1      42.937  29.891  28.905  1.00  0.00    -0.354 N 
ATOM     58  N   UNL A   1      45.597  29.176  27.886  1.00  0.00    -0.248 NA
ATOM     59  C   UNL A   1      47.745  29.807  27.223  1.00  0.00     0.031 C 
ATOM     60  C   UNL A   1      42.614  31.951  29.665  1.00  0.00     0.029 A 
ATOM     61  C   UNL A   1      43.561  31.111  29.102  1.00  0.00     0.049 A 
ATOM     62  H   UNL A   1      43.367  29.094  28.520  1.00  0.00     0.167 HD
ATOM     63  C   UNL A   1      45.793  30.518  28.197  1.00  0.00     0.074 A 
ATOM     64  C   UNL A   1      47.148  30.843  27.798  1.00  0.00     0.031 C 
ATOM     65  C   UNL A   1      44.927  31.404  28.748  1.00  0.00     0.034 A 
BRANCH  52  66
ATOM     66  C   UNL A   1      39.263  29.110  29.692  1.00  0.00     0.023 A 
ATOM     67  C   UNL A   1      38.885  28.754  31.003  1.00  0.00     0.012 A 
ATOM     68  C   UNL A   1      38.311  29.682  28.828  1.00  0.00     0.148 A 
ATOM     69  C   UNL A   1      37.571  28.929  31.435  1.00  0.00     0.002 A 
ATOM     70  C   UNL A   1      37.012  29.890  29.280  1.00  0.00     0.091 A 
ATOM     71  F   UNL A   1      38.679  29.980  27.575  1.00  0.00    -0.205 F 
ATOM     72  C   UNL A   1      36.638  29.505  30.577  1.00  0.00     0.022 A 
BRANCH  70  73
ATOM     73  S   UNL A   1      35.766  30.685  28.260  1.00  0.00     0.127 S 
ATOM     74  O   UNL A   1      36.495  31.845  27.751  1.00  0.00    -0.237 OA
ATOM     75  O   UNL A   1      35.480  29.657  27.257  1.00  0.00    -0.237 OA
ATOM     76  O   UNL A   1      34.655  30.977  29.155  1.00  0.00    -0.744 OA
ENDBRANCH  70  73
ENDBRANCH  52  66
BRANCH  53  77
ATOM     77  C   UNL A   1      48.469  27.090  26.380  1.00  0.00     0.023 A 
ATOM     78  C   UNL A   1      49.383  26.436  27.228  1.00  0.00     0.012 A 
ATOM     79  C   UNL A   1      48.864  27.428  25.071  1.00  0.00     0.148 A 
ATOM     80  C   UNL A   1      50.674  26.142  26.789  1.00  0.00     0.002 A 
ATOM     81  C   UNL A   1      50.136  27.090  24.624  1.00  0.00     0.091 A 
ATOM     82  F   UNL A   1      47.982  28.063  24.287  1.00  0.00    -0.205 F 
ATOM     83  C   UNL A   1      51.047  26.458  25.486  1.00  0.00     0.022 A 
BRANCH  81  84
ATOM     84  S   UNL A   1      50.671  27.357  22.931  1.00  0.00     0.127 S 
ATOM     85  O   UNL A   1      52.015  26.786  22.947  1.00  0.00    -0.237 OA
ATOM     86  O   UNL A   1      49.681  26.586  22.179  1.00  0.00    -0.237 OA
ATOM     87  O   UNL A   1      50.602  28.796  22.718  1.00  0.00    -0.744 OA
ENDBRANCH  81  84
ENDBRANCH  53  77
BRANCH  65  88
ATOM     88  C   UNL A   1      45.416  32.810  28.986  1.00  0.00     0.023 A 
ATOM     89  C   UNL A   1      46.079  33.123  30.188  1.00  0.00     0.012 A 
ATOM     90  C   UNL A   1      45.301  33.794  27.983  1.00  0.00     0.148 A 
ATOM     91  C   UNL A   1      46.597  34.401  30.400  1.00  0.00     0.002 A 
ATOM     92  C   UNL A   1      45.859  35.051  28.182  1.00  0.00     0.091 A 
ATOM     93  F   UNL A   1      44.650  33.482  26.852  1.00  0.00    -0.205 F 
ATOM     94  C   UNL A   1      46.499  35.359  29.393  1.00  0.00     0.022 A 
BRANCH  92  95
ATOM     95  S   UNL A   1      45.864  36.312  26.902  1.00  0.00     0.127 S 
ATOM     96  O   UNL A   1      46.982  37.156  27.320  1.00  0.00    -0.237 OA
ATOM     97  O   UNL A   1      46.110  35.530  25.691  1.00  0.00    -0.237 OA
ATOM     98  O   UNL A   1      44.550  36.939  26.956  1.00  0.00    -0.744 OA
ENDBRANCH  92  95
ENDBRANCH  65  88
ENDBRANCH  39  40
ENDBRANCH  32  34
ENDBRANCH  31  32
ENDBRANCH  30  31
ENDBRANCH  29  30
ENDBRANCH  28  29
ENDBRANCH   1  28
TORSDOF 22
ENDMDL
MODEL 2
REMARK VINA RESULT:     -10.3      1.760      2.231
REMARK SMILES Cc1nc(S(=O)(=O)N2C[C@@H](C(=O)OCCOCCOCCOC(=O)c3ccc(-c4c5nc(c(-c6cccc(S(=O)(=O)[O-])c6F)c6ccc([nH]6)c(-c6cccc(S(=O)(=O)[O-])c6F)c6nc(c(-c7cccc(S(=O)(=O)[O-])c7F)c7ccc4[nH]7)C=C6)C=C5)cc3)c3ccccc32)cn1C
REMARK SMILES IDX 18 1 17 2 16 3 15 4 14 5 13 6 11 7 12 8 10 9 8 10 9 11 93 12
REMARK SMILES IDX 88 13 92 14 89 15 91 16 90 17 5 18 6 19 7 20 4 21 1 22 2 23
REMARK SMILES IDX 3 24 95 25 94 26 96 27 19 28 20 29 21 30 22 31 23 32 24 33
REMARK SMILES IDX 25 34 26 35 87 36 27 37 86 38 28 39 29 40 30 41 80 42 31 43
REMARK SMILES IDX 85 44 79 45 81 46 32 47 84 48 78 49 77 50 33 52 65 53 45 54
REMARK SMILES IDX 64 55 46 56 49 57 63 58 82 59 47 60 48 61 62 63 83 64 50 65
REMARK SMILES IDX 34 66 35 67 43 68 36 69 38 70 44 71 37 72 39 73 40 74 41 75
REMARK SMILES IDX 42 76 66 77 67 78 75 79 68 80 70 81 76 82 69 83 71 84 72 85
REMARK SMILES IDX 73 86 74 87 51 88 52 89 60 90 53 91 55 92 61 93 54 94 56 95
REMARK SMILES IDX 57 96 58 97 59 98
REMARK H PARENT 81 51 49 62
REMARK Flexibility Score: inf
ROOT
ATOM      1  C   UNL A   1      37.317  21.430  25.839  1.00  0.00     0.188 C 
ENDROOT
BRANCH   1   2
ATOM      2  C   UNL A   1      37.474  22.946  25.741  1.00  0.00     0.188 C 
BRANCH   2   3
ATOM      3  O   UNL A   1      37.051  23.583  24.543  1.00  0.00    -0.376 OA
BRANCH   3   4
ATOM      4  C   UNL A   1      35.661  23.756  24.290  1.00  0.00     0.202 C 
BRANCH   4   5
ATOM      5  C   UNL A   1      34.793  22.496  24.262  1.00  0.00     0.261 C 
BRANCH   5   6
ATOM      6  O   UNL A   1      34.050  22.284  23.030  1.00  0.00    -0.463 OA
BRANCH   6   7
ATOM      7  C   UNL A   1      32.755  21.925  23.208  1.00  0.00     0.315 C 
ATOM      8  O   UNL A   1      32.386  20.752  23.259  1.00  0.00    -0.251 OA
BRANCH   7   9
ATOM      9  C   UNL A   1      31.721  23.012  23.275  1.00  0.00     0.152 C 
ATOM     10  N   UNL A   1      31.568  25.366  22.869  1.00  0.00    -0.263 N 
ATOM     11  C   UNL A   1      32.299  24.166  22.422  1.00  0.00     0.156 C 
ATOM     12  C   UNL A   1      31.061  25.121  24.171  1.00  0.00     0.056 A 
ATOM     13  C   UNL A   1      31.218  23.762  24.493  1.00  0.00    -0.008 A 
ATOM     14  C   UNL A   1      30.373  26.007  24.987  1.00  0.00     0.027 A 
ATOM     15  C   UNL A   1      30.664  23.299  25.679  1.00  0.00     0.007 A 
ATOM     16  C   UNL A   1      29.859  25.537  26.193  1.00  0.00     0.002 A 
ATOM     17  C   UNL A   1      30.004  24.191  26.537  1.00  0.00     0.000 A 
BRANCH  10  18
ATOM     18  S   UNL A   1      32.043  26.881  22.328  1.00  0.00     0.283 S 
ATOM     19  O   UNL A   1      30.860  27.571  21.837  1.00  0.00    -0.199 OA
ATOM     20  O   UNL A   1      33.224  26.720  21.510  1.00  0.00    -0.199 OA
BRANCH  18  21
ATOM     21  C   UNL A   1      32.571  27.901  23.654  1.00  0.00     0.194 A 
ATOM     22  C   UNL A   1      31.903  30.535  26.026  1.00  0.00     0.088 C 
ATOM     23  C   UNL A   1      32.405  29.413  25.193  1.00  0.00     0.106 A 
ATOM     24  N   UNL A   1      31.820  28.979  24.097  1.00  0.00    -0.220 NA
ATOM     25  N   UNL A   1      33.519  28.657  25.472  1.00  0.00    -0.337 N 
ATOM     26  C   UNL A   1      33.672  27.735  24.471  1.00  0.00     0.129 A 
ATOM     27  C   UNL A   1      34.342  28.749  26.654  1.00  0.00     0.151 C 
ENDBRANCH  18  21
ENDBRANCH  10  18
ENDBRANCH   7   9
ENDBRANCH   6   7
ENDBRANCH   5   6
ENDBRANCH   4   5
ENDBRANCH   3   4
ENDBRANCH   2   3
ENDBRANCH   1   2
BRANCH   1  28
ATOM     28  O   UNL A   1      37.921  20.742  24.757  1.00  0.00    -0.376 OA
BRANCH  28  29
ATOM     29  C   UNL A   1      38.594  19.528  25.054  1.00  0.00     0.202 C 
BRANCH  29  30
ATOM     30  C   UNL A   1      39.809  19.796  25.946  1.00  0.00     0.261 C 
BRANCH  30  31
ATOM     31  O   UNL A   1      41.029  19.268  25.402  1.00  0.00    -0.460 OA
BRANCH  31  32
ATOM     32  C   UNL A   1      42.108  19.305  26.220  1.00  0.00     0.338 C 
ATOM     33  O   UNL A   1      42.836  18.371  26.513  1.00  0.00    -0.246 OA
BRANCH  32  34
ATOM     34  C   UNL A   1      42.417  20.723  26.495  1.00  0.00     0.060 A 
ATOM     35  C   UNL A   1      42.665  21.574  25.408  1.00  0.00     0.016 A 
ATOM     36  C   UNL A   1      42.412  21.219  27.802  1.00  0.00     0.016 A 
ATOM     37  C   UNL A   1      42.962  22.918  25.633  1.00  0.00     0.010 A 
ATOM     38  C   UNL A   1      42.715  22.561  28.024  1.00  0.00     0.010 A 
ATOM     39  C   UNL A   1      43.028  23.404  26.946  1.00  0.00    -0.014 A 
BRANCH  39  40
ATOM     40  C   UNL A   1      43.622  24.732  27.222  1.00  0.00     0.031 A 
ATOM     41  C   UNL A   1      42.712  25.825  27.705  1.00  0.00     0.074 A 
ATOM     42  C   UNL A   1      44.926  24.975  27.006  1.00  0.00     0.049 A 
ATOM     43  N   UNL A   1      42.984  27.075  27.966  1.00  0.00    -0.248 NA
ATOM     44  C   UNL A   1      41.300  25.458  27.913  1.00  0.00     0.031 C 
ATOM     45  C   UNL A   1      45.904  23.997  26.532  1.00  0.00     0.029 A 
ATOM     46  N   UNL A   1      45.642  26.137  27.134  1.00  0.00    -0.354 N 
ATOM     47  C   UNL A   1      41.778  27.650  28.343  1.00  0.00     0.074 A 
ATOM     48  C   UNL A   1      40.769  26.618  28.263  1.00  0.00     0.031 C 
ATOM     49  C   UNL A   1      47.093  24.609  26.389  1.00  0.00     0.029 A 
ATOM     50  C   UNL A   1      46.953  26.021  26.740  1.00  0.00     0.049 A 
ATOM     51  H   UNL A   1      45.253  26.975  27.475  1.00  0.00     0.167 HD
ATOM     52  C   UNL A   1      41.532  28.920  28.742  1.00  0.00     0.034 A 
ATOM     53  C   UNL A   1      47.922  26.956  26.661  1.00  0.00     0.034 A 
ATOM     54  C   UNL A   1      42.536  29.942  28.834  1.00  0.00     0.049 A 
ATOM     55  C   UNL A   1      47.617  28.372  27.079  1.00  0.00     0.074 A 
ATOM     56  C   UNL A   1      42.400  31.246  29.277  1.00  0.00     0.029 A 
ATOM     57  N   UNL A   1      43.861  29.781  28.461  1.00  0.00    -0.354 N 
ATOM     58  N   UNL A   1      46.505  28.872  27.562  1.00  0.00    -0.248 NA
ATOM     59  C   UNL A   1      48.711  29.349  26.964  1.00  0.00     0.031 C 
ATOM     60  C   UNL A   1      43.641  31.879  29.152  1.00  0.00     0.029 A 
ATOM     61  C   UNL A   1      44.554  30.965  28.648  1.00  0.00     0.049 A 
ATOM     62  H   UNL A   1      44.253  28.947  28.114  1.00  0.00     0.167 HD
ATOM     63  C   UNL A   1      46.774  30.208  27.843  1.00  0.00     0.074 A 
ATOM     64  C   UNL A   1      48.160  30.436  27.487  1.00  0.00     0.031 C 
ATOM     65  C   UNL A   1      45.947  31.163  28.338  1.00  0.00     0.034 A 
BRANCH  52  66
ATOM     66  C   UNL A   1      40.119  29.253  29.131  1.00  0.00     0.023 A 
ATOM     67  C   UNL A   1      39.179  29.566  28.128  1.00  0.00     0.012 A 
ATOM     68  C   UNL A   1      39.718  29.252  30.480  1.00  0.00     0.148 A 
ATOM     69  C   UNL A   1      37.871  29.910  28.464  1.00  0.00     0.002 A 
ATOM     70  C   UNL A   1      38.400  29.557  30.804  1.00  0.00     0.091 A 
ATOM     71  F   UNL A   1      40.634  28.988  31.422  1.00  0.00    -0.205 F 
ATOM     72  C   UNL A   1      37.479  29.897  29.800  1.00  0.00     0.022 A 
BRANCH  70  73
ATOM     73  S   UNL A   1      37.799  29.501  32.494  1.00  0.00     0.127 S 
ATOM     74  O   UNL A   1      38.238  28.175  32.922  1.00  0.00    -0.237 OA
ATOM     75  O   UNL A   1      38.519  30.612  33.120  1.00  0.00    -0.237 OA
ATOM     76  O   UNL A   1      36.358  29.694  32.405  1.00  0.00    -0.744 OA
ENDBRANCH  70  73
ENDBRANCH  52  66
BRANCH  53  77
ATOM     77  C   UNL A   1      49.292  26.568  26.224  1.00  0.00     0.023 A 
ATOM     78  C   UNL A   1      50.046  25.690  27.026  1.00  0.00     0.012 A 
ATOM     79  C   UNL A   1      49.837  27.034  25.012  1.00  0.00     0.148 A 
ATOM     80  C   UNL A   1      51.328  25.299  26.639  1.00  0.00     0.002 A 
ATOM     81  C   UNL A   1      51.096  26.603  24.609  1.00  0.00     0.091 A 
ATOM     82  F   UNL A   1      49.107  27.880  24.272  1.00  0.00    -0.205 F 
ATOM     83  C   UNL A   1      51.849  25.746  25.428  1.00  0.00     0.022 A 
BRANCH  81  84
ATOM     84  S   UNL A   1      51.805  27.037  23.017  1.00  0.00     0.127 S 
ATOM     85  O   UNL A   1      51.949  28.485  23.137  1.00  0.00    -0.237 OA
ATOM     86  O   UNL A   1      53.062  26.288  23.036  1.00  0.00    -0.237 OA
ATOM     87  O   UNL A   1      50.847  26.580  22.021  1.00  0.00    -0.744 OA
ENDBRANCH  81  84
ENDBRANCH  53  77
BRANCH  65  88
ATOM     88  C   UNL A   1      46.515  32.542  28.554  1.00  0.00     0.023 A 
ATOM     89  C   UNL A   1      47.017  32.897  29.821  1.00  0.00     0.012 A 
ATOM     90  C   UNL A   1      46.634  33.450  27.483  1.00  0.00     0.148 A 
ATOM     91  C   UNL A   1      47.607  34.145  30.025  1.00  0.00     0.002 A 
ATOM     92  C   UNL A   1      47.263  34.674  27.683  1.00  0.00     0.091 A 
ATOM     93  F   UNL A   1      46.134  33.101  26.289  1.00  0.00    -0.205 F 
ATOM     94  C   UNL A   1      47.741  35.026  28.955  1.00  0.00     0.022 A 
BRANCH  92  95
ATOM     95  S   UNL A   1      47.566  35.827  26.338  1.00  0.00     0.127 S 
ATOM     96  O   UNL A   1      46.217  36.312  26.053  1.00  0.00    -0.237 OA
ATOM     97  O   UNL A   1      48.450  36.812  26.962  1.00  0.00    -0.237 OA
ATOM     98  O   UNL A   1      48.190  35.046  25.278  1.00  0.00    -0.744 OA
ENDBRANCH  92  95
ENDBRANCH  65  88
ENDBRANCH  39  40
ENDBRANCH  32  34
ENDBRANCH  31  32
ENDBRANCH  30  31
ENDBRANCH  29  30
ENDBRANCH  28  29
ENDBRANCH   1  28
TORSDOF 22
ENDMDL
MODEL 3
REMARK VINA RESULT:     -10.0      6.477     10.527
REMARK SMILES Cc1nc(S(=O)(=O)N2C[C@@H](C(=O)OCCOCCOCCOC(=O)c3ccc(-c4c5nc(c(-c6cccc(S(=O)(=O)[O-])c6F)c6ccc([nH]6)c(-c6cccc(S(=O)(=O)[O-])c6F)c6nc(c(-c7cccc(S(=O)(=O)[O-])c7F)c7ccc4[nH]7)C=C6)C=C5)cc3)c3ccccc32)cn1C
REMARK SMILES IDX 18 1 17 2 16 3 15 4 14 5 13 6 11 7 12 8 10 9 8 10 9 11 93 12
REMARK SMILES IDX 88 13 92 14 89 15 91 16 90 17 5 18 6 19 7 20 4 21 1 22 2 23
REMARK SMILES IDX 3 24 95 25 94 26 96 27 19 28 20 29 21 30 22 31 23 32 24 33
REMARK SMILES IDX 25 34 26 35 87 36 27 37 86 38 28 39 29 40 30 41 80 42 31 43
REMARK SMILES IDX 85 44 79 45 81 46 32 47 84 48 78 49 77 50 33 52 65 53 45 54
REMARK SMILES IDX 64 55 46 56 49 57 63 58 82 59 47 60 48 61 62 63 83 64 50 65
REMARK SMILES IDX 34 66 35 67 43 68 36 69 38 70 44 71 37 72 39 73 40 74 41 75
REMARK SMILES IDX 42 76 66 77 67 78 75 79 68 80 70 81 76 82 69 83 71 84 72 85
REMARK SMILES IDX 73 86 74 87 51 88 52 89 60 90 53 91 55 92 61 93 54 94 56 95
REMARK SMILES IDX 57 96 58 97 59 98
REMARK H PARENT 81 51 49 62
REMARK Flexibility Score: inf
ROOT
ATOM      1  C   UNL A   1      35.252  32.887  28.107  1.00  0.00     0.188 C 
ENDROOT
BRANCH   1   2
ATOM      2  C   UNL A   1      34.305  31.720  27.834  1.00  0.00     0.188 C 
BRANCH   2   3
ATOM      3  O   UNL A   1      34.834  30.568  27.191  1.00  0.00    -0.376 OA
BRANCH   3   4
ATOM      4  C   UNL A   1      33.965  29.501  26.830  1.00  0.00     0.202 C 
BRANCH   4   5
ATOM      5  C   UNL A   1      32.461  29.780  26.872  1.00  0.00     0.261 C 
BRANCH   5   6
ATOM      6  O   UNL A   1      31.647  28.910  26.037  1.00  0.00    -0.463 OA
BRANCH   6   7
ATOM      7  C   UNL A   1      31.330  27.721  26.604  1.00  0.00     0.315 C 
ATOM      8  O   UNL A   1      31.222  27.567  27.821  1.00  0.00    -0.251 OA
BRANCH   7   9
ATOM      9  C   UNL A   1      31.175  26.526  25.707  1.00  0.00     0.152 C 
ATOM     10  N   UNL A   1      31.836  24.226  25.658  1.00  0.00    -0.263 N 
ATOM     11  C   UNL A   1      31.506  25.309  26.602  1.00  0.00     0.156 C 
ATOM     12  C   UNL A   1      32.226  24.812  24.426  1.00  0.00     0.056 A 
ATOM     13  C   UNL A   1      31.944  26.188  24.445  1.00  0.00    -0.008 A 
ATOM     14  C   UNL A   1      32.681  24.159  23.290  1.00  0.00     0.027 A 
ATOM     15  C   UNL A   1      32.137  26.915  23.279  1.00  0.00     0.007 A 
ATOM     16  C   UNL A   1      32.910  24.909  22.139  1.00  0.00     0.002 A 
ATOM     17  C   UNL A   1      32.640  26.279  22.134  1.00  0.00     0.000 A 
BRANCH  10  18
ATOM     18  S   UNL A   1      32.453  22.777  26.234  1.00  0.00     0.283 S 
ATOM     19  O   UNL A   1      31.805  21.695  25.508  1.00  0.00    -0.199 OA
ATOM     20  O   UNL A   1      32.457  22.828  27.678  1.00  0.00    -0.199 OA
BRANCH  18  21
ATOM     21  C   UNL A   1      34.143  22.582  25.803  1.00  0.00     0.194 A 
ATOM     22  C   UNL A   1      37.563  23.712  25.989  1.00  0.00     0.088 C 
ATOM     23  C   UNL A   1      36.261  23.027  25.794  1.00  0.00     0.106 A 
ATOM     24  N   UNL A   1      35.091  23.554  26.086  1.00  0.00    -0.220 NA
ATOM     25  N   UNL A   1      36.103  21.747  25.319  1.00  0.00    -0.337 N 
ATOM     26  C   UNL A   1      34.762  21.473  25.260  1.00  0.00     0.129 A 
ATOM     27  C   UNL A   1      37.158  20.811  25.015  1.00  0.00     0.151 C 
ENDBRANCH  18  21
ENDBRANCH  10  18
ENDBRANCH   7   9
ENDBRANCH   6   7
ENDBRANCH   5   6
ENDBRANCH   4   5
ENDBRANCH   3   4
ENDBRANCH   2   3
ENDBRANCH   1   2
BRANCH   1  28
ATOM     28  O   UNL A   1      34.729  33.811  29.047  1.00  0.00    -0.376 OA
BRANCH  28  29
ATOM     29  C   UNL A   1      33.906  34.852  28.544  1.00  0.00     0.202 C 
BRANCH  29  30
ATOM     30  C   UNL A   1      32.846  35.241  29.579  1.00  0.00     0.261 C 
BRANCH  30  31
ATOM     31  O   UNL A   1      33.361  36.094  30.613  1.00  0.00    -0.460 OA
BRANCH  31  32
ATOM     32  C   UNL A   1      33.363  35.575  31.864  1.00  0.00     0.338 C 
ATOM     33  O   UNL A   1      32.462  35.643  32.685  1.00  0.00    -0.246 OA
BRANCH  32  34
ATOM     34  C   UNL A   1      34.535  34.684  31.982  1.00  0.00     0.060 A 
ATOM     35  C   UNL A   1      34.322  33.346  32.342  1.00  0.00     0.016 A 
ATOM     36  C   UNL A   1      35.822  35.147  31.691  1.00  0.00     0.016 A 
ATOM     37  C   UNL A   1      35.407  32.479  32.464  1.00  0.00     0.010 A 
ATOM     38  C   UNL A   1      36.905  34.281  31.820  1.00  0.00     0.010 A 
ATOM     39  C   UNL A   1      36.706  32.957  32.244  1.00  0.00    -0.014 A 
BRANCH  39  40
ATOM     40  C   UNL A   1      37.878  32.148  32.648  1.00  0.00     0.031 A 
ATOM     41  C   UNL A   1      38.566  32.499  33.937  1.00  0.00     0.074 A 
ATOM     42  C   UNL A   1      38.347  31.158  31.872  1.00  0.00     0.049 A 
ATOM     43  N   UNL A   1      39.633  31.975  34.476  1.00  0.00    -0.248 NA
ATOM     44  C   UNL A   1      37.973  33.599  34.718  1.00  0.00     0.031 C 
ATOM     45  C   UNL A   1      37.769  30.730  30.600  1.00  0.00     0.029 A 
ATOM     46  N   UNL A   1      39.443  30.349  32.036  1.00  0.00    -0.354 N 
ATOM     47  C   UNL A   1      39.855  32.693  35.643  1.00  0.00     0.074 A 
ATOM     48  C   UNL A   1      38.822  33.702  35.728  1.00  0.00     0.031 C 
ATOM     49  C   UNL A   1      38.531  29.748  30.086  1.00  0.00     0.029 A 
ATOM     50  C   UNL A   1      39.658  29.495  30.982  1.00  0.00     0.049 A 
ATOM     51  H   UNL A   1      40.020  30.379  32.833  1.00  0.00     0.167 HD
ATOM     52  C   UNL A   1      40.820  32.520  36.576  1.00  0.00     0.034 A 
ATOM     53  C   UNL A   1      40.660  28.619  30.764  1.00  0.00     0.034 A 
ATOM     54  C   UNL A   1      41.839  31.510  36.500  1.00  0.00     0.049 A 
ATOM     55  C   UNL A   1      41.744  28.465  31.801  1.00  0.00     0.074 A 
ATOM     56  C   UNL A   1      42.831  31.218  37.418  1.00  0.00     0.029 A 
ATOM     57  N   UNL A   1      42.006  30.638  35.435  1.00  0.00    -0.354 N 
ATOM     58  N   UNL A   1      41.867  29.058  32.965  1.00  0.00    -0.248 NA
ATOM     59  C   UNL A   1      42.814  27.500  31.505  1.00  0.00     0.031 C 
ATOM     60  C   UNL A   1      43.611  30.179  36.897  1.00  0.00     0.029 A 
ATOM     61  C   UNL A   1      43.095  29.815  35.664  1.00  0.00     0.049 A 
ATOM     62  H   UNL A   1      41.435  30.609  34.634  1.00  0.00     0.167 HD
ATOM     63  C   UNL A   1      43.004  28.513  33.555  1.00  0.00     0.074 A 
ATOM     64  C   UNL A   1      43.526  27.533  32.624  1.00  0.00     0.031 C 
ATOM     65  C   UNL A   1      43.572  28.807  34.751  1.00  0.00     0.034 A 
BRANCH  52  66
ATOM     66  C   UNL A   1      40.792  33.434  37.769  1.00  0.00     0.023 A 
ATOM     67  C   UNL A   1      41.633  34.565  37.795  1.00  0.00     0.012 A 
ATOM     68  C   UNL A   1      39.936  33.181  38.856  1.00  0.00     0.148 A 
ATOM     69  C   UNL A   1      41.650  35.411  38.903  1.00  0.00     0.002 A 
ATOM     70  C   UNL A   1      39.930  34.053  39.940  1.00  0.00     0.091 A 
ATOM     71  F   UNL A   1      39.171  32.082  38.830  1.00  0.00    -0.205 F 
ATOM     72  C   UNL A   1      40.792  35.160  39.971  1.00  0.00     0.022 A 
BRANCH  70  73
ATOM     73  S   UNL A   1      38.811  33.837  41.328  1.00  0.00     0.127 S 
ATOM     74  O   UNL A   1      39.300  32.591  41.913  1.00  0.00    -0.237 OA
ATOM     75  O   UNL A   1      39.074  35.033  42.132  1.00  0.00    -0.237 OA
ATOM     76  O   UNL A   1      37.475  33.785  40.750  1.00  0.00    -0.744 OA
ENDBRANCH  70  73
ENDBRANCH  52  66
BRANCH  53  77
ATOM     77  C   UNL A   1      40.652  27.774  29.538  1.00  0.00     0.023 A 
ATOM     78  C   UNL A   1      39.754  26.692  29.454  1.00  0.00     0.012 A 
ATOM     79  C   UNL A   1      41.501  28.050  28.448  1.00  0.00     0.148 A 
ATOM     80  C   UNL A   1      39.715  25.888  28.315  1.00  0.00     0.002 A 
ATOM     81  C   UNL A   1      41.423  27.274  27.297  1.00  0.00     0.091 A 
ATOM     82  F   UNL A   1      42.357  29.075  28.555  1.00  0.00    -0.205 F 
ATOM     83  C   UNL A   1      40.540  26.184  27.234  1.00  0.00     0.022 A 
BRANCH  81  84
ATOM     84  S   UNL A   1      42.366  27.643  25.814  1.00  0.00     0.127 S 
ATOM     85  O   UNL A   1      43.740  27.538  26.298  1.00  0.00    -0.237 OA
ATOM     86  O   UNL A   1      41.943  26.568  24.916  1.00  0.00    -0.237 OA
ATOM     87  O   UNL A   1      41.945  28.974  25.400  1.00  0.00    -0.744 OA
ENDBRANCH  81  84
ENDBRANCH  53  77
BRANCH  65  88
ATOM     88  C   UNL A   1      44.811  28.046  35.147  1.00  0.00     0.023 A 
ATOM     89  C   UNL A   1      46.080  28.596  34.884  1.00  0.00     0.012 A 
ATOM     90  C   UNL A   1      44.716  26.834  35.860  1.00  0.00     0.148 A 
ATOM     91  C   UNL A   1      47.238  27.939  35.301  1.00  0.00     0.002 A 
ATOM     92  C   UNL A   1      45.873  26.208  36.312  1.00  0.00     0.091 A 
ATOM     93  F   UNL A   1      43.500  26.317  36.085  1.00  0.00    -0.205 F 
ATOM     94  C   UNL A   1      47.134  26.754  36.025  1.00  0.00     0.022 A 
BRANCH  92  95
ATOM     95  S   UNL A   1      45.826  24.732  37.336  1.00  0.00     0.127 S 
ATOM     96  O   UNL A   1      45.024  25.182  38.471  1.00  0.00    -0.237 OA
ATOM     97  O   UNL A   1      45.160  23.765  36.464  1.00  0.00    -0.237 OA
ATOM     98  O   UNL A   1      47.216  24.412  37.636  1.00  0.00    -0.744 OA
ENDBRANCH  92  95
ENDBRANCH  65  88
ENDBRANCH  39  40
ENDBRANCH  32  34
ENDBRANCH  31  32
ENDBRANCH  30  31
ENDBRANCH  29  30
ENDBRANCH  28  29
ENDBRANCH   1  28
TORSDOF 22
ENDMDL
