MODEL 1
REMARK VINA RESULT:      -9.8      0.000      0.000
REMARK SMILES O=C(C[C@H]1CN(C(=O)NCc2ccc(Br)cc2)CCO1)OCCOCCOCCOC(=O)c1ccc(-c2c3nc(c(-c4cccc(S(=O)(=O)[O-])c4F)c4ccc([nH]4)c(-c4cccc(S(=O)(=O)[O-])c4F)c4nc(c(-c5cccc(S(=O)(=O)[O-])c5F)c5ccc2[nH]5)C=C4)C=C3)cc1
REMARK SMILES IDX 25 1 24 2 23 3 22 4 21 5 2 6 1 7 3 8 4 9 5 10 20 11 6 12
REMARK SMILES IDX 19 13 18 14 7 15 8 16 9 17 10 19 11 20 12 21 17 22 13 23
REMARK SMILES IDX 16 24 14 25 15 26 26 27 27 28 28 29 29 30 30 31 31 32 32 33
REMARK SMILES IDX 33 34 34 35 95 36 35 37 94 38 36 39 37 40 38 41 88 42 39 43
REMARK SMILES IDX 93 44 87 45 89 46 40 47 92 48 86 49 85 50 41 52 73 53 53 54
REMARK SMILES IDX 72 55 54 56 57 57 71 58 90 59 55 60 56 61 70 63 91 64 58 65
REMARK SMILES IDX 42 66 43 67 51 68 44 69 46 70 52 71 45 72 47 73 48 74 49 75
REMARK SMILES IDX 50 76 74 77 75 78 83 79 76 80 78 81 84 82 77 83 79 84 80 85
REMARK SMILES IDX 81 86 82 87 59 88 60 89 68 90 61 91 63 92 69 93 62 94 64 95
REMARK SMILES IDX 65 96 66 97 67 98
REMARK H PARENT 9 18 89 51 57 62
REMARK Flexibility Score: inf
ROOT
ATOM      1  C   UNL A   1      38.525  22.608  26.115  1.00  0.00     0.188 C 
ENDROOT
BRANCH   1   2
ATOM      2  O   UNL A   1      37.154  22.689  25.770  1.00  0.00    -0.376 OA
BRANCH   2   3
ATOM      3  C   UNL A   1      36.371  21.516  25.750  1.00  0.00     0.202 C 
BRANCH   3   4
ATOM      4  C   UNL A   1      35.030  21.654  26.466  1.00  0.00     0.261 C 
BRANCH   4   5
ATOM      5  O   UNL A   1      33.997  20.722  26.103  1.00  0.00    -0.463 OA
BRANCH   5   6
ATOM      6  C   UNL A   1      33.034  20.861  25.178  1.00  0.00     0.308 C 
ATOM      7  O   UNL A   1      32.007  20.190  25.274  1.00  0.00    -0.252 OA
BRANCH   6   8
ATOM      8  C   UNL A   1      33.278  21.705  23.962  1.00  0.00     0.156 C 
BRANCH   8   9
ATOM      9  C   UNL A   1      32.062  22.315  23.290  1.00  0.00     0.149 C 
ATOM     10  C   UNL A   1      31.670  23.613  24.039  1.00  0.00     0.154 C 
ATOM     11  O   UNL A   1      32.277  22.571  21.898  1.00  0.00    -0.374 OA
ATOM     12  N   UNL A   1      32.722  24.614  23.853  1.00  0.00    -0.320 N 
ATOM     13  C   UNL A   1      33.302  23.556  21.677  1.00  0.00     0.182 C 
ATOM     14  C   UNL A   1      33.008  24.862  22.431  1.00  0.00     0.150 C 
BRANCH  12  15
ATOM     15  C   UNL A   1      33.648  25.002  24.781  1.00  0.00     0.317 C 
ATOM     16  O   UNL A   1      34.838  24.698  24.670  1.00  0.00    -0.249 OA
ATOM     17  N   UNL A   1      33.304  25.671  25.900  1.00  0.00    -0.334 N 
ATOM     18  H   UNL A   1      33.880  25.470  26.671  1.00  0.00     0.165 HD
BRANCH  17  19
ATOM     19  C   UNL A   1      32.246  26.632  26.192  1.00  0.00     0.153 C 
BRANCH  19  20
ATOM     20  C   UNL A   1      32.788  28.003  26.548  1.00  0.00    -0.029 A 
ATOM     21  C   UNL A   1      31.901  29.074  26.738  1.00  0.00     0.007 A 
ATOM     22  C   UNL A   1      34.156  28.244  26.742  1.00  0.00     0.007 A 
ATOM     23  C   UNL A   1      32.359  30.342  27.112  1.00  0.00     0.016 A 
ATOM     24  C   UNL A   1      34.615  29.497  27.166  1.00  0.00     0.016 A 
ATOM     25  C   UNL A   1      33.711  30.537  27.362  1.00  0.00     0.017 A 
ATOM     26  Br  UNL A   1      34.314  32.208  28.016  1.00  0.00    -0.051 Br
ENDBRANCH  19  20
ENDBRANCH  17  19
ENDBRANCH  12  15
ENDBRANCH   8   9
ENDBRANCH   6   8
ENDBRANCH   5   6
ENDBRANCH   4   5
ENDBRANCH   3   4
ENDBRANCH   2   3
ENDBRANCH   1   2
BRANCH   1  27
ATOM     27  C   UNL A   1      39.179  21.249  25.818  1.00  0.00     0.188 C 
BRANCH  27  28
ATOM     28  O   UNL A   1      40.525  20.986  26.191  1.00  0.00    -0.376 OA
BRANCH  28  29
ATOM     29  C   UNL A   1      40.895  19.688  26.619  1.00  0.00     0.202 C 
BRANCH  29  30
ATOM     30  C   UNL A   1      41.782  18.852  25.684  1.00  0.00     0.261 C 
BRANCH  30  31
ATOM     31  O   UNL A   1      43.173  18.728  26.036  1.00  0.00    -0.460 OA
BRANCH  31  32
ATOM     32  C   UNL A   1      44.071  19.322  25.201  1.00  0.00     0.338 C 
ATOM     33  O   UNL A   1      44.815  18.770  24.418  1.00  0.00    -0.246 OA
BRANCH  32  34
ATOM     34  C   UNL A   1      43.958  20.801  25.318  1.00  0.00     0.060 A 
ATOM     35  C   UNL A   1      44.041  21.624  24.182  1.00  0.00     0.016 A 
ATOM     36  C   UNL A   1      43.840  21.383  26.575  1.00  0.00     0.016 A 
ATOM     37  C   UNL A   1      44.037  23.030  24.306  1.00  0.00     0.010 A 
ATOM     38  C   UNL A   1      43.824  22.779  26.690  1.00  0.00     0.010 A 
ATOM     39  C   UNL A   1      43.963  23.628  25.570  1.00  0.00    -0.014 A 
BRANCH  39  40
ATOM     40  C   UNL A   1      44.207  25.087  25.840  1.00  0.00     0.031 A 
ATOM     41  C   UNL A   1      45.639  25.560  25.864  1.00  0.00     0.074 A 
ATOM     42  C   UNL A   1      43.253  25.977  26.181  1.00  0.00     0.049 A 
ATOM     43  N   UNL A   1      46.149  26.658  26.355  1.00  0.00    -0.248 NA
ATOM     44  C   UNL A   1      46.631  24.645  25.274  1.00  0.00     0.031 C 
ATOM     45  C   UNL A   1      41.818  25.750  26.130  1.00  0.00     0.029 A 
ATOM     46  N   UNL A   1      43.365  27.245  26.720  1.00  0.00    -0.354 N 
ATOM     47  C   UNL A   1      47.521  26.548  26.171  1.00  0.00     0.074 A 
ATOM     48  C   UNL A   1      47.765  25.242  25.596  1.00  0.00     0.031 C 
ATOM     49  C   UNL A   1      41.186  26.782  26.721  1.00  0.00     0.029 A 
ATOM     50  C   UNL A   1      42.175  27.732  27.217  1.00  0.00     0.049 A 
ATOM     51  H   UNL A   1      44.211  27.749  26.745  1.00  0.00     0.167 HD
ATOM     52  C   UNL A   1      48.492  27.462  26.400  1.00  0.00     0.034 A 
ATOM     53  C   UNL A   1      41.907  28.791  28.013  1.00  0.00     0.034 A 
ATOM     54  C   UNL A   1      48.259  28.787  26.902  1.00  0.00     0.049 A 
ATOM     55  C   UNL A   1      43.005  29.761  28.363  1.00  0.00     0.074 A 
ATOM     56  C   UNL A   1      49.166  29.822  27.050  1.00  0.00     0.029 A 
ATOM     57  N   UNL A   1      47.036  29.259  27.346  1.00  0.00    -0.354 N 
ATOM     58  N   UNL A   1      44.278  29.701  28.065  1.00  0.00    -0.248 NA
ATOM     59  C   UNL A   1      42.617  30.986  29.082  1.00  0.00     0.031 C 
ATOM     60  C   UNL A   1      48.496  30.912  27.615  1.00  0.00     0.029 A 
ATOM     61  C   UNL A   1      47.165  30.567  27.780  1.00  0.00     0.049 A 
ATOM     62  H   UNL A   1      46.199  28.741  27.353  1.00  0.00     0.167 HD
ATOM     63  C   UNL A   1      44.819  30.920  28.463  1.00  0.00     0.074 A 
ATOM     64  C   UNL A   1      43.747  31.681  29.064  1.00  0.00     0.031 C 
ATOM     65  C   UNL A   1      46.089  31.366  28.308  1.00  0.00     0.034 A 
BRANCH  52  66
ATOM     66  C   UNL A   1      49.901  27.065  26.045  1.00  0.00     0.023 A 
ATOM     67  C   UNL A   1      50.724  26.467  27.023  1.00  0.00     0.012 A 
ATOM     68  C   UNL A   1      50.407  27.277  24.751  1.00  0.00     0.148 A 
ATOM     69  C   UNL A   1      52.050  26.152  26.740  1.00  0.00     0.002 A 
ATOM     70  C   UNL A   1      51.713  26.905  24.458  1.00  0.00     0.091 A 
ATOM     71  F   UNL A   1      49.616  27.860  23.839  1.00  0.00    -0.205 F 
ATOM     72  C   UNL A   1      52.541  26.363  25.455  1.00  0.00     0.022 A 
BRANCH  70  73
ATOM     73  S   UNL A   1      52.409  27.046  22.810  1.00  0.00     0.127 S 
ATOM     74  O   UNL A   1      52.897  28.424  22.813  1.00  0.00    -0.237 OA
ATOM     75  O   UNL A   1      53.459  26.027  22.832  1.00  0.00    -0.237 OA
ATOM     76  O   UNL A   1      51.316  26.770  21.887  1.00  0.00    -0.744 OA
ENDBRANCH  70  73
ENDBRANCH  52  66
BRANCH  53  77
ATOM     77  C   UNL A   1      40.521  29.032  28.512  1.00  0.00     0.023 A 
ATOM     78  C   UNL A   1      39.539  29.530  27.637  1.00  0.00     0.012 A 
ATOM     79  C   UNL A   1      40.185  28.799  29.860  1.00  0.00     0.148 A 
ATOM     80  C   UNL A   1      38.253  29.819  28.101  1.00  0.00     0.002 A 
ATOM     81  C   UNL A   1      38.889  29.040  30.304  1.00  0.00     0.091 A 
ATOM     82  F   UNL A   1      41.143  28.353  30.683  1.00  0.00    -0.205 F 
ATOM     83  C   UNL A   1      37.926  29.569  29.430  1.00  0.00     0.022 A 
BRANCH  81  84
ATOM     84  S   UNL A   1      38.342  28.646  31.969  1.00  0.00     0.127 S 
ATOM     85  O   UNL A   1      36.950  29.083  31.945  1.00  0.00    -0.237 OA
ATOM     86  O   UNL A   1      38.538  27.197  32.007  1.00  0.00    -0.237 OA
ATOM     87  O   UNL A   1      39.222  29.394  32.858  1.00  0.00    -0.744 OA
ENDBRANCH  81  84
ENDBRANCH  53  77
BRANCH  65  88
ATOM     88  C   UNL A   1      46.403  32.793  28.677  1.00  0.00     0.023 A 
ATOM     89  C   UNL A   1      46.980  33.105  29.922  1.00  0.00     0.012 A 
ATOM     90  C   UNL A   1      46.223  33.816  27.722  1.00  0.00     0.148 A 
ATOM     91  C   UNL A   1      47.358  34.416  30.217  1.00  0.00     0.002 A 
ATOM     92  C   UNL A   1      46.652  35.107  28.002  1.00  0.00     0.091 A 
ATOM     93  F   UNL A   1      45.650  33.502  26.551  1.00  0.00    -0.205 F 
ATOM     94  C   UNL A   1      47.209  35.412  29.253  1.00  0.00     0.022 A 
BRANCH  92  95
ATOM     95  S   UNL A   1      46.599  36.427  26.783  1.00  0.00     0.127 S 
ATOM     96  O   UNL A   1      47.352  35.841  25.675  1.00  0.00    -0.237 OA
ATOM     97  O   UNL A   1      45.162  36.563  26.539  1.00  0.00    -0.237 OA
ATOM     98  O   UNL A   1      47.219  37.585  27.412  1.00  0.00    -0.744 OA
ENDBRANCH  92  95
ENDBRANCH  65  88
ENDBRANCH  39  40
ENDBRANCH  32  34
ENDBRANCH  31  32
ENDBRANCH  30  31
ENDBRANCH  29  30
ENDBRANCH  28  29
ENDBRANCH  27  28
ENDBRANCH   1  27
TORSDOF 24
ENDMDL
MODEL 2
REMARK VINA RESULT:      -9.4      3.015      3.937
REMARK SMILES O=C(C[C@H]1CN(C(=O)NCc2ccc(Br)cc2)CCO1)OCCOCCOCCOC(=O)c1ccc(-c2c3nc(c(-c4cccc(S(=O)(=O)[O-])c4F)c4ccc([nH]4)c(-c4cccc(S(=O)(=O)[O-])c4F)c4nc(c(-c5cccc(S(=O)(=O)[O-])c5F)c5ccc2[nH]5)C=C4)C=C3)cc1
REMARK SMILES IDX 25 1 24 2 23 3 22 4 21 5 2 6 1 7 3 8 4 9 5 10 20 11 6 12
REMARK SMILES IDX 19 13 18 14 7 15 8 16 9 17 10 19 11 20 12 21 17 22 13 23
REMARK SMILES IDX 16 24 14 25 15 26 26 27 27 28 28 29 29 30 30 31 31 32 32 33
REMARK SMILES IDX 33 34 34 35 95 36 35 37 94 38 36 39 37 40 38 41 88 42 39 43
REMARK SMILES IDX 93 44 87 45 89 46 40 47 92 48 86 49 85 50 41 52 73 53 53 54
REMARK SMILES IDX 72 55 54 56 57 57 71 58 90 59 55 60 56 61 70 63 91 64 58 65
REMARK SMILES IDX 42 66 43 67 51 68 44 69 46 70 52 71 45 72 47 73 48 74 49 75
REMARK SMILES IDX 50 76 74 77 75 78 83 79 76 80 78 81 84 82 77 83 79 84 80 85
REMARK SMILES IDX 81 86 82 87 59 88 60 89 68 90 61 91 63 92 69 93 62 94 64 95
REMARK SMILES IDX 65 96 66 97 67 98
REMARK H PARENT 9 18 89 51 57 62
REMARK Flexibility Score: inf
ROOT
ATOM      1  C   UNL A   1      37.399  23.235  25.660  1.00  0.00     0.188 C 
ENDROOT
BRANCH   1   2
ATOM      2  O   UNL A   1      36.007  23.028  25.818  1.00  0.00    -0.376 OA
BRANCH   2   3
ATOM      3  C   UNL A   1      35.139  23.274  24.734  1.00  0.00     0.202 C 
BRANCH   3   4
ATOM      4  C   UNL A   1      34.799  22.030  23.917  1.00  0.00     0.261 C 
BRANCH   4   5
ATOM      5  O   UNL A   1      33.671  21.251  24.353  1.00  0.00    -0.463 OA
BRANCH   5   6
ATOM      6  C   UNL A   1      33.068  21.255  25.552  1.00  0.00     0.308 C 
ATOM      7  O   UNL A   1      33.454  20.475  26.421  1.00  0.00    -0.252 OA
BRANCH   6   8
ATOM      8  C   UNL A   1      31.839  22.087  25.771  1.00  0.00     0.156 C 
BRANCH   8   9
ATOM      9  C   UNL A   1      31.858  23.048  26.944  1.00  0.00     0.149 C 
ATOM     10  C   UNL A   1      32.308  24.444  26.445  1.00  0.00     0.154 C 
ATOM     11  O   UNL A   1      30.592  23.126  27.610  1.00  0.00    -0.374 OA
ATOM     12  N   UNL A   1      31.285  24.990  25.550  1.00  0.00    -0.320 N 
ATOM     13  C   UNL A   1      29.563  23.664  26.761  1.00  0.00     0.182 C 
ATOM     14  C   UNL A   1      29.958  25.032  26.184  1.00  0.00     0.150 C 
BRANCH  12  15
ATOM     15  C   UNL A   1      31.360  25.077  24.188  1.00  0.00     0.317 C 
ATOM     16  O   UNL A   1      32.214  24.457  23.549  1.00  0.00    -0.249 OA
ATOM     17  N   UNL A   1      30.560  25.895  23.477  1.00  0.00    -0.334 N 
ATOM     18  H   UNL A   1      30.982  26.251  22.663  1.00  0.00     0.165 HD
BRANCH  17  19
ATOM     19  C   UNL A   1      29.191  26.359  23.677  1.00  0.00     0.153 C 
BRANCH  19  20
ATOM     20  C   UNL A   1      29.028  27.837  23.380  1.00  0.00    -0.029 A 
ATOM     21  C   UNL A   1      27.748  28.361  23.134  1.00  0.00     0.007 A 
ATOM     22  C   UNL A   1      30.110  28.728  23.382  1.00  0.00     0.007 A 
ATOM     23  C   UNL A   1      27.552  29.726  22.902  1.00  0.00     0.016 A 
ATOM     24  C   UNL A   1      29.913  30.103  23.201  1.00  0.00     0.016 A 
ATOM     25  C   UNL A   1      28.632  30.597  22.976  1.00  0.00     0.017 A 
ATOM     26  Br  UNL A   1      28.348  32.461  22.815  1.00  0.00    -0.051 Br
ENDBRANCH  19  20
ENDBRANCH  17  19
ENDBRANCH  12  15
ENDBRANCH   8   9
ENDBRANCH   6   8
ENDBRANCH   5   6
ENDBRANCH   4   5
ENDBRANCH   3   4
ENDBRANCH   2   3
ENDBRANCH   1   2
BRANCH   1  27
ATOM     27  C   UNL A   1      38.164  22.026  25.097  1.00  0.00     0.188 C 
BRANCH  27  28
ATOM     28  O   UNL A   1      37.912  20.710  25.576  1.00  0.00    -0.376 OA
BRANCH  28  29
ATOM     29  C   UNL A   1      38.754  19.644  25.180  1.00  0.00     0.202 C 
BRANCH  29  30
ATOM     30  C   UNL A   1      40.115  19.510  25.881  1.00  0.00     0.261 C 
BRANCH  30  31
ATOM     31  O   UNL A   1      40.232  20.078  27.200  1.00  0.00    -0.460 OA
BRANCH  31  32
ATOM     32  C   UNL A   1      41.457  20.560  27.553  1.00  0.00     0.338 C 
ATOM     33  O   UNL A   1      42.485  19.926  27.662  1.00  0.00    -0.246 OA
BRANCH  32  34
ATOM     34  C   UNL A   1      41.385  22.037  27.713  1.00  0.00     0.060 A 
ATOM     35  C   UNL A   1      40.681  22.830  26.791  1.00  0.00     0.016 A 
ATOM     36  C   UNL A   1      42.081  22.649  28.749  1.00  0.00     0.016 A 
ATOM     37  C   UNL A   1      40.700  24.238  26.887  1.00  0.00     0.010 A 
ATOM     38  C   UNL A   1      42.086  24.047  28.846  1.00  0.00     0.010 A 
ATOM     39  C   UNL A   1      41.433  24.868  27.900  1.00  0.00    -0.014 A 
BRANCH  39  40
ATOM     40  C   UNL A   1      41.733  26.341  27.947  1.00  0.00     0.031 A 
ATOM     41  C   UNL A   1      43.139  26.776  27.616  1.00  0.00     0.074 A 
ATOM     42  C   UNL A   1      40.875  27.288  28.379  1.00  0.00     0.049 A 
ATOM     43  N   UNL A   1      43.745  27.907  27.862  1.00  0.00    -0.248 NA
ATOM     44  C   UNL A   1      43.981  25.776  26.937  1.00  0.00     0.031 C 
ATOM     45  C   UNL A   1      39.461  27.095  28.657  1.00  0.00     0.029 A 
ATOM     46  N   UNL A   1      41.103  28.604  28.736  1.00  0.00    -0.354 N 
ATOM     47  C   UNL A   1      45.046  27.742  27.407  1.00  0.00     0.074 A 
ATOM     48  C   UNL A   1      45.159  26.375  26.945  1.00  0.00     0.031 C 
ATOM     49  C   UNL A   1      38.972  28.202  29.248  1.00  0.00     0.029 A 
ATOM     50  C   UNL A   1      40.047  29.174  29.415  1.00  0.00     0.049 A 
ATOM     51  H   UNL A   1      41.936  29.085  28.526  1.00  0.00     0.167 HD
ATOM     52  C   UNL A   1      46.046  28.649  27.323  1.00  0.00     0.034 A 
ATOM     53  C   UNL A   1      39.956  30.320  30.125  1.00  0.00     0.034 A 
ATOM     54  C   UNL A   1      45.928  30.026  27.711  1.00  0.00     0.049 A 
ATOM     55  C   UNL A   1      41.106  31.293  30.125  1.00  0.00     0.074 A 
ATOM     56  C   UNL A   1      46.849  31.047  27.548  1.00  0.00     0.029 A 
ATOM     57  N   UNL A   1      44.829  30.576  28.346  1.00  0.00    -0.354 N 
ATOM     58  N   UNL A   1      42.287  31.167  29.575  1.00  0.00    -0.248 NA
ATOM     59  C   UNL A   1      40.882  32.599  30.768  1.00  0.00     0.031 C 
ATOM     60  C   UNL A   1      46.317  32.209  28.115  1.00  0.00     0.029 A 
ATOM     61  C   UNL A   1      45.050  31.920  28.594  1.00  0.00     0.049 A 
ATOM     62  H   UNL A   1      44.010  30.085  28.587  1.00  0.00     0.167 HD
ATOM     63  C   UNL A   1      42.904  32.407  29.711  1.00  0.00     0.074 A 
ATOM     64  C   UNL A   1      41.985  33.258  30.435  1.00  0.00     0.031 C 
ATOM     65  C   UNL A   1      44.113  32.800  29.243  1.00  0.00     0.034 A 
BRANCH  52  66
ATOM     66  C   UNL A   1      47.346  28.178  26.727  1.00  0.00     0.023 A 
ATOM     67  C   UNL A   1      48.440  27.896  27.573  1.00  0.00     0.012 A 
ATOM     68  C   UNL A   1      47.486  28.011  25.338  1.00  0.00     0.148 A 
ATOM     69  C   UNL A   1      49.672  27.524  27.042  1.00  0.00     0.002 A 
ATOM     70  C   UNL A   1      48.700  27.581  24.820  1.00  0.00     0.091 A 
ATOM     71  F   UNL A   1      46.441  28.298  24.548  1.00  0.00    -0.205 F 
ATOM     72  C   UNL A   1      49.799  27.359  25.667  1.00  0.00     0.022 A 
BRANCH  70  73
ATOM     73  S   UNL A   1      48.939  27.245  23.072  1.00  0.00     0.127 S 
ATOM     74  O   UNL A   1      50.390  27.085  22.998  1.00  0.00    -0.237 OA
ATOM     75  O   UNL A   1      48.178  26.008  22.891  1.00  0.00    -0.237 OA
ATOM     76  O   UNL A   1      48.398  28.398  22.365  1.00  0.00    -0.744 OA
ENDBRANCH  70  73
ENDBRANCH  52  66
BRANCH  53  77
ATOM     77  C   UNL A   1      38.709  30.651  30.875  1.00  0.00     0.023 A 
ATOM     78  C   UNL A   1      38.546  30.199  32.198  1.00  0.00     0.012 A 
ATOM     79  C   UNL A   1      37.671  31.385  30.268  1.00  0.00     0.148 A 
ATOM     80  C   UNL A   1      37.361  30.447  32.893  1.00  0.00     0.002 A 
ATOM     81  C   UNL A   1      36.513  31.673  30.984  1.00  0.00     0.091 A 
ATOM     82  F   UNL A   1      37.834  31.780  28.999  1.00  0.00    -0.205 F 
ATOM     83  C   UNL A   1      36.348  31.188  32.291  1.00  0.00     0.022 A 
BRANCH  81  84
ATOM     84  S   UNL A   1      35.201  32.712  30.333  1.00  0.00     0.127 S 
ATOM     85  O   UNL A   1      34.283  32.790  31.466  1.00  0.00    -0.237 OA
ATOM     86  O   UNL A   1      35.926  33.948  30.036  1.00  0.00    -0.237 OA
ATOM     87  O   UNL A   1      34.695  32.015  29.158  1.00  0.00    -0.744 OA
ENDBRANCH  81  84
ENDBRANCH  53  77
BRANCH  65  88
ATOM     88  C   UNL A   1      44.501  34.250  29.375  1.00  0.00     0.023 A 
ATOM     89  C   UNL A   1      44.138  35.186  28.389  1.00  0.00     0.012 A 
ATOM     90  C   UNL A   1      45.135  34.698  30.553  1.00  0.00     0.148 A 
ATOM     91  C   UNL A   1      44.414  36.542  28.566  1.00  0.00     0.002 A 
ATOM     92  C   UNL A   1      45.358  36.055  30.747  1.00  0.00     0.091 A 
ATOM     93  F   UNL A   1      45.494  33.787  31.470  1.00  0.00    -0.205 F 
ATOM     94  C   UNL A   1      45.009  36.978  29.750  1.00  0.00     0.022 A 
BRANCH  92  95
ATOM     95  S   UNL A   1      46.017  36.715  32.283  1.00  0.00     0.127 S 
ATOM     96  O   UNL A   1      45.625  38.121  32.197  1.00  0.00    -0.237 OA
ATOM     97  O   UNL A   1      45.291  35.940  33.289  1.00  0.00    -0.237 OA
ATOM     98  O   UNL A   1      47.453  36.467  32.248  1.00  0.00    -0.744 OA
ENDBRANCH  92  95
ENDBRANCH  65  88
ENDBRANCH  39  40
ENDBRANCH  32  34
ENDBRANCH  31  32
ENDBRANCH  30  31
ENDBRANCH  29  30
ENDBRANCH  28  29
ENDBRANCH  27  28
ENDBRANCH   1  27
TORSDOF 24
ENDMDL
MODEL 3
REMARK VINA RESULT:      -9.4      2.414      7.909
REMARK SMILES O=C(C[C@H]1CN(C(=O)NCc2ccc(Br)cc2)CCO1)OCCOCCOCCOC(=O)c1ccc(-c2c3nc(c(-c4cccc(S(=O)(=O)[O-])c4F)c4ccc([nH]4)c(-c4cccc(S(=O)(=O)[O-])c4F)c4nc(c(-c5cccc(S(=O)(=O)[O-])c5F)c5ccc2[nH]5)C=C4)C=C3)cc1
REMARK SMILES IDX 25 1 24 2 23 3 22 4 21 5 2 6 1 7 3 8 4 9 5 10 20 11 6 12
REMARK SMILES IDX 19 13 18 14 7 15 8 16 9 17 10 19 11 20 12 21 17 22 13 23
REMARK SMILES IDX 16 24 14 25 15 26 26 27 27 28 28 29 29 30 30 31 31 32 32 33
REMARK SMILES IDX 33 34 34 35 95 36 35 37 94 38 36 39 37 40 38 41 88 42 39 43
REMARK SMILES IDX 93 44 87 45 89 46 40 47 92 48 86 49 85 50 41 52 73 53 53 54
REMARK SMILES IDX 72 55 54 56 57 57 71 58 90 59 55 60 56 61 70 63 91 64 58 65
REMARK SMILES IDX 42 66 43 67 51 68 44 69 46 70 52 71 45 72 47 73 48 74 49 75
REMARK SMILES IDX 50 76 74 77 75 78 83 79 76 80 78 81 84 82 77 83 79 84 80 85
REMARK SMILES IDX 81 86 82 87 59 88 60 89 68 90 61 91 63 92 69 93 62 94 64 95
REMARK SMILES IDX 65 96 66 97 67 98
REMARK H PARENT 9 18 89 51 57 62
REMARK Flexibility Score: inf
ROOT
ATOM      1  C   UNL A   1      36.597  23.587  25.075  1.00  0.00     0.188 C 
ENDROOT
BRANCH   1   2
ATOM      2  O   UNL A   1      35.217  23.685  24.772  1.00  0.00    -0.376 OA
BRANCH   2   3
ATOM      3  C   UNL A   1      34.814  24.052  23.471  1.00  0.00     0.202 C 
BRANCH   3   4
ATOM      4  C   UNL A   1      34.110  22.938  22.702  1.00  0.00     0.261 C 
BRANCH   4   5
ATOM      5  O   UNL A   1      32.733  22.685  23.033  1.00  0.00    -0.463 OA
BRANCH   5   6
ATOM      6  C   UNL A   1      32.170  22.597  24.249  1.00  0.00     0.308 C 
ATOM      7  O   UNL A   1      32.285  21.552  24.889  1.00  0.00    -0.252 OA
BRANCH   6   8
ATOM      8  C   UNL A   1      31.281  23.698  24.746  1.00  0.00     0.156 C 
BRANCH   8   9
ATOM      9  C   UNL A   1      31.117  23.825  26.249  1.00  0.00     0.149 C 
ATOM     10  C   UNL A   1      32.296  24.654  26.817  1.00  0.00     0.154 C 
ATOM     11  O   UNL A   1      29.860  24.405  26.615  1.00  0.00    -0.374 OA
ATOM     12  N   UNL A   1      32.198  26.031  26.327  1.00  0.00    -0.320 N 
ATOM     13  C   UNL A   1      29.731  25.762  26.155  1.00  0.00     0.182 C 
ATOM     14  C   UNL A   1      30.896  26.640  26.638  1.00  0.00     0.150 C 
BRANCH  12  15
ATOM     15  C   UNL A   1      32.971  26.604  25.357  1.00  0.00     0.317 C 
ATOM     16  O   UNL A   1      34.203  26.604  25.430  1.00  0.00    -0.249 OA
ATOM     17  N   UNL A   1      32.436  27.261  24.309  1.00  0.00    -0.334 N 
ATOM     18  H   UNL A   1      32.992  28.005  23.984  1.00  0.00     0.165 HD
BRANCH  17  19
ATOM     19  C   UNL A   1      31.195  27.088  23.562  1.00  0.00     0.153 C 
BRANCH  19  20
ATOM     20  C   UNL A   1      30.465  28.398  23.335  1.00  0.00    -0.029 A 
ATOM     21  C   UNL A   1      30.594  29.439  24.269  1.00  0.00     0.007 A 
ATOM     22  C   UNL A   1      29.688  28.638  22.192  1.00  0.00     0.007 A 
ATOM     23  C   UNL A   1      29.973  30.676  24.072  1.00  0.00     0.016 A 
ATOM     24  C   UNL A   1      29.107  29.891  21.965  1.00  0.00     0.016 A 
ATOM     25  C   UNL A   1      29.265  30.910  22.900  1.00  0.00     0.017 A 
ATOM     26  Br  UNL A   1      28.554  32.630  22.559  1.00  0.00    -0.051 Br
ENDBRANCH  19  20
ENDBRANCH  17  19
ENDBRANCH  12  15
ENDBRANCH   8   9
ENDBRANCH   6   8
ENDBRANCH   5   6
ENDBRANCH   4   5
ENDBRANCH   3   4
ENDBRANCH   2   3
ENDBRANCH   1   2
BRANCH   1  27
ATOM     27  C   UNL A   1      37.223  22.219  24.758  1.00  0.00     0.188 C 
BRANCH  27  28
ATOM     28  O   UNL A   1      36.779  21.039  25.414  1.00  0.00    -0.376 OA
BRANCH  28  29
ATOM     29  C   UNL A   1      37.145  19.770  24.905  1.00  0.00     0.202 C 
BRANCH  29  30
ATOM     30  C   UNL A   1      38.591  19.300  25.127  1.00  0.00     0.261 C 
BRANCH  30  31
ATOM     31  O   UNL A   1      39.244  19.738  26.334  1.00  0.00    -0.460 OA
BRANCH  31  32
ATOM     32  C   UNL A   1      40.590  19.941  26.262  1.00  0.00     0.338 C 
ATOM     33  O   UNL A   1      41.422  19.169  25.837  1.00  0.00    -0.246 OA
BRANCH  32  34
ATOM     34  C   UNL A   1      40.911  21.321  26.717  1.00  0.00     0.060 A 
ATOM     35  C   UNL A   1      40.606  22.434  25.914  1.00  0.00     0.016 A 
ATOM     36  C   UNL A   1      41.583  21.510  27.918  1.00  0.00     0.016 A 
ATOM     37  C   UNL A   1      41.003  23.732  26.300  1.00  0.00     0.010 A 
ATOM     38  C   UNL A   1      41.964  22.802  28.301  1.00  0.00     0.010 A 
ATOM     39  C   UNL A   1      41.720  23.930  27.486  1.00  0.00    -0.014 A 
BRANCH  39  40
ATOM     40  C   UNL A   1      42.409  25.212  27.864  1.00  0.00     0.031 A 
ATOM     41  C   UNL A   1      41.567  26.297  28.488  1.00  0.00     0.074 A 
ATOM     42  C   UNL A   1      43.693  25.509  27.577  1.00  0.00     0.049 A 
ATOM     43  N   UNL A   1      41.817  27.572  28.630  1.00  0.00    -0.248 NA
ATOM     44  C   UNL A   1      40.249  25.880  28.995  1.00  0.00     0.031 C 
ATOM     45  C   UNL A   1      44.690  24.582  27.066  1.00  0.00     0.029 A 
ATOM     46  N   UNL A   1      44.359  26.720  27.609  1.00  0.00    -0.354 N 
ATOM     47  C   UNL A   1      40.674  28.115  29.202  1.00  0.00     0.074 A 
ATOM     48  C   UNL A   1      39.706  27.044  29.306  1.00  0.00     0.031 C 
ATOM     49  C   UNL A   1      45.796  25.268  26.720  1.00  0.00     0.029 A 
ATOM     50  C   UNL A   1      45.576  26.689  26.961  1.00  0.00     0.049 A 
ATOM     51  H   UNL A   1      43.999  27.524  28.050  1.00  0.00     0.167 HD
ATOM     52  C   UNL A   1      40.458  29.371  29.657  1.00  0.00     0.034 A 
ATOM     53  C   UNL A   1      46.402  27.683  26.567  1.00  0.00     0.034 A 
ATOM     54  C   UNL A   1      41.432  30.425  29.626  1.00  0.00     0.049 A 
ATOM     55  C   UNL A   1      46.115  29.103  26.978  1.00  0.00     0.074 A 
ATOM     56  C   UNL A   1      41.344  31.692  30.174  1.00  0.00     0.029 A 
ATOM     57  N   UNL A   1      42.668  30.340  29.009  1.00  0.00    -0.354 N 
ATOM     58  N   UNL A   1      45.086  29.574  27.635  1.00  0.00    -0.248 NA
ATOM     59  C   UNL A   1      47.142  30.113  26.672  1.00  0.00     0.031 C 
ATOM     60  C   UNL A   1      42.517  32.387  29.860  1.00  0.00     0.029 A 
ATOM     61  C   UNL A   1      43.350  31.537  29.152  1.00  0.00     0.049 A 
ATOM     62  H   UNL A   1      43.012  29.547  28.538  1.00  0.00     0.167 HD
ATOM     63  C   UNL A   1      45.388  30.904  27.912  1.00  0.00     0.074 A 
ATOM     64  C   UNL A   1      46.676  31.177  27.314  1.00  0.00     0.031 C 
ATOM     65  C   UNL A   1      44.665  31.799  28.629  1.00  0.00     0.034 A 
BRANCH  52  66
ATOM     66  C   UNL A   1      39.118  29.648  30.284  1.00  0.00     0.023 A 
ATOM     67  C   UNL A   1      38.833  29.145  31.572  1.00  0.00     0.012 A 
ATOM     68  C   UNL A   1      38.145  30.404  29.607  1.00  0.00     0.148 A 
ATOM     69  C   UNL A   1      37.579  29.330  32.146  1.00  0.00     0.002 A 
ATOM     70  C   UNL A   1      36.916  30.636  30.211  1.00  0.00     0.091 A 
ATOM     71  F   UNL A   1      38.427  30.861  28.378  1.00  0.00    -0.205 F 
ATOM     72  C   UNL A   1      36.624  30.082  31.469  1.00  0.00     0.022 A 
BRANCH  70  73
ATOM     73  S   UNL A   1      35.654  31.671  29.464  1.00  0.00     0.127 S 
ATOM     74  O   UNL A   1      34.827  32.008  30.621  1.00  0.00    -0.237 OA
ATOM     75  O   UNL A   1      36.444  32.783  28.934  1.00  0.00    -0.237 OA
ATOM     76  O   UNL A   1      35.008  30.849  28.450  1.00  0.00    -0.744 OA
ENDBRANCH  70  73
ENDBRANCH  52  66
BRANCH  53  77
ATOM     77  C   UNL A   1      47.623  27.379  25.763  1.00  0.00     0.023 A 
ATOM     78  C   UNL A   1      48.757  26.834  26.393  1.00  0.00     0.012 A 
ATOM     79  C   UNL A   1      47.671  27.658  24.383  1.00  0.00     0.148 A 
ATOM     80  C   UNL A   1      49.928  26.600  25.669  1.00  0.00     0.002 A 
ATOM     81  C   UNL A   1      48.824  27.375  23.657  1.00  0.00     0.091 A 
ATOM     82  F   UNL A   1      46.591  28.204  23.810  1.00  0.00    -0.205 F 
ATOM     83  C   UNL A   1      49.961  26.864  24.302  1.00  0.00     0.022 A 
BRANCH  81  84
ATOM     84  S   UNL A   1      48.925  27.577  21.875  1.00  0.00     0.127 S 
ATOM     85  O   UNL A   1      49.676  28.822  21.751  1.00  0.00    -0.237 OA
ATOM     86  O   UNL A   1      49.653  26.370  21.484  1.00  0.00    -0.237 OA
ATOM     87  O   UNL A   1      47.545  27.623  21.408  1.00  0.00    -0.744 OA
ENDBRANCH  81  84
ENDBRANCH  53  77
BRANCH  65  88
ATOM     88  C   UNL A   1      45.277  33.142  28.932  1.00  0.00     0.023 A 
ATOM     89  C   UNL A   1      46.117  33.316  30.048  1.00  0.00     0.012 A 
ATOM     90  C   UNL A   1      45.100  34.209  28.027  1.00  0.00     0.148 A 
ATOM     91  C   UNL A   1      46.758  34.536  30.266  1.00  0.00     0.002 A 
ATOM     92  C   UNL A   1      45.783  35.403  28.221  1.00  0.00     0.091 A 
ATOM     93  F   UNL A   1      44.277  34.031  26.983  1.00  0.00    -0.205 F 
ATOM     94  C   UNL A   1      46.604  35.573  29.345  1.00  0.00     0.022 A 
BRANCH  92  95
ATOM     95  S   UNL A   1      45.730  36.749  27.032  1.00  0.00     0.127 S 
ATOM     96  O   UNL A   1      46.569  37.755  27.682  1.00  0.00    -0.237 OA
ATOM     97  O   UNL A   1      46.324  36.135  25.844  1.00  0.00    -0.237 OA
ATOM     98  O   UNL A   1      44.325  37.109  26.889  1.00  0.00    -0.744 OA
ENDBRANCH  92  95
ENDBRANCH  65  88
ENDBRANCH  39  40
ENDBRANCH  32  34
ENDBRANCH  31  32
ENDBRANCH  30  31
ENDBRANCH  29  30
ENDBRANCH  28  29
ENDBRANCH  27  28
ENDBRANCH   1  27
TORSDOF 24
ENDMDL
