MODEL 1
REMARK VINA RESULT:      -6.9      0.000      0.000
REMARK SMILES CCCOc1ccccc1/C=C1\SC(=S)N([C@@H](C(=O)OCCOCCOCCOC(=O)c2ccc(-c3c4nc(c(-c5cccc(S(=O)(=O)[O-])c5F)c5ccc([nH]5)c(-c5cccc(S(=O)(=O)[O-])c5F)c5nc(c(-c6cccc(S(=O)(=O)[O-])c6F)c6ccc3[nH]6)C=C5)C=C4)cc2)C(C)C)C1=O
REMARK SMILES IDX 24 1 23 2 22 3 21 4 20 5 18 6 19 7 17 8 16 9 11 10 12 11
REMARK SMILES IDX 13 12 98 13 14 14 99 15 15 16 10 17 5 18 6 19 7 20 9 21 8 22
REMARK SMILES IDX 4 23 3 24 2 25 1 26 95 27 96 28 97 29 25 30 26 31 27 32
REMARK SMILES IDX 28 33 29 34 30 35 31 36 32 37 33 38 94 39 34 40 93 41 35 42
REMARK SMILES IDX 36 43 37 44 87 45 38 46 92 47 86 48 88 49 39 50 91 51 85 52
REMARK SMILES IDX 84 53 40 55 72 56 52 57 71 58 53 59 56 60 70 61 89 62 54 63
REMARK SMILES IDX 55 64 69 66 90 67 57 68 41 69 42 70 50 71 43 72 45 73 51 74
REMARK SMILES IDX 44 75 46 76 47 77 48 78 49 79 73 80 74 81 82 82 75 83 77 84
REMARK SMILES IDX 83 85 76 86 78 87 79 88 80 89 81 90 58 91 59 92 67 93 60 94
REMARK SMILES IDX 62 95 68 96 61 97 63 98 64 99 65 100 66 101
REMARK H PARENT 88 54 56 65
REMARK Flexibility Score: inf
ROOT
ATOM      1  C   UNL A   1      41.075  34.943  29.856  1.00  0.00     0.188 C 
ENDROOT
BRANCH   1   2
ATOM      2  O   UNL A   1      39.860  34.283  29.510  1.00  0.00    -0.376 OA
BRANCH   2   3
ATOM      3  C   UNL A   1      38.641  34.860  29.953  1.00  0.00     0.202 C 
BRANCH   3   4
ATOM      4  C   UNL A   1      37.831  33.990  30.914  1.00  0.00     0.261 C 
BRANCH   4   5
ATOM      5  O   UNL A   1      38.429  32.693  31.157  1.00  0.00    -0.462 OA
BRANCH   5   6
ATOM      6  C   UNL A   1      39.223  32.634  32.256  1.00  0.00     0.329 C 
ATOM      7  O   UNL A   1      39.514  33.616  32.934  1.00  0.00    -0.250 OA
BRANCH   6   8
ATOM      8  C   UNL A   1      39.683  31.216  32.658  1.00  0.00     0.204 C 
BRANCH   8   9
ATOM      9  N   UNL A   1      39.912  30.243  31.536  1.00  0.00    -0.278 N 
ATOM     10  C   UNL A   1      42.243  28.866  29.137  1.00  0.00     0.033 C 
ATOM     11  C   UNL A   1      41.115  29.144  29.803  1.00  0.00     0.081 C 
ATOM     12  S   UNL A   1      39.498  28.733  29.454  1.00  0.00    -0.054 SA
ATOM     13  C   UNL A   1      41.162  30.035  30.995  1.00  0.00     0.267 C 
ATOM     14  C   UNL A   1      38.894  29.549  30.906  1.00  0.00     0.149 C 
ATOM     15  O   UNL A   1      42.199  30.571  31.353  1.00  0.00    -0.268 OA
ATOM     16  S   UNL A   1      37.290  29.434  31.358  1.00  0.00    -0.052 S 
BRANCH  10  17
ATOM     17  C   UNL A   1      42.423  28.368  27.763  1.00  0.00     0.018 A 
ATOM     18  C   UNL A   1      42.895  27.061  27.539  1.00  0.00     0.126 A 
ATOM     19  C   UNL A   1      42.910  26.514  26.252  1.00  0.00     0.047 A 
ATOM     20  C   UNL A   1      42.380  27.238  25.186  1.00  0.00     0.004 A 
ATOM     21  C   UNL A   1      41.893  29.083  26.683  1.00  0.00     0.012 A 
ATOM     22  C   UNL A   1      41.868  28.517  25.402  1.00  0.00     0.001 A 
BRANCH  18  23
ATOM     23  O   UNL A   1      43.350  26.323  28.604  1.00  0.00    -0.493 OA
BRANCH  23  24
ATOM     24  C   UNL A   1      43.883  25.042  28.228  1.00  0.00     0.229 C 
BRANCH  24  25
ATOM     25  C   UNL A   1      43.197  23.911  28.995  1.00  0.00     0.038 C 
ATOM     26  C   UNL A   1      41.839  23.535  28.412  1.00  0.00     0.007 C 
ENDBRANCH  24  25
ENDBRANCH  23  24
ENDBRANCH  18  23
ENDBRANCH  10  17
ENDBRANCH   8   9
BRANCH   8  27
ATOM     27  C   UNL A   1      38.830  30.638  33.842  1.00  0.00     0.017 C 
ATOM     28  C   UNL A   1      39.740  30.308  35.034  1.00  0.00     0.010 C 
ATOM     29  C   UNL A   1      37.706  31.564  34.322  1.00  0.00     0.010 C 
ENDBRANCH   8  27
ENDBRANCH   6   8
ENDBRANCH   5   6
ENDBRANCH   4   5
ENDBRANCH   3   4
ENDBRANCH   2   3
ENDBRANCH   1   2
BRANCH   1  30
ATOM     30  C   UNL A   1      42.295  34.076  30.180  1.00  0.00     0.188 C 
BRANCH  30  31
ATOM     31  O   UNL A   1      43.223  33.994  29.103  1.00  0.00    -0.376 OA
BRANCH  31  32
ATOM     32  C   UNL A   1      43.051  35.044  28.156  1.00  0.00     0.202 C 
BRANCH  32  33
ATOM     33  C   UNL A   1      43.788  34.663  26.871  1.00  0.00     0.261 C 
BRANCH  33  34
ATOM     34  O   UNL A   1      44.792  33.647  27.058  1.00  0.00    -0.460 OA
BRANCH  34  35
ATOM     35  C   UNL A   1      44.587  32.481  26.413  1.00  0.00     0.338 C 
ATOM     36  O   UNL A   1      44.112  32.340  25.291  1.00  0.00    -0.246 OA
BRANCH  35  37
ATOM     37  C   UNL A   1      45.151  31.382  27.216  1.00  0.00     0.060 A 
ATOM     38  C   UNL A   1      45.566  31.638  28.528  1.00  0.00     0.016 A 
ATOM     39  C   UNL A   1      45.330  30.117  26.657  1.00  0.00     0.016 A 
ATOM     40  C   UNL A   1      46.225  30.654  29.264  1.00  0.00     0.010 A 
ATOM     41  C   UNL A   1      45.975  29.126  27.400  1.00  0.00     0.010 A 
ATOM     42  C   UNL A   1      46.460  29.399  28.693  1.00  0.00    -0.014 A 
BRANCH  42  43
ATOM     43  C   UNL A   1      47.302  28.393  29.384  1.00  0.00     0.031 A 
ATOM     44  C   UNL A   1      46.692  27.558  30.477  1.00  0.00     0.074 A 
ATOM     45  C   UNL A   1      48.604  28.253  29.076  1.00  0.00     0.049 A 
ATOM     46  N   UNL A   1      47.271  26.748  31.323  1.00  0.00    -0.248 NA
ATOM     47  C   UNL A   1      45.231  27.656  30.641  1.00  0.00     0.031 C 
ATOM     48  C   UNL A   1      49.306  28.978  28.018  1.00  0.00     0.029 A 
ATOM     49  N   UNL A   1      49.576  27.475  29.655  1.00  0.00    -0.354 N 
ATOM     50  C   UNL A   1      46.260  26.277  32.151  1.00  0.00     0.074 A 
ATOM     51  C   UNL A   1      45.027  26.889  31.702  1.00  0.00     0.031 C 
ATOM     52  C   UNL A   1      50.605  28.638  28.046  1.00  0.00     0.029 A 
ATOM     53  C   UNL A   1      50.834  27.709  29.151  1.00  0.00     0.049 A 
ATOM     54  H   UNL A   1      49.390  26.815  30.362  1.00  0.00     0.167 HD
ATOM     55  C   UNL A   1      46.348  25.409  33.185  1.00  0.00     0.034 A 
ATOM     56  C   UNL A   1      52.037  27.260  29.562  1.00  0.00     0.034 A 
ATOM     57  C   UNL A   1      47.567  24.774  33.606  1.00  0.00     0.049 A 
ATOM     58  C   UNL A   1      52.112  26.325  30.743  1.00  0.00     0.074 A 
ATOM     59  C   UNL A   1      47.749  23.850  34.620  1.00  0.00     0.029 A 
ATOM     60  N   UNL A   1      48.812  25.003  33.043  1.00  0.00    -0.354 N 
ATOM     61  N   UNL A   1      51.139  25.822  31.464  1.00  0.00    -0.248 NA
ATOM     62  C   UNL A   1      53.453  25.883  31.156  1.00  0.00     0.031 C 
ATOM     63  C   UNL A   1      49.110  23.532  34.681  1.00  0.00     0.029 A 
ATOM     64  C   UNL A   1      49.770  24.243  33.693  1.00  0.00     0.049 A 
ATOM     65  H   UNL A   1      48.990  25.613  32.292  1.00  0.00     0.167 HD
ATOM     66  C   UNL A   1      51.745  24.980  32.391  1.00  0.00     0.074 A 
ATOM     67  C   UNL A   1      53.169  25.026  32.128  1.00  0.00     0.031 C 
ATOM     68  C   UNL A   1      51.177  24.250  33.381  1.00  0.00     0.034 A 
BRANCH  55  69
ATOM     69  C   UNL A   1      45.080  25.071  33.923  1.00  0.00     0.023 A 
ATOM     70  C   UNL A   1      44.447  23.834  33.691  1.00  0.00     0.012 A 
ATOM     71  C   UNL A   1      44.551  25.950  34.888  1.00  0.00     0.148 A 
ATOM     72  C   UNL A   1      43.290  23.488  34.387  1.00  0.00     0.002 A 
ATOM     73  C   UNL A   1      43.420  25.581  35.607  1.00  0.00     0.091 A 
ATOM     74  F   UNL A   1      45.156  27.132  35.077  1.00  0.00    -0.205 F 
ATOM     75  C   UNL A   1      42.784  24.355  35.352  1.00  0.00     0.022 A 
BRANCH  73  76
ATOM     76  S   UNL A   1      42.734  26.599  36.919  1.00  0.00     0.127 S 
ATOM     77  O   UNL A   1      42.209  27.735  36.164  1.00  0.00    -0.237 OA
ATOM     78  O   UNL A   1      41.712  25.720  37.488  1.00  0.00    -0.237 OA
ATOM     79  O   UNL A   1      43.842  26.899  37.814  1.00  0.00    -0.744 OA
ENDBRANCH  73  76
ENDBRANCH  55  69
BRANCH  56  80
ATOM     80  C   UNL A   1      53.275  27.678  28.847  1.00  0.00     0.023 A 
ATOM     81  C   UNL A   1      53.769  26.879  27.799  1.00  0.00     0.012 A 
ATOM     82  C   UNL A   1      53.958  28.861  29.191  1.00  0.00     0.148 A 
ATOM     83  C   UNL A   1      54.938  27.236  27.124  1.00  0.00     0.002 A 
ATOM     84  C   UNL A   1      55.090  29.238  28.479  1.00  0.00     0.091 A 
ATOM     85  F   UNL A   1      53.485  29.596  30.208  1.00  0.00    -0.205 F 
ATOM     86  C   UNL A   1      55.592  28.418  27.456  1.00  0.00     0.022 A 
BRANCH  84  87
ATOM     87  S   UNL A   1      55.924  30.805  28.760  1.00  0.00     0.127 S 
ATOM     88  O   UNL A   1      56.344  30.674  30.152  1.00  0.00    -0.237 OA
ATOM     89  O   UNL A   1      57.010  30.750  27.780  1.00  0.00    -0.237 OA
ATOM     90  O   UNL A   1      54.926  31.831  28.491  1.00  0.00    -0.744 OA
ENDBRANCH  84  87
ENDBRANCH  56  80
BRANCH  68  91
ATOM     91  C   UNL A   1      52.081  23.403  34.240  1.00  0.00     0.023 A 
ATOM     92  C   UNL A   1      52.559  23.913  35.463  1.00  0.00     0.012 A 
ATOM     93  C   UNL A   1      52.382  22.076  33.878  1.00  0.00     0.148 A 
ATOM     94  C   UNL A   1      53.343  23.123  36.302  1.00  0.00     0.002 A 
ATOM     95  C   UNL A   1      53.126  21.278  34.740  1.00  0.00     0.091 A 
ATOM     96  F   UNL A   1      51.933  21.615  32.703  1.00  0.00    -0.205 F 
ATOM     97  C   UNL A   1      53.616  21.803  35.948  1.00  0.00     0.022 A 
BRANCH  95  98
ATOM     98  S   UNL A   1      53.447  19.541  34.412  1.00  0.00     0.127 S 
ATOM     99  O   UNL A   1      53.737  19.556  32.979  1.00  0.00    -0.237 OA
ATOM    100  O   UNL A   1      54.604  19.270  35.266  1.00  0.00    -0.237 OA
ATOM    101  O   UNL A   1      52.234  18.830  34.797  1.00  0.00    -0.744 OA
ENDBRANCH  95  98
ENDBRANCH  68  91
ENDBRANCH  42  43
ENDBRANCH  35  37
ENDBRANCH  34  35
ENDBRANCH  33  34
ENDBRANCH  32  33
ENDBRANCH  31  32
ENDBRANCH  30  31
ENDBRANCH   1  30
TORSDOF 26
ENDMDL
MODEL 2
REMARK VINA RESULT:      -6.2      3.482      6.357
REMARK SMILES CCCOc1ccccc1/C=C1\SC(=S)N([C@@H](C(=O)OCCOCCOCCOC(=O)c2ccc(-c3c4nc(c(-c5cccc(S(=O)(=O)[O-])c5F)c5ccc([nH]5)c(-c5cccc(S(=O)(=O)[O-])c5F)c5nc(c(-c6cccc(S(=O)(=O)[O-])c6F)c6ccc3[nH]6)C=C5)C=C4)cc2)C(C)C)C1=O
REMARK SMILES IDX 24 1 23 2 22 3 21 4 20 5 18 6 19 7 17 8 16 9 11 10 12 11
REMARK SMILES IDX 13 12 98 13 14 14 99 15 15 16 10 17 5 18 6 19 7 20 9 21 8 22
REMARK SMILES IDX 4 23 3 24 2 25 1 26 95 27 96 28 97 29 25 30 26 31 27 32
REMARK SMILES IDX 28 33 29 34 30 35 31 36 32 37 33 38 94 39 34 40 93 41 35 42
REMARK SMILES IDX 36 43 37 44 87 45 38 46 92 47 86 48 88 49 39 50 91 51 85 52
REMARK SMILES IDX 84 53 40 55 72 56 52 57 71 58 53 59 56 60 70 61 89 62 54 63
REMARK SMILES IDX 55 64 69 66 90 67 57 68 41 69 42 70 50 71 43 72 45 73 51 74
REMARK SMILES IDX 44 75 46 76 47 77 48 78 49 79 73 80 74 81 82 82 75 83 77 84
REMARK SMILES IDX 83 85 76 86 78 87 79 88 80 89 81 90 58 91 59 92 67 93 60 94
REMARK SMILES IDX 62 95 68 96 61 97 63 98 64 99 65 100 66 101
REMARK H PARENT 88 54 56 65
REMARK Flexibility Score: inf
ROOT
ATOM      1  C   UNL A   1      40.308  26.463  27.911  1.00  0.00     0.188 C 
ENDROOT
BRANCH   1   2
ATOM      2  O   UNL A   1      40.102  27.066  29.185  1.00  0.00    -0.376 OA
BRANCH   2   3
ATOM      3  C   UNL A   1      38.861  26.838  29.836  1.00  0.00     0.202 C 
BRANCH   3   4
ATOM      4  C   UNL A   1      38.812  27.280  31.298  1.00  0.00     0.261 C 
BRANCH   4   5
ATOM      5  O   UNL A   1      37.921  28.398  31.530  1.00  0.00    -0.462 OA
BRANCH   5   6
ATOM      6  C   UNL A   1      38.377  29.306  32.431  1.00  0.00     0.329 C 
ATOM      7  O   UNL A   1      38.370  29.117  33.644  1.00  0.00    -0.250 OA
BRANCH   6   8
ATOM      8  C   UNL A   1      38.990  30.584  31.821  1.00  0.00     0.204 C 
BRANCH   8   9
ATOM      9  N   UNL A   1      38.332  31.884  32.190  1.00  0.00    -0.278 N 
ATOM     10  C   UNL A   1      35.248  33.751  32.486  1.00  0.00     0.033 C 
ATOM     11  C   UNL A   1      36.549  33.435  32.461  1.00  0.00     0.081 C 
ATOM     12  S   UNL A   1      37.928  34.432  32.550  1.00  0.00    -0.054 SA
ATOM     13  C   UNL A   1      36.961  32.025  32.218  1.00  0.00     0.267 C 
ATOM     14  C   UNL A   1      39.032  33.051  32.444  1.00  0.00     0.149 C 
ATOM     15  O   UNL A   1      36.143  31.151  31.980  1.00  0.00    -0.268 OA
ATOM     16  S   UNL A   1      40.680  33.244  32.637  1.00  0.00    -0.052 S 
BRANCH  10  17
ATOM     17  C   UNL A   1      34.597  35.060  32.314  1.00  0.00     0.018 A 
ATOM     18  C   UNL A   1      33.723  35.281  31.233  1.00  0.00     0.126 A 
ATOM     19  C   UNL A   1      32.967  36.455  31.149  1.00  0.00     0.047 A 
ATOM     20  C   UNL A   1      33.016  37.385  32.185  1.00  0.00     0.004 A 
ATOM     21  C   UNL A   1      34.635  36.003  33.348  1.00  0.00     0.012 A 
ATOM     22  C   UNL A   1      33.843  37.157  33.284  1.00  0.00     0.001 A 
BRANCH  18  23
ATOM     23  O   UNL A   1      33.623  34.329  30.249  1.00  0.00    -0.493 OA
BRANCH  23  24
ATOM     24  C   UNL A   1      34.355  34.659  29.056  1.00  0.00     0.229 C 
BRANCH  24  25
ATOM     25  C   UNL A   1      34.204  33.567  27.995  1.00  0.00     0.038 C 
ATOM     26  C   UNL A   1      35.212  32.435  28.161  1.00  0.00     0.007 C 
ENDBRANCH  24  25
ENDBRANCH  23  24
ENDBRANCH  18  23
ENDBRANCH  10  17
ENDBRANCH   8   9
BRANCH   8  27
ATOM     27  C   UNL A   1      39.272  30.424  30.286  1.00  0.00     0.017 C 
ATOM     28  C   UNL A   1      38.499  31.488  29.494  1.00  0.00     0.010 C 
ATOM     29  C   UNL A   1      40.755  30.506  29.904  1.00  0.00     0.010 C 
ENDBRANCH   8  27
ENDBRANCH   6   8
ENDBRANCH   5   6
ENDBRANCH   4   5
ENDBRANCH   3   4
ENDBRANCH   2   3
ENDBRANCH   1   2
BRANCH   1  30
ATOM     30  C   UNL A   1      41.710  26.537  27.300  1.00  0.00     0.188 C 
BRANCH  30  31
ATOM     31  O   UNL A   1      42.050  25.381  26.542  1.00  0.00    -0.376 OA
BRANCH  31  32
ATOM     32  C   UNL A   1      43.458  25.220  26.399  1.00  0.00     0.202 C 
BRANCH  32  33
ATOM     33  C   UNL A   1      43.879  25.800  25.048  1.00  0.00     0.261 C 
BRANCH  33  34
ATOM     34  O   UNL A   1      45.297  25.730  24.804  1.00  0.00    -0.460 OA
BRANCH  34  35
ATOM     35  C   UNL A   1      45.999  26.857  25.038  1.00  0.00     0.338 C 
ATOM     36  O   UNL A   1      45.916  27.912  24.416  1.00  0.00    -0.246 OA
BRANCH  35  37
ATOM     37  C   UNL A   1      46.803  26.678  26.259  1.00  0.00     0.060 A 
ATOM     38  C   UNL A   1      47.303  25.409  26.567  1.00  0.00     0.016 A 
ATOM     39  C   UNL A   1      47.009  27.746  27.132  1.00  0.00     0.016 A 
ATOM     40  C   UNL A   1      47.952  25.181  27.780  1.00  0.00     0.010 A 
ATOM     41  C   UNL A   1      47.673  27.522  28.341  1.00  0.00     0.010 A 
ATOM     42  C   UNL A   1      48.115  26.232  28.689  1.00  0.00    -0.014 A 
BRANCH  42  43
ATOM     43  C   UNL A   1      48.648  25.986  30.051  1.00  0.00     0.031 A 
ATOM     44  C   UNL A   1      47.683  25.733  31.177  1.00  0.00     0.074 A 
ATOM     45  C   UNL A   1      49.970  26.030  30.293  1.00  0.00     0.049 A 
ATOM     46  N   UNL A   1      47.910  25.662  32.462  1.00  0.00    -0.248 NA
ATOM     47  C   UNL A   1      46.272  25.539  30.802  1.00  0.00     0.031 C 
ATOM     48  C   UNL A   1      51.009  26.235  29.284  1.00  0.00     0.029 A 
ATOM     49  N   UNL A   1      50.661  25.942  31.476  1.00  0.00    -0.354 N 
ATOM     50  C   UNL A   1      46.669  25.467  33.056  1.00  0.00     0.074 A 
ATOM     51  C   UNL A   1      45.692  25.424  31.989  1.00  0.00     0.031 C 
ATOM     52  C   UNL A   1      52.204  26.294  29.896  1.00  0.00     0.029 A 
ATOM     53  C   UNL A   1      52.010  26.177  31.340  1.00  0.00     0.049 A 
ATOM     54  H   UNL A   1      50.233  25.732  32.337  1.00  0.00     0.167 HD
ATOM     55  C   UNL A   1      46.371  25.327  34.368  1.00  0.00     0.034 A 
ATOM     56  C   UNL A   1      52.969  26.325  32.275  1.00  0.00     0.034 A 
ATOM     57  C   UNL A   1      47.346  25.334  35.424  1.00  0.00     0.049 A 
ATOM     58  C   UNL A   1      52.604  26.206  33.733  1.00  0.00     0.074 A 
ATOM     59  C   UNL A   1      47.144  25.161  36.782  1.00  0.00     0.029 A 
ATOM     60  N   UNL A   1      48.706  25.529  35.242  1.00  0.00    -0.354 N 
ATOM     61  N   UNL A   1      51.441  25.936  34.276  1.00  0.00    -0.248 NA
ATOM     62  C   UNL A   1      53.690  26.394  34.707  1.00  0.00     0.031 C 
ATOM     63  C   UNL A   1      48.383  25.270  37.424  1.00  0.00     0.029 A 
ATOM     64  C   UNL A   1      49.356  25.490  36.464  1.00  0.00     0.049 A 
ATOM     65  H   UNL A   1      49.146  25.674  34.373  1.00  0.00     0.167 HD
ATOM     66  C   UNL A   1      51.661  25.890  35.649  1.00  0.00     0.074 A 
ATOM     67  C   UNL A   1      53.073  26.139  35.854  1.00  0.00     0.031 C 
ATOM     68  C   UNL A   1      50.772  25.678  36.649  1.00  0.00     0.034 A 
BRANCH  55  69
ATOM     69  C   UNL A   1      44.925  25.129  34.740  1.00  0.00     0.023 A 
ATOM     70  C   UNL A   1      44.373  23.833  34.724  1.00  0.00     0.012 A 
ATOM     71  C   UNL A   1      44.133  26.215  35.160  1.00  0.00     0.148 A 
ATOM     72  C   UNL A   1      43.046  23.624  35.095  1.00  0.00     0.002 A 
ATOM     73  C   UNL A   1      42.823  25.993  35.567  1.00  0.00     0.091 A 
ATOM     74  F   UNL A   1      44.671  27.443  35.145  1.00  0.00    -0.205 F 
ATOM     75  C   UNL A   1      42.275  24.700  35.526  1.00  0.00     0.022 A 
BRANCH  73  76
ATOM     76  S   UNL A   1      41.773  27.304  36.204  1.00  0.00     0.127 S 
ATOM     77  O   UNL A   1      41.208  27.853  34.973  1.00  0.00    -0.237 OA
ATOM     78  O   UNL A   1      40.823  26.562  37.034  1.00  0.00    -0.237 OA
ATOM     79  O   UNL A   1      42.653  28.198  36.942  1.00  0.00    -0.744 OA
ENDBRANCH  73  76
ENDBRANCH  55  69
BRANCH  56  80
ATOM     80  C   UNL A   1      54.376  26.593  31.866  1.00  0.00     0.023 A 
ATOM     81  C   UNL A   1      54.805  27.924  31.702  1.00  0.00     0.012 A 
ATOM     82  C   UNL A   1      55.290  25.544  31.645  1.00  0.00     0.148 A 
ATOM     83  C   UNL A   1      56.112  28.205  31.300  1.00  0.00     0.002 A 
ATOM     84  C   UNL A   1      56.604  25.833  31.297  1.00  0.00     0.091 A 
ATOM     85  F   UNL A   1      54.856  24.283  31.782  1.00  0.00    -0.205 F 
ATOM     86  C   UNL A   1      57.013  27.162  31.108  1.00  0.00     0.022 A 
BRANCH  84  87
ATOM     87  S   UNL A   1      57.861  24.558  31.149  1.00  0.00     0.127 S 
ATOM     88  O   UNL A   1      59.034  25.229  31.702  1.00  0.00    -0.237 OA
ATOM     89  O   UNL A   1      57.310  23.491  31.987  1.00  0.00    -0.237 OA
ATOM     90  O   UNL A   1      57.923  24.235  29.731  1.00  0.00    -0.744 OA
ENDBRANCH  84  87
ENDBRANCH  56  80
BRANCH  68  91
ATOM     91  C   UNL A   1      51.294  25.665  38.064  1.00  0.00     0.023 A 
ATOM     92  C   UNL A   1      51.309  26.858  38.812  1.00  0.00     0.012 A 
ATOM     93  C   UNL A   1      51.682  24.458  38.677  1.00  0.00     0.148 A 
ATOM     94  C   UNL A   1      51.727  26.855  40.143  1.00  0.00     0.002 A 
ATOM     95  C   UNL A   1      52.054  24.454  40.017  1.00  0.00     0.091 A 
ATOM     96  F   UNL A   1      51.677  23.337  37.943  1.00  0.00    -0.205 F 
ATOM     97  C   UNL A   1      52.086  25.653  40.749  1.00  0.00     0.022 A 
BRANCH  95  98
ATOM     98  S   UNL A   1      52.441  22.941  40.906  1.00  0.00     0.127 S 
ATOM     99  O   UNL A   1      51.767  21.933  40.088  1.00  0.00    -0.237 OA
ATOM    100  O   UNL A   1      53.903  22.904  40.837  1.00  0.00    -0.237 OA
ATOM    101  O   UNL A   1      51.905  23.117  42.249  1.00  0.00    -0.744 OA
ENDBRANCH  95  98
ENDBRANCH  68  91
ENDBRANCH  42  43
ENDBRANCH  35  37
ENDBRANCH  34  35
ENDBRANCH  33  34
ENDBRANCH  32  33
ENDBRANCH  31  32
ENDBRANCH  30  31
ENDBRANCH   1  30
TORSDOF 26
ENDMDL
MODEL 3
REMARK VINA RESULT:      -6.1      8.771     15.693
REMARK SMILES CCCOc1ccccc1/C=C1\SC(=S)N([C@@H](C(=O)OCCOCCOCCOC(=O)c2ccc(-c3c4nc(c(-c5cccc(S(=O)(=O)[O-])c5F)c5ccc([nH]5)c(-c5cccc(S(=O)(=O)[O-])c5F)c5nc(c(-c6cccc(S(=O)(=O)[O-])c6F)c6ccc3[nH]6)C=C5)C=C4)cc2)C(C)C)C1=O
REMARK SMILES IDX 24 1 23 2 22 3 21 4 20 5 18 6 19 7 17 8 16 9 11 10 12 11
REMARK SMILES IDX 13 12 98 13 14 14 99 15 15 16 10 17 5 18 6 19 7 20 9 21 8 22
REMARK SMILES IDX 4 23 3 24 2 25 1 26 95 27 96 28 97 29 25 30 26 31 27 32
REMARK SMILES IDX 28 33 29 34 30 35 31 36 32 37 33 38 94 39 34 40 93 41 35 42
REMARK SMILES IDX 36 43 37 44 87 45 38 46 92 47 86 48 88 49 39 50 91 51 85 52
REMARK SMILES IDX 84 53 40 55 72 56 52 57 71 58 53 59 56 60 70 61 89 62 54 63
REMARK SMILES IDX 55 64 69 66 90 67 57 68 41 69 42 70 50 71 43 72 45 73 51 74
REMARK SMILES IDX 44 75 46 76 47 77 48 78 49 79 73 80 74 81 82 82 75 83 77 84
REMARK SMILES IDX 83 85 76 86 78 87 79 88 80 89 81 90 58 91 59 92 67 93 60 94
REMARK SMILES IDX 62 95 68 96 61 97 63 98 64 99 65 100 66 101
REMARK H PARENT 88 54 56 65
REMARK Flexibility Score: inf
ROOT
ATOM      1  C   UNL A   1      47.987  41.619  31.834  1.00  0.00     0.188 C 
ENDROOT
BRANCH   1   2
ATOM      2  O   UNL A   1      47.893  41.638  30.412  1.00  0.00    -0.376 OA
BRANCH   2   3
ATOM      3  C   UNL A   1      49.101  41.652  29.667  1.00  0.00     0.202 C 
BRANCH   3   4
ATOM      4  C   UNL A   1      49.734  43.033  29.495  1.00  0.00     0.261 C 
BRANCH   4   5
ATOM      5  O   UNL A   1      48.764  44.087  29.285  1.00  0.00    -0.462 OA
BRANCH   5   6
ATOM      6  C   UNL A   1      48.534  44.391  27.982  1.00  0.00     0.329 C 
ATOM      7  O   UNL A   1      49.322  44.128  27.077  1.00  0.00    -0.250 OA
BRANCH   6   8
ATOM      8  C   UNL A   1      47.160  45.030  27.689  1.00  0.00     0.204 C 
BRANCH   8   9
ATOM      9  N   UNL A   1      46.288  44.316  26.694  1.00  0.00    -0.278 N 
ATOM     10  C   UNL A   1      45.282  43.967  23.237  1.00  0.00     0.033 C 
ATOM     11  C   UNL A   1      45.337  43.833  24.568  1.00  0.00     0.081 C 
ATOM     12  S   UNL A   1      44.274  43.044  25.642  1.00  0.00    -0.054 SA
ATOM     13  C   UNL A   1      46.401  44.534  25.338  1.00  0.00     0.267 C 
ATOM     14  C   UNL A   1      45.261  43.460  27.052  1.00  0.00     0.149 C 
ATOM     15  O   UNL A   1      47.198  45.281  24.793  1.00  0.00    -0.268 OA
ATOM     16  S   UNL A   1      44.908  42.850  28.566  1.00  0.00    -0.052 S 
BRANCH  10  17
ATOM     17  C   UNL A   1      44.161  43.726  22.315  1.00  0.00     0.018 A 
ATOM     18  C   UNL A   1      44.279  44.058  20.952  1.00  0.00     0.126 A 
ATOM     19  C   UNL A   1      43.295  43.682  20.032  1.00  0.00     0.047 A 
ATOM     20  C   UNL A   1      42.220  42.901  20.451  1.00  0.00     0.004 A 
ATOM     21  C   UNL A   1      43.075  42.940  22.720  1.00  0.00     0.012 A 
ATOM     22  C   UNL A   1      42.114  42.527  21.790  1.00  0.00     0.001 A 
BRANCH  18  23
ATOM     23  O   UNL A   1      45.377  44.767  20.530  1.00  0.00    -0.493 OA
BRANCH  23  24
ATOM     24  C   UNL A   1      45.044  45.996  19.863  1.00  0.00     0.229 C 
BRANCH  24  25
ATOM     25  C   UNL A   1      45.528  47.208  20.661  1.00  0.00     0.038 C 
ATOM     26  C   UNL A   1      46.816  46.938  21.430  1.00  0.00     0.007 C 
ENDBRANCH  24  25
ENDBRANCH  23  24
ENDBRANCH  18  23
ENDBRANCH  10  17
ENDBRANCH   8   9
BRANCH   8  27
ATOM     27  C   UNL A   1      47.273  46.576  27.446  1.00  0.00     0.017 C 
ATOM     28  C   UNL A   1      46.002  47.281  27.942  1.00  0.00     0.010 C 
ATOM     29  C   UNL A   1      48.490  47.232  28.108  1.00  0.00     0.010 C 
ENDBRANCH   8  27
ENDBRANCH   6   8
ENDBRANCH   5   6
ENDBRANCH   4   5
ENDBRANCH   3   4
ENDBRANCH   2   3
ENDBRANCH   1   2
BRANCH   1  30
ATOM     30  C   UNL A   1      47.437  42.822  32.605  1.00  0.00     0.188 C 
BRANCH  30  31
ATOM     31  O   UNL A   1      48.459  43.648  33.154  1.00  0.00    -0.376 OA
BRANCH  31  32
ATOM     32  C   UNL A   1      48.019  44.364  34.304  1.00  0.00     0.202 C 
BRANCH  32  33
ATOM     33  C   UNL A   1      46.494  44.464  34.259  1.00  0.00     0.261 C 
BRANCH  33  34
ATOM     34  O   UNL A   1      45.885  44.613  35.557  1.00  0.00    -0.460 OA
BRANCH  34  35
ATOM     35  C   UNL A   1      46.291  43.748  36.509  1.00  0.00     0.338 C 
ATOM     36  O   UNL A   1      46.896  44.027  37.540  1.00  0.00    -0.246 OA
BRANCH  35  37
ATOM     37  C   UNL A   1      45.777  42.405  36.189  1.00  0.00     0.060 A 
ATOM     38  C   UNL A   1      46.671  41.331  36.120  1.00  0.00     0.016 A 
ATOM     39  C   UNL A   1      44.427  42.217  35.894  1.00  0.00     0.016 A 
ATOM     40  C   UNL A   1      46.235  40.078  35.689  1.00  0.00     0.010 A 
ATOM     41  C   UNL A   1      43.988  40.958  35.478  1.00  0.00     0.010 A 
ATOM     42  C   UNL A   1      44.894  39.891  35.336  1.00  0.00    -0.014 A 
BRANCH  42  43
ATOM     43  C   UNL A   1      44.439  38.623  34.718  1.00  0.00     0.031 A 
ATOM     44  C   UNL A   1      44.422  38.507  33.218  1.00  0.00     0.074 A 
ATOM     45  C   UNL A   1      44.003  37.602  35.478  1.00  0.00     0.049 A 
ATOM     46  N   UNL A   1      43.911  37.569  32.465  1.00  0.00    -0.248 NA
ATOM     47  C   UNL A   1      45.064  39.600  32.467  1.00  0.00     0.031 C 
ATOM     48  C   UNL A   1      43.998  37.577  36.940  1.00  0.00     0.029 A 
ATOM     49  N   UNL A   1      43.445  36.400  35.118  1.00  0.00    -0.354 N 
ATOM     50  C   UNL A   1      44.122  37.978  31.155  1.00  0.00     0.074 A 
ATOM     51  C   UNL A   1      44.814  39.248  31.214  1.00  0.00     0.031 C 
ATOM     52  C   UNL A   1      43.428  36.433  37.354  1.00  0.00     0.029 A 
ATOM     53  C   UNL A   1      42.988  35.668  36.190  1.00  0.00     0.049 A 
ATOM     54  H   UNL A   1      43.377  36.094  34.185  1.00  0.00     0.167 HD
ATOM     55  C   UNL A   1      43.779  37.350  30.006  1.00  0.00     0.034 A 
ATOM     56  C   UNL A   1      42.261  34.534  36.225  1.00  0.00     0.034 A 
ATOM     57  C   UNL A   1      43.125  36.072  29.948  1.00  0.00     0.049 A 
ATOM     58  C   UNL A   1      41.855  33.875  34.931  1.00  0.00     0.074 A 
ATOM     59  C   UNL A   1      42.771  35.338  28.830  1.00  0.00     0.029 A 
ATOM     60  N   UNL A   1      42.719  35.341  31.053  1.00  0.00    -0.354 N 
ATOM     61  N   UNL A   1      42.136  34.228  33.699  1.00  0.00    -0.248 NA
ATOM     62  C   UNL A   1      41.048  32.650  35.033  1.00  0.00     0.031 C 
ATOM     63  C   UNL A   1      42.134  34.168  29.260  1.00  0.00     0.029 A 
ATOM     64  C   UNL A   1      42.110  34.166  30.645  1.00  0.00     0.049 A 
ATOM     65  H   UNL A   1      42.845  35.615  31.990  1.00  0.00     0.167 HD
ATOM     66  C   UNL A   1      41.569  33.254  32.884  1.00  0.00     0.074 A 
ATOM     67  C   UNL A   1      40.947  32.284  33.762  1.00  0.00     0.031 C 
ATOM     68  C   UNL A   1      41.550  33.178  31.531  1.00  0.00     0.034 A 
BRANCH  55  69
ATOM     69  C   UNL A   1      44.129  38.028  28.708  1.00  0.00     0.023 A 
ATOM     70  C   UNL A   1      43.192  38.882  28.094  1.00  0.00     0.012 A 
ATOM     71  C   UNL A   1      45.403  37.865  28.129  1.00  0.00     0.148 A 
ATOM     72  C   UNL A   1      43.507  39.544  26.908  1.00  0.00     0.002 A 
ATOM     73  C   UNL A   1      45.724  38.560  26.969  1.00  0.00     0.091 A 
ATOM     74  F   UNL A   1      46.271  37.029  28.718  1.00  0.00    -0.205 F 
ATOM     75  C   UNL A   1      44.775  39.392  26.353  1.00  0.00     0.022 A 
BRANCH  73  76
ATOM     76  S   UNL A   1      47.354  38.483  26.217  1.00  0.00     0.127 S 
ATOM     77  O   UNL A   1      48.223  38.611  27.385  1.00  0.00    -0.237 OA
ATOM     78  O   UNL A   1      47.347  37.154  25.604  1.00  0.00    -0.237 OA
ATOM     79  O   UNL A   1      47.410  39.587  25.270  1.00  0.00    -0.744 OA
ENDBRANCH  73  76
ENDBRANCH  55  69
BRANCH  56  80
ATOM     80  C   UNL A   1      41.873  33.936  37.533  1.00  0.00     0.023 A 
ATOM     81  C   UNL A   1      42.773  33.079  38.194  1.00  0.00     0.012 A 
ATOM     82  C   UNL A   1      40.627  34.216  38.129  1.00  0.00     0.148 A 
ATOM     83  C   UNL A   1      42.429  32.488  39.412  1.00  0.00     0.002 A 
ATOM     84  C   UNL A   1      40.313  33.668  39.366  1.00  0.00     0.091 A 
ATOM     85  F   UNL A   1      39.775  35.016  37.473  1.00  0.00    -0.205 F 
ATOM     86  C   UNL A   1      41.206  32.791  40.002  1.00  0.00     0.022 A 
BRANCH  84  87
ATOM     87  S   UNL A   1      38.813  34.100  40.255  1.00  0.00     0.127 S 
ATOM     88  O   UNL A   1      37.784  33.486  39.420  1.00  0.00    -0.237 OA
ATOM     89  O   UNL A   1      39.028  33.447  41.548  1.00  0.00    -0.237 OA
ATOM     90  O   UNL A   1      38.799  35.555  40.313  1.00  0.00    -0.744 OA
ENDBRANCH  84  87
ENDBRANCH  56  80
BRANCH  68  91
ATOM     91  C   UNL A   1      40.869  31.990  30.901  1.00  0.00     0.023 A 
ATOM     92  C   UNL A   1      39.533  32.100  30.468  1.00  0.00     0.012 A 
ATOM     93  C   UNL A   1      41.579  30.798  30.659  1.00  0.00     0.148 A 
ATOM     94  C   UNL A   1      38.907  31.034  29.825  1.00  0.00     0.002 A 
ATOM     95  C   UNL A   1      40.963  29.755  29.977  1.00  0.00     0.091 A 
ATOM     96  F   UNL A   1      42.843  30.706  31.095  1.00  0.00    -0.205 F 
ATOM     97  C   UNL A   1      39.623  29.867  29.568  1.00  0.00     0.022 A 
BRANCH  95  98
ATOM     98  S   UNL A   1      41.836  28.252  29.519  1.00  0.00     0.127 S 
ATOM     99  O   UNL A   1      42.509  27.906  30.770  1.00  0.00    -0.237 OA
ATOM    100  O   UNL A   1      40.741  27.356  29.147  1.00  0.00    -0.237 OA
ATOM    101  O   UNL A   1      42.715  28.620  28.417  1.00  0.00    -0.744 OA
ENDBRANCH  95  98
ENDBRANCH  68  91
ENDBRANCH  42  43
ENDBRANCH  35  37
ENDBRANCH  34  35
ENDBRANCH  33  34
ENDBRANCH  32  33
ENDBRANCH  31  32
ENDBRANCH  30  31
ENDBRANCH   1  30
TORSDOF 26
ENDMDL
