MODEL 1
REMARK VINA RESULT:      -9.2      0.000      0.000
REMARK SMILES C[C@@H]([C@H]1CC=CS1)n1nccc1NC(=O)CC1(CC(=O)OCCOCCOCCOC(=O)c2ccc(-c3c4nc(c(-c5cccc(S(=O)(=O)[O-])c5F)c5ccc([nH]5)c(-c5cccc(S(=O)(=O)[O-])c5F)c5nc(c(-c6cccc(S(=O)(=O)[O-])c6F)c6ccc3[nH]6)C=C5)C=C4)cc2)CCCCC1
REMARK SMILES IDX 24 1 23 2 22 3 21 4 19 5 20 6 18 7 17 8 96 9 100 10 97 11
REMARK SMILES IDX 99 12 98 13 16 14 14 15 13 16 15 18 12 19 8 20 9 21 10 22
REMARK SMILES IDX 11 23 2 24 1 25 3 26 4 27 7 28 5 29 6 30 25 31 26 32 27 33
REMARK SMILES IDX 28 34 29 35 30 36 31 37 32 38 33 39 34 40 95 41 35 42 94 43
REMARK SMILES IDX 36 44 37 45 38 46 88 47 39 48 93 49 87 50 89 51 40 52 92 53
REMARK SMILES IDX 86 54 85 55 41 57 73 58 53 59 72 60 54 61 57 62 71 63 90 64
REMARK SMILES IDX 55 65 56 66 70 68 91 69 58 70 42 71 43 72 51 73 44 74 46 75
REMARK SMILES IDX 52 76 45 77 47 78 48 79 49 80 50 81 74 82 75 83 83 84 76 85
REMARK SMILES IDX 78 86 84 87 77 88 79 89 80 90 81 91 82 92 59 93 60 94 68 95
REMARK SMILES IDX 61 96 63 97 69 98 62 99 64 100 65 101 66 102 67 103
REMARK H PARENT 13 17 89 56 57 67
REMARK Flexibility Score: inf
ROOT
ATOM      1  O   UNL A   1      38.188  23.896  26.397  1.00  0.00    -0.376 OA
ENDROOT
BRANCH   1   2
ATOM      2  C   UNL A   1      38.228  22.863  25.421  1.00  0.00     0.202 C 
BRANCH   2   3
ATOM      3  C   UNL A   1      36.883  22.359  24.858  1.00  0.00     0.261 C 
BRANCH   3   4
ATOM      4  O   UNL A   1      36.240  21.264  25.570  1.00  0.00    -0.463 OA
BRANCH   4   5
ATOM      5  C   UNL A   1      34.937  21.429  25.890  1.00  0.00     0.306 C 
ATOM      6  O   UNL A   1      34.509  21.374  27.042  1.00  0.00    -0.252 OA
BRANCH   5   7
ATOM      7  C   UNL A   1      33.963  21.775  24.753  1.00  0.00     0.130 C 
BRANCH   7   8
ATOM      8  C   UNL A   1      32.426  21.477  24.616  1.00  0.00    -0.010 C 
ATOM      9  C   UNL A   1      32.152  20.097  25.304  1.00  0.00     0.008 C 
ATOM     10  C   UNL A   1      31.946  21.376  23.147  1.00  0.00     0.008 C 
ATOM     11  C   UNL A   1      32.635  18.865  24.548  1.00  0.00     0.001 C 
ATOM     12  C   UNL A   1      32.491  20.162  22.402  1.00  0.00     0.001 C 
ATOM     13  C   UNL A   1      32.123  18.867  23.117  1.00  0.00     0.000 C 
BRANCH   8  14
ATOM     14  C   UNL A   1      31.478  22.500  25.337  1.00  0.00     0.108 C 
BRANCH  14  15
ATOM     15  C   UNL A   1      32.108  23.568  26.212  1.00  0.00     0.226 C 
ATOM     16  N   UNL A   1      32.584  24.827  25.724  1.00  0.00    -0.311 N 
ATOM     17  H   UNL A   1      32.883  25.470  26.406  1.00  0.00     0.171 HD
ATOM     18  O   UNL A   1      32.139  23.482  27.433  1.00  0.00    -0.275 OA
BRANCH  16  19
ATOM     19  C   UNL A   1      32.674  25.248  24.412  1.00  0.00     0.131 A 
ATOM     20  N   UNL A   1      31.805  26.096  23.751  1.00  0.00    -0.246 N 
ATOM     21  N   UNL A   1      32.088  26.196  22.434  1.00  0.00    -0.179 NA
ATOM     22  C   UNL A   1      33.224  25.518  22.290  1.00  0.00     0.137 A 
ATOM     23  C   UNL A   1      33.675  24.979  23.506  1.00  0.00     0.068 A 
BRANCH  20  24
ATOM     24  C   UNL A   1      30.817  27.004  24.334  1.00  0.00     0.120 C 
ATOM     25  C   UNL A   1      29.712  26.158  24.980  1.00  0.00     0.034 C 
BRANCH  24  26
ATOM     26  C   UNL A   1      31.367  28.179  25.200  1.00  0.00     0.079 C 
ATOM     27  C   UNL A   1      31.468  27.903  26.718  1.00  0.00     0.045 C 
ATOM     28  S   UNL A   1      32.984  28.955  24.772  1.00  0.00    -0.128 SA
ATOM     29  C   UNL A   1      32.505  28.814  27.299  1.00  0.00    -0.019 C 
ATOM     30  C   UNL A   1      33.324  29.383  26.413  1.00  0.00     0.037 C 
ENDBRANCH  24  26
ENDBRANCH  20  24
ENDBRANCH  16  19
ENDBRANCH  14  15
ENDBRANCH   8  14
ENDBRANCH   7   8
ENDBRANCH   5   7
ENDBRANCH   4   5
ENDBRANCH   3   4
ENDBRANCH   2   3
ENDBRANCH   1   2
BRANCH   1  31
ATOM     31  C   UNL A   1      39.290  24.075  27.272  1.00  0.00     0.188 C 
BRANCH  31  32
ATOM     32  C   UNL A   1      40.591  24.682  26.740  1.00  0.00     0.188 C 
BRANCH  32  33
ATOM     33  O   UNL A   1      41.615  23.736  26.514  1.00  0.00    -0.376 OA
BRANCH  33  34
ATOM     34  C   UNL A   1      41.513  22.391  26.930  1.00  0.00     0.202 C 
BRANCH  34  35
ATOM     35  C   UNL A   1      42.311  21.455  26.054  1.00  0.00     0.261 C 
BRANCH  35  36
ATOM     36  O   UNL A   1      43.023  22.138  25.045  1.00  0.00    -0.460 OA
BRANCH  36  37
ATOM     37  C   UNL A   1      44.355  21.976  24.935  1.00  0.00     0.338 C 
ATOM     38  O   UNL A   1      44.975  21.015  24.525  1.00  0.00    -0.246 OA
BRANCH  37  39
ATOM     39  C   UNL A   1      44.924  23.202  25.498  1.00  0.00     0.060 A 
ATOM     40  C   UNL A   1      45.679  23.093  26.663  1.00  0.00     0.016 A 
ATOM     41  C   UNL A   1      44.447  24.431  25.013  1.00  0.00     0.016 A 
ATOM     42  C   UNL A   1      45.768  24.203  27.469  1.00  0.00     0.010 A 
ATOM     43  C   UNL A   1      44.468  25.507  25.843  1.00  0.00     0.010 A 
ATOM     44  C   UNL A   1      45.076  25.356  27.084  1.00  0.00    -0.014 A 
BRANCH  44  45
ATOM     45  C   UNL A   1      45.147  26.532  27.911  1.00  0.00     0.031 A 
ATOM     46  C   UNL A   1      46.249  27.421  27.467  1.00  0.00     0.074 A 
ATOM     47  C   UNL A   1      44.163  26.796  28.793  1.00  0.00     0.049 A 
ATOM     48  N   UNL A   1      47.288  27.788  28.141  1.00  0.00    -0.248 NA
ATOM     49  C   UNL A   1      46.332  27.752  26.028  1.00  0.00     0.031 C 
ATOM     50  C   UNL A   1      42.919  26.033  28.979  1.00  0.00     0.029 A 
ATOM     51  N   UNL A   1      43.970  27.889  29.576  1.00  0.00    -0.354 N 
ATOM     52  C   UNL A   1      47.971  28.650  27.285  1.00  0.00     0.074 A 
ATOM     53  C   UNL A   1      47.517  28.353  25.959  1.00  0.00     0.031 C 
ATOM     54  C   UNL A   1      42.013  26.811  29.609  1.00  0.00     0.029 A 
ATOM     55  C   UNL A   1      42.639  28.075  29.953  1.00  0.00     0.049 A 
ATOM     56  H   UNL A   1      44.698  28.492  29.851  1.00  0.00     0.167 HD
ATOM     57  C   UNL A   1      48.541  29.781  27.775  1.00  0.00     0.034 A 
ATOM     58  C   UNL A   1      42.080  29.225  30.410  1.00  0.00     0.034 A 
ATOM     59  C   UNL A   1      48.772  29.656  29.194  1.00  0.00     0.049 A 
ATOM     60  C   UNL A   1      43.189  30.121  30.808  1.00  0.00     0.074 A 
ATOM     61  C   UNL A   1      49.452  28.759  29.994  1.00  0.00     0.029 A 
ATOM     62  N   UNL A   1      47.903  30.330  30.014  1.00  0.00    -0.354 N 
ATOM     63  N   UNL A   1      43.972  29.899  31.824  1.00  0.00    -0.248 NA
ATOM     64  C   UNL A   1      43.695  31.060  29.819  1.00  0.00     0.031 C 
ATOM     65  C   UNL A   1      48.669  28.649  31.179  1.00  0.00     0.029 A 
ATOM     66  C   UNL A   1      47.594  29.536  31.082  1.00  0.00     0.049 A 
ATOM     67  H   UNL A   1      47.557  31.239  29.858  1.00  0.00     0.167 HD
ATOM     68  C   UNL A   1      45.229  30.280  31.374  1.00  0.00     0.074 A 
ATOM     69  C   UNL A   1      44.974  31.109  30.199  1.00  0.00     0.031 C 
ATOM     70  C   UNL A   1      46.347  29.628  31.811  1.00  0.00     0.034 A 
BRANCH  57  71
ATOM     71  C   UNL A   1      48.443  31.141  27.099  1.00  0.00     0.023 A 
ATOM     72  C   UNL A   1      49.648  31.865  26.972  1.00  0.00     0.012 A 
ATOM     73  C   UNL A   1      47.246  31.861  26.855  1.00  0.00     0.148 A 
ATOM     74  C   UNL A   1      49.659  33.240  26.714  1.00  0.00     0.002 A 
ATOM     75  C   UNL A   1      47.264  33.210  26.525  1.00  0.00     0.091 A 
ATOM     76  F   UNL A   1      46.055  31.295  27.048  1.00  0.00    -0.205 F 
ATOM     77  C   UNL A   1      48.465  33.915  26.491  1.00  0.00     0.022 A 
BRANCH  75  78
ATOM     78  S   UNL A   1      45.747  34.119  26.183  1.00  0.00     0.127 S 
ATOM     79  O   UNL A   1      45.018  33.949  27.436  1.00  0.00    -0.237 OA
ATOM     80  O   UNL A   1      46.263  35.467  25.938  1.00  0.00    -0.237 OA
ATOM     81  O   UNL A   1      45.157  33.483  25.012  1.00  0.00    -0.744 OA
ENDBRANCH  75  78
ENDBRANCH  57  71
BRANCH  58  82
ATOM     82  C   UNL A   1      40.690  29.734  30.304  1.00  0.00     0.023 A 
ATOM     83  C   UNL A   1      40.139  29.964  29.026  1.00  0.00     0.012 A 
ATOM     84  C   UNL A   1      39.815  29.731  31.411  1.00  0.00     0.148 A 
ATOM     85  C   UNL A   1      38.761  30.143  28.852  1.00  0.00     0.002 A 
ATOM     86  C   UNL A   1      38.447  29.924  31.235  1.00  0.00     0.091 A 
ATOM     87  F   UNL A   1      40.305  29.441  32.623  1.00  0.00    -0.205 F 
ATOM     88  C   UNL A   1      37.914  30.115  29.955  1.00  0.00     0.022 A 
BRANCH  86  89
ATOM     89  S   UNL A   1      37.294  29.882  32.615  1.00  0.00     0.127 S 
ATOM     90  O   UNL A   1      37.827  30.927  33.489  1.00  0.00    -0.237 OA
ATOM     91  O   UNL A   1      36.031  30.214  31.962  1.00  0.00    -0.237 OA
ATOM     92  O   UNL A   1      37.388  28.537  33.167  1.00  0.00    -0.744 OA
ENDBRANCH  86  89
ENDBRANCH  58  82
BRANCH  70  93
ATOM     93  C   UNL A   1      46.220  28.758  33.036  1.00  0.00     0.023 A 
ATOM     94  C   UNL A   1      46.244  29.266  34.352  1.00  0.00     0.012 A 
ATOM     95  C   UNL A   1      45.926  27.400  32.839  1.00  0.00     0.148 A 
ATOM     96  C   UNL A   1      46.013  28.427  35.445  1.00  0.00     0.002 A 
ATOM     97  C   UNL A   1      45.642  26.582  33.922  1.00  0.00     0.091 A 
ATOM     98  F   UNL A   1      45.910  26.930  31.582  1.00  0.00    -0.205 F 
ATOM     99  C   UNL A   1      45.697  27.087  35.230  1.00  0.00     0.022 A 
BRANCH  97 100
ATOM    100  S   UNL A   1      45.096  24.891  33.684  1.00  0.00     0.127 S 
ATOM    101  O   UNL A   1      46.352  24.203  33.395  1.00  0.00    -0.237 OA
ATOM    102  O   UNL A   1      44.502  24.565  34.981  1.00  0.00    -0.237 OA
ATOM    103  O   UNL A   1      44.133  24.939  32.590  1.00  0.00    -0.744 OA
ENDBRANCH  97 100
ENDBRANCH  70  93
ENDBRANCH  44  45
ENDBRANCH  37  39
ENDBRANCH  36  37
ENDBRANCH  35  36
ENDBRANCH  34  35
ENDBRANCH  33  34
ENDBRANCH  32  33
ENDBRANCH  31  32
ENDBRANCH   1  31
TORSDOF 26
ENDMDL
MODEL 2
REMARK VINA RESULT:      -9.0      3.037      4.136
REMARK SMILES C[C@@H]([C@H]1CC=CS1)n1nccc1NC(=O)CC1(CC(=O)OCCOCCOCCOC(=O)c2ccc(-c3c4nc(c(-c5cccc(S(=O)(=O)[O-])c5F)c5ccc([nH]5)c(-c5cccc(S(=O)(=O)[O-])c5F)c5nc(c(-c6cccc(S(=O)(=O)[O-])c6F)c6ccc3[nH]6)C=C5)C=C4)cc2)CCCCC1
REMARK SMILES IDX 24 1 23 2 22 3 21 4 19 5 20 6 18 7 17 8 96 9 100 10 97 11
REMARK SMILES IDX 99 12 98 13 16 14 14 15 13 16 15 18 12 19 8 20 9 21 10 22
REMARK SMILES IDX 11 23 2 24 1 25 3 26 4 27 7 28 5 29 6 30 25 31 26 32 27 33
REMARK SMILES IDX 28 34 29 35 30 36 31 37 32 38 33 39 34 40 95 41 35 42 94 43
REMARK SMILES IDX 36 44 37 45 38 46 88 47 39 48 93 49 87 50 89 51 40 52 92 53
REMARK SMILES IDX 86 54 85 55 41 57 73 58 53 59 72 60 54 61 57 62 71 63 90 64
REMARK SMILES IDX 55 65 56 66 70 68 91 69 58 70 42 71 43 72 51 73 44 74 46 75
REMARK SMILES IDX 52 76 45 77 47 78 48 79 49 80 50 81 74 82 75 83 83 84 76 85
REMARK SMILES IDX 78 86 84 87 77 88 79 89 80 90 81 91 82 92 59 93 60 94 68 95
REMARK SMILES IDX 61 96 63 97 69 98 62 99 64 100 65 101 66 102 67 103
REMARK H PARENT 13 17 89 56 57 67
REMARK Flexibility Score: inf
ROOT
ATOM      1  O   UNL A   1      39.326  24.722  26.876  1.00  0.00    -0.376 OA
ENDROOT
BRANCH   1   2
ATOM      2  C   UNL A   1      38.646  23.513  26.562  1.00  0.00     0.202 C 
BRANCH   2   3
ATOM      3  C   UNL A   1      37.369  23.615  25.703  1.00  0.00     0.261 C 
BRANCH   3   4
ATOM      4  O   UNL A   1      37.279  22.732  24.548  1.00  0.00    -0.463 OA
BRANCH   4   5
ATOM      5  C   UNL A   1      36.382  23.070  23.595  1.00  0.00     0.306 C 
ATOM      6  O   UNL A   1      36.605  22.973  22.389  1.00  0.00    -0.252 OA
BRANCH   5   7
ATOM      7  C   UNL A   1      34.991  23.530  24.057  1.00  0.00     0.130 C 
BRANCH   7   8
ATOM      8  C   UNL A   1      33.683  22.695  24.306  1.00  0.00    -0.010 C 
ATOM      9  C   UNL A   1      32.915  23.369  25.493  1.00  0.00     0.008 C 
ATOM     10  C   UNL A   1      33.957  21.221  24.696  1.00  0.00     0.008 C 
ATOM     11  C   UNL A   1      33.516  23.168  26.878  1.00  0.00     0.001 C 
ATOM     12  C   UNL A   1      34.609  21.058  26.065  1.00  0.00     0.001 C 
ATOM     13  C   UNL A   1      33.759  21.694  27.159  1.00  0.00     0.000 C 
BRANCH   8  14
ATOM     14  C   UNL A   1      32.666  22.669  23.109  1.00  0.00     0.108 C 
BRANCH  14  15
ATOM     15  C   UNL A   1      32.780  23.747  22.048  1.00  0.00     0.226 C 
ATOM     16  N   UNL A   1      32.126  25.019  22.124  1.00  0.00    -0.311 N 
ATOM     17  H   UNL A   1      32.357  25.666  21.419  1.00  0.00     0.171 HD
ATOM     18  O   UNL A   1      33.549  23.657  21.100  1.00  0.00    -0.275 OA
BRANCH  16  19
ATOM     19  C   UNL A   1      31.212  25.447  23.065  1.00  0.00     0.131 A 
ATOM     20  N   UNL A   1      31.417  26.398  24.048  1.00  0.00    -0.246 N 
ATOM     21  N   UNL A   1      30.374  26.486  24.902  1.00  0.00    -0.179 NA
ATOM     22  C   UNL A   1      29.450  25.687  24.376  1.00  0.00     0.137 A 
ATOM     23  C   UNL A   1      29.891  25.081  23.187  1.00  0.00     0.068 A 
BRANCH  20  24
ATOM     24  C   UNL A   1      32.478  27.403  24.120  1.00  0.00     0.120 C 
ATOM     25  C   UNL A   1      32.309  28.362  22.933  1.00  0.00     0.034 C 
BRANCH  24  26
ATOM     26  C   UNL A   1      32.717  28.076  25.507  1.00  0.00     0.079 C 
ATOM     27  C   UNL A   1      34.132  27.897  26.104  1.00  0.00     0.045 C 
ATOM     28  S   UNL A   1      32.355  29.870  25.731  1.00  0.00    -0.128 SA
ATOM     29  C   UNL A   1      34.391  29.019  27.060  1.00  0.00    -0.019 C 
ATOM     30  C   UNL A   1      33.566  30.063  26.950  1.00  0.00     0.037 C 
ENDBRANCH  24  26
ENDBRANCH  20  24
ENDBRANCH  16  19
ENDBRANCH  14  15
ENDBRANCH   8  14
ENDBRANCH   7   8
ENDBRANCH   5   7
ENDBRANCH   4   5
ENDBRANCH   3   4
ENDBRANCH   2   3
ENDBRANCH   1   2
BRANCH   1  31
ATOM     31  C   UNL A   1      40.259  24.742  27.944  1.00  0.00     0.188 C 
BRANCH  31  32
ATOM     32  C   UNL A   1      41.383  25.782  27.951  1.00  0.00     0.188 C 
BRANCH  32  33
ATOM     33  O   UNL A   1      42.572  25.338  28.569  1.00  0.00    -0.376 OA
BRANCH  33  34
ATOM     34  C   UNL A   1      43.298  24.219  28.105  1.00  0.00     0.202 C 
BRANCH  34  35
ATOM     35  C   UNL A   1      43.121  23.993  26.622  1.00  0.00     0.261 C 
BRANCH  35  36
ATOM     36  O   UNL A   1      43.138  25.199  25.888  1.00  0.00    -0.460 OA
BRANCH  36  37
ATOM     37  C   UNL A   1      44.306  25.706  25.455  1.00  0.00     0.338 C 
ATOM     38  O   UNL A   1      45.184  25.162  24.815  1.00  0.00    -0.246 OA
BRANCH  37  39
ATOM     39  C   UNL A   1      44.339  27.067  25.993  1.00  0.00     0.060 A 
ATOM     40  C   UNL A   1      45.264  27.348  26.996  1.00  0.00     0.016 A 
ATOM     41  C   UNL A   1      43.266  27.922  25.688  1.00  0.00     0.016 A 
ATOM     42  C   UNL A   1      44.980  28.387  27.849  1.00  0.00     0.010 A 
ATOM     43  C   UNL A   1      42.945  28.900  26.574  1.00  0.00     0.010 A 
ATOM     44  C   UNL A   1      43.776  29.076  27.675  1.00  0.00    -0.014 A 
BRANCH  44  45
ATOM     45  C   UNL A   1      43.450  30.167  28.556  1.00  0.00     0.031 A 
ATOM     46  C   UNL A   1      44.466  31.243  28.459  1.00  0.00     0.074 A 
ATOM     47  C   UNL A   1      42.252  30.200  29.171  1.00  0.00     0.049 A 
ATOM     48  N   UNL A   1      45.235  31.691  29.395  1.00  0.00    -0.248 NA
ATOM     49  C   UNL A   1      44.841  31.718  27.109  1.00  0.00     0.031 C 
ATOM     50  C   UNL A   1      41.142  29.251  28.992  1.00  0.00     0.029 A 
ATOM     51  N   UNL A   1      41.698  31.175  29.939  1.00  0.00    -0.354 N 
ATOM     52  C   UNL A   1      45.955  32.719  28.791  1.00  0.00     0.074 A 
ATOM     53  C   UNL A   1      45.893  32.487  27.378  1.00  0.00     0.031 C 
ATOM     54  C   UNL A   1      39.995  29.827  29.412  1.00  0.00     0.029 A 
ATOM     55  C   UNL A   1      40.303  31.130  29.973  1.00  0.00     0.049 A 
ATOM     56  H   UNL A   1      42.228  31.848  30.423  1.00  0.00     0.167 HD
ATOM     57  C   UNL A   1      46.196  33.870  29.472  1.00  0.00     0.034 A 
ATOM     58  C   UNL A   1      39.470  32.138  30.336  1.00  0.00     0.034 A 
ATOM     59  C   UNL A   1      46.093  33.645  30.894  1.00  0.00     0.049 A 
ATOM     60  C   UNL A   1      40.286  33.144  31.052  1.00  0.00     0.074 A 
ATOM     61  C   UNL A   1      46.695  32.784  31.789  1.00  0.00     0.029 A 
ATOM     62  N   UNL A   1      44.952  34.105  31.501  1.00  0.00    -0.354 N 
ATOM     63  N   UNL A   1      40.824  32.941  32.221  1.00  0.00    -0.248 NA
ATOM     64  C   UNL A   1      40.857  34.236  30.280  1.00  0.00     0.031 C 
ATOM     65  C   UNL A   1      45.676  32.450  32.727  1.00  0.00     0.029 A 
ATOM     66  C   UNL A   1      44.527  33.177  32.409  1.00  0.00     0.049 A 
ATOM     67  H   UNL A   1      44.511  34.965  31.313  1.00  0.00     0.167 HD
ATOM     68  C   UNL A   1      42.073  33.541  32.128  1.00  0.00     0.074 A 
ATOM     69  C   UNL A   1      41.980  34.433  30.975  1.00  0.00     0.031 C 
ATOM     70  C   UNL A   1      43.142  33.019  32.799  1.00  0.00     0.034 A 
BRANCH  57  71
ATOM     71  C   UNL A   1      46.045  35.258  28.869  1.00  0.00     0.023 A 
ATOM     72  C   UNL A   1      47.101  36.164  29.110  1.00  0.00     0.012 A 
ATOM     73  C   UNL A   1      44.845  35.812  28.353  1.00  0.00     0.148 A 
ATOM     74  C   UNL A   1      46.943  37.544  28.941  1.00  0.00     0.002 A 
ATOM     75  C   UNL A   1      44.717  37.175  28.115  1.00  0.00     0.091 A 
ATOM     76  F   UNL A   1      43.759  35.058  28.189  1.00  0.00    -0.205 F 
ATOM     77  C   UNL A   1      45.749  38.051  28.443  1.00  0.00     0.022 A 
BRANCH  75  78
ATOM     78  S   UNL A   1      43.207  37.875  27.429  1.00  0.00     0.127 S 
ATOM     79  O   UNL A   1      43.667  39.192  27.001  1.00  0.00    -0.237 OA
ATOM     80  O   UNL A   1      42.911  36.934  26.349  1.00  0.00    -0.237 OA
ATOM     81  O   UNL A   1      42.234  37.863  28.515  1.00  0.00    -0.744 OA
ENDBRANCH  75  78
ENDBRANCH  57  71
BRANCH  58  82
ATOM     82  C   UNL A   1      38.083  32.449  29.908  1.00  0.00     0.023 A 
ATOM     83  C   UNL A   1      37.596  31.895  28.705  1.00  0.00     0.012 A 
ATOM     84  C   UNL A   1      37.153  33.043  30.787  1.00  0.00     0.148 A 
ATOM     85  C   UNL A   1      36.227  31.895  28.408  1.00  0.00     0.002 A 
ATOM     86  C   UNL A   1      35.794  33.054  30.481  1.00  0.00     0.091 A 
ATOM     87  F   UNL A   1      37.582  33.509  31.966  1.00  0.00    -0.205 F 
ATOM     88  C   UNL A   1      35.326  32.467  29.299  1.00  0.00     0.022 A 
BRANCH  86  89
ATOM     89  S   UNL A   1      34.572  33.760  31.595  1.00  0.00     0.127 S 
ATOM     90  O   UNL A   1      33.570  34.276  30.661  1.00  0.00    -0.237 OA
ATOM     91  O   UNL A   1      34.151  32.591  32.362  1.00  0.00    -0.237 OA
ATOM     92  O   UNL A   1      35.273  34.793  32.347  1.00  0.00    -0.744 OA
ENDBRANCH  86  89
ENDBRANCH  58  82
BRANCH  70  93
ATOM     93  C   UNL A   1      42.865  32.028  33.901  1.00  0.00     0.023 A 
ATOM     94  C   UNL A   1      42.607  32.405  35.236  1.00  0.00     0.012 A 
ATOM     95  C   UNL A   1      42.723  30.679  33.539  1.00  0.00     0.148 A 
ATOM     96  C   UNL A   1      42.250  31.451  36.192  1.00  0.00     0.002 A 
ATOM     97  C   UNL A   1      42.313  29.743  34.477  1.00  0.00     0.091 A 
ATOM     98  F   UNL A   1      42.974  30.333  32.267  1.00  0.00    -0.205 F 
ATOM     99  C   UNL A   1      42.088  30.121  35.809  1.00  0.00     0.022 A 
BRANCH  97 100
ATOM    100  S   UNL A   1      41.958  28.052  33.999  1.00  0.00     0.127 S 
ATOM    101  O   UNL A   1      42.320  27.312  35.205  1.00  0.00    -0.237 OA
ATOM    102  O   UNL A   1      40.523  28.099  33.714  1.00  0.00    -0.237 OA
ATOM    103  O   UNL A   1      42.783  27.793  32.825  1.00  0.00    -0.744 OA
ENDBRANCH  97 100
ENDBRANCH  70  93
ENDBRANCH  44  45
ENDBRANCH  37  39
ENDBRANCH  36  37
ENDBRANCH  35  36
ENDBRANCH  34  35
ENDBRANCH  33  34
ENDBRANCH  32  33
ENDBRANCH  31  32
ENDBRANCH   1  31
TORSDOF 26
ENDMDL
MODEL 3
REMARK VINA RESULT:      -8.5      3.825      8.041
REMARK SMILES C[C@@H]([C@H]1CC=CS1)n1nccc1NC(=O)CC1(CC(=O)OCCOCCOCCOC(=O)c2ccc(-c3c4nc(c(-c5cccc(S(=O)(=O)[O-])c5F)c5ccc([nH]5)c(-c5cccc(S(=O)(=O)[O-])c5F)c5nc(c(-c6cccc(S(=O)(=O)[O-])c6F)c6ccc3[nH]6)C=C5)C=C4)cc2)CCCCC1
REMARK SMILES IDX 24 1 23 2 22 3 21 4 19 5 20 6 18 7 17 8 96 9 100 10 97 11
REMARK SMILES IDX 99 12 98 13 16 14 14 15 13 16 15 18 12 19 8 20 9 21 10 22
REMARK SMILES IDX 11 23 2 24 1 25 3 26 4 27 7 28 5 29 6 30 25 31 26 32 27 33
REMARK SMILES IDX 28 34 29 35 30 36 31 37 32 38 33 39 34 40 95 41 35 42 94 43
REMARK SMILES IDX 36 44 37 45 38 46 88 47 39 48 93 49 87 50 89 51 40 52 92 53
REMARK SMILES IDX 86 54 85 55 41 57 73 58 53 59 72 60 54 61 57 62 71 63 90 64
REMARK SMILES IDX 55 65 56 66 70 68 91 69 58 70 42 71 43 72 51 73 44 74 46 75
REMARK SMILES IDX 52 76 45 77 47 78 48 79 49 80 50 81 74 82 75 83 83 84 76 85
REMARK SMILES IDX 78 86 84 87 77 88 79 89 80 90 81 91 82 92 59 93 60 94 68 95
REMARK SMILES IDX 61 96 63 97 69 98 62 99 64 100 65 101 66 102 67 103
REMARK H PARENT 13 17 89 56 57 67
REMARK Flexibility Score: inf
ROOT
ATOM      1  O   UNL A   1      39.683  24.550  26.092  1.00  0.00    -0.376 OA
ENDROOT
BRANCH   1   2
ATOM      2  C   UNL A   1      38.584  24.078  26.861  1.00  0.00     0.202 C 
BRANCH   2   3
ATOM      3  C   UNL A   1      37.293  23.704  26.105  1.00  0.00     0.261 C 
BRANCH   3   4
ATOM      4  O   UNL A   1      37.450  23.039  24.819  1.00  0.00    -0.463 OA
BRANCH   4   5
ATOM      5  C   UNL A   1      36.515  23.305  23.879  1.00  0.00     0.306 C 
ATOM      6  O   UNL A   1      36.639  23.000  22.694  1.00  0.00    -0.252 OA
BRANCH   5   7
ATOM      7  C   UNL A   1      35.205  23.959  24.344  1.00  0.00     0.130 C 
BRANCH   7   8
ATOM      8  C   UNL A   1      33.751  23.367  24.415  1.00  0.00    -0.010 C 
ATOM      9  C   UNL A   1      33.219  23.601  25.869  1.00  0.00     0.008 C 
ATOM     10  C   UNL A   1      33.690  21.845  24.129  1.00  0.00     0.008 C 
ATOM     11  C   UNL A   1      33.821  22.715  26.952  1.00  0.00     0.001 C 
ATOM     12  C   UNL A   1      34.350  20.989  25.205  1.00  0.00     0.001 C 
ATOM     13  C   UNL A   1      33.724  21.246  26.572  1.00  0.00     0.000 C 
BRANCH   8  14
ATOM     14  C   UNL A   1      32.701  24.051  23.469  1.00  0.00     0.108 C 
BRANCH  14  15
ATOM     15  C   UNL A   1      33.174  25.174  22.566  1.00  0.00     0.226 C 
ATOM     16  N   UNL A   1      33.248  26.548  22.966  1.00  0.00    -0.311 N 
ATOM     17  H   UNL A   1      33.663  27.165  22.320  1.00  0.00     0.171 HD
ATOM     18  O   UNL A   1      33.655  24.970  21.459  1.00  0.00    -0.275 OA
BRANCH  16  19
ATOM     19  C   UNL A   1      32.809  27.111  24.147  1.00  0.00     0.131 A 
ATOM     20  N   UNL A   1      31.498  27.351  24.515  1.00  0.00    -0.246 N 
ATOM     21  N   UNL A   1      31.409  28.046  25.671  1.00  0.00    -0.179 NA
ATOM     22  C   UNL A   1      32.664  28.124  26.105  1.00  0.00     0.137 A 
ATOM     23  C   UNL A   1      33.564  27.485  25.236  1.00  0.00     0.068 A 
BRANCH  20  24
ATOM     24  C   UNL A   1      30.282  26.777  23.939  1.00  0.00     0.120 C 
ATOM     25  C   UNL A   1      29.584  25.947  25.024  1.00  0.00     0.034 C 
BRANCH  24  26
ATOM     26  C   UNL A   1      29.365  27.743  23.127  1.00  0.00     0.079 C 
ATOM     27  C   UNL A   1      27.879  27.774  23.555  1.00  0.00     0.045 C 
ATOM     28  S   UNL A   1      29.825  29.521  22.960  1.00  0.00    -0.128 SA
ATOM     29  C   UNL A   1      27.292  29.088  23.141  1.00  0.00    -0.019 C 
ATOM     30  C   UNL A   1      28.179  30.036  22.834  1.00  0.00     0.037 C 
ENDBRANCH  24  26
ENDBRANCH  20  24
ENDBRANCH  16  19
ENDBRANCH  14  15
ENDBRANCH   8  14
ENDBRANCH   7   8
ENDBRANCH   5   7
ENDBRANCH   4   5
ENDBRANCH   3   4
ENDBRANCH   2   3
ENDBRANCH   1   2
BRANCH   1  31
ATOM     31  C   UNL A   1      40.921  24.816  26.732  1.00  0.00     0.188 C 
BRANCH  31  32
ATOM     32  C   UNL A   1      42.209  24.858  25.906  1.00  0.00     0.188 C 
BRANCH  32  33
ATOM     33  O   UNL A   1      42.890  23.622  25.841  1.00  0.00    -0.376 OA
BRANCH  33  34
ATOM     34  C   UNL A   1      43.487  23.023  26.971  1.00  0.00     0.202 C 
BRANCH  34  35
ATOM     35  C   UNL A   1      44.733  23.751  27.417  1.00  0.00     0.261 C 
BRANCH  35  36
ATOM     36  O   UNL A   1      44.442  24.864  28.235  1.00  0.00    -0.460 OA
BRANCH  36  37
ATOM     37  C   UNL A   1      44.282  24.701  29.561  1.00  0.00     0.338 C 
ATOM     38  O   UNL A   1      44.604  23.760  30.259  1.00  0.00    -0.246 OA
BRANCH  37  39
ATOM     39  C   UNL A   1      43.551  25.893  29.993  1.00  0.00     0.060 A 
ATOM     40  C   UNL A   1      42.898  26.645  29.019  1.00  0.00     0.016 A 
ATOM     41  C   UNL A   1      43.784  26.373  31.293  1.00  0.00     0.016 A 
ATOM     42  C   UNL A   1      42.674  27.974  29.286  1.00  0.00     0.010 A 
ATOM     43  C   UNL A   1      43.633  27.702  31.531  1.00  0.00     0.010 A 
ATOM     44  C   UNL A   1      43.137  28.492  30.500  1.00  0.00    -0.014 A 
BRANCH  44  45
ATOM     45  C   UNL A   1      42.920  29.882  30.805  1.00  0.00     0.031 A 
ATOM     46  C   UNL A   1      41.587  30.083  31.425  1.00  0.00     0.074 A 
ATOM     47  C   UNL A   1      43.938  30.759  30.705  1.00  0.00     0.049 A 
ATOM     48  N   UNL A   1      40.606  30.793  30.976  1.00  0.00    -0.248 NA
ATOM     49  C   UNL A   1      41.213  29.205  32.555  1.00  0.00     0.031 C 
ATOM     50  C   UNL A   1      45.339  30.451  30.378  1.00  0.00     0.029 A 
ATOM     51  N   UNL A   1      43.988  32.073  31.051  1.00  0.00    -0.354 N 
ATOM     52  C   UNL A   1      39.620  30.680  31.954  1.00  0.00     0.074 A 
ATOM     53  C   UNL A   1      39.924  29.499  32.707  1.00  0.00     0.031 C 
ATOM     54  C   UNL A   1      46.123  31.470  30.789  1.00  0.00     0.029 A 
ATOM     55  C   UNL A   1      45.280  32.530  31.312  1.00  0.00     0.049 A 
ATOM     56  H   UNL A   1      43.189  32.646  31.111  1.00  0.00     0.167 HD
ATOM     57  C   UNL A   1      38.883  31.767  32.303  1.00  0.00     0.034 A 
ATOM     58  C   UNL A   1      45.619  33.647  32.005  1.00  0.00     0.034 A 
ATOM     59  C   UNL A   1      38.905  32.751  31.248  1.00  0.00     0.049 A 
ATOM     60  C   UNL A   1      44.405  34.490  32.095  1.00  0.00     0.074 A 
ATOM     61  C   UNL A   1      38.582  32.746  29.906  1.00  0.00     0.029 A 
ATOM     62  N   UNL A   1      39.708  33.845  31.452  1.00  0.00    -0.354 N 
ATOM     63  N   UNL A   1      43.859  35.085  31.073  1.00  0.00    -0.248 NA
ATOM     64  C   UNL A   1      43.551  34.334  33.261  1.00  0.00     0.031 C 
ATOM     65  C   UNL A   1      39.540  33.602  29.289  1.00  0.00     0.029 A 
ATOM     66  C   UNL A   1      40.351  34.148  30.286  1.00  0.00     0.049 A 
ATOM     67  H   UNL A   1      39.805  34.332  32.303  1.00  0.00     0.167 HD
ATOM     68  C   UNL A   1      42.494  34.944  31.288  1.00  0.00     0.074 A 
ATOM     69  C   UNL A   1      42.368  34.605  32.704  1.00  0.00     0.031 C 
ATOM     70  C   UNL A   1      41.638  34.808  30.233  1.00  0.00     0.034 A 
BRANCH  57  71
ATOM     71  C   UNL A   1      38.559  32.144  33.741  1.00  0.00     0.023 A 
ATOM     72  C   UNL A   1      37.226  32.532  34.001  1.00  0.00     0.012 A 
ATOM     73  C   UNL A   1      39.506  32.420  34.759  1.00  0.00     0.148 A 
ATOM     74  C   UNL A   1      36.876  33.238  35.157  1.00  0.00     0.002 A 
ATOM     75  C   UNL A   1      39.140  33.054  35.940  1.00  0.00     0.091 A 
ATOM     76  F   UNL A   1      40.803  32.186  34.569  1.00  0.00    -0.205 F 
ATOM     77  C   UNL A   1      37.833  33.501  36.128  1.00  0.00     0.022 A 
BRANCH  75  78
ATOM     78  S   UNL A   1      40.334  33.378  37.248  1.00  0.00     0.127 S 
ATOM     79  O   UNL A   1      40.813  32.031  37.544  1.00  0.00    -0.237 OA
ATOM     80  O   UNL A   1      41.292  34.245  36.562  1.00  0.00    -0.237 OA
ATOM     81  O   UNL A   1      39.589  34.036  38.314  1.00  0.00    -0.744 OA
ENDBRANCH  75  78
ENDBRANCH  57  71
BRANCH  58  82
ATOM     82  C   UNL A   1      46.820  33.952  32.822  1.00  0.00     0.023 A 
ATOM     83  C   UNL A   1      47.527  35.149  32.581  1.00  0.00     0.012 A 
ATOM     84  C   UNL A   1      47.116  33.235  34.000  1.00  0.00     0.148 A 
ATOM     85  C   UNL A   1      48.464  35.636  33.501  1.00  0.00     0.002 A 
ATOM     86  C   UNL A   1      48.058  33.715  34.906  1.00  0.00     0.091 A 
ATOM     87  F   UNL A   1      46.406  32.136  34.285  1.00  0.00    -0.205 F 
ATOM     88  C   UNL A   1      48.724  34.924  34.667  1.00  0.00     0.022 A 
BRANCH  86  89
ATOM     89  S   UNL A   1      48.431  32.854  36.440  1.00  0.00     0.127 S 
ATOM     90  O   UNL A   1      48.616  31.477  35.979  1.00  0.00    -0.237 OA
ATOM     91  O   UNL A   1      49.652  33.525  36.873  1.00  0.00    -0.237 OA
ATOM     92  O   UNL A   1      47.265  33.045  37.293  1.00  0.00    -0.744 OA
ENDBRANCH  86  89
ENDBRANCH  58  82
BRANCH  70  93
ATOM     93  C   UNL A   1      42.148  35.174  28.862  1.00  0.00     0.023 A 
ATOM     94  C   UNL A   1      41.995  36.458  28.296  1.00  0.00     0.012 A 
ATOM     95  C   UNL A   1      42.931  34.224  28.187  1.00  0.00     0.148 A 
ATOM     96  C   UNL A   1      42.583  36.771  27.068  1.00  0.00     0.002 A 
ATOM     97  C   UNL A   1      43.559  34.556  26.996  1.00  0.00     0.091 A 
ATOM     98  F   UNL A   1      43.065  33.007  28.735  1.00  0.00    -0.205 F 
ATOM     99  C   UNL A   1      43.378  35.825  26.424  1.00  0.00     0.022 A 
BRANCH  97 100
ATOM    100  S   UNL A   1      44.699  33.420  26.206  1.00  0.00     0.127 S 
ATOM    101  O   UNL A   1      43.809  32.346  25.773  1.00  0.00    -0.237 OA
ATOM    102  O   UNL A   1      45.254  34.233  25.122  1.00  0.00    -0.237 OA
ATOM    103  O   UNL A   1      45.672  33.063  27.232  1.00  0.00    -0.744 OA
ENDBRANCH  97 100
ENDBRANCH  70  93
ENDBRANCH  44  45
ENDBRANCH  37  39
ENDBRANCH  36  37
ENDBRANCH  35  36
ENDBRANCH  34  35
ENDBRANCH  33  34
ENDBRANCH  32  33
ENDBRANCH  31  32
ENDBRANCH   1  31
TORSDOF 26
ENDMDL
