MODEL 1
REMARK VINA RESULT:      -8.3      0.000      0.000
REMARK SMILES CCCCCC(=O)N1CCC[C@H](C(=O)OCCOCCOCCOC(=O)c2ccc(-c3c4nc(c(-c5cccc(S(=O)(=O)[O-])c5F)c5ccc([nH]5)c(-c5cccc(S(=O)(=O)[O-])c5F)c5nc(c(-c6cccc(S(=O)(=O)[O-])c6F)c6ccc3[nH]6)C=C5)C=C4)cc2)C1
REMARK SMILES IDX 19 1 18 2 17 3 16 4 15 5 13 6 14 7 12 8 8 9 9 10 90 11 10 12
REMARK SMILES IDX 11 13 6 14 7 15 5 16 4 17 3 18 2 19 1 20 20 21 21 22 22 23
REMARK SMILES IDX 23 24 24 25 25 26 26 27 27 28 28 29 89 30 29 31 88 32 30 33
REMARK SMILES IDX 31 34 32 35 82 36 33 37 87 38 81 39 83 40 34 41 86 42 80 43
REMARK SMILES IDX 79 44 35 46 67 47 47 48 66 49 48 50 51 51 65 52 84 53 49 54
REMARK SMILES IDX 50 55 64 57 85 58 52 59 36 60 37 61 45 62 38 63 40 64 46 65
REMARK SMILES IDX 39 66 41 67 42 68 43 69 44 70 68 71 69 72 77 73 70 74 72 75
REMARK SMILES IDX 78 76 71 77 73 78 74 79 75 80 76 81 53 82 54 83 62 84 55 85
REMARK SMILES IDX 57 86 63 87 56 88 58 89 59 90 60 91 61 92
REMARK H PARENT 83 45 51 56
REMARK Flexibility Score: inf
ROOT
ATOM      1  C   UNL A   1      36.719  21.685  25.068  1.00  0.00     0.188 C 
ENDROOT
BRANCH   1   2
ATOM      2  O   UNL A   1      36.497  22.238  23.792  1.00  0.00    -0.376 OA
BRANCH   2   3
ATOM      3  C   UNL A   1      35.638  23.368  23.684  1.00  0.00     0.202 C 
BRANCH   3   4
ATOM      4  C   UNL A   1      35.029  24.066  24.914  1.00  0.00     0.261 C 
BRANCH   4   5
ATOM      5  O   UNL A   1      34.695  25.460  24.726  1.00  0.00    -0.463 OA
BRANCH   5   6
ATOM      6  C   UNL A   1      33.480  25.856  25.179  1.00  0.00     0.310 C 
ATOM      7  O   UNL A   1      32.977  25.448  26.223  1.00  0.00    -0.252 OA
BRANCH   6   8
ATOM      8  C   UNL A   1      32.731  26.859  24.300  1.00  0.00     0.119 C 
ATOM      9  N   UNL A   1      31.485  25.102  23.179  1.00  0.00    -0.342 N 
ATOM     10  C   UNL A   1      32.053  25.395  21.859  1.00  0.00     0.119 C 
ATOM     11  C   UNL A   1      31.363  26.261  24.035  1.00  0.00     0.134 C 
ATOM     12  C   UNL A   1      33.345  26.215  21.919  1.00  0.00     0.022 C 
ATOM     13  C   UNL A   1      33.290  27.328  22.960  1.00  0.00     0.019 C 
BRANCH   9  14
ATOM     14  C   UNL A   1      31.371  23.799  23.631  1.00  0.00     0.222 C 
ATOM     15  O   UNL A   1      30.709  23.549  24.645  1.00  0.00    -0.275 OA
BRANCH  14  16
ATOM     16  C   UNL A   1      32.240  22.671  23.027  1.00  0.00     0.100 C 
BRANCH  16  17
ATOM     17  C   UNL A   1      31.753  21.268  22.631  1.00  0.00     0.010 C 
BRANCH  17  18
ATOM     18  C   UNL A   1      32.555  19.996  23.000  1.00  0.00     0.000 C 
BRANCH  18  19
ATOM     19  C   UNL A   1      32.490  19.506  24.452  1.00  0.00    -0.003 C 
ATOM     20  C   UNL A   1      33.129  20.475  25.424  1.00  0.00     0.004 C 
ENDBRANCH  18  19
ENDBRANCH  17  18
ENDBRANCH  16  17
ENDBRANCH  14  16
ENDBRANCH   9  14
ENDBRANCH   6   8
ENDBRANCH   5   6
ENDBRANCH   4   5
ENDBRANCH   3   4
ENDBRANCH   2   3
ENDBRANCH   1   2
BRANCH   1  21
ATOM     21  C   UNL A   1      38.133  21.779  25.625  1.00  0.00     0.188 C 
BRANCH  21  22
ATOM     22  O   UNL A   1      38.822  20.650  26.108  1.00  0.00    -0.376 OA
BRANCH  22  23
ATOM     23  C   UNL A   1      40.212  20.668  26.378  1.00  0.00     0.202 C 
BRANCH  23  24
ATOM     24  C   UNL A   1      41.204  19.543  26.019  1.00  0.00     0.261 C 
BRANCH  24  25
ATOM     25  O   UNL A   1      42.562  19.678  26.429  1.00  0.00    -0.460 OA
BRANCH  25  26
ATOM     26  C   UNL A   1      43.354  20.443  25.629  1.00  0.00     0.338 C 
ATOM     27  O   UNL A   1      43.848  20.122  24.571  1.00  0.00    -0.246 OA
BRANCH  26  28
ATOM     28  C   UNL A   1      43.260  21.840  26.139  1.00  0.00     0.060 A 
ATOM     29  C   UNL A   1      43.005  22.866  25.213  1.00  0.00     0.016 A 
ATOM     30  C   UNL A   1      43.296  22.120  27.505  1.00  0.00     0.016 A 
ATOM     31  C   UNL A   1      42.816  24.177  25.649  1.00  0.00     0.010 A 
ATOM     32  C   UNL A   1      43.140  23.440  27.938  1.00  0.00     0.010 A 
ATOM     33  C   UNL A   1      42.934  24.479  27.010  1.00  0.00    -0.014 A 
BRANCH  33  34
ATOM     34  C   UNL A   1      43.087  25.889  27.444  1.00  0.00     0.031 A 
ATOM     35  C   UNL A   1      44.476  26.470  27.441  1.00  0.00     0.074 A 
ATOM     36  C   UNL A   1      42.043  26.638  27.842  1.00  0.00     0.049 A 
ATOM     37  N   UNL A   1      44.889  27.640  27.849  1.00  0.00    -0.248 NA
ATOM     38  C   UNL A   1      45.545  25.605  26.910  1.00  0.00     0.031 C 
ATOM     39  C   UNL A   1      40.649  26.206  27.872  1.00  0.00     0.029 A 
ATOM     40  N   UNL A   1      42.011  27.921  28.332  1.00  0.00    -0.354 N 
ATOM     41  C   UNL A   1      46.265  27.639  27.662  1.00  0.00     0.074 A 
ATOM     42  C   UNL A   1      46.620  26.351  27.111  1.00  0.00     0.031 C 
ATOM     43  C   UNL A   1      39.899  27.195  28.392  1.00  0.00     0.029 A 
ATOM     44  C   UNL A   1      40.765  28.315  28.760  1.00  0.00     0.049 A 
ATOM     45  H   UNL A   1      42.804  28.504  28.373  1.00  0.00     0.167 HD
ATOM     46  C   UNL A   1      47.158  28.624  27.916  1.00  0.00     0.034 A 
ATOM     47  C   UNL A   1      40.376  29.435  29.404  1.00  0.00     0.034 A 
ATOM     48  C   UNL A   1      46.807  29.908  28.456  1.00  0.00     0.049 A 
ATOM     49  C   UNL A   1      41.396  30.503  29.717  1.00  0.00     0.074 A 
ATOM     50  C   UNL A   1      47.634  30.987  28.710  1.00  0.00     0.029 A 
ATOM     51  N   UNL A   1      45.530  30.283  28.843  1.00  0.00    -0.354 N 
ATOM     52  N   UNL A   1      42.678  30.533  29.440  1.00  0.00    -0.248 NA
ATOM     53  C   UNL A   1      40.909  31.708  30.407  1.00  0.00     0.031 C 
ATOM     54  C   UNL A   1      46.865  32.000  29.289  1.00  0.00     0.029 A 
ATOM     55  C   UNL A   1      45.549  31.569  29.350  1.00  0.00     0.049 A 
ATOM     56  H   UNL A   1      44.728  29.716  28.769  1.00  0.00     0.167 HD
ATOM     57  C   UNL A   1      43.139  31.770  29.882  1.00  0.00     0.074 A 
ATOM     58  C   UNL A   1      41.996  32.468  30.431  1.00  0.00     0.031 C 
ATOM     59  C   UNL A   1      44.396  32.277  29.846  1.00  0.00     0.034 A 
BRANCH  46  60
ATOM     60  C   UNL A   1      48.605  28.347  27.611  1.00  0.00     0.023 A 
ATOM     61  C   UNL A   1      49.507  28.078  28.660  1.00  0.00     0.012 A 
ATOM     62  C   UNL A   1      49.061  28.309  26.279  1.00  0.00     0.148 A 
ATOM     63  C   UNL A   1      50.849  27.811  28.391  1.00  0.00     0.002 A 
ATOM     64  C   UNL A   1      50.387  27.992  26.015  1.00  0.00     0.091 A 
ATOM     65  F   UNL A   1      48.193  28.593  25.298  1.00  0.00    -0.205 F 
ATOM     66  C   UNL A   1      51.285  27.756  27.070  1.00  0.00     0.022 A 
BRANCH  64  67
ATOM     67  S   UNL A   1      51.028  27.816  24.347  1.00  0.00     0.127 S 
ATOM     68  O   UNL A   1      52.373  27.303  24.601  1.00  0.00    -0.237 OA
ATOM     69  O   UNL A   1      50.103  26.843  23.766  1.00  0.00    -0.237 OA
ATOM     70  O   UNL A   1      50.969  29.144  23.751  1.00  0.00    -0.744 OA
ENDBRANCH  64  67
ENDBRANCH  46  60
BRANCH  47  71
ATOM     71  C   UNL A   1      38.949  29.619  29.795  1.00  0.00     0.023 A 
ATOM     72  C   UNL A   1      38.490  29.109  31.027  1.00  0.00     0.012 A 
ATOM     73  C   UNL A   1      38.043  30.288  28.950  1.00  0.00     0.148 A 
ATOM     74  C   UNL A   1      37.149  29.232  31.392  1.00  0.00     0.002 A 
ATOM     75  C   UNL A   1      36.722  30.458  29.347  1.00  0.00     0.091 A 
ATOM     76  F   UNL A   1      38.493  30.749  27.775  1.00  0.00    -0.205 F 
ATOM     77  C   UNL A   1      36.268  29.914  30.558  1.00  0.00     0.022 A 
BRANCH  75  78
ATOM     78  S   UNL A   1      35.543  31.423  28.395  1.00  0.00     0.127 S 
ATOM     79  O   UNL A   1      34.573  31.805  29.419  1.00  0.00    -0.237 OA
ATOM     80  O   UNL A   1      36.382  32.516  27.902  1.00  0.00    -0.237 OA
ATOM     81  O   UNL A   1      35.045  30.529  27.359  1.00  0.00    -0.744 OA
ENDBRANCH  75  78
ENDBRANCH  47  71
BRANCH  59  82
ATOM     82  C   UNL A   1      44.610  33.680  30.360  1.00  0.00     0.023 A 
ATOM     83  C   UNL A   1      44.956  33.897  31.707  1.00  0.00     0.012 A 
ATOM     84  C   UNL A   1      44.544  34.779  29.478  1.00  0.00     0.148 A 
ATOM     85  C   UNL A   1      45.198  35.189  32.178  1.00  0.00     0.002 A 
ATOM     86  C   UNL A   1      44.839  36.056  29.942  1.00  0.00     0.091 A 
ATOM     87  F   UNL A   1      44.199  34.555  28.202  1.00  0.00    -0.205 F 
ATOM     88  C   UNL A   1      45.151  36.265  31.294  1.00  0.00     0.022 A 
BRANCH  86  89
ATOM     89  S   UNL A   1      44.902  37.485  28.857  1.00  0.00     0.127 S 
ATOM     90  O   UNL A   1      43.510  37.593  28.424  1.00  0.00    -0.237 OA
ATOM     91  O   UNL A   1      45.342  38.544  29.766  1.00  0.00    -0.237 OA
ATOM     92  O   UNL A   1      45.856  37.154  27.807  1.00  0.00    -0.744 OA
ENDBRANCH  86  89
ENDBRANCH  59  82
ENDBRANCH  33  34
ENDBRANCH  26  28
ENDBRANCH  25  26
ENDBRANCH  24  25
ENDBRANCH  23  24
ENDBRANCH  22  23
ENDBRANCH  21  22
ENDBRANCH   1  21
TORSDOF 25
ENDMDL
MODEL 2
REMARK VINA RESULT:      -7.8      4.709     10.462
REMARK SMILES CCCCCC(=O)N1CCC[C@H](C(=O)OCCOCCOCCOC(=O)c2ccc(-c3c4nc(c(-c5cccc(S(=O)(=O)[O-])c5F)c5ccc([nH]5)c(-c5cccc(S(=O)(=O)[O-])c5F)c5nc(c(-c6cccc(S(=O)(=O)[O-])c6F)c6ccc3[nH]6)C=C5)C=C4)cc2)C1
REMARK SMILES IDX 19 1 18 2 17 3 16 4 15 5 13 6 14 7 12 8 8 9 9 10 90 11 10 12
REMARK SMILES IDX 11 13 6 14 7 15 5 16 4 17 3 18 2 19 1 20 20 21 21 22 22 23
REMARK SMILES IDX 23 24 24 25 25 26 26 27 27 28 28 29 89 30 29 31 88 32 30 33
REMARK SMILES IDX 31 34 32 35 82 36 33 37 87 38 81 39 83 40 34 41 86 42 80 43
REMARK SMILES IDX 79 44 35 46 67 47 47 48 66 49 48 50 51 51 65 52 84 53 49 54
REMARK SMILES IDX 50 55 64 57 85 58 52 59 36 60 37 61 45 62 38 63 40 64 46 65
REMARK SMILES IDX 39 66 41 67 42 68 43 69 44 70 68 71 69 72 77 73 70 74 72 75
REMARK SMILES IDX 78 76 71 77 73 78 74 79 75 80 76 81 53 82 54 83 62 84 55 85
REMARK SMILES IDX 57 86 63 87 56 88 58 89 59 90 60 91 61 92
REMARK H PARENT 83 45 51 56
REMARK Flexibility Score: inf
ROOT
ATOM      1  C   UNL A   1      38.022  32.319  29.580  1.00  0.00     0.188 C 
ENDROOT
BRANCH   1   2
ATOM      2  O   UNL A   1      39.135  31.473  29.737  1.00  0.00    -0.376 OA
BRANCH   2   3
ATOM      3  C   UNL A   1      39.035  30.129  29.280  1.00  0.00     0.202 C 
BRANCH   3   4
ATOM      4  C   UNL A   1      40.259  29.204  29.151  1.00  0.00     0.261 C 
BRANCH   4   5
ATOM      5  O   UNL A   1      40.974  29.303  27.898  1.00  0.00    -0.463 OA
BRANCH   5   6
ATOM      6  C   UNL A   1      42.186  28.699  27.846  1.00  0.00     0.310 C 
ATOM      7  O   UNL A   1      42.844  28.403  28.840  1.00  0.00    -0.252 OA
BRANCH   6   8
ATOM      8  C   UNL A   1      42.726  28.399  26.446  1.00  0.00     0.119 C 
ATOM      9  N   UNL A   1      41.824  26.145  26.470  1.00  0.00    -0.342 N 
ATOM     10  C   UNL A   1      43.139  25.502  26.380  1.00  0.00     0.119 C 
ATOM     11  C   UNL A   1      41.750  27.428  25.809  1.00  0.00     0.134 C 
ATOM     12  C   UNL A   1      44.297  26.426  26.769  1.00  0.00     0.022 C 
ATOM     13  C   UNL A   1      44.130  27.843  26.228  1.00  0.00     0.019 C 
BRANCH   9  14
ATOM     14  C   UNL A   1      40.866  25.683  27.358  1.00  0.00     0.222 C 
ATOM     15  O   UNL A   1      41.063  25.754  28.576  1.00  0.00    -0.275 OA
BRANCH  14  16
ATOM     16  C   UNL A   1      39.648  24.873  26.858  1.00  0.00     0.100 C 
BRANCH  16  17
ATOM     17  C   UNL A   1      39.511  23.342  26.874  1.00  0.00     0.010 C 
BRANCH  17  18
ATOM     18  C   UNL A   1      40.547  22.442  27.593  1.00  0.00     0.000 C 
BRANCH  18  19
ATOM     19  C   UNL A   1      40.773  21.030  27.039  1.00  0.00    -0.003 C 
ATOM     20  C   UNL A   1      42.118  20.880  26.358  1.00  0.00     0.004 C 
ENDBRANCH  18  19
ENDBRANCH  17  18
ENDBRANCH  16  17
ENDBRANCH  14  16
ENDBRANCH   9  14
ENDBRANCH   6   8
ENDBRANCH   5   6
ENDBRANCH   4   5
ENDBRANCH   3   4
ENDBRANCH   2   3
ENDBRANCH   1   2
BRANCH   1  21
ATOM     21  C   UNL A   1      37.168  32.575  30.815  1.00  0.00     0.188 C 
BRANCH  21  22
ATOM     22  O   UNL A   1      37.269  33.766  31.559  1.00  0.00    -0.376 OA
BRANCH  22  23
ATOM     23  C   UNL A   1      36.308  34.136  32.532  1.00  0.00     0.202 C 
BRANCH  23  24
ATOM     24  C   UNL A   1      36.489  34.002  34.058  1.00  0.00     0.261 C 
BRANCH  24  25
ATOM     25  O   UNL A   1      36.512  32.696  34.626  1.00  0.00    -0.460 OA
BRANCH  25  26
ATOM     26  C   UNL A   1      37.507  32.451  35.523  1.00  0.00     0.338 C 
ATOM     27  O   UNL A   1      37.403  32.384  36.727  1.00  0.00    -0.246 OA
BRANCH  26  28
ATOM     28  C   UNL A   1      38.686  31.986  34.739  1.00  0.00     0.060 A 
ATOM     29  C   UNL A   1      38.485  30.984  33.775  1.00  0.00     0.016 A 
ATOM     30  C   UNL A   1      39.931  32.603  34.861  1.00  0.00     0.016 A 
ATOM     31  C   UNL A   1      39.535  30.577  32.952  1.00  0.00     0.010 A 
ATOM     32  C   UNL A   1      40.992  32.172  34.059  1.00  0.00     0.010 A 
ATOM     33  C   UNL A   1      40.807  31.133  33.126  1.00  0.00    -0.014 A 
BRANCH  33  34
ATOM     34  C   UNL A   1      41.990  30.477  32.518  1.00  0.00     0.031 A 
ATOM     35  C   UNL A   1      42.610  31.137  31.316  1.00  0.00     0.074 A 
ATOM     36  C   UNL A   1      42.500  29.327  32.995  1.00  0.00     0.049 A 
ATOM     37  N   UNL A   1      43.591  30.729  30.556  1.00  0.00    -0.248 NA
ATOM     38  C   UNL A   1      42.038  32.435  30.916  1.00  0.00     0.031 C 
ATOM     39  C   UNL A   1      42.010  28.597  34.160  1.00  0.00     0.029 A 
ATOM     40  N   UNL A   1      43.535  28.555  32.523  1.00  0.00    -0.354 N 
ATOM     41  C   UNL A   1      43.727  31.695  29.567  1.00  0.00     0.074 A 
ATOM     42  C   UNL A   1      42.726  32.707  29.819  1.00  0.00     0.031 C 
ATOM     43  C   UNL A   1      42.720  27.462  34.292  1.00  0.00     0.029 A 
ATOM     44  C   UNL A   1      43.691  27.371  33.202  1.00  0.00     0.049 A 
ATOM     45  H   UNL A   1      44.110  28.825  31.770  1.00  0.00     0.167 HD
ATOM     46  C   UNL A   1      44.612  31.745  28.545  1.00  0.00     0.034 A 
ATOM     47  C   UNL A   1      44.501  26.321  32.952  1.00  0.00     0.034 A 
ATOM     48  C   UNL A   1      45.613  30.745  28.298  1.00  0.00     0.049 A 
ATOM     49  C   UNL A   1      45.450  26.378  31.780  1.00  0.00     0.074 A 
ATOM     50  C   UNL A   1      46.583  30.727  27.311  1.00  0.00     0.029 A 
ATOM     51  N   UNL A   1      45.764  29.577  29.028  1.00  0.00    -0.354 N 
ATOM     52  N   UNL A   1      45.642  27.345  30.914  1.00  0.00    -0.248 NA
ATOM     53  C   UNL A   1      46.319  25.209  31.567  1.00  0.00     0.031 C 
ATOM     54  C   UNL A   1      47.294  29.529  27.420  1.00  0.00     0.029 A 
ATOM     55  C   UNL A   1      46.799  28.823  28.506  1.00  0.00     0.049 A 
ATOM     56  H   UNL A   1      45.215  29.322  29.805  1.00  0.00     0.167 HD
ATOM     57  C   UNL A   1      46.676  26.920  30.084  1.00  0.00     0.074 A 
ATOM     58  C   UNL A   1      47.082  25.615  30.561  1.00  0.00     0.031 C 
ATOM     59  C   UNL A   1      47.232  27.549  29.019  1.00  0.00     0.034 A 
BRANCH  46  60
ATOM     60  C   UNL A   1      44.534  32.925  27.614  1.00  0.00     0.023 A 
ATOM     61  C   UNL A   1      43.868  32.804  26.378  1.00  0.00     0.012 A 
ATOM     62  C   UNL A   1      45.083  34.168  27.986  1.00  0.00     0.148 A 
ATOM     63  C   UNL A   1      43.780  33.892  25.509  1.00  0.00     0.002 A 
ATOM     64  C   UNL A   1      44.947  35.260  27.140  1.00  0.00     0.091 A 
ATOM     65  F   UNL A   1      45.733  34.255  29.155  1.00  0.00    -0.205 F 
ATOM     66  C   UNL A   1      44.309  35.121  25.896  1.00  0.00     0.022 A 
BRANCH  64  67
ATOM     67  S   UNL A   1      45.520  36.904  27.580  1.00  0.00     0.127 S 
ATOM     68  O   UNL A   1      44.828  37.127  28.849  1.00  0.00    -0.237 OA
ATOM     69  O   UNL A   1      46.964  36.702  27.700  1.00  0.00    -0.237 OA
ATOM     70  O   UNL A   1      45.115  37.778  26.487  1.00  0.00    -0.744 OA
ENDBRANCH  64  67
ENDBRANCH  46  60
BRANCH  47  71
ATOM     71  C   UNL A   1      44.464  25.117  33.832  1.00  0.00     0.023 A 
ATOM     72  C   UNL A   1      43.567  24.068  33.544  1.00  0.00     0.012 A 
ATOM     73  C   UNL A   1      45.304  25.012  34.957  1.00  0.00     0.148 A 
ATOM     74  C   UNL A   1      43.486  22.953  34.380  1.00  0.00     0.002 A 
ATOM     75  C   UNL A   1      45.258  23.872  35.751  1.00  0.00     0.091 A 
ATOM     76  F   UNL A   1      46.136  26.028  35.226  1.00  0.00    -0.205 F 
ATOM     77  C   UNL A   1      44.336  22.851  35.476  1.00  0.00     0.022 A 
BRANCH  75  78
ATOM     78  S   UNL A   1      46.396  23.597  37.114  1.00  0.00     0.127 S 
ATOM     79  O   UNL A   1      47.654  23.360  36.411  1.00  0.00    -0.237 OA
ATOM     80  O   UNL A   1      46.319  24.872  37.828  1.00  0.00    -0.237 OA
ATOM     81  O   UNL A   1      45.863  22.459  37.851  1.00  0.00    -0.744 OA
ENDBRANCH  75  78
ENDBRANCH  47  71
BRANCH  59  82
ATOM     82  C   UNL A   1      48.383  26.871  28.317  1.00  0.00     0.023 A 
ATOM     83  C   UNL A   1      48.154  26.091  27.168  1.00  0.00     0.012 A 
ATOM     84  C   UNL A   1      49.707  27.079  28.759  1.00  0.00     0.148 A 
ATOM     85  C   UNL A   1      49.221  25.498  26.489  1.00  0.00     0.002 A 
ATOM     86  C   UNL A   1      50.767  26.530  28.046  1.00  0.00     0.091 A 
ATOM     87  F   UNL A   1      49.905  27.813  29.863  1.00  0.00    -0.205 F 
ATOM     88  C   UNL A   1      50.525  25.727  26.920  1.00  0.00     0.022 A 
BRANCH  86  89
ATOM     89  S   UNL A   1      52.482  26.852  28.468  1.00  0.00     0.127 S 
ATOM     90  O   UNL A   1      53.190  26.077  27.451  1.00  0.00    -0.237 OA
ATOM     91  O   UNL A   1      52.574  28.303  28.303  1.00  0.00    -0.237 OA
ATOM     92  O   UNL A   1      52.657  26.387  29.837  1.00  0.00    -0.744 OA
ENDBRANCH  86  89
ENDBRANCH  59  82
ENDBRANCH  33  34
ENDBRANCH  26  28
ENDBRANCH  25  26
ENDBRANCH  24  25
ENDBRANCH  23  24
ENDBRANCH  22  23
ENDBRANCH  21  22
ENDBRANCH   1  21
TORSDOF 25
ENDMDL
MODEL 3
REMARK VINA RESULT:      -7.6      2.446      4.025
REMARK SMILES CCCCCC(=O)N1CCC[C@H](C(=O)OCCOCCOCCOC(=O)c2ccc(-c3c4nc(c(-c5cccc(S(=O)(=O)[O-])c5F)c5ccc([nH]5)c(-c5cccc(S(=O)(=O)[O-])c5F)c5nc(c(-c6cccc(S(=O)(=O)[O-])c6F)c6ccc3[nH]6)C=C5)C=C4)cc2)C1
REMARK SMILES IDX 19 1 18 2 17 3 16 4 15 5 13 6 14 7 12 8 8 9 9 10 90 11 10 12
REMARK SMILES IDX 11 13 6 14 7 15 5 16 4 17 3 18 2 19 1 20 20 21 21 22 22 23
REMARK SMILES IDX 23 24 24 25 25 26 26 27 27 28 28 29 89 30 29 31 88 32 30 33
REMARK SMILES IDX 31 34 32 35 82 36 33 37 87 38 81 39 83 40 34 41 86 42 80 43
REMARK SMILES IDX 79 44 35 46 67 47 47 48 66 49 48 50 51 51 65 52 84 53 49 54
REMARK SMILES IDX 50 55 64 57 85 58 52 59 36 60 37 61 45 62 38 63 40 64 46 65
REMARK SMILES IDX 39 66 41 67 42 68 43 69 44 70 68 71 69 72 77 73 70 74 72 75
REMARK SMILES IDX 78 76 71 77 73 78 74 79 75 80 76 81 53 82 54 83 62 84 55 85
REMARK SMILES IDX 57 86 63 87 56 88 58 89 59 90 60 91 61 92
REMARK H PARENT 83 45 51 56
REMARK Flexibility Score: inf
ROOT
ATOM      1  C   UNL A   1      40.263  24.112  26.517  1.00  0.00     0.188 C 
ENDROOT
BRANCH   1   2
ATOM      2  O   UNL A   1      38.966  23.665  26.834  1.00  0.00    -0.376 OA
BRANCH   2   3
ATOM      3  C   UNL A   1      37.985  23.649  25.803  1.00  0.00     0.202 C 
BRANCH   3   4
ATOM      4  C   UNL A   1      36.501  23.340  26.077  1.00  0.00     0.261 C 
BRANCH   4   5
ATOM      5  O   UNL A   1      35.575  23.854  25.092  1.00  0.00    -0.463 OA
BRANCH   5   6
ATOM      6  C   UNL A   1      34.258  23.642  25.334  1.00  0.00     0.310 C 
ATOM      7  O   UNL A   1      33.648  24.145  26.274  1.00  0.00    -0.252 OA
BRANCH   6   8
ATOM      8  C   UNL A   1      33.540  22.707  24.359  1.00  0.00     0.119 C 
ATOM      9  N   UNL A   1      32.875  24.549  22.923  1.00  0.00    -0.342 N 
ATOM     10  C   UNL A   1      31.440  24.335  23.132  1.00  0.00     0.119 C 
ATOM     11  C   UNL A   1      33.665  23.340  22.986  1.00  0.00     0.134 C 
ATOM     12  C   UNL A   1      31.123  23.495  24.373  1.00  0.00     0.022 C 
ATOM     13  C   UNL A   1      32.077  22.318  24.549  1.00  0.00     0.019 C 
BRANCH   9  14
ATOM     14  C   UNL A   1      33.418  25.822  22.964  1.00  0.00     0.222 C 
ATOM     15  O   UNL A   1      34.015  26.275  21.981  1.00  0.00    -0.275 OA
BRANCH  14  16
ATOM     16  C   UNL A   1      33.492  26.609  24.293  1.00  0.00     0.100 C 
BRANCH  16  17
ATOM     17  C   UNL A   1      32.297  27.166  25.083  1.00  0.00     0.010 C 
BRANCH  17  18
ATOM     18  C   UNL A   1      31.354  28.237  24.480  1.00  0.00     0.000 C 
BRANCH  18  19
ATOM     19  C   UNL A   1      31.481  29.675  24.998  1.00  0.00    -0.003 C 
ATOM     20  C   UNL A   1      31.771  29.736  26.483  1.00  0.00     0.004 C 
ENDBRANCH  18  19
ENDBRANCH  17  18
ENDBRANCH  16  17
ENDBRANCH  14  16
ENDBRANCH   9  14
ENDBRANCH   6   8
ENDBRANCH   5   6
ENDBRANCH   4   5
ENDBRANCH   3   4
ENDBRANCH   2   3
ENDBRANCH   1   2
BRANCH   1  21
ATOM     21  C   UNL A   1      41.427  23.350  27.138  1.00  0.00     0.188 C 
BRANCH  21  22
ATOM     22  O   UNL A   1      41.899  22.138  26.598  1.00  0.00    -0.376 OA
BRANCH  22  23
ATOM     23  C   UNL A   1      43.056  22.071  25.784  1.00  0.00     0.202 C 
BRANCH  23  24
ATOM     24  C   UNL A   1      43.392  23.039  24.632  1.00  0.00     0.261 C 
BRANCH  24  25
ATOM     25  O   UNL A   1      44.633  23.740  24.674  1.00  0.00    -0.460 OA
BRANCH  25  26
ATOM     26  C   UNL A   1      45.262  23.769  25.881  1.00  0.00     0.338 C 
ATOM     27  O   UNL A   1      46.151  23.038  26.258  1.00  0.00    -0.246 OA
BRANCH  26  28
ATOM     28  C   UNL A   1      44.868  25.046  26.540  1.00  0.00     0.060 A 
ATOM     29  C   UNL A   1      44.567  26.147  25.720  1.00  0.00     0.016 A 
ATOM     30  C   UNL A   1      44.680  25.126  27.920  1.00  0.00     0.016 A 
ATOM     31  C   UNL A   1      44.106  27.338  26.281  1.00  0.00     0.010 A 
ATOM     32  C   UNL A   1      44.250  26.330  28.485  1.00  0.00     0.010 A 
ATOM     33  C   UNL A   1      43.995  27.451  27.672  1.00  0.00    -0.014 A 
BRANCH  33  34
ATOM     34  C   UNL A   1      43.851  28.790  28.294  1.00  0.00     0.031 A 
ATOM     35  C   UNL A   1      45.092  29.630  28.429  1.00  0.00     0.074 A 
ATOM     36  C   UNL A   1      42.671  29.253  28.742  1.00  0.00     0.049 A 
ATOM     37  N   UNL A   1      45.252  30.791  29.006  1.00  0.00    -0.248 NA
ATOM     38  C   UNL A   1      46.323  29.078  27.835  1.00  0.00     0.031 C 
ATOM     39  C   UNL A   1      41.392  28.552  28.655  1.00  0.00     0.029 A 
ATOM     40  N   UNL A   1      42.370  30.424  29.396  1.00  0.00    -0.354 N 
ATOM     41  C   UNL A   1      46.603  31.090  28.880  1.00  0.00     0.074 A 
ATOM     42  C   UNL A   1      47.221  29.987  28.180  1.00  0.00     0.031 C 
ATOM     43  C   UNL A   1      40.449  29.291  29.267  1.00  0.00     0.029 A 
ATOM     44  C   UNL A   1      41.063  30.499  29.817  1.00  0.00     0.049 A 
ATOM     45  H   UNL A   1      43.027  31.141  29.549  1.00  0.00     0.167 HD
ATOM     46  C   UNL A   1      47.273  32.188  29.302  1.00  0.00     0.034 A 
ATOM     47  C   UNL A   1      40.445  31.419  30.587  1.00  0.00     0.034 A 
ATOM     48  C   UNL A   1      46.660  33.289  29.990  1.00  0.00     0.049 A 
ATOM     49  C   UNL A   1      41.222  32.615  31.083  1.00  0.00     0.074 A 
ATOM     50  C   UNL A   1      47.247  34.465  30.421  1.00  0.00     0.029 A 
ATOM     51  N   UNL A   1      45.328  33.345  30.368  1.00  0.00    -0.354 N 
ATOM     52  N   UNL A   1      42.475  32.937  30.868  1.00  0.00    -0.248 NA
ATOM     53  C   UNL A   1      40.489  33.592  31.904  1.00  0.00     0.031 C 
ATOM     54  C   UNL A   1      46.278  35.215  31.095  1.00  0.00     0.029 A 
ATOM     55  C   UNL A   1      45.076  34.527  31.041  1.00  0.00     0.049 A 
ATOM     56  H   UNL A   1      44.659  32.646  30.184  1.00  0.00     0.167 HD
ATOM     57  C   UNL A   1      42.668  34.168  31.490  1.00  0.00     0.074 A 
ATOM     58  C   UNL A   1      41.398  34.542  32.076  1.00  0.00     0.031 C 
ATOM     59  C   UNL A   1      43.797  34.916  31.575  1.00  0.00     0.034 A 
BRANCH  46  60
ATOM     60  C   UNL A   1      48.751  32.250  29.026  1.00  0.00     0.023 A 
ATOM     61  C   UNL A   1      49.657  31.612  29.897  1.00  0.00     0.012 A 
ATOM     62  C   UNL A   1      49.238  32.902  27.876  1.00  0.00     0.148 A 
ATOM     63  C   UNL A   1      51.029  31.654  29.649  1.00  0.00     0.002 A 
ATOM     64  C   UNL A   1      50.600  32.896  27.607  1.00  0.00     0.091 A 
ATOM     65  F   UNL A   1      48.361  33.523  27.074  1.00  0.00    -0.205 F 
ATOM     66  C   UNL A   1      51.498  32.284  28.500  1.00  0.00     0.022 A 
BRANCH  64  67
ATOM     67  S   UNL A   1      51.297  33.608  26.114  1.00  0.00     0.127 S 
ATOM     68  O   UNL A   1      50.697  34.941  26.115  1.00  0.00    -0.237 OA
ATOM     69  O   UNL A   1      52.731  33.584  26.404  1.00  0.00    -0.237 OA
ATOM     70  O   UNL A   1      50.882  32.738  25.022  1.00  0.00    -0.744 OA
ENDBRANCH  64  67
ENDBRANCH  46  60
BRANCH  47  71
ATOM     71  C   UNL A   1      39.004  31.259  30.936  1.00  0.00     0.023 A 
ATOM     72  C   UNL A   1      38.634  30.431  32.015  1.00  0.00     0.012 A 
ATOM     73  C   UNL A   1      37.999  31.916  30.200  1.00  0.00     0.148 A 
ATOM     74  C   UNL A   1      37.289  30.234  32.332  1.00  0.00     0.002 A 
ATOM     75  C   UNL A   1      36.665  31.760  30.557  1.00  0.00     0.091 A 
ATOM     76  F   UNL A   1      38.369  32.683  29.166  1.00  0.00    -0.205 F 
ATOM     77  C   UNL A   1      36.307  30.904  31.610  1.00  0.00     0.022 A 
BRANCH  75  78
ATOM     78  S   UNL A   1      35.339  32.675  29.763  1.00  0.00     0.127 S 
ATOM     79  O   UNL A   1      34.302  32.653  30.792  1.00  0.00    -0.237 OA
ATOM     80  O   UNL A   1      35.965  33.980  29.546  1.00  0.00    -0.237 OA
ATOM     81  O   UNL A   1      35.030  31.943  28.542  1.00  0.00    -0.744 OA
ENDBRANCH  75  78
ENDBRANCH  47  71
BRANCH  59  82
ATOM     82  C   UNL A   1      43.712  36.248  32.279  1.00  0.00     0.023 A 
ATOM     83  C   UNL A   1      43.702  36.308  33.686  1.00  0.00     0.012 A 
ATOM     84  C   UNL A   1      43.724  37.447  31.537  1.00  0.00     0.148 A 
ATOM     85  C   UNL A   1      43.669  37.539  34.343  1.00  0.00     0.002 A 
ATOM     86  C   UNL A   1      43.745  38.669  32.199  1.00  0.00     0.091 A 
ATOM     87  F   UNL A   1      43.719  37.371  30.198  1.00  0.00    -0.205 F 
ATOM     88  C   UNL A   1      43.703  38.718  33.601  1.00  0.00     0.022 A 
BRANCH  86  89
ATOM     89  S   UNL A   1      43.889  40.234  31.330  1.00  0.00     0.127 S 
ATOM     90  O   UNL A   1      45.218  40.121  30.730  1.00  0.00    -0.237 OA
ATOM     91  O   UNL A   1      42.782  40.162  30.377  1.00  0.00    -0.237 OA
ATOM     92  O   UNL A   1      43.751  41.273  32.342  1.00  0.00    -0.744 OA
ENDBRANCH  86  89
ENDBRANCH  59  82
ENDBRANCH  33  34
ENDBRANCH  26  28
ENDBRANCH  25  26
ENDBRANCH  24  25
ENDBRANCH  23  24
ENDBRANCH  22  23
ENDBRANCH  21  22
ENDBRANCH   1  21
TORSDOF 25
ENDMDL
