MODEL 1
REMARK VINA RESULT:      -9.9      0.000      0.000
REMARK SMILES CSc1cccc(N2C[C@@H](C(=O)OCCOCCOCCOC(=O)c3ccc(-c4c5nc(c(-c6cccc(S(=O)(=O)[O-])c6F)c6ccc([nH]6)c(-c6cccc(S(=O)(=O)[O-])c6F)c6nc(c(-c7cccc(S(=O)(=O)[O-])c7F)c7ccc4[nH]7)C=C6)C=C5)cc3)CC2=O)c1
REMARK SMILES IDX 18 1 17 2 16 3 15 4 14 5 13 6 11 7 12 8 10 9 8 10 9 11 89 12
REMARK SMILES IDX 88 13 90 14 7 15 3 16 4 17 91 18 5 19 6 20 2 21 1 22 19 23
REMARK SMILES IDX 20 24 21 25 22 26 23 27 24 28 25 29 26 30 87 31 27 32 86 33
REMARK SMILES IDX 28 34 29 35 30 36 80 37 31 38 85 39 79 40 81 41 32 42 84 43
REMARK SMILES IDX 78 44 77 45 33 47 65 48 45 49 64 50 46 51 49 52 63 53 82 54
REMARK SMILES IDX 47 55 48 56 62 58 83 59 50 60 34 61 35 62 43 63 36 64 38 65
REMARK SMILES IDX 44 66 37 67 39 68 40 69 41 70 42 71 66 72 67 73 75 74 68 75
REMARK SMILES IDX 70 76 76 77 69 78 71 79 72 80 73 81 74 82 51 83 52 84 60 85
REMARK SMILES IDX 53 86 55 87 61 88 54 89 56 90 57 91 58 92 59 93
REMARK H PARENT 81 46 49 57
REMARK Flexibility Score: inf
ROOT
ATOM      1  C   UNL A   1      32.718  28.269  27.485  1.00  0.00     0.188 C 
ENDROOT
BRANCH   1   2
ATOM      2  C   UNL A   1      32.480  26.929  26.772  1.00  0.00     0.188 C 
BRANCH   2   3
ATOM      3  O   UNL A   1      33.325  26.573  25.684  1.00  0.00    -0.376 OA
BRANCH   3   4
ATOM      4  C   UNL A   1      34.006  25.323  25.712  1.00  0.00     0.202 C 
BRANCH   4   5
ATOM      5  C   UNL A   1      34.439  24.678  24.382  1.00  0.00     0.261 C 
BRANCH   5   6
ATOM      6  O   UNL A   1      33.463  23.787  23.804  1.00  0.00    -0.463 OA
BRANCH   6   7
ATOM      7  C   UNL A   1      32.959  24.137  22.597  1.00  0.00     0.311 C 
ATOM      8  O   UNL A   1      33.540  23.969  21.530  1.00  0.00    -0.252 OA
BRANCH   7   9
ATOM      9  C   UNL A   1      31.552  24.705  22.652  1.00  0.00     0.128 C 
ATOM     10  N   UNL A   1      30.602  26.763  23.300  1.00  0.00    -0.311 N 
ATOM     11  C   UNL A   1      31.680  26.210  22.523  1.00  0.00     0.141 C 
ATOM     12  C   UNL A   1      30.042  25.830  24.160  1.00  0.00     0.227 C 
ATOM     13  C   UNL A   1      30.701  24.510  23.904  1.00  0.00     0.117 C 
ATOM     14  O   UNL A   1      29.149  25.983  24.980  1.00  0.00    -0.274 OA
BRANCH  10  15
ATOM     15  C   UNL A   1      30.337  28.147  23.317  1.00  0.00     0.045 A 
ATOM     16  C   UNL A   1      29.232  30.090  22.368  1.00  0.00     0.009 A 
ATOM     17  C   UNL A   1      29.719  30.874  23.416  1.00  0.00     0.015 A 
ATOM     18  C   UNL A   1      29.572  28.738  22.304  1.00  0.00     0.041 A 
ATOM     19  C   UNL A   1      30.510  30.303  24.410  1.00  0.00     0.003 A 
ATOM     20  C   UNL A   1      30.800  28.940  24.372  1.00  0.00     0.026 A 
BRANCH  16  21
ATOM     21  S   UNL A   1      28.161  30.788  21.125  1.00  0.00    -0.130 SA
ATOM     22  C   UNL A   1      28.136  32.502  21.711  1.00  0.00     0.091 C 
ENDBRANCH  16  21
ENDBRANCH  10  15
ENDBRANCH   7   9
ENDBRANCH   6   7
ENDBRANCH   5   6
ENDBRANCH   4   5
ENDBRANCH   3   4
ENDBRANCH   2   3
ENDBRANCH   1   2
BRANCH   1  23
ATOM     23  O   UNL A   1      33.684  29.102  26.890  1.00  0.00    -0.376 OA
BRANCH  23  24
ATOM     24  C   UNL A   1      33.358  30.464  26.688  1.00  0.00     0.202 C 
BRANCH  24  25
ATOM     25  C   UNL A   1      33.885  31.542  27.654  1.00  0.00     0.261 C 
BRANCH  25  26
ATOM     26  O   UNL A   1      33.704  32.915  27.275  1.00  0.00    -0.460 OA
BRANCH  26  27
ATOM     27  C   UNL A   1      33.552  33.819  28.270  1.00  0.00     0.338 C 
ATOM     28  O   UNL A   1      32.582  34.542  28.453  1.00  0.00    -0.246 OA
BRANCH  27  29
ATOM     29  C   UNL A   1      34.642  33.606  29.250  1.00  0.00     0.060 A 
ATOM     30  C   UNL A   1      35.928  34.086  28.956  1.00  0.00     0.016 A 
ATOM     31  C   UNL A   1      34.396  32.944  30.454  1.00  0.00     0.016 A 
ATOM     32  C   UNL A   1      36.983  33.862  29.844  1.00  0.00     0.010 A 
ATOM     33  C   UNL A   1      35.457  32.700  31.330  1.00  0.00     0.010 A 
ATOM     34  C   UNL A   1      36.763  33.118  31.009  1.00  0.00    -0.014 A 
BRANCH  34  35
ATOM     35  C   UNL A   1      37.917  32.559  31.757  1.00  0.00     0.031 A 
ATOM     36  C   UNL A   1      38.714  31.461  31.104  1.00  0.00     0.074 A 
ATOM     37  C   UNL A   1      38.252  32.992  32.984  1.00  0.00     0.049 A 
ATOM     38  N   UNL A   1      39.721  30.770  31.569  1.00  0.00    -0.248 NA
ATOM     39  C   UNL A   1      38.306  31.085  29.740  1.00  0.00     0.031 C 
ATOM     40  C   UNL A   1      37.581  34.061  33.719  1.00  0.00     0.029 A 
ATOM     41  N   UNL A   1      39.235  32.558  33.839  1.00  0.00    -0.354 N 
ATOM     42  C   UNL A   1      40.041  29.854  30.575  1.00  0.00     0.074 A 
ATOM     43  C   UNL A   1      39.109  30.065  29.489  1.00  0.00     0.031 C 
ATOM     44  C   UNL A   1      38.162  34.189  34.926  1.00  0.00     0.029 A 
ATOM     45  C   UNL A   1      39.223  33.190  35.059  1.00  0.00     0.049 A 
ATOM     46  H   UNL A   1      39.889  31.861  33.600  1.00  0.00     0.167 HD
ATOM     47  C   UNL A   1      41.028  28.926  30.554  1.00  0.00     0.034 A 
ATOM     48  C   UNL A   1      39.970  32.974  36.161  1.00  0.00     0.034 A 
ATOM     49  C   UNL A   1      41.956  28.719  31.632  1.00  0.00     0.049 A 
ATOM     50  C   UNL A   1      41.034  31.904  36.138  1.00  0.00     0.074 A 
ATOM     51  C   UNL A   1      43.017  27.833  31.697  1.00  0.00     0.029 A 
ATOM     52  N   UNL A   1      41.924  29.392  32.844  1.00  0.00    -0.354 N 
ATOM     53  N   UNL A   1      41.388  31.109  35.158  1.00  0.00    -0.248 NA
ATOM     54  C   UNL A   1      41.823  31.727  37.367  1.00  0.00     0.031 C 
ATOM     55  C   UNL A   1      43.597  27.939  32.966  1.00  0.00     0.029 A 
ATOM     56  C   UNL A   1      42.934  28.931  33.670  1.00  0.00     0.049 A 
ATOM     57  H   UNL A   1      41.277  30.095  33.082  1.00  0.00     0.167 HD
ATOM     58  C   UNL A   1      42.473  30.376  35.632  1.00  0.00     0.074 A 
ATOM     59  C   UNL A   1      42.717  30.825  36.987  1.00  0.00     0.031 C 
ATOM     60  C   UNL A   1      43.201  29.418  35.002  1.00  0.00     0.034 A 
BRANCH  47  61
ATOM     61  C   UNL A   1      41.136  28.063  29.323  1.00  0.00     0.023 A 
ATOM     62  C   UNL A   1      40.329  26.912  29.194  1.00  0.00     0.012 A 
ATOM     63  C   UNL A   1      42.042  28.386  28.296  1.00  0.00     0.148 A 
ATOM     64  C   UNL A   1      40.467  26.067  28.093  1.00  0.00     0.002 A 
ATOM     65  C   UNL A   1      42.135  27.569  27.176  1.00  0.00     0.091 A 
ATOM     66  F   UNL A   1      42.820  29.469  28.443  1.00  0.00    -0.205 F 
ATOM     67  C   UNL A   1      41.363  26.400  27.081  1.00  0.00     0.022 A 
BRANCH  65  68
ATOM     68  S   UNL A   1      43.197  27.961  25.782  1.00  0.00     0.127 S 
ATOM     69  O   UNL A   1      42.230  28.042  24.687  1.00  0.00    -0.237 OA
ATOM     70  O   UNL A   1      43.771  29.246  26.183  1.00  0.00    -0.237 OA
ATOM     71  O   UNL A   1      44.157  26.870  25.692  1.00  0.00    -0.744 OA
ENDBRANCH  65  68
ENDBRANCH  47  61
BRANCH  48  72
ATOM     72  C   UNL A   1      39.777  33.826  37.368  1.00  0.00     0.023 A 
ATOM     73  C   UNL A   1      40.306  35.132  37.380  1.00  0.00     0.012 A 
ATOM     74  C   UNL A   1      39.058  33.365  38.488  1.00  0.00     0.148 A 
ATOM     75  C   UNL A   1      40.143  35.956  38.495  1.00  0.00     0.002 A 
ATOM     76  C   UNL A   1      38.854  34.208  39.574  1.00  0.00     0.091 A 
ATOM     77  F   UNL A   1      38.572  32.116  38.458  1.00  0.00    -0.205 F 
ATOM     78  C   UNL A   1      39.409  35.498  39.586  1.00  0.00     0.022 A 
BRANCH  76  79
ATOM     79  S   UNL A   1      37.829  33.756  40.977  1.00  0.00     0.127 S 
ATOM     80  O   UNL A   1      36.558  33.439  40.330  1.00  0.00    -0.237 OA
ATOM     81  O   UNL A   1      38.552  32.602  41.512  1.00  0.00    -0.237 OA
ATOM     82  O   UNL A   1      37.811  34.922  41.849  1.00  0.00    -0.744 OA
ENDBRANCH  76  79
ENDBRANCH  48  72
BRANCH  60  83
ATOM     83  C   UNL A   1      44.381  28.830  35.735  1.00  0.00     0.023 A 
ATOM     84  C   UNL A   1      45.674  29.362  35.552  1.00  0.00     0.012 A 
ATOM     85  C   UNL A   1      44.191  27.790  36.666  1.00  0.00     0.148 A 
ATOM     86  C   UNL A   1      46.761  28.841  36.256  1.00  0.00     0.002 A 
ATOM     87  C   UNL A   1      45.268  27.314  37.404  1.00  0.00     0.091 A 
ATOM     88  F   UNL A   1      42.958  27.284  36.816  1.00  0.00    -0.205 F 
ATOM     89  C   UNL A   1      46.556  27.827  37.189  1.00  0.00     0.022 A 
BRANCH  87  90
ATOM     90  S   UNL A   1      45.081  26.083  38.700  1.00  0.00     0.127 S 
ATOM     91  O   UNL A   1      46.455  25.948  39.182  1.00  0.00    -0.237 OA
ATOM     92  O   UNL A   1      44.171  26.750  39.631  1.00  0.00    -0.237 OA
ATOM     93  O   UNL A   1      44.525  24.901  38.055  1.00  0.00    -0.744 OA
ENDBRANCH  87  90
ENDBRANCH  60  83
ENDBRANCH  34  35
ENDBRANCH  27  29
ENDBRANCH  26  27
ENDBRANCH  25  26
ENDBRANCH  24  25
ENDBRANCH  23  24
ENDBRANCH   1  23
TORSDOF 22
ENDMDL
MODEL 2
REMARK VINA RESULT:      -9.5      2.822      8.768
REMARK SMILES CSc1cccc(N2C[C@@H](C(=O)OCCOCCOCCOC(=O)c3ccc(-c4c5nc(c(-c6cccc(S(=O)(=O)[O-])c6F)c6ccc([nH]6)c(-c6cccc(S(=O)(=O)[O-])c6F)c6nc(c(-c7cccc(S(=O)(=O)[O-])c7F)c7ccc4[nH]7)C=C6)C=C5)cc3)CC2=O)c1
REMARK SMILES IDX 18 1 17 2 16 3 15 4 14 5 13 6 11 7 12 8 10 9 8 10 9 11 89 12
REMARK SMILES IDX 88 13 90 14 7 15 3 16 4 17 91 18 5 19 6 20 2 21 1 22 19 23
REMARK SMILES IDX 20 24 21 25 22 26 23 27 24 28 25 29 26 30 87 31 27 32 86 33
REMARK SMILES IDX 28 34 29 35 30 36 80 37 31 38 85 39 79 40 81 41 32 42 84 43
REMARK SMILES IDX 78 44 77 45 33 47 65 48 45 49 64 50 46 51 49 52 63 53 82 54
REMARK SMILES IDX 47 55 48 56 62 58 83 59 50 60 34 61 35 62 43 63 36 64 38 65
REMARK SMILES IDX 44 66 37 67 39 68 40 69 41 70 42 71 66 72 67 73 75 74 68 75
REMARK SMILES IDX 70 76 76 77 69 78 71 79 72 80 73 81 74 82 51 83 52 84 60 85
REMARK SMILES IDX 53 86 55 87 61 88 54 89 56 90 57 91 58 92 59 93
REMARK H PARENT 81 46 49 57
REMARK Flexibility Score: inf
ROOT
ATOM      1  C   UNL A   1      31.388  27.427  26.378  1.00  0.00     0.188 C 
ENDROOT
BRANCH   1   2
ATOM      2  C   UNL A   1      32.066  26.053  26.492  1.00  0.00     0.188 C 
BRANCH   2   3
ATOM      3  O   UNL A   1      31.382  25.006  27.168  1.00  0.00    -0.376 OA
BRANCH   3   4
ATOM      4  C   UNL A   1      31.131  23.782  26.485  1.00  0.00     0.202 C 
BRANCH   4   5
ATOM      5  C   UNL A   1      31.722  23.578  25.077  1.00  0.00     0.261 C 
BRANCH   5   6
ATOM      6  O   UNL A   1      31.324  22.350  24.433  1.00  0.00    -0.463 OA
BRANCH   6   7
ATOM      7  C   UNL A   1      32.134  21.280  24.610  1.00  0.00     0.311 C 
ATOM      8  O   UNL A   1      31.841  20.295  25.280  1.00  0.00    -0.252 OA
BRANCH   7   9
ATOM      9  C   UNL A   1      33.440  21.354  23.840  1.00  0.00     0.128 C 
ATOM     10  N   UNL A   1      35.650  21.998  24.352  1.00  0.00    -0.311 N 
ATOM     11  C   UNL A   1      34.557  21.207  24.854  1.00  0.00     0.141 C 
ATOM     12  C   UNL A   1      35.248  22.878  23.358  1.00  0.00     0.227 C 
ATOM     13  C   UNL A   1      33.800  22.624  23.073  1.00  0.00     0.117 C 
ATOM     14  O   UNL A   1      35.910  23.712  22.759  1.00  0.00    -0.274 OA
BRANCH  10  15
ATOM     15  C   UNL A   1      36.909  22.004  24.984  1.00  0.00     0.045 A 
ATOM     16  C   UNL A   1      38.571  23.126  26.353  1.00  0.00     0.009 A 
ATOM     17  C   UNL A   1      39.359  21.974  26.335  1.00  0.00     0.015 A 
ATOM     18  C   UNL A   1      37.366  23.149  25.649  1.00  0.00     0.041 A 
ATOM     19  C   UNL A   1      38.929  20.841  25.647  1.00  0.00     0.003 A 
ATOM     20  C   UNL A   1      37.699  20.850  24.993  1.00  0.00     0.026 A 
BRANCH  16  21
ATOM     21  S   UNL A   1      39.071  24.562  27.286  1.00  0.00    -0.130 SA
ATOM     22  C   UNL A   1      40.401  25.146  26.204  1.00  0.00     0.091 C 
ENDBRANCH  16  21
ENDBRANCH  10  15
ENDBRANCH   7   9
ENDBRANCH   6   7
ENDBRANCH   5   6
ENDBRANCH   4   5
ENDBRANCH   3   4
ENDBRANCH   2   3
ENDBRANCH   1   2
BRANCH   1  23
ATOM     23  O   UNL A   1      32.244  28.493  26.044  1.00  0.00    -0.376 OA
BRANCH  23  24
ATOM     24  C   UNL A   1      31.709  29.803  26.038  1.00  0.00     0.202 C 
BRANCH  24  25
ATOM     25  C   UNL A   1      32.603  31.010  26.379  1.00  0.00     0.261 C 
BRANCH  25  26
ATOM     26  O   UNL A   1      33.311  30.976  27.628  1.00  0.00    -0.460 OA
BRANCH  26  27
ATOM     27  C   UNL A   1      34.118  32.023  27.912  1.00  0.00     0.338 C 
ATOM     28  O   UNL A   1      33.788  33.199  27.976  1.00  0.00    -0.246 OA
BRANCH  27  29
ATOM     29  C   UNL A   1      35.414  31.485  28.387  1.00  0.00     0.060 A 
ATOM     30  C   UNL A   1      35.541  30.105  28.609  1.00  0.00     0.016 A 
ATOM     31  C   UNL A   1      36.500  32.336  28.605  1.00  0.00     0.016 A 
ATOM     32  C   UNL A   1      36.739  29.578  29.096  1.00  0.00     0.010 A 
ATOM     33  C   UNL A   1      37.690  31.810  29.116  1.00  0.00     0.010 A 
ATOM     34  C   UNL A   1      37.801  30.436  29.406  1.00  0.00    -0.014 A 
BRANCH  34  35
ATOM     35  C   UNL A   1      38.917  29.955  30.258  1.00  0.00     0.031 A 
ATOM     36  C   UNL A   1      39.032  30.517  31.651  1.00  0.00     0.074 A 
ATOM     37  C   UNL A   1      39.816  29.057  29.820  1.00  0.00     0.049 A 
ATOM     38  N   UNL A   1      39.944  30.307  32.562  1.00  0.00    -0.248 NA
ATOM     39  C   UNL A   1      37.975  31.456  32.061  1.00  0.00     0.031 C 
ATOM     40  C   UNL A   1      39.806  28.418  28.508  1.00  0.00     0.029 A 
ATOM     41  N   UNL A   1      40.932  28.548  30.437  1.00  0.00    -0.354 N 
ATOM     42  C   UNL A   1      39.595  31.115  33.638  1.00  0.00     0.074 A 
ATOM     43  C   UNL A   1      38.399  31.833  33.257  1.00  0.00     0.031 C 
ATOM     44  C   UNL A   1      40.880  27.612  28.409  1.00  0.00     0.029 A 
ATOM     45  C   UNL A   1      41.667  27.705  29.639  1.00  0.00     0.049 A 
ATOM     46  H   UNL A   1      41.181  28.765  31.365  1.00  0.00     0.167 HD
ATOM     47  C   UNL A   1      40.203  31.244  34.841  1.00  0.00     0.034 A 
ATOM     48  C   UNL A   1      42.847  27.094  29.869  1.00  0.00     0.034 A 
ATOM     49  C   UNL A   1      41.390  30.528  35.221  1.00  0.00     0.049 A 
ATOM     50  C   UNL A   1      43.535  27.285  31.198  1.00  0.00     0.074 A 
ATOM     51  C   UNL A   1      42.064  30.557  36.429  1.00  0.00     0.029 A 
ATOM     52  N   UNL A   1      42.094  29.668  34.392  1.00  0.00    -0.354 N 
ATOM     53  N   UNL A   1      43.145  27.978  32.240  1.00  0.00    -0.248 NA
ATOM     54  C   UNL A   1      44.813  26.582  31.391  1.00  0.00     0.031 C 
ATOM     55  C   UNL A   1      43.200  29.749  36.314  1.00  0.00     0.029 A 
ATOM     56  C   UNL A   1      43.204  29.173  35.054  1.00  0.00     0.049 A 
ATOM     57  H   UNL A   1      41.841  29.443  33.467  1.00  0.00     0.167 HD
ATOM     58  C   UNL A   1      44.099  27.752  33.230  1.00  0.00     0.074 A 
ATOM     59  C   UNL A   1      45.083  26.856  32.660  1.00  0.00     0.031 C 
ATOM     60  C   UNL A   1      44.154  28.242  34.495  1.00  0.00     0.034 A 
BRANCH  47  61
ATOM     61  C   UNL A   1      39.588  32.209  35.823  1.00  0.00     0.023 A 
ATOM     62  C   UNL A   1      38.529  31.790  36.657  1.00  0.00     0.012 A 
ATOM     63  C   UNL A   1      40.054  33.534  35.916  1.00  0.00     0.148 A 
ATOM     64  C   UNL A   1      37.906  32.690  37.521  1.00  0.00     0.002 A 
ATOM     65  C   UNL A   1      39.464  34.410  36.819  1.00  0.00     0.091 A 
ATOM     66  F   UNL A   1      41.045  33.925  35.101  1.00  0.00    -0.205 F 
ATOM     67  C   UNL A   1      38.378  33.996  37.608  1.00  0.00     0.022 A 
BRANCH  65  68
ATOM     68  S   UNL A   1      40.059  36.086  37.065  1.00  0.00     0.127 S 
ATOM     69  O   UNL A   1      39.252  36.523  38.204  1.00  0.00    -0.237 OA
ATOM     70  O   UNL A   1      41.474  35.870  37.369  1.00  0.00    -0.237 OA
ATOM     71  O   UNL A   1      39.810  36.786  35.813  1.00  0.00    -0.744 OA
ENDBRANCH  65  68
ENDBRANCH  47  61
BRANCH  48  72
ATOM     72  C   UNL A   1      43.432  26.195  28.835  1.00  0.00     0.023 A 
ATOM     73  C   UNL A   1      43.072  24.833  28.825  1.00  0.00     0.012 A 
ATOM     74  C   UNL A   1      44.317  26.680  27.853  1.00  0.00     0.148 A 
ATOM     75  C   UNL A   1      43.601  23.963  27.869  1.00  0.00     0.002 A 
ATOM     76  C   UNL A   1      44.800  25.820  26.872  1.00  0.00     0.091 A 
ATOM     77  F   UNL A   1      44.652  27.977  27.887  1.00  0.00    -0.205 F 
ATOM     78  C   UNL A   1      44.456  24.460  26.888  1.00  0.00     0.022 A 
BRANCH  76  79
ATOM     79  S   UNL A   1      45.813  26.383  25.500  1.00  0.00     0.127 S 
ATOM     80  O   UNL A   1      47.068  26.715  26.171  1.00  0.00    -0.237 OA
ATOM     81  O   UNL A   1      45.862  25.187  24.659  1.00  0.00    -0.237 OA
ATOM     82  O   UNL A   1      45.101  27.511  24.916  1.00  0.00    -0.744 OA
ENDBRANCH  76  79
ENDBRANCH  48  72
BRANCH  60  83
ATOM     83  C   UNL A   1      45.275  27.772  35.387  1.00  0.00     0.023 A 
ATOM     84  C   UNL A   1      46.576  28.295  35.238  1.00  0.00     0.012 A 
ATOM     85  C   UNL A   1      45.017  26.858  36.429  1.00  0.00     0.148 A 
ATOM     86  C   UNL A   1      47.606  27.886  36.085  1.00  0.00     0.002 A 
ATOM     87  C   UNL A   1      46.035  26.498  37.304  1.00  0.00     0.091 A 
ATOM     88  F   UNL A   1      43.779  26.357  36.547  1.00  0.00    -0.205 F 
ATOM     89  C   UNL A   1      47.334  26.999  37.124  1.00  0.00     0.022 A 
BRANCH  87  90
ATOM     90  S   UNL A   1      45.752  25.443  38.731  1.00  0.00     0.127 S 
ATOM     91  O   UNL A   1      44.513  24.763  38.357  1.00  0.00    -0.237 OA
ATOM     92  O   UNL A   1      46.941  24.590  38.725  1.00  0.00    -0.237 OA
ATOM     93  O   UNL A   1      45.654  26.336  39.878  1.00  0.00    -0.744 OA
ENDBRANCH  87  90
ENDBRANCH  60  83
ENDBRANCH  34  35
ENDBRANCH  27  29
ENDBRANCH  26  27
ENDBRANCH  25  26
ENDBRANCH  24  25
ENDBRANCH  23  24
ENDBRANCH   1  23
TORSDOF 22
ENDMDL
MODEL 3
REMARK VINA RESULT:      -9.3      3.388      9.010
REMARK SMILES CSc1cccc(N2C[C@@H](C(=O)OCCOCCOCCOC(=O)c3ccc(-c4c5nc(c(-c6cccc(S(=O)(=O)[O-])c6F)c6ccc([nH]6)c(-c6cccc(S(=O)(=O)[O-])c6F)c6nc(c(-c7cccc(S(=O)(=O)[O-])c7F)c7ccc4[nH]7)C=C6)C=C5)cc3)CC2=O)c1
REMARK SMILES IDX 18 1 17 2 16 3 15 4 14 5 13 6 11 7 12 8 10 9 8 10 9 11 89 12
REMARK SMILES IDX 88 13 90 14 7 15 3 16 4 17 91 18 5 19 6 20 2 21 1 22 19 23
REMARK SMILES IDX 20 24 21 25 22 26 23 27 24 28 25 29 26 30 87 31 27 32 86 33
REMARK SMILES IDX 28 34 29 35 30 36 80 37 31 38 85 39 79 40 81 41 32 42 84 43
REMARK SMILES IDX 78 44 77 45 33 47 65 48 45 49 64 50 46 51 49 52 63 53 82 54
REMARK SMILES IDX 47 55 48 56 62 58 83 59 50 60 34 61 35 62 43 63 36 64 38 65
REMARK SMILES IDX 44 66 37 67 39 68 40 69 41 70 42 71 66 72 67 73 75 74 68 75
REMARK SMILES IDX 70 76 76 77 69 78 71 79 72 80 73 81 74 82 51 83 52 84 60 85
REMARK SMILES IDX 53 86 55 87 61 88 54 89 56 90 57 91 58 92 59 93
REMARK H PARENT 81 46 49 57
REMARK Flexibility Score: inf
ROOT
ATOM      1  C   UNL A   1      31.258  26.802  26.300  1.00  0.00     0.188 C 
ENDROOT
BRANCH   1   2
ATOM      2  C   UNL A   1      31.929  25.425  26.419  1.00  0.00     0.188 C 
BRANCH   2   3
ATOM      3  O   UNL A   1      31.294  24.419  27.198  1.00  0.00    -0.376 OA
BRANCH   3   4
ATOM      4  C   UNL A   1      31.129  23.115  26.652  1.00  0.00     0.202 C 
BRANCH   4   5
ATOM      5  C   UNL A   1      31.760  22.792  25.284  1.00  0.00     0.261 C 
BRANCH   5   6
ATOM      6  O   UNL A   1      31.516  21.450  24.814  1.00  0.00    -0.463 OA
BRANCH   6   7
ATOM      7  C   UNL A   1      32.491  20.539  25.043  1.00  0.00     0.311 C 
ATOM      8  O   UNL A   1      32.345  19.527  25.720  1.00  0.00    -0.252 OA
BRANCH   7   9
ATOM      9  C   UNL A   1      33.795  20.829  24.322  1.00  0.00     0.128 C 
ATOM     10  N   UNL A   1      35.741  22.065  24.818  1.00  0.00    -0.311 N 
ATOM     11  C   UNL A   1      34.835  21.104  25.391  1.00  0.00     0.141 C 
ATOM     12  C   UNL A   1      35.216  22.673  23.687  1.00  0.00     0.227 C 
ATOM     13  C   UNL A   1      33.897  22.031  23.387  1.00  0.00     0.117 C 
ATOM     14  O   UNL A   1      35.701  23.556  22.996  1.00  0.00    -0.274 OA
BRANCH  10  15
ATOM     15  C   UNL A   1      36.910  22.470  25.491  1.00  0.00     0.045 A 
ATOM     16  C   UNL A   1      39.172  22.009  26.246  1.00  0.00     0.009 A 
ATOM     17  C   UNL A   1      39.274  23.315  26.727  1.00  0.00     0.015 A 
ATOM     18  C   UNL A   1      37.978  21.581  25.662  1.00  0.00     0.041 A 
ATOM     19  C   UNL A   1      38.204  24.199  26.592  1.00  0.00     0.003 A 
ATOM     20  C   UNL A   1      37.036  23.783  25.958  1.00  0.00     0.026 A 
BRANCH  16  21
ATOM     21  S   UNL A   1      40.554  20.887  26.346  1.00  0.00    -0.130 SA
ATOM     22  C   UNL A   1      41.869  22.019  25.827  1.00  0.00     0.091 C 
ENDBRANCH  16  21
ENDBRANCH  10  15
ENDBRANCH   7   9
ENDBRANCH   6   7
ENDBRANCH   5   6
ENDBRANCH   4   5
ENDBRANCH   3   4
ENDBRANCH   2   3
ENDBRANCH   1   2
BRANCH   1  23
ATOM     23  O   UNL A   1      32.064  27.817  25.749  1.00  0.00    -0.376 OA
BRANCH  23  24
ATOM     24  C   UNL A   1      31.599  29.151  25.820  1.00  0.00     0.202 C 
BRANCH  24  25
ATOM     25  C   UNL A   1      32.580  30.303  26.107  1.00  0.00     0.261 C 
BRANCH  25  26
ATOM     26  O   UNL A   1      33.435  30.172  27.253  1.00  0.00    -0.460 OA
BRANCH  26  27
ATOM     27  C   UNL A   1      34.027  31.296  27.717  1.00  0.00     0.338 C 
ATOM     28  O   UNL A   1      33.467  32.340  28.022  1.00  0.00    -0.246 OA
BRANCH  27  29
ATOM     29  C   UNL A   1      35.436  30.971  28.038  1.00  0.00     0.060 A 
ATOM     30  C   UNL A   1      35.794  29.632  28.267  1.00  0.00     0.016 A 
ATOM     31  C   UNL A   1      36.401  31.978  28.107  1.00  0.00     0.016 A 
ATOM     32  C   UNL A   1      37.107  29.304  28.613  1.00  0.00     0.010 A 
ATOM     33  C   UNL A   1      37.708  31.650  28.477  1.00  0.00     0.010 A 
ATOM     34  C   UNL A   1      38.057  30.319  28.775  1.00  0.00    -0.014 A 
BRANCH  34  35
ATOM     35  C   UNL A   1      39.326  30.037  29.492  1.00  0.00     0.031 A 
ATOM     36  C   UNL A   1      39.450  30.513  30.916  1.00  0.00     0.074 A 
ATOM     37  C   UNL A   1      40.349  29.390  28.909  1.00  0.00     0.049 A 
ATOM     38  N   UNL A   1      40.469  30.445  31.731  1.00  0.00    -0.248 NA
ATOM     39  C   UNL A   1      38.262  31.166  31.488  1.00  0.00     0.031 C 
ATOM     40  C   UNL A   1      40.350  28.856  27.549  1.00  0.00     0.029 A 
ATOM     41  N   UNL A   1      41.601  29.096  29.390  1.00  0.00    -0.354 N 
ATOM     42  C   UNL A   1      40.060  31.081  32.898  1.00  0.00     0.074 A 
ATOM     43  C   UNL A   1      38.708  31.543  32.675  1.00  0.00     0.031 C 
ATOM     44  C   UNL A   1      41.556  28.314  27.297  1.00  0.00     0.029 A 
ATOM     45  C   UNL A   1      42.419  28.493  28.465  1.00  0.00     0.049 A 
ATOM     46  H   UNL A   1      41.886  29.299  30.311  1.00  0.00     0.167 HD
ATOM     47  C   UNL A   1      40.738  31.257  34.057  1.00  0.00     0.034 A 
ATOM     48  C   UNL A   1      43.719  28.142  28.548  1.00  0.00     0.034 A 
ATOM     49  C   UNL A   1      42.081  30.795  34.279  1.00  0.00     0.049 A 
ATOM     50  C   UNL A   1      44.474  28.387  29.831  1.00  0.00     0.074 A 
ATOM     51  C   UNL A   1      42.845  30.887  35.428  1.00  0.00     0.029 A 
ATOM     52  N   UNL A   1      42.869  30.169  33.325  1.00  0.00    -0.354 N 
ATOM     53  N   UNL A   1      44.046  28.903  30.958  1.00  0.00    -0.248 NA
ATOM     54  C   UNL A   1      45.884  27.969  29.862  1.00  0.00     0.031 C 
ATOM     55  C   UNL A   1      44.111  30.358  35.155  1.00  0.00     0.029 A 
ATOM     56  C   UNL A   1      44.117  29.885  33.852  1.00  0.00     0.049 A 
ATOM     57  H   UNL A   1      42.584  29.959  32.406  1.00  0.00     0.167 HD
ATOM     58  C   UNL A   1      45.116  28.825  31.846  1.00  0.00     0.074 A 
ATOM     59  C   UNL A   1      46.209  28.208  31.125  1.00  0.00     0.031 C 
ATOM     60  C   UNL A   1      45.185  29.226  33.141  1.00  0.00     0.034 A 
BRANCH  47  61
ATOM     61  C   UNL A   1      40.028  31.993  35.165  1.00  0.00     0.023 A 
ATOM     62  C   UNL A   1      39.077  31.322  35.963  1.00  0.00     0.012 A 
ATOM     63  C   UNL A   1      40.298  33.352  35.412  1.00  0.00     0.148 A 
ATOM     64  C   UNL A   1      38.364  32.008  36.946  1.00  0.00     0.002 A 
ATOM     65  C   UNL A   1      39.623  34.015  36.430  1.00  0.00     0.091 A 
ATOM     66  F   UNL A   1      41.186  33.983  34.630  1.00  0.00    -0.205 F 
ATOM     67  C   UNL A   1      38.643  33.351  37.185  1.00  0.00     0.022 A 
BRANCH  65  68
ATOM     68  S   UNL A   1      39.975  35.720  36.869  1.00  0.00     0.127 S 
ATOM     69  O   UNL A   1      41.422  35.679  37.079  1.00  0.00    -0.237 OA
ATOM     70  O   UNL A   1      39.554  36.441  35.668  1.00  0.00    -0.237 OA
ATOM     71  O   UNL A   1      39.176  36.000  38.054  1.00  0.00    -0.744 OA
ENDBRANCH  65  68
ENDBRANCH  47  61
BRANCH  48  72
ATOM     72  C   UNL A   1      44.380  27.466  27.397  1.00  0.00     0.023 A 
ATOM     73  C   UNL A   1      44.698  28.217  26.248  1.00  0.00     0.012 A 
ATOM     74  C   UNL A   1      44.716  26.099  27.440  1.00  0.00     0.148 A 
ATOM     75  C   UNL A   1      45.318  27.614  25.152  1.00  0.00     0.002 A 
ATOM     76  C   UNL A   1      45.381  25.516  26.367  1.00  0.00     0.091 A 
ATOM     77  F   UNL A   1      44.396  25.402  28.539  1.00  0.00    -0.205 F 
ATOM     78  C   UNL A   1      45.668  26.267  25.216  1.00  0.00     0.022 A 
BRANCH  76  79
ATOM     79  S   UNL A   1      45.975  23.821  26.396  1.00  0.00     0.127 S 
ATOM     80  O   UNL A   1      46.478  23.656  25.034  1.00  0.00    -0.237 OA
ATOM     81  O   UNL A   1      47.008  23.888  27.430  1.00  0.00    -0.237 OA
ATOM     82  O   UNL A   1      44.822  23.001  26.739  1.00  0.00    -0.744 OA
ENDBRANCH  76  79
ENDBRANCH  48  72
BRANCH  60  83
ATOM     83  C   UNL A   1      46.461  28.953  33.899  1.00  0.00     0.023 A 
ATOM     84  C   UNL A   1      47.483  29.922  33.953  1.00  0.00     0.012 A 
ATOM     85  C   UNL A   1      46.612  27.753  34.623  1.00  0.00     0.148 A 
ATOM     86  C   UNL A   1      48.649  29.684  34.681  1.00  0.00     0.002 A 
ATOM     87  C   UNL A   1      47.751  27.546  35.392  1.00  0.00     0.091 A 
ATOM     88  F   UNL A   1      45.638  26.834  34.548  1.00  0.00    -0.205 F 
ATOM     89  C   UNL A   1      48.777  28.504  35.410  1.00  0.00     0.022 A 
BRANCH  87  90
ATOM     90  S   UNL A   1      47.957  26.104  36.443  1.00  0.00     0.127 S 
ATOM     91  O   UNL A   1      49.290  26.329  37.001  1.00  0.00    -0.237 OA
ATOM     92  O   UNL A   1      46.861  26.260  37.400  1.00  0.00    -0.237 OA
ATOM     93  O   UNL A   1      47.833  24.947  35.566  1.00  0.00    -0.744 OA
ENDBRANCH  87  90
ENDBRANCH  60  83
ENDBRANCH  34  35
ENDBRANCH  27  29
ENDBRANCH  26  27
ENDBRANCH  25  26
ENDBRANCH  24  25
ENDBRANCH  23  24
ENDBRANCH   1  23
TORSDOF 22
ENDMDL
