MODEL 1
REMARK VINA RESULT:      -9.5      0.000      0.000
REMARK SMILES CC(C)[NH2+][C@@]1(C(=O)OCCOCCOCCOC(=O)c2ccc(-c3c4nc(c(-c5cccc(S(=O)(=O)[O-])c5F)c5ccc([nH]5)c(-c5cccc(S(=O)(=O)[O-])c5F)c5nc(c(-c6cccc(S(=O)(=O)[O-])c6F)c6ccc3[nH]6)C=C5)C=C4)cc2)CCC[C@@H]1CCOC1CCOCC1
REMARK SMILES IDX 12 1 11 2 10 3 9 4 8 5 6 6 7 7 5 8 83 9 86 10 84 11 85 12
REMARK SMILES IDX 4 13 2 16 1 17 3 18 87 19 88 20 89 21 90 22 91 23 95 24
REMARK SMILES IDX 92 25 94 26 93 27 13 28 14 29 15 30 16 31 17 32 18 33 19 34
REMARK SMILES IDX 20 35 21 36 82 37 22 38 81 39 23 40 24 41 25 42 75 43 26 44
REMARK SMILES IDX 80 45 74 46 76 47 27 48 79 49 73 50 72 51 28 53 60 54 40 55
REMARK SMILES IDX 59 56 41 57 44 58 58 59 77 60 42 61 43 62 57 64 78 65 45 66
REMARK SMILES IDX 29 67 30 68 38 69 31 70 33 71 39 72 32 73 34 74 35 75 36 76
REMARK SMILES IDX 37 77 61 78 62 79 70 80 63 81 65 82 71 83 64 84 66 85 67 86
REMARK SMILES IDX 68 87 69 88 46 89 47 90 55 91 48 92 50 93 56 94 49 95 51 96
REMARK SMILES IDX 52 97 53 98 54 99
REMARK H PARENT 4 14 4 15 76 52 44 63
REMARK Flexibility Score: inf
ROOT
ATOM      1  C   UNL A   1      33.156  21.395  25.808  1.00  0.00     0.188 C 
ENDROOT
BRANCH   1   2
ATOM      2  O   UNL A   1      31.793  21.056  25.672  1.00  0.00    -0.376 OA
BRANCH   2   3
ATOM      3  C   UNL A   1      30.950  22.211  25.740  1.00  0.00     0.202 C 
BRANCH   3   4
ATOM      4  C   UNL A   1      31.376  23.445  24.904  1.00  0.00     0.261 C 
BRANCH   4   5
ATOM      5  O   UNL A   1      30.711  24.767  24.816  1.00  0.00    -0.459 OA
BRANCH   5   6
ATOM      6  C   UNL A   1      30.454  25.696  25.754  1.00  0.00     0.368 C 
ATOM      7  O   UNL A   1      29.385  25.615  26.369  1.00  0.00    -0.245 OA
BRANCH   6   8
ATOM      8  C   UNL A   1      31.676  26.867  26.161  1.00  0.00     0.197 C 
ATOM      9  C   UNL A   1      32.013  27.960  27.314  1.00  0.00     0.081 C 
ATOM     10  C   UNL A   1      31.646  27.916  24.948  1.00  0.00     0.065 C 
ATOM     11  C   UNL A   1      31.796  29.408  26.873  1.00  0.00     0.008 C 
ATOM     12  C   UNL A   1      31.988  29.355  25.387  1.00  0.00     0.011 C 
BRANCH   8  13
ATOM     13  N   UNL A   1      32.956  26.023  26.295  1.00  0.00    -0.330 N 
ATOM     14  H   UNL A   1      33.385  26.278  27.184  1.00  0.00     0.347 HD
ATOM     15  H   UNL A   1      32.616  25.066  26.194  1.00  0.00     0.347 HD
BRANCH  13  16
ATOM     16  C   UNL A   1      34.021  26.116  25.261  1.00  0.00     0.176 C 
ATOM     17  C   UNL A   1      34.894  24.865  25.377  1.00  0.00     0.075 C 
ATOM     18  C   UNL A   1      33.592  26.231  23.783  1.00  0.00     0.075 C 
ENDBRANCH  13  16
ENDBRANCH   8  13
BRANCH  10  19
ATOM     19  C   UNL A   1      30.279  28.039  24.240  1.00  0.00     0.039 C 
BRANCH  19  20
ATOM     20  C   UNL A   1      30.201  27.889  22.665  1.00  0.00     0.161 C 
BRANCH  20  21
ATOM     21  O   UNL A   1      29.060  28.577  22.210  1.00  0.00    -0.378 OA
BRANCH  21  22
ATOM     22  C   UNL A   1      28.651  29.929  22.138  1.00  0.00     0.122 C 
ATOM     23  C   UNL A   1      27.632  30.391  23.217  1.00  0.00     0.060 C 
ATOM     24  C   UNL A   1      28.242  30.679  20.888  1.00  0.00     0.060 C 
ATOM     25  C   UNL A   1      27.972  31.811  23.581  1.00  0.00     0.163 C 
ATOM     26  C   UNL A   1      28.402  32.183  21.239  1.00  0.00     0.163 C 
ATOM     27  O   UNL A   1      27.711  32.609  22.427  1.00  0.00    -0.381 OA
ENDBRANCH  21  22
ENDBRANCH  20  21
ENDBRANCH  19  20
ENDBRANCH  10  19
ENDBRANCH   6   8
ENDBRANCH   5   6
ENDBRANCH   4   5
ENDBRANCH   3   4
ENDBRANCH   2   3
ENDBRANCH   1   2
BRANCH   1  28
ATOM     28  C   UNL A   1      34.141  20.686  24.872  1.00  0.00     0.188 C 
BRANCH  28  29
ATOM     29  O   UNL A   1      35.354  21.348  24.584  1.00  0.00    -0.376 OA
BRANCH  29  30
ATOM     30  C   UNL A   1      36.528  20.691  25.038  1.00  0.00     0.202 C 
BRANCH  30  31
ATOM     31  C   UNL A   1      37.812  21.534  25.009  1.00  0.00     0.261 C 
BRANCH  31  32
ATOM     32  O   UNL A   1      37.872  22.588  26.008  1.00  0.00    -0.460 OA
BRANCH  32  33
ATOM     33  C   UNL A   1      39.103  22.849  26.532  1.00  0.00     0.338 C 
ATOM     34  O   UNL A   1      40.027  22.059  26.629  1.00  0.00    -0.246 OA
BRANCH  33  35
ATOM     35  C   UNL A   1      39.260  24.267  26.945  1.00  0.00     0.060 A 
ATOM     36  C   UNL A   1      39.953  25.168  26.122  1.00  0.00     0.016 A 
ATOM     37  C   UNL A   1      38.915  24.648  28.242  1.00  0.00     0.016 A 
ATOM     38  C   UNL A   1      40.324  26.438  26.604  1.00  0.00     0.010 A 
ATOM     39  C   UNL A   1      39.298  25.909  28.725  1.00  0.00     0.010 A 
ATOM     40  C   UNL A   1      40.032  26.806  27.926  1.00  0.00    -0.014 A 
BRANCH  40  41
ATOM     41  C   UNL A   1      40.578  28.049  28.552  1.00  0.00     0.031 A 
ATOM     42  C   UNL A   1      39.647  29.199  28.843  1.00  0.00     0.074 A 
ATOM     43  C   UNL A   1      41.898  28.214  28.764  1.00  0.00     0.049 A 
ATOM     44  N   UNL A   1      39.928  30.431  29.186  1.00  0.00    -0.248 NA
ATOM     45  C   UNL A   1      38.210  28.926  28.704  1.00  0.00     0.031 C 
ATOM     46  C   UNL A   1      42.919  27.201  28.521  1.00  0.00     0.029 A 
ATOM     47  N   UNL A   1      42.610  29.313  29.197  1.00  0.00    -0.354 N 
ATOM     48  C   UNL A   1      38.711  31.100  29.237  1.00  0.00     0.074 A 
ATOM     49  C   UNL A   1      37.687  30.126  28.918  1.00  0.00     0.031 C 
ATOM     50  C   UNL A   1      44.126  27.723  28.800  1.00  0.00     0.029 A 
ATOM     51  C   UNL A   1      43.975  29.127  29.186  1.00  0.00     0.049 A 
ATOM     52  H   UNL A   1      42.182  30.151  29.487  1.00  0.00     0.167 HD
ATOM     53  C   UNL A   1      38.464  32.406  29.507  1.00  0.00     0.034 A 
ATOM     54  C   UNL A   1      44.987  29.989  29.419  1.00  0.00     0.034 A 
ATOM     55  C   UNL A   1      39.472  33.380  29.835  1.00  0.00     0.049 A 
ATOM     56  C   UNL A   1      44.685  31.439  29.720  1.00  0.00     0.074 A 
ATOM     57  C   UNL A   1      39.302  34.718  30.151  1.00  0.00     0.029 A 
ATOM     58  N   UNL A   1      40.835  33.134  29.875  1.00  0.00    -0.354 N 
ATOM     59  N   UNL A   1      43.526  32.037  29.841  1.00  0.00    -0.248 NA
ATOM     60  C   UNL A   1      45.838  32.336  29.915  1.00  0.00     0.031 C 
ATOM     61  C   UNL A   1      40.565  35.288  30.346  1.00  0.00     0.029 A 
ATOM     62  C   UNL A   1      41.519  34.296  30.198  1.00  0.00     0.049 A 
ATOM     63  H   UNL A   1      41.256  32.261  29.700  1.00  0.00     0.167 HD
ATOM     64  C   UNL A   1      43.807  33.366  30.147  1.00  0.00     0.074 A 
ATOM     65  C   UNL A   1      45.248  33.482  30.224  1.00  0.00     0.031 C 
ATOM     66  C   UNL A   1      42.949  34.400  30.327  1.00  0.00     0.034 A 
BRANCH  53  67
ATOM     67  C   UNL A   1      37.031  32.871  29.446  1.00  0.00     0.023 A 
ATOM     68  C   UNL A   1      36.337  32.855  28.220  1.00  0.00     0.012 A 
ATOM     69  C   UNL A   1      36.355  33.271  30.617  1.00  0.00     0.148 A 
ATOM     70  C   UNL A   1      35.007  33.268  28.152  1.00  0.00     0.002 A 
ATOM     71  C   UNL A   1      35.015  33.637  30.550  1.00  0.00     0.091 A 
ATOM     72  F   UNL A   1      37.034  33.293  31.772  1.00  0.00    -0.205 F 
ATOM     73  C   UNL A   1      34.344  33.650  29.316  1.00  0.00     0.022 A 
BRANCH  71  74
ATOM     74  S   UNL A   1      34.051  34.065  32.003  1.00  0.00     0.127 S 
ATOM     75  O   UNL A   1      35.005  34.870  32.764  1.00  0.00    -0.237 OA
ATOM     76  O   UNL A   1      32.941  34.822  31.424  1.00  0.00    -0.237 OA
ATOM     77  O   UNL A   1      33.669  32.803  32.620  1.00  0.00    -0.744 OA
ENDBRANCH  71  74
ENDBRANCH  53  67
BRANCH  54  78
ATOM     78  C   UNL A   1      46.406  29.520  29.377  1.00  0.00     0.023 A 
ATOM     79  C   UNL A   1      47.124  29.586  28.164  1.00  0.00     0.012 A 
ATOM     80  C   UNL A   1      47.046  29.002  30.518  1.00  0.00     0.148 A 
ATOM     81  C   UNL A   1      48.436  29.118  28.084  1.00  0.00     0.002 A 
ATOM     82  C   UNL A   1      48.375  28.602  30.450  1.00  0.00     0.091 A 
ATOM     83  F   UNL A   1      46.342  28.914  31.657  1.00  0.00    -0.205 F 
ATOM     84  C   UNL A   1      49.067  28.639  29.229  1.00  0.00     0.022 A 
BRANCH  82  85
ATOM     85  S   UNL A   1      49.310  28.110  31.902  1.00  0.00     0.127 S 
ATOM     86  O   UNL A   1      49.130  29.263  32.781  1.00  0.00    -0.237 OA
ATOM     87  O   UNL A   1      48.602  26.899  32.318  1.00  0.00    -0.237 OA
ATOM     88  O   UNL A   1      50.670  27.877  31.434  1.00  0.00    -0.744 OA
ENDBRANCH  82  85
ENDBRANCH  54  78
BRANCH  66  89
ATOM     89  C   UNL A   1      43.526  35.752  30.675  1.00  0.00     0.023 A 
ATOM     90  C   UNL A   1      43.821  36.073  32.015  1.00  0.00     0.012 A 
ATOM     91  C   UNL A   1      43.848  36.676  29.660  1.00  0.00     0.148 A 
ATOM     92  C   UNL A   1      44.400  37.301  32.342  1.00  0.00     0.002 A 
ATOM     93  C   UNL A   1      44.469  37.877  29.987  1.00  0.00     0.091 A 
ATOM     94  F   UNL A   1      43.544  36.363  28.393  1.00  0.00    -0.205 F 
ATOM     95  C   UNL A   1      44.734  38.196  31.328  1.00  0.00     0.022 A 
BRANCH  93  96
ATOM     96  S   UNL A   1      45.021  39.050  28.743  1.00  0.00     0.127 S 
ATOM     97  O   UNL A   1      43.759  39.653  28.320  1.00  0.00    -0.237 OA
ATOM     98  O   UNL A   1      45.891  39.936  29.517  1.00  0.00    -0.237 OA
ATOM     99  O   UNL A   1      45.709  38.265  27.726  1.00  0.00    -0.744 OA
ENDBRANCH  93  96
ENDBRANCH  66  89
ENDBRANCH  40  41
ENDBRANCH  33  35
ENDBRANCH  32  33
ENDBRANCH  31  32
ENDBRANCH  30  31
ENDBRANCH  29  30
ENDBRANCH  28  29
ENDBRANCH   1  28
TORSDOF 26
ENDMDL
MODEL 2
REMARK VINA RESULT:      -9.5      3.269      8.111
REMARK SMILES CC(C)[NH2+][C@@]1(C(=O)OCCOCCOCCOC(=O)c2ccc(-c3c4nc(c(-c5cccc(S(=O)(=O)[O-])c5F)c5ccc([nH]5)c(-c5cccc(S(=O)(=O)[O-])c5F)c5nc(c(-c6cccc(S(=O)(=O)[O-])c6F)c6ccc3[nH]6)C=C5)C=C4)cc2)CCC[C@@H]1CCOC1CCOCC1
REMARK SMILES IDX 12 1 11 2 10 3 9 4 8 5 6 6 7 7 5 8 83 9 86 10 84 11 85 12
REMARK SMILES IDX 4 13 2 16 1 17 3 18 87 19 88 20 89 21 90 22 91 23 95 24
REMARK SMILES IDX 92 25 94 26 93 27 13 28 14 29 15 30 16 31 17 32 18 33 19 34
REMARK SMILES IDX 20 35 21 36 82 37 22 38 81 39 23 40 24 41 25 42 75 43 26 44
REMARK SMILES IDX 80 45 74 46 76 47 27 48 79 49 73 50 72 51 28 53 60 54 40 55
REMARK SMILES IDX 59 56 41 57 44 58 58 59 77 60 42 61 43 62 57 64 78 65 45 66
REMARK SMILES IDX 29 67 30 68 38 69 31 70 33 71 39 72 32 73 34 74 35 75 36 76
REMARK SMILES IDX 37 77 61 78 62 79 70 80 63 81 65 82 71 83 64 84 66 85 67 86
REMARK SMILES IDX 68 87 69 88 46 89 47 90 55 91 48 92 50 93 56 94 49 95 51 96
REMARK SMILES IDX 52 97 53 98 54 99
REMARK H PARENT 4 14 4 15 76 52 44 63
REMARK Flexibility Score: inf
ROOT
ATOM      1  C   UNL A   1      33.153  21.380  26.132  1.00  0.00     0.188 C 
ENDROOT
BRANCH   1   2
ATOM      2  O   UNL A   1      31.950  22.046  25.815  1.00  0.00    -0.376 OA
BRANCH   2   3
ATOM      3  C   UNL A   1      31.533  22.919  26.871  1.00  0.00     0.202 C 
BRANCH   3   4
ATOM      4  C   UNL A   1      31.189  24.380  26.484  1.00  0.00     0.261 C 
BRANCH   4   5
ATOM      5  O   UNL A   1      32.120  25.477  26.126  1.00  0.00    -0.459 OA
BRANCH   5   6
ATOM      6  C   UNL A   1      33.036  25.580  25.146  1.00  0.00     0.368 C 
ATOM      7  O   UNL A   1      34.020  24.835  25.196  1.00  0.00    -0.245 OA
BRANCH   6   8
ATOM      8  C   UNL A   1      32.734  26.636  23.795  1.00  0.00     0.197 C 
ATOM      9  C   UNL A   1      33.325  26.963  22.319  1.00  0.00     0.081 C 
ATOM     10  C   UNL A   1      32.945  28.112  24.385  1.00  0.00     0.065 C 
ATOM     11  C   UNL A   1      34.105  28.276  22.244  1.00  0.00     0.008 C 
ATOM     12  C   UNL A   1      33.508  29.102  23.343  1.00  0.00     0.011 C 
BRANCH   8  13
ATOM     13  N   UNL A   1      31.299  26.276  23.369  1.00  0.00    -0.330 N 
ATOM     14  H   UNL A   1      31.294  26.244  22.350  1.00  0.00     0.347 HD
ATOM     15  H   UNL A   1      31.120  25.404  23.868  1.00  0.00     0.347 HD
BRANCH  13  16
ATOM     16  C   UNL A   1      30.162  27.142  23.778  1.00  0.00     0.176 C 
ATOM     17  C   UNL A   1      29.880  28.114  22.629  1.00  0.00     0.075 C 
ATOM     18  C   UNL A   1      28.821  26.464  24.132  1.00  0.00     0.075 C 
ENDBRANCH  13  16
ENDBRANCH   8  13
BRANCH  10  19
ATOM     19  C   UNL A   1      33.931  28.194  25.571  1.00  0.00     0.039 C 
BRANCH  19  20
ATOM     20  C   UNL A   1      33.453  28.839  26.937  1.00  0.00     0.161 C 
BRANCH  20  21
ATOM     21  O   UNL A   1      33.828  30.196  26.941  1.00  0.00    -0.378 OA
BRANCH  21  22
ATOM     22  C   UNL A   1      34.810  30.977  27.593  1.00  0.00     0.122 C 
ATOM     23  C   UNL A   1      35.784  30.205  28.527  1.00  0.00     0.060 C 
ATOM     24  C   UNL A   1      34.588  32.301  28.292  1.00  0.00     0.060 C 
ATOM     25  C   UNL A   1      37.137  30.853  28.403  1.00  0.00     0.163 C 
ATOM     26  C   UNL A   1      35.987  32.971  28.362  1.00  0.00     0.163 C 
ATOM     27  O   UNL A   1      37.021  32.164  28.954  1.00  0.00    -0.381 OA
ENDBRANCH  21  22
ENDBRANCH  20  21
ENDBRANCH  19  20
ENDBRANCH  10  19
ENDBRANCH   6   8
ENDBRANCH   5   6
ENDBRANCH   4   5
ENDBRANCH   3   4
ENDBRANCH   2   3
ENDBRANCH   1   2
BRANCH   1  28
ATOM     28  C   UNL A   1      33.875  20.672  24.979  1.00  0.00     0.188 C 
BRANCH  28  29
ATOM     29  O   UNL A   1      35.186  21.099  24.675  1.00  0.00    -0.376 OA
BRANCH  29  30
ATOM     30  C   UNL A   1      36.219  20.199  25.048  1.00  0.00     0.202 C 
BRANCH  30  31
ATOM     31  C   UNL A   1      37.651  20.693  24.793  1.00  0.00     0.261 C 
BRANCH  31  32
ATOM     32  O   UNL A   1      38.057  21.830  25.602  1.00  0.00    -0.460 OA
BRANCH  32  33
ATOM     33  C   UNL A   1      39.268  21.726  26.221  1.00  0.00     0.338 C 
ATOM     34  O   UNL A   1      40.004  20.754  26.201  1.00  0.00    -0.246 OA
BRANCH  33  35
ATOM     35  C   UNL A   1      39.669  22.979  26.910  1.00  0.00     0.060 A 
ATOM     36  C   UNL A   1      39.161  24.213  26.477  1.00  0.00     0.016 A 
ATOM     37  C   UNL A   1      40.711  22.951  27.836  1.00  0.00     0.016 A 
ATOM     38  C   UNL A   1      39.714  25.419  26.950  1.00  0.00     0.010 A 
ATOM     39  C   UNL A   1      41.270  24.155  28.295  1.00  0.00     0.010 A 
ATOM     40  C   UNL A   1      40.801  25.400  27.836  1.00  0.00    -0.014 A 
BRANCH  40  41
ATOM     41  C   UNL A   1      41.556  26.636  28.206  1.00  0.00     0.031 A 
ATOM     42  C   UNL A   1      42.953  26.834  27.673  1.00  0.00     0.074 A 
ATOM     43  C   UNL A   1      41.069  27.526  29.091  1.00  0.00     0.049 A 
ATOM     44  N   UNL A   1      43.860  27.713  28.019  1.00  0.00    -0.248 NA
ATOM     45  C   UNL A   1      43.390  25.900  26.625  1.00  0.00     0.031 C 
ATOM     46  C   UNL A   1      39.745  27.463  29.700  1.00  0.00     0.029 A 
ATOM     47  N   UNL A   1      41.649  28.640  29.661  1.00  0.00    -0.354 N 
ATOM     48  C   UNL A   1      44.998  27.397  27.286  1.00  0.00     0.074 A 
ATOM     49  C   UNL A   1      44.654  26.262  26.453  1.00  0.00     0.031 C 
ATOM     50  C   UNL A   1      39.613  28.485  30.564  1.00  0.00     0.029 A 
ATOM     51  C   UNL A   1      40.862  29.245  30.616  1.00  0.00     0.049 A 
ATOM     52  H   UNL A   1      42.542  28.970  29.408  1.00  0.00     0.167 HD
ATOM     53  C   UNL A   1      46.221  27.982  27.312  1.00  0.00     0.034 A 
ATOM     54  C   UNL A   1      41.125  30.265  31.462  1.00  0.00     0.034 A 
ATOM     55  C   UNL A   1      46.570  29.115  28.128  1.00  0.00     0.049 A 
ATOM     56  C   UNL A   1      42.496  30.901  31.470  1.00  0.00     0.074 A 
ATOM     57  C   UNL A   1      47.780  29.787  28.191  1.00  0.00     0.029 A 
ATOM     58  N   UNL A   1      45.726  29.736  29.033  1.00  0.00    -0.354 N 
ATOM     59  N   UNL A   1      43.535  30.641  30.715  1.00  0.00    -0.248 NA
ATOM     60  C   UNL A   1      42.729  31.974  32.452  1.00  0.00     0.031 C 
ATOM     61  C   UNL A   1      47.677  30.791  29.160  1.00  0.00     0.029 A 
ATOM     62  C   UNL A   1      46.389  30.775  29.668  1.00  0.00     0.049 A 
ATOM     63  H   UNL A   1      44.790  29.478  29.201  1.00  0.00     0.167 HD
ATOM     64  C   UNL A   1      44.531  31.529  31.113  1.00  0.00     0.074 A 
ATOM     65  C   UNL A   1      43.964  32.356  32.156  1.00  0.00     0.031 C 
ATOM     66  C   UNL A   1      45.808  31.634  30.668  1.00  0.00     0.034 A 
BRANCH  53  67
ATOM     67  C   UNL A   1      47.293  27.393  26.430  1.00  0.00     0.023 A 
ATOM     68  C   UNL A   1      48.152  26.398  26.937  1.00  0.00     0.012 A 
ATOM     69  C   UNL A   1      47.413  27.788  25.082  1.00  0.00     0.148 A 
ATOM     70  C   UNL A   1      49.139  25.834  26.129  1.00  0.00     0.002 A 
ATOM     71  C   UNL A   1      48.367  27.188  24.269  1.00  0.00     0.091 A 
ATOM     72  F   UNL A   1      46.595  28.745  24.621  1.00  0.00    -0.205 F 
ATOM     73  C   UNL A   1      49.241  26.222  24.795  1.00  0.00     0.022 A 
BRANCH  71  74
ATOM     74  S   UNL A   1      48.524  27.558  22.519  1.00  0.00     0.127 S 
ATOM     75  O   UNL A   1      48.556  26.218  21.935  1.00  0.00    -0.237 OA
ATOM     76  O   UNL A   1      47.296  28.308  22.253  1.00  0.00    -0.237 OA
ATOM     77  O   UNL A   1      49.751  28.329  22.378  1.00  0.00    -0.744 OA
ENDBRANCH  71  74
ENDBRANCH  53  67
BRANCH  54  78
ATOM     78  C   UNL A   1      40.069  30.764  32.395  1.00  0.00     0.023 A 
ATOM     79  C   UNL A   1      39.906  30.148  33.653  1.00  0.00     0.012 A 
ATOM     80  C   UNL A   1      39.223  31.833  32.046  1.00  0.00     0.148 A 
ATOM     81  C   UNL A   1      38.903  30.567  34.529  1.00  0.00     0.002 A 
ATOM     82  C   UNL A   1      38.271  32.291  32.950  1.00  0.00     0.091 A 
ATOM     83  F   UNL A   1      39.366  32.389  30.834  1.00  0.00    -0.205 F 
ATOM     84  C   UNL A   1      38.094  31.646  34.185  1.00  0.00     0.022 A 
BRANCH  82  85
ATOM     85  S   UNL A   1      37.288  33.764  32.652  1.00  0.00     0.127 S 
ATOM     86  O   UNL A   1      36.120  33.212  31.969  1.00  0.00    -0.237 OA
ATOM     87  O   UNL A   1      37.039  34.239  34.013  1.00  0.00    -0.237 OA
ATOM     88  O   UNL A   1      38.131  34.644  31.855  1.00  0.00    -0.744 OA
ENDBRANCH  82  85
ENDBRANCH  54  78
BRANCH  66  89
ATOM     89  C   UNL A   1      46.684  32.710  31.263  1.00  0.00     0.023 A 
ATOM     90  C   UNL A   1      47.500  32.425  32.376  1.00  0.00     0.012 A 
ATOM     91  C   UNL A   1      46.757  33.986  30.666  1.00  0.00     0.148 A 
ATOM     92  C   UNL A   1      48.350  33.399  32.904  1.00  0.00     0.002 A 
ATOM     93  C   UNL A   1      47.642  34.936  31.167  1.00  0.00     0.091 A 
ATOM     94  F   UNL A   1      45.962  34.246  29.620  1.00  0.00    -0.205 F 
ATOM     95  C   UNL A   1      48.429  34.648  32.292  1.00  0.00     0.022 A 
BRANCH  93  96
ATOM     96  S   UNL A   1      47.882  36.537  30.389  1.00  0.00     0.127 S 
ATOM     97  O   UNL A   1      46.504  36.982  30.191  1.00  0.00    -0.237 OA
ATOM     98  O   UNL A   1      48.618  37.274  31.416  1.00  0.00    -0.237 OA
ATOM     99  O   UNL A   1      48.636  36.284  29.168  1.00  0.00    -0.744 OA
ENDBRANCH  93  96
ENDBRANCH  66  89
ENDBRANCH  40  41
ENDBRANCH  33  35
ENDBRANCH  32  33
ENDBRANCH  31  32
ENDBRANCH  30  31
ENDBRANCH  29  30
ENDBRANCH  28  29
ENDBRANCH   1  28
TORSDOF 26
ENDMDL
MODEL 3
REMARK VINA RESULT:      -9.2      2.965      8.505
REMARK SMILES CC(C)[NH2+][C@@]1(C(=O)OCCOCCOCCOC(=O)c2ccc(-c3c4nc(c(-c5cccc(S(=O)(=O)[O-])c5F)c5ccc([nH]5)c(-c5cccc(S(=O)(=O)[O-])c5F)c5nc(c(-c6cccc(S(=O)(=O)[O-])c6F)c6ccc3[nH]6)C=C5)C=C4)cc2)CCC[C@@H]1CCOC1CCOCC1
REMARK SMILES IDX 12 1 11 2 10 3 9 4 8 5 6 6 7 7 5 8 83 9 86 10 84 11 85 12
REMARK SMILES IDX 4 13 2 16 1 17 3 18 87 19 88 20 89 21 90 22 91 23 95 24
REMARK SMILES IDX 92 25 94 26 93 27 13 28 14 29 15 30 16 31 17 32 18 33 19 34
REMARK SMILES IDX 20 35 21 36 82 37 22 38 81 39 23 40 24 41 25 42 75 43 26 44
REMARK SMILES IDX 80 45 74 46 76 47 27 48 79 49 73 50 72 51 28 53 60 54 40 55
REMARK SMILES IDX 59 56 41 57 44 58 58 59 77 60 42 61 43 62 57 64 78 65 45 66
REMARK SMILES IDX 29 67 30 68 38 69 31 70 33 71 39 72 32 73 34 74 35 75 36 76
REMARK SMILES IDX 37 77 61 78 62 79 70 80 63 81 65 82 71 83 64 84 66 85 67 86
REMARK SMILES IDX 68 87 69 88 46 89 47 90 55 91 48 92 50 93 56 94 49 95 51 96
REMARK SMILES IDX 52 97 53 98 54 99
REMARK H PARENT 4 14 4 15 76 52 44 63
REMARK Flexibility Score: inf
ROOT
ATOM      1  C   UNL A   1      34.498  21.161  25.534  1.00  0.00     0.188 C 
ENDROOT
BRANCH   1   2
ATOM      2  O   UNL A   1      33.786  20.007  25.141  1.00  0.00    -0.376 OA
BRANCH   2   3
ATOM      3  C   UNL A   1      32.572  20.340  24.460  1.00  0.00     0.202 C 
BRANCH   3   4
ATOM      4  C   UNL A   1      31.875  21.663  24.869  1.00  0.00     0.261 C 
BRANCH   4   5
ATOM      5  O   UNL A   1      31.840  22.948  24.130  1.00  0.00    -0.459 OA
BRANCH   5   6
ATOM      6  C   UNL A   1      31.249  24.122  24.417  1.00  0.00     0.368 C 
ATOM      7  O   UNL A   1      30.741  24.254  25.535  1.00  0.00    -0.245 OA
BRANCH   6   8
ATOM      8  C   UNL A   1      31.348  25.435  23.277  1.00  0.00     0.197 C 
ATOM      9  C   UNL A   1      31.376  25.687  21.674  1.00  0.00     0.081 C 
ATOM     10  C   UNL A   1      32.771  26.115  23.572  1.00  0.00     0.065 C 
ATOM     11  C   UNL A   1      32.754  26.067  21.133  1.00  0.00     0.008 C 
ATOM     12  C   UNL A   1      33.429  26.707  22.308  1.00  0.00     0.011 C 
BRANCH   8  13
ATOM     13  N   UNL A   1      30.109  26.288  23.601  1.00  0.00    -0.330 N 
ATOM     14  H   UNL A   1      29.296  25.755  23.294  1.00  0.00     0.347 HD
ATOM     15  H   UNL A   1      30.204  26.468  24.600  1.00  0.00     0.347 HD
BRANCH  13  16
ATOM     16  C   UNL A   1      29.972  27.651  23.021  1.00  0.00     0.176 C 
ATOM     17  C   UNL A   1      28.484  28.009  23.019  1.00  0.00     0.075 C 
ATOM     18  C   UNL A   1      30.714  28.814  23.713  1.00  0.00     0.075 C 
ENDBRANCH  13  16
ENDBRANCH   8  13
BRANCH  10  19
ATOM     19  C   UNL A   1      33.833  25.155  24.152  1.00  0.00     0.039 C 
BRANCH  19  20
ATOM     20  C   UNL A   1      34.381  25.394  25.619  1.00  0.00     0.161 C 
BRANCH  20  21
ATOM     21  O   UNL A   1      33.397  26.082  26.353  1.00  0.00    -0.378 OA
BRANCH  21  22
ATOM     22  C   UNL A   1      33.032  27.435  26.545  1.00  0.00     0.122 C 
ATOM     23  C   UNL A   1      34.161  28.482  26.331  1.00  0.00     0.060 C 
ATOM     24  C   UNL A   1      32.213  27.993  27.689  1.00  0.00     0.060 C 
ATOM     25  C   UNL A   1      33.537  29.699  25.703  1.00  0.00     0.163 C 
ATOM     26  C   UNL A   1      31.663  29.352  27.179  1.00  0.00     0.163 C 
ATOM     27  O   UNL A   1      32.658  30.262  26.675  1.00  0.00    -0.381 OA
ENDBRANCH  21  22
ENDBRANCH  20  21
ENDBRANCH  19  20
ENDBRANCH  10  19
ENDBRANCH   6   8
ENDBRANCH   5   6
ENDBRANCH   4   5
ENDBRANCH   3   4
ENDBRANCH   2   3
ENDBRANCH   1   2
BRANCH   1  28
ATOM     28  C   UNL A   1      35.828  21.428  24.819  1.00  0.00     0.188 C 
BRANCH  28  29
ATOM     29  O   UNL A   1      36.781  20.387  24.811  1.00  0.00    -0.376 OA
BRANCH  29  30
ATOM     30  C   UNL A   1      38.057  20.728  25.333  1.00  0.00     0.202 C 
BRANCH  30  31
ATOM     31  C   UNL A   1      39.086  19.588  25.366  1.00  0.00     0.261 C 
BRANCH  31  32
ATOM     32  O   UNL A   1      39.971  19.597  26.519  1.00  0.00    -0.460 OA
BRANCH  32  33
ATOM     33  C   UNL A   1      41.307  19.540  26.251  1.00  0.00     0.338 C 
ATOM     34  O   UNL A   1      41.918  18.565  25.850  1.00  0.00    -0.246 OA
BRANCH  33  35
ATOM     35  C   UNL A   1      41.985  20.847  26.443  1.00  0.00     0.060 A 
ATOM     36  C   UNL A   1      42.183  21.354  27.736  1.00  0.00     0.016 A 
ATOM     37  C   UNL A   1      42.226  21.665  25.339  1.00  0.00     0.016 A 
ATOM     38  C   UNL A   1      42.594  22.688  27.926  1.00  0.00     0.010 A 
ATOM     39  C   UNL A   1      42.622  22.999  25.532  1.00  0.00     0.010 A 
ATOM     40  C   UNL A   1      42.781  23.534  26.824  1.00  0.00    -0.014 A 
BRANCH  40  41
ATOM     41  C   UNL A   1      43.013  25.004  26.971  1.00  0.00     0.031 A 
ATOM     42  C   UNL A   1      44.324  25.593  26.513  1.00  0.00     0.074 A 
ATOM     43  C   UNL A   1      42.130  25.802  27.601  1.00  0.00     0.049 A 
ATOM     44  N   UNL A   1      44.820  26.786  26.726  1.00  0.00    -0.248 NA
ATOM     45  C   UNL A   1      45.199  24.708  25.731  1.00  0.00     0.031 C 
ATOM     46  C   UNL A   1      40.831  25.376  28.109  1.00  0.00     0.029 A 
ATOM     47  N   UNL A   1      42.211  27.132  27.956  1.00  0.00    -0.354 N 
ATOM     48  C   UNL A   1      46.093  26.776  26.167  1.00  0.00     0.074 A 
ATOM     49  C   UNL A   1      46.278  25.465  25.578  1.00  0.00     0.031 C 
ATOM     50  C   UNL A   1      40.237  26.418  28.716  1.00  0.00     0.029 A 
ATOM     51  C   UNL A   1      41.135  27.573  28.694  1.00  0.00     0.049 A 
ATOM     52  H   UNL A   1      42.967  27.711  27.705  1.00  0.00     0.167 HD
ATOM     53  C   UNL A   1      47.030  27.756  26.155  1.00  0.00     0.034 A 
ATOM     54  C   UNL A   1      40.911  28.752  29.315  1.00  0.00     0.034 A 
ATOM     55  C   UNL A   1      46.853  29.065  26.729  1.00  0.00     0.049 A 
ATOM     56  C   UNL A   1      41.971  29.830  29.285  1.00  0.00     0.074 A 
ATOM     57  C   UNL A   1      47.743  30.127  26.733  1.00  0.00     0.029 A 
ATOM     58  N   UNL A   1      45.725  29.491  27.410  1.00  0.00    -0.354 N 
ATOM     59  N   UNL A   1      43.136  29.831  28.686  1.00  0.00    -0.248 NA
ATOM     60  C   UNL A   1      41.682  31.071  30.024  1.00  0.00     0.031 C 
ATOM     61  C   UNL A   1      47.166  31.181  27.450  1.00  0.00     0.029 A 
ATOM     62  C   UNL A   1      45.899  30.794  27.851  1.00  0.00     0.049 A 
ATOM     63  H   UNL A   1      44.917  28.947  27.560  1.00  0.00     0.167 HD
ATOM     64  C   UNL A   1      43.705  31.073  28.953  1.00  0.00     0.074 A 
ATOM     65  C   UNL A   1      42.745  31.812  29.745  1.00  0.00     0.031 C 
ATOM     66  C   UNL A   1      44.923  31.549  28.593  1.00  0.00     0.034 A 
BRANCH  53  67
ATOM     67  C   UNL A   1      48.355  27.446  25.507  1.00  0.00     0.023 A 
ATOM     68  C   UNL A   1      48.540  27.693  24.132  1.00  0.00     0.012 A 
ATOM     69  C   UNL A   1      49.434  26.962  26.273  1.00  0.00     0.148 A 
ATOM     70  C   UNL A   1      49.765  27.424  23.522  1.00  0.00     0.002 A 
ATOM     71  C   UNL A   1      50.666  26.741  25.668  1.00  0.00     0.091 A 
ATOM     72  F   UNL A   1      49.236  26.721  27.577  1.00  0.00    -0.205 F 
ATOM     73  C   UNL A   1      50.829  26.958  24.290  1.00  0.00     0.022 A 
BRANCH  71  74
ATOM     74  S   UNL A   1      52.119  26.220  26.586  1.00  0.00     0.127 S 
ATOM     75  O   UNL A   1      51.887  26.843  27.888  1.00  0.00    -0.237 OA
ATOM     76  O   UNL A   1      51.984  24.763  26.575  1.00  0.00    -0.237 OA
ATOM     77  O   UNL A   1      53.267  26.729  25.847  1.00  0.00    -0.744 OA
ENDBRANCH  71  74
ENDBRANCH  53  67
BRANCH  54  78
ATOM     78  C   UNL A   1      39.624  28.996  30.034  1.00  0.00     0.023 A 
ATOM     79  C   UNL A   1      39.395  28.372  31.278  1.00  0.00     0.012 A 
ATOM     80  C   UNL A   1      38.625  29.829  29.497  1.00  0.00     0.148 A 
ATOM     81  C   UNL A   1      38.186  28.548  31.954  1.00  0.00     0.002 A 
ATOM     82  C   UNL A   1      37.452  30.057  30.208  1.00  0.00     0.091 A 
ATOM     83  F   UNL A   1      38.842  30.390  28.298  1.00  0.00    -0.205 F 
ATOM     84  C   UNL A   1      37.221  29.401  31.427  1.00  0.00     0.022 A 
BRANCH  82  85
ATOM     85  S   UNL A   1      36.220  31.250  29.677  1.00  0.00     0.127 S 
ATOM     86  O   UNL A   1      35.437  30.470  28.722  1.00  0.00    -0.237 OA
ATOM     87  O   UNL A   1      35.535  31.553  30.934  1.00  0.00    -0.237 OA
ATOM     88  O   UNL A   1      36.969  32.367  29.118  1.00  0.00    -0.744 OA
ENDBRANCH  82  85
ENDBRANCH  54  78
BRANCH  66  89
ATOM     89  C   UNL A   1      45.288  32.957  29.003  1.00  0.00     0.023 A 
ATOM     90  C   UNL A   1      45.973  33.187  30.212  1.00  0.00     0.012 A 
ATOM     91  C   UNL A   1      45.020  34.044  28.146  1.00  0.00     0.148 A 
ATOM     92  C   UNL A   1      46.359  34.479  30.577  1.00  0.00     0.002 A 
ATOM     93  C   UNL A   1      45.449  35.321  28.492  1.00  0.00     0.091 A 
ATOM     94  F   UNL A   1      44.351  33.810  27.008  1.00  0.00    -0.205 F 
ATOM     95  C   UNL A   1      46.107  35.542  29.712  1.00  0.00     0.022 A 
BRANCH  93  96
ATOM     96  S   UNL A   1      45.255  36.735  27.401  1.00  0.00     0.127 S 
ATOM     97  O   UNL A   1      45.988  36.298  26.214  1.00  0.00    -0.237 OA
ATOM     98  O   UNL A   1      43.803  36.799  27.231  1.00  0.00    -0.237 OA
ATOM     99  O   UNL A   1      45.832  37.872  28.106  1.00  0.00    -0.744 OA
ENDBRANCH  93  96
ENDBRANCH  66  89
ENDBRANCH  40  41
ENDBRANCH  33  35
ENDBRANCH  32  33
ENDBRANCH  31  32
ENDBRANCH  30  31
ENDBRANCH  29  30
ENDBRANCH  28  29
ENDBRANCH   1  28
TORSDOF 26
ENDMDL
