MODEL 1
REMARK VINA RESULT:      -9.9      0.000      0.000
REMARK SMILES O=C(OCCOCCOCCOC(=O)c1ccccc1Nc1cccc(C(F)(F)F)c1)c1ccc(-c2c3nc(c(-c4cccc(S(=O)(=O)[O-])c4F)c4ccc([nH]4)c(-c4cccc(S(=O)(=O)[O-])c4F)c4nc(c(-c5cccc(S(=O)(=O)[O-])c5F)c5ccc2[nH]5)C=C4)C=C3)cc1
REMARK SMILES IDX 7 1 6 2 5 3 4 4 3 5 2 6 1 7 32 8 33 9 94 10 34 11 93 12
REMARK SMILES IDX 35 13 36 14 37 15 87 16 38 17 92 18 86 19 88 20 39 21 91 22
REMARK SMILES IDX 85 23 84 24 40 26 72 27 52 28 71 29 53 30 56 31 70 32 89 33
REMARK SMILES IDX 54 34 55 35 69 37 90 38 57 39 41 40 42 41 50 42 43 43 45 44
REMARK SMILES IDX 51 45 44 46 46 47 47 48 48 49 49 50 73 51 74 52 82 53 75 54
REMARK SMILES IDX 77 55 83 56 76 57 78 58 79 59 80 60 81 61 58 62 59 63 67 64
REMARK SMILES IDX 60 65 62 66 68 67 61 68 63 69 64 70 65 71 66 72 8 73 9 74
REMARK SMILES IDX 10 75 11 76 12 77 13 78 14 79 15 80 16 81 20 82 17 83 19 84
REMARK SMILES IDX 18 85 21 86 22 88 23 89 31 90 24 91 26 92 25 93 27 94 28 95
REMARK SMILES IDX 29 96 30 97
REMARK H PARENT 88 25 56 36 21 87
REMARK Flexibility Score: inf
ROOT
ATOM      1  C   UNL A   1      33.653  30.693  27.407  1.00  0.00     0.188 C 
ENDROOT
BRANCH   1   2
ATOM      2  O   UNL A   1      33.827  32.061  27.797  1.00  0.00    -0.376 OA
BRANCH   2   3
ATOM      3  C   UNL A   1      32.627  32.835  27.744  1.00  0.00     0.202 C 
BRANCH   3   4
ATOM      4  C   UNL A   1      32.861  34.346  27.639  1.00  0.00     0.261 C 
BRANCH   4   5
ATOM      5  O   UNL A   1      32.464  35.029  28.838  1.00  0.00    -0.460 OA
BRANCH   5   6
ATOM      6  C   UNL A   1      33.232  35.301  29.924  1.00  0.00     0.338 C 
ATOM      7  O   UNL A   1      32.993  36.316  30.575  1.00  0.00    -0.246 OA
BRANCH   6   8
ATOM      8  C   UNL A   1      34.300  34.380  30.418  1.00  0.00     0.060 A 
ATOM      9  C   UNL A   1      34.097  33.312  31.296  1.00  0.00     0.016 A 
ATOM     10  C   UNL A   1      35.594  34.583  29.912  1.00  0.00     0.016 A 
ATOM     11  C   UNL A   1      35.169  32.568  31.787  1.00  0.00     0.010 A 
ATOM     12  C   UNL A   1      36.662  33.793  30.344  1.00  0.00     0.010 A 
ATOM     13  C   UNL A   1      36.463  32.819  31.330  1.00  0.00    -0.014 A 
BRANCH  13  14
ATOM     14  C   UNL A   1      37.613  32.126  31.952  1.00  0.00     0.031 A 
ATOM     15  C   UNL A   1      38.120  32.611  33.276  1.00  0.00     0.074 A 
ATOM     16  C   UNL A   1      38.185  31.073  31.340  1.00  0.00     0.049 A 
ATOM     17  N   UNL A   1      39.139  32.187  33.974  1.00  0.00    -0.248 NA
ATOM     18  C   UNL A   1      37.379  33.719  33.903  1.00  0.00     0.031 C 
ATOM     19  C   UNL A   1      37.737  30.506  30.072  1.00  0.00     0.029 A 
ATOM     20  N   UNL A   1      39.272  30.309  31.685  1.00  0.00    -0.354 N 
ATOM     21  C   UNL A   1      39.196  33.010  35.090  1.00  0.00     0.074 A 
ATOM     22  C   UNL A   1      38.104  33.952  34.985  1.00  0.00     0.031 C 
ATOM     23  C   UNL A   1      38.561  29.504  29.730  1.00  0.00     0.029 A 
ATOM     24  C   UNL A   1      39.619  29.389  30.723  1.00  0.00     0.049 A 
ATOM     25  H   UNL A   1      39.756  30.410  32.536  1.00  0.00     0.167 HD
ATOM     26  C   UNL A   1      40.075  32.973  36.117  1.00  0.00     0.034 A 
ATOM     27  C   UNL A   1      40.686  28.568  30.631  1.00  0.00     0.034 A 
ATOM     28  C   UNL A   1      41.131  32.006  36.224  1.00  0.00     0.049 A 
ATOM     29  C   UNL A   1      41.643  28.541  31.794  1.00  0.00     0.074 A 
ATOM     30  C   UNL A   1      42.059  31.850  37.236  1.00  0.00     0.029 A 
ATOM     31  N   UNL A   1      41.401  31.032  35.273  1.00  0.00    -0.354 N 
ATOM     32  N   UNL A   1      41.598  29.229  32.912  1.00  0.00    -0.248 NA
ATOM     33  C   UNL A   1      42.772  27.604  31.715  1.00  0.00     0.031 C 
ATOM     34  C   UNL A   1      42.903  30.789  36.887  1.00  0.00     0.029 A 
ATOM     35  C   UNL A   1      42.493  30.280  35.663  1.00  0.00     0.049 A 
ATOM     36  H   UNL A   1      40.890  30.896  34.442  1.00  0.00     0.167 HD
ATOM     37  C   UNL A   1      42.661  28.781  33.684  1.00  0.00     0.074 A 
ATOM     38  C   UNL A   1      43.320  27.742  32.916  1.00  0.00     0.031 C 
ATOM     39  C   UNL A   1      43.076  29.202  34.903  1.00  0.00     0.034 A 
BRANCH  26  40
ATOM     40  C   UNL A   1      39.918  34.017  37.187  1.00  0.00     0.023 A 
ATOM     41  C   UNL A   1      40.444  35.310  36.989  1.00  0.00     0.012 A 
ATOM     42  C   UNL A   1      39.277  33.707  38.401  1.00  0.00     0.148 A 
ATOM     43  C   UNL A   1      40.367  36.268  37.999  1.00  0.00     0.002 A 
ATOM     44  C   UNL A   1      39.174  34.678  39.390  1.00  0.00     0.091 A 
ATOM     45  F   UNL A   1      38.818  32.462  38.584  1.00  0.00    -0.205 F 
ATOM     46  C   UNL A   1      39.727  35.954  39.196  1.00  0.00     0.022 A 
BRANCH  44  47
ATOM     47  S   UNL A   1      38.327  34.372  40.944  1.00  0.00     0.127 S 
ATOM     48  O   UNL A   1      37.137  33.651  40.495  1.00  0.00    -0.237 OA
ATOM     49  O   UNL A   1      39.297  33.554  41.672  1.00  0.00    -0.237 OA
ATOM     50  O   UNL A   1      38.090  35.685  41.529  1.00  0.00    -0.744 OA
ENDBRANCH  44  47
ENDBRANCH  26  40
BRANCH  27  51
ATOM     51  C   UNL A   1      40.859  27.689  29.430  1.00  0.00     0.023 A 
ATOM     52  C   UNL A   1      40.100  26.510  29.306  1.00  0.00     0.012 A 
ATOM     53  C   UNL A   1      41.719  28.048  28.370  1.00  0.00     0.148 A 
ATOM     54  C   UNL A   1      40.200  25.704  28.169  1.00  0.00     0.002 A 
ATOM     55  C   UNL A   1      41.756  27.284  27.208  1.00  0.00     0.091 A 
ATOM     56  F   UNL A   1      42.462  29.156  28.502  1.00  0.00    -0.205 F 
ATOM     57  C   UNL A   1      41.012  26.100  27.112  1.00  0.00     0.022 A 
BRANCH  55  58
ATOM     58  S   UNL A   1      42.638  27.810  25.733  1.00  0.00     0.127 S 
ATOM     59  O   UNL A   1      43.997  27.980  26.239  1.00  0.00    -0.237 OA
ATOM     60  O   UNL A   1      42.447  26.661  24.846  1.00  0.00    -0.237 OA
ATOM     61  O   UNL A   1      41.970  29.027  25.288  1.00  0.00    -0.744 OA
ENDBRANCH  55  58
ENDBRANCH  27  51
BRANCH  39  62
ATOM     62  C   UNL A   1      44.282  28.525  35.493  1.00  0.00     0.023 A 
ATOM     63  C   UNL A   1      45.568  28.979  35.141  1.00  0.00     0.012 A 
ATOM     64  C   UNL A   1      44.141  27.510  36.457  1.00  0.00     0.148 A 
ATOM     65  C   UNL A   1      46.701  28.414  35.724  1.00  0.00     0.002 A 
ATOM     66  C   UNL A   1      45.272  26.983  37.068  1.00  0.00     0.091 A 
ATOM     67  F   UNL A   1      42.907  27.081  36.761  1.00  0.00    -0.205 F 
ATOM     68  C   UNL A   1      46.552  27.426  36.695  1.00  0.00     0.022 A 
BRANCH  66  69
ATOM     69  S   UNL A   1      45.172  25.778  38.396  1.00  0.00     0.127 S 
ATOM     70  O   UNL A   1      44.840  24.556  37.667  1.00  0.00    -0.237 OA
ATOM     71  O   UNL A   1      46.527  25.811  38.948  1.00  0.00    -0.237 OA
ATOM     72  O   UNL A   1      44.142  26.269  39.302  1.00  0.00    -0.744 OA
ENDBRANCH  66  69
ENDBRANCH  39  62
ENDBRANCH  13  14
ENDBRANCH   6   8
ENDBRANCH   5   6
ENDBRANCH   4   5
ENDBRANCH   3   4
ENDBRANCH   2   3
ENDBRANCH   1   2
BRANCH   1  73
ATOM     73  C   UNL A   1      32.401  30.543  26.541  1.00  0.00     0.188 C 
BRANCH  73  74
ATOM     74  O   UNL A   1      32.490  29.530  25.537  1.00  0.00    -0.376 OA
BRANCH  74  75
ATOM     75  C   UNL A   1      33.505  28.544  25.702  1.00  0.00     0.202 C 
BRANCH  75  76
ATOM     76  C   UNL A   1      33.149  27.316  26.549  1.00  0.00     0.261 C 
BRANCH  76  77
ATOM     77  O   UNL A   1      33.545  26.046  26.003  1.00  0.00    -0.460 OA
BRANCH  77  78
ATOM     78  C   UNL A   1      32.541  25.365  25.393  1.00  0.00     0.340 C 
ATOM     79  O   UNL A   1      31.788  24.558  25.910  1.00  0.00    -0.246 OA
BRANCH  78  80
ATOM     80  C   UNL A   1      32.482  25.697  23.961  1.00  0.00     0.083 A 
ATOM     81  C   UNL A   1      31.372  26.422  23.503  1.00  0.00     0.018 A 
ATOM     82  C   UNL A   1      33.403  25.108  23.074  1.00  0.00     0.053 A 
ATOM     83  C   UNL A   1      31.136  26.527  22.134  1.00  0.00     0.001 A 
ATOM     84  C   UNL A   1      33.084  25.150  21.711  1.00  0.00     0.027 A 
ATOM     85  C   UNL A   1      31.971  25.861  21.242  1.00  0.00     0.002 A 
BRANCH  82  86
ATOM     86  N   UNL A   1      34.534  24.415  23.546  1.00  0.00    -0.355 N 
ATOM     87  H   UNL A   1      35.395  24.875  23.424  1.00  0.00     0.167 HD
BRANCH  86  88
ATOM     88  C   UNL A   1      34.603  23.160  24.167  1.00  0.00     0.039 A 
ATOM     89  C   UNL A   1      35.726  22.852  24.938  1.00  0.00     0.026 A 
ATOM     90  C   UNL A   1      33.671  22.154  23.888  1.00  0.00     0.039 A 
ATOM     91  C   UNL A   1      35.892  21.579  25.479  1.00  0.00     0.003 A 
ATOM     92  C   UNL A   1      33.829  20.862  24.418  1.00  0.00     0.058 A 
ATOM     93  C   UNL A   1      34.948  20.588  25.220  1.00  0.00     0.013 A 
BRANCH  92  94
ATOM     94  C   UNL A   1      32.860  19.760  24.076  1.00  0.00     0.416 C 
ATOM     95  F   UNL A   1      33.506  18.634  23.655  1.00  0.00    -0.166 F 
ATOM     96  F   UNL A   1      32.101  19.363  25.137  1.00  0.00    -0.166 F 
ATOM     97  F   UNL A   1      31.988  20.078  23.084  1.00  0.00    -0.166 F 
ENDBRANCH  92  94
ENDBRANCH  86  88
ENDBRANCH  82  86
ENDBRANCH  78  80
ENDBRANCH  77  78
ENDBRANCH  76  77
ENDBRANCH  75  76
ENDBRANCH  74  75
ENDBRANCH  73  74
ENDBRANCH   1  73
TORSDOF 23
ENDMDL
MODEL 2
REMARK VINA RESULT:      -9.7      4.839      9.035
REMARK SMILES O=C(OCCOCCOCCOC(=O)c1ccccc1Nc1cccc(C(F)(F)F)c1)c1ccc(-c2c3nc(c(-c4cccc(S(=O)(=O)[O-])c4F)c4ccc([nH]4)c(-c4cccc(S(=O)(=O)[O-])c4F)c4nc(c(-c5cccc(S(=O)(=O)[O-])c5F)c5ccc2[nH]5)C=C4)C=C3)cc1
REMARK SMILES IDX 7 1 6 2 5 3 4 4 3 5 2 6 1 7 32 8 33 9 94 10 34 11 93 12
REMARK SMILES IDX 35 13 36 14 37 15 87 16 38 17 92 18 86 19 88 20 39 21 91 22
REMARK SMILES IDX 85 23 84 24 40 26 72 27 52 28 71 29 53 30 56 31 70 32 89 33
REMARK SMILES IDX 54 34 55 35 69 37 90 38 57 39 41 40 42 41 50 42 43 43 45 44
REMARK SMILES IDX 51 45 44 46 46 47 47 48 48 49 49 50 73 51 74 52 82 53 75 54
REMARK SMILES IDX 77 55 83 56 76 57 78 58 79 59 80 60 81 61 58 62 59 63 67 64
REMARK SMILES IDX 60 65 62 66 68 67 61 68 63 69 64 70 65 71 66 72 8 73 9 74
REMARK SMILES IDX 10 75 11 76 12 77 13 78 14 79 15 80 16 81 20 82 17 83 19 84
REMARK SMILES IDX 18 85 21 86 22 88 23 89 31 90 24 91 26 92 25 93 27 94 28 95
REMARK SMILES IDX 29 96 30 97
REMARK H PARENT 88 25 56 36 21 87
REMARK Flexibility Score: inf
ROOT
ATOM      1  C   UNL A   1      32.943  36.405  32.479  1.00  0.00     0.188 C 
ENDROOT
BRANCH   1   2
ATOM      2  O   UNL A   1      34.139  36.259  33.253  1.00  0.00    -0.376 OA
BRANCH   2   3
ATOM      3  C   UNL A   1      34.892  35.086  32.940  1.00  0.00     0.202 C 
BRANCH   3   4
ATOM      4  C   UNL A   1      34.586  33.885  33.843  1.00  0.00     0.261 C 
BRANCH   4   5
ATOM      5  O   UNL A   1      35.718  33.009  33.961  1.00  0.00    -0.460 OA
BRANCH   5   6
ATOM      6  C   UNL A   1      36.078  32.010  33.115  1.00  0.00     0.338 C 
ATOM      7  O   UNL A   1      35.228  31.543  32.359  1.00  0.00    -0.246 OA
BRANCH   6   8
ATOM      8  C   UNL A   1      37.480  31.507  32.998  1.00  0.00     0.060 A 
ATOM      9  C   UNL A   1      38.558  31.946  33.771  1.00  0.00     0.016 A 
ATOM     10  C   UNL A   1      37.707  30.477  32.070  1.00  0.00     0.016 A 
ATOM     11  C   UNL A   1      39.854  31.496  33.522  1.00  0.00     0.010 A 
ATOM     12  C   UNL A   1      38.993  29.969  31.868  1.00  0.00     0.010 A 
ATOM     13  C   UNL A   1      40.084  30.520  32.553  1.00  0.00    -0.014 A 
BRANCH  13  14
ATOM     14  C   UNL A   1      41.470  30.146  32.194  1.00  0.00     0.031 A 
ATOM     15  C   UNL A   1      42.212  30.988  31.201  1.00  0.00     0.074 A 
ATOM     16  C   UNL A   1      42.053  29.073  32.759  1.00  0.00     0.049 A 
ATOM     17  N   UNL A   1      43.409  30.817  30.708  1.00  0.00    -0.248 NA
ATOM     18  C   UNL A   1      41.517  32.185  30.698  1.00  0.00     0.031 C 
ATOM     19  C   UNL A   1      41.424  28.219  33.763  1.00  0.00     0.029 A 
ATOM     20  N   UNL A   1      43.286  28.506  32.560  1.00  0.00    -0.354 N 
ATOM     21  C   UNL A   1      43.589  31.849  29.798  1.00  0.00     0.074 A 
ATOM     22  C   UNL A   1      42.384  32.649  29.812  1.00  0.00     0.031 C 
ATOM     23  C   UNL A   1      42.264  27.219  34.068  1.00  0.00     0.029 A 
ATOM     24  C   UNL A   1      43.464  27.330  33.251  1.00  0.00     0.049 A 
ATOM     25  H   UNL A   1      43.975  28.901  31.978  1.00  0.00     0.167 HD
ATOM     26  C   UNL A   1      44.669  32.111  29.028  1.00  0.00     0.034 A 
ATOM     27  C   UNL A   1      44.464  26.424  33.210  1.00  0.00     0.034 A 
ATOM     28  C   UNL A   1      45.872  31.328  29.054  1.00  0.00     0.049 A 
ATOM     29  C   UNL A   1      45.658  26.747  32.351  1.00  0.00     0.074 A 
ATOM     30  C   UNL A   1      47.042  31.520  28.345  1.00  0.00     0.029 A 
ATOM     31  N   UNL A   1      46.051  30.192  29.831  1.00  0.00    -0.354 N 
ATOM     32  N   UNL A   1      45.870  27.807  31.604  1.00  0.00    -0.248 NA
ATOM     33  C   UNL A   1      46.769  25.786  32.353  1.00  0.00     0.031 C 
ATOM     34  C   UNL A   1      47.925  30.487  28.682  1.00  0.00     0.029 A 
ATOM     35  C   UNL A   1      47.306  29.659  29.608  1.00  0.00     0.049 A 
ATOM     36  H   UNL A   1      45.381  29.821  30.451  1.00  0.00     0.167 HD
ATOM     37  C   UNL A   1      47.149  27.661  31.083  1.00  0.00     0.074 A 
ATOM     38  C   UNL A   1      47.675  26.421  31.620  1.00  0.00     0.031 C 
ATOM     39  C   UNL A   1      47.823  28.460  30.221  1.00  0.00     0.034 A 
BRANCH  26  40
ATOM     40  C   UNL A   1      44.575  33.289  28.100  1.00  0.00     0.023 A 
ATOM     41  C   UNL A   1      44.176  33.098  26.761  1.00  0.00     0.012 A 
ATOM     42  C   UNL A   1      44.911  34.582  28.545  1.00  0.00     0.148 A 
ATOM     43  C   UNL A   1      44.151  34.171  25.870  1.00  0.00     0.002 A 
ATOM     44  C   UNL A   1      44.850  35.651  27.660  1.00  0.00     0.091 A 
ATOM     45  F   UNL A   1      45.323  34.735  29.811  1.00  0.00    -0.205 F 
ATOM     46  C   UNL A   1      44.481  35.447  26.321  1.00  0.00     0.022 A 
BRANCH  44  47
ATOM     47  S   UNL A   1      45.216  37.334  28.169  1.00  0.00     0.127 S 
ATOM     48  O   UNL A   1      45.482  37.980  26.885  1.00  0.00    -0.237 OA
ATOM     49  O   UNL A   1      43.966  37.744  28.810  1.00  0.00    -0.237 OA
ATOM     50  O   UNL A   1      46.351  37.233  29.076  1.00  0.00    -0.744 OA
ENDBRANCH  44  47
ENDBRANCH  26  40
BRANCH  27  51
ATOM     51  C   UNL A   1      44.385  25.178  34.037  1.00  0.00     0.023 A 
ATOM     52  C   UNL A   1      43.846  24.000  33.486  1.00  0.00     0.012 A 
ATOM     53  C   UNL A   1      44.908  25.126  35.348  1.00  0.00     0.148 A 
ATOM     54  C   UNL A   1      43.815  22.810  34.217  1.00  0.00     0.002 A 
ATOM     55  C   UNL A   1      44.946  23.920  36.041  1.00  0.00     0.091 A 
ATOM     56  F   UNL A   1      45.396  26.255  35.882  1.00  0.00    -0.205 F 
ATOM     57  C   UNL A   1      44.382  22.764  35.485  1.00  0.00     0.022 A 
BRANCH  55  58
ATOM     58  S   UNL A   1      45.811  23.731  37.605  1.00  0.00     0.127 S 
ATOM     59  O   UNL A   1      47.071  24.418  37.336  1.00  0.00    -0.237 OA
ATOM     60  O   UNL A   1      44.912  24.425  38.528  1.00  0.00    -0.237 OA
ATOM     61  O   UNL A   1      45.908  22.294  37.830  1.00  0.00    -0.744 OA
ENDBRANCH  55  58
ENDBRANCH  27  51
BRANCH  39  62
ATOM     62  C   UNL A   1      49.208  28.032  29.822  1.00  0.00     0.023 A 
ATOM     63  C   UNL A   1      50.301  28.391  30.635  1.00  0.00     0.012 A 
ATOM     64  C   UNL A   1      49.413  27.203  28.704  1.00  0.00     0.148 A 
ATOM     65  C   UNL A   1      51.586  27.950  30.325  1.00  0.00     0.002 A 
ATOM     66  C   UNL A   1      50.689  26.730  28.426  1.00  0.00     0.091 A 
ATOM     67  F   UNL A   1      48.359  26.891  27.935  1.00  0.00    -0.205 F 
ATOM     68  C   UNL A   1      51.777  27.110  29.229  1.00  0.00     0.022 A 
BRANCH  66  69
ATOM     69  S   UNL A   1      51.014  25.568  27.096  1.00  0.00     0.127 S 
ATOM     70  O   UNL A   1      50.624  26.343  25.920  1.00  0.00    -0.237 OA
ATOM     71  O   UNL A   1      52.454  25.339  27.228  1.00  0.00    -0.237 OA
ATOM     72  O   UNL A   1      50.191  24.399  27.379  1.00  0.00    -0.744 OA
ENDBRANCH  66  69
ENDBRANCH  39  62
ENDBRANCH  13  14
ENDBRANCH   6   8
ENDBRANCH   5   6
ENDBRANCH   4   5
ENDBRANCH   3   4
ENDBRANCH   2   3
ENDBRANCH   1   2
BRANCH   1  73
ATOM     73  C   UNL A   1      33.273  36.951  31.088  1.00  0.00     0.188 C 
BRANCH  73  74
ATOM     74  O   UNL A   1      32.433  36.460  30.041  1.00  0.00    -0.376 OA
BRANCH  74  75
ATOM     75  C   UNL A   1      33.007  36.371  28.740  1.00  0.00     0.202 C 
BRANCH  75  76
ATOM     76  C   UNL A   1      34.424  35.795  28.644  1.00  0.00     0.261 C 
BRANCH  76  77
ATOM     77  O   UNL A   1      34.511  34.413  28.258  1.00  0.00    -0.460 OA
BRANCH  77  78
ATOM     78  C   UNL A   1      34.550  33.544  29.301  1.00  0.00     0.340 C 
ATOM     79  O   UNL A   1      33.724  33.435  30.190  1.00  0.00    -0.246 OA
BRANCH  78  80
ATOM     80  C   UNL A   1      35.778  32.735  29.258  1.00  0.00     0.083 A 
ATOM     81  C   UNL A   1      37.006  33.404  29.381  1.00  0.00     0.018 A 
ATOM     82  C   UNL A   1      35.704  31.380  28.885  1.00  0.00     0.053 A 
ATOM     83  C   UNL A   1      38.188  32.732  29.079  1.00  0.00     0.001 A 
ATOM     84  C   UNL A   1      36.900  30.764  28.497  1.00  0.00     0.027 A 
ATOM     85  C   UNL A   1      38.131  31.425  28.604  1.00  0.00     0.002 A 
BRANCH  82  86
ATOM     86  N   UNL A   1      34.468  30.711  28.802  1.00  0.00    -0.355 N 
ATOM     87  H   UNL A   1      34.012  30.554  29.660  1.00  0.00     0.167 HD
BRANCH  86  88
ATOM     88  C   UNL A   1      33.796  30.237  27.667  1.00  0.00     0.039 A 
ATOM     89  C   UNL A   1      32.858  31.064  27.045  1.00  0.00     0.026 A 
ATOM     90  C   UNL A   1      33.909  28.904  27.254  1.00  0.00     0.039 A 
ATOM     91  C   UNL A   1      32.086  30.595  25.985  1.00  0.00     0.003 A 
ATOM     92  C   UNL A   1      33.130  28.413  26.193  1.00  0.00     0.058 A 
ATOM     93  C   UNL A   1      32.221  29.275  25.561  1.00  0.00     0.013 A 
BRANCH  92  94
ATOM     94  C   UNL A   1      33.206  26.966  25.781  1.00  0.00     0.416 C 
ATOM     95  F   UNL A   1      32.646  26.762  24.553  1.00  0.00    -0.166 F 
ATOM     96  F   UNL A   1      34.485  26.503  25.674  1.00  0.00    -0.166 F 
ATOM     97  F   UNL A   1      32.565  26.115  26.624  1.00  0.00    -0.166 F 
ENDBRANCH  92  94
ENDBRANCH  86  88
ENDBRANCH  82  86
ENDBRANCH  78  80
ENDBRANCH  77  78
ENDBRANCH  76  77
ENDBRANCH  75  76
ENDBRANCH  74  75
ENDBRANCH  73  74
ENDBRANCH   1  73
TORSDOF 23
ENDMDL
MODEL 3
REMARK VINA RESULT:      -9.6      1.952      3.027
REMARK SMILES O=C(OCCOCCOCCOC(=O)c1ccccc1Nc1cccc(C(F)(F)F)c1)c1ccc(-c2c3nc(c(-c4cccc(S(=O)(=O)[O-])c4F)c4ccc([nH]4)c(-c4cccc(S(=O)(=O)[O-])c4F)c4nc(c(-c5cccc(S(=O)(=O)[O-])c5F)c5ccc2[nH]5)C=C4)C=C3)cc1
REMARK SMILES IDX 7 1 6 2 5 3 4 4 3 5 2 6 1 7 32 8 33 9 94 10 34 11 93 12
REMARK SMILES IDX 35 13 36 14 37 15 87 16 38 17 92 18 86 19 88 20 39 21 91 22
REMARK SMILES IDX 85 23 84 24 40 26 72 27 52 28 71 29 53 30 56 31 70 32 89 33
REMARK SMILES IDX 54 34 55 35 69 37 90 38 57 39 41 40 42 41 50 42 43 43 45 44
REMARK SMILES IDX 51 45 44 46 46 47 47 48 48 49 49 50 73 51 74 52 82 53 75 54
REMARK SMILES IDX 77 55 83 56 76 57 78 58 79 59 80 60 81 61 58 62 59 63 67 64
REMARK SMILES IDX 60 65 62 66 68 67 61 68 63 69 64 70 65 71 66 72 8 73 9 74
REMARK SMILES IDX 10 75 11 76 12 77 13 78 14 79 15 80 16 81 20 82 17 83 19 84
REMARK SMILES IDX 18 85 21 86 22 88 23 89 31 90 24 91 26 92 25 93 27 94 28 95
REMARK SMILES IDX 29 96 30 97
REMARK H PARENT 88 25 56 36 21 87
REMARK Flexibility Score: inf
ROOT
ATOM      1  C   UNL A   1      34.978  30.830  27.625  1.00  0.00     0.188 C 
ENDROOT
BRANCH   1   2
ATOM      2  O   UNL A   1      34.745  32.243  27.674  1.00  0.00    -0.376 OA
BRANCH   2   3
ATOM      3  C   UNL A   1      33.398  32.597  27.991  1.00  0.00     0.202 C 
BRANCH   3   4
ATOM      4  C   UNL A   1      33.095  34.094  27.855  1.00  0.00     0.261 C 
BRANCH   4   5
ATOM      5  O   UNL A   1      32.562  34.639  29.072  1.00  0.00    -0.460 OA
BRANCH   5   6
ATOM      6  C   UNL A   1      33.247  34.966  30.198  1.00  0.00     0.338 C 
ATOM      7  O   UNL A   1      32.866  35.929  30.860  1.00  0.00    -0.246 OA
BRANCH   6   8
ATOM      8  C   UNL A   1      34.392  34.159  30.718  1.00  0.00     0.060 A 
ATOM      9  C   UNL A   1      34.275  33.037  31.544  1.00  0.00     0.016 A 
ATOM     10  C   UNL A   1      35.676  34.537  30.294  1.00  0.00     0.016 A 
ATOM     11  C   UNL A   1      35.403  32.407  32.068  1.00  0.00     0.010 A 
ATOM     12  C   UNL A   1      36.809  33.863  30.758  1.00  0.00     0.010 A 
ATOM     13  C   UNL A   1      36.678  32.830  31.695  1.00  0.00    -0.014 A 
BRANCH  13  14
ATOM     14  C   UNL A   1      37.870  32.254  32.356  1.00  0.00     0.031 A 
ATOM     15  C   UNL A   1      38.237  32.729  33.729  1.00  0.00     0.074 A 
ATOM     16  C   UNL A   1      38.604  31.312  31.735  1.00  0.00     0.049 A 
ATOM     17  N   UNL A   1      39.261  32.400  34.469  1.00  0.00    -0.248 NA
ATOM     18  C   UNL A   1      37.328  33.704  34.356  1.00  0.00     0.031 C 
ATOM     19  C   UNL A   1      38.303  30.760  30.418  1.00  0.00     0.029 A 
ATOM     20  N   UNL A   1      39.758  30.671  32.113  1.00  0.00    -0.354 N 
ATOM     21  C   UNL A   1      39.151  33.164  35.622  1.00  0.00     0.074 A 
ATOM     22  C   UNL A   1      37.956  33.969  35.491  1.00  0.00     0.031 C 
ATOM     23  C   UNL A   1      39.264  29.886  30.084  1.00  0.00     0.029 A 
ATOM     24  C   UNL A   1      40.272  29.852  31.134  1.00  0.00     0.049 A 
ATOM     25  H   UNL A   1      40.177  30.788  32.996  1.00  0.00     0.167 HD
ATOM     26  C   UNL A   1      39.969  33.184  36.698  1.00  0.00     0.034 A 
ATOM     27  C   UNL A   1      41.437  29.174  31.073  1.00  0.00     0.034 A 
ATOM     28  C   UNL A   1      41.131  32.351  36.828  1.00  0.00     0.049 A 
ATOM     29  C   UNL A   1      42.324  29.207  32.290  1.00  0.00     0.074 A 
ATOM     30  C   UNL A   1      42.013  32.259  37.887  1.00  0.00     0.029 A 
ATOM     31  N   UNL A   1      41.575  31.467  35.854  1.00  0.00    -0.354 N 
ATOM     32  N   UNL A   1      42.129  29.826  33.432  1.00  0.00    -0.248 NA
ATOM     33  C   UNL A   1      43.564  28.421  32.240  1.00  0.00     0.031 C 
ATOM     34  C   UNL A   1      43.003  31.330  37.545  1.00  0.00     0.029 A 
ATOM     35  C   UNL A   1      42.730  30.837  36.277  1.00  0.00     0.049 A 
ATOM     36  H   UNL A   1      41.132  31.313  34.988  1.00  0.00     0.167 HD
ATOM     37  C   UNL A   1      43.196  29.473  34.248  1.00  0.00     0.074 A 
ATOM     38  C   UNL A   1      44.023  28.565  33.478  1.00  0.00     0.031 C 
ATOM     39  C   UNL A   1      43.485  29.880  35.508  1.00  0.00     0.034 A 
BRANCH  26  40
ATOM     40  C   UNL A   1      39.622  34.144  37.801  1.00  0.00     0.023 A 
ATOM     41  C   UNL A   1      39.982  35.502  37.688  1.00  0.00     0.012 A 
ATOM     42  C   UNL A   1      38.967  33.694  38.963  1.00  0.00     0.148 A 
ATOM     43  C   UNL A   1      39.728  36.392  38.733  1.00  0.00     0.002 A 
ATOM     44  C   UNL A   1      38.687  34.594  39.985  1.00  0.00     0.091 A 
ATOM     45  F   UNL A   1      38.667  32.393  39.066  1.00  0.00    -0.205 F 
ATOM     46  C   UNL A   1      39.075  35.939  39.877  1.00  0.00     0.022 A 
BRANCH  44  47
ATOM     47  S   UNL A   1      37.810  34.104  41.474  1.00  0.00     0.127 S 
ATOM     48  O   UNL A   1      37.656  35.384  42.162  1.00  0.00    -0.237 OA
ATOM     49  O   UNL A   1      36.568  33.548  40.935  1.00  0.00    -0.237 OA
ATOM     50  O   UNL A   1      38.668  33.128  42.133  1.00  0.00    -0.744 OA
ENDBRANCH  44  47
ENDBRANCH  26  40
BRANCH  27  51
ATOM     51  C   UNL A   1      41.786  28.386  29.848  1.00  0.00     0.023 A 
ATOM     52  C   UNL A   1      41.400  27.037  29.745  1.00  0.00     0.012 A 
ATOM     53  C   UNL A   1      42.438  28.983  28.746  1.00  0.00     0.148 A 
ATOM     54  C   UNL A   1      41.663  26.297  28.589  1.00  0.00     0.002 A 
ATOM     55  C   UNL A   1      42.626  28.265  27.569  1.00  0.00     0.091 A 
ATOM     56  F   UNL A   1      42.830  30.261  28.855  1.00  0.00    -0.205 F 
ATOM     57  C   UNL A   1      42.257  26.914  27.495  1.00  0.00     0.022 A 
BRANCH  55  58
ATOM     58  S   UNL A   1      43.223  29.028  26.056  1.00  0.00     0.127 S 
ATOM     59  O   UNL A   1      44.420  28.241  25.774  1.00  0.00    -0.237 OA
ATOM     60  O   UNL A   1      42.102  28.799  25.144  1.00  0.00    -0.237 OA
ATOM     61  O   UNL A   1      43.450  30.430  26.385  1.00  0.00    -0.744 OA
ENDBRANCH  55  58
ENDBRANCH  27  51
BRANCH  39  62
ATOM     62  C   UNL A   1      44.733  29.328  36.141  1.00  0.00     0.023 A 
ATOM     63  C   UNL A   1      45.957  29.995  35.946  1.00  0.00     0.012 A 
ATOM     64  C   UNL A   1      44.675  28.212  36.996  1.00  0.00     0.148 A 
ATOM     65  C   UNL A   1      47.116  29.544  36.576  1.00  0.00     0.002 A 
ATOM     66  C   UNL A   1      45.824  27.794  37.656  1.00  0.00     0.091 A 
ATOM     67  F   UNL A   1      43.501  27.582  37.150  1.00  0.00    -0.205 F 
ATOM     68  C   UNL A   1      47.046  28.452  37.439  1.00  0.00     0.022 A 
BRANCH  66  69
ATOM     69  S   UNL A   1      45.808  26.461  38.859  1.00  0.00     0.127 S 
ATOM     70  O   UNL A   1      47.114  26.617  39.495  1.00  0.00    -0.237 OA
ATOM     71  O   UNL A   1      44.669  26.820  39.706  1.00  0.00    -0.237 OA
ATOM     72  O   UNL A   1      45.624  25.235  38.094  1.00  0.00    -0.744 OA
ENDBRANCH  66  69
ENDBRANCH  39  62
ENDBRANCH  13  14
ENDBRANCH   6   8
ENDBRANCH   5   6
ENDBRANCH   4   5
ENDBRANCH   3   4
ENDBRANCH   2   3
ENDBRANCH   1   2
BRANCH   1  73
ATOM     73  C   UNL A   1      33.649  30.074  27.589  1.00  0.00     0.188 C 
BRANCH  73  74
ATOM     74  O   UNL A   1      33.289  29.562  26.304  1.00  0.00    -0.376 OA
BRANCH  74  75
ATOM     75  C   UNL A   1      32.736  28.250  26.262  1.00  0.00     0.202 C 
BRANCH  75  76
ATOM     76  C   UNL A   1      33.721  27.085  26.114  1.00  0.00     0.261 C 
BRANCH  76  77
ATOM     77  O   UNL A   1      33.129  25.788  25.923  1.00  0.00    -0.460 OA
BRANCH  77  78
ATOM     78  C   UNL A   1      33.931  24.899  25.282  1.00  0.00     0.340 C 
ATOM     79  O   UNL A   1      35.149  24.919  25.234  1.00  0.00    -0.246 OA
BRANCH  78  80
ATOM     80  C   UNL A   1      33.128  23.880  24.589  1.00  0.00     0.083 A 
ATOM     81  C   UNL A   1      32.648  22.800  25.345  1.00  0.00     0.018 A 
ATOM     82  C   UNL A   1      33.050  23.897  23.183  1.00  0.00     0.053 A 
ATOM     83  C   UNL A   1      32.121  21.687  24.695  1.00  0.00     0.001 A 
ATOM     84  C   UNL A   1      32.604  22.724  22.560  1.00  0.00     0.027 A 
ATOM     85  C   UNL A   1      32.133  21.635  23.304  1.00  0.00     0.002 A 
BRANCH  82  86
ATOM     86  N   UNL A   1      33.502  25.003  22.438  1.00  0.00    -0.355 N 
ATOM     87  H   UNL A   1      34.237  24.820  21.810  1.00  0.00     0.167 HD
BRANCH  86  88
ATOM     88  C   UNL A   1      33.049  26.329  22.466  1.00  0.00     0.039 A 
ATOM     89  C   UNL A   1      33.988  27.362  22.429  1.00  0.00     0.026 A 
ATOM     90  C   UNL A   1      31.706  26.638  22.712  1.00  0.00     0.039 A 
ATOM     91  C   UNL A   1      33.594  28.690  22.569  1.00  0.00     0.003 A 
ATOM     92  C   UNL A   1      31.293  27.973  22.865  1.00  0.00     0.058 A 
ATOM     93  C   UNL A   1      32.252  28.994  22.787  1.00  0.00     0.013 A 
BRANCH  92  94
ATOM     94  C   UNL A   1      29.860  28.308  23.185  1.00  0.00     0.416 C 
ATOM     95  F   UNL A   1      29.148  28.603  22.059  1.00  0.00    -0.166 F 
ATOM     96  F   UNL A   1      29.186  27.280  23.778  1.00  0.00    -0.166 F 
ATOM     97  F   UNL A   1      29.712  29.381  24.006  1.00  0.00    -0.166 F 
ENDBRANCH  92  94
ENDBRANCH  86  88
ENDBRANCH  82  86
ENDBRANCH  78  80
ENDBRANCH  77  78
ENDBRANCH  76  77
ENDBRANCH  75  76
ENDBRANCH  74  75
ENDBRANCH  73  74
ENDBRANCH   1  73
TORSDOF 23
ENDMDL
