MODEL 1
REMARK VINA RESULT:      -9.4      0.000      0.000
REMARK SMILES CCC[NH2+]CC(=O)N1CCC(CC(=O)OCCOCCOCCOC(=O)c2ccc(-c3c4nc(c(-c5cccc(S(=O)(=O)[O-])c5F)c5ccc([nH]5)c(-c5cccc(S(=O)(=O)[O-])c5F)c5nc(c(-c6cccc(S(=O)(=O)[O-])c6F)c6ccc3[nH]6)C=C5)C=C4)cc2)CC1
REMARK SMILES IDX 19 1 18 2 17 3 16 4 15 5 13 6 14 7 12 8 11 9 6 10 7 11 8 12
REMARK SMILES IDX 9 13 91 14 10 15 90 16 5 17 4 18 3 21 2 22 1 23 20 24 21 25
REMARK SMILES IDX 22 26 23 27 24 28 25 29 26 30 27 31 28 32 89 33 29 34 88 35
REMARK SMILES IDX 30 36 31 37 32 38 82 39 33 40 87 41 81 42 83 43 34 44 86 45
REMARK SMILES IDX 80 46 79 47 35 49 67 50 47 51 66 52 48 53 51 54 65 55 84 56
REMARK SMILES IDX 49 57 50 58 64 60 85 61 52 62 36 63 37 64 45 65 38 66 40 67
REMARK SMILES IDX 46 68 39 69 41 70 42 71 43 72 44 73 68 74 69 75 77 76 70 77
REMARK SMILES IDX 72 78 78 79 71 80 73 81 74 82 75 83 76 84 53 85 54 86 62 87
REMARK SMILES IDX 55 88 57 89 63 90 56 91 58 92 59 93 60 94 61 95
REMARK H PARENT 4 19 4 20 83 48 51 59
REMARK Flexibility Score: inf
ROOT
ATOM      1  C   UNL A   1      36.350  22.491  24.089  1.00  0.00     0.188 C 
ENDROOT
BRANCH   1   2
ATOM      2  O   UNL A   1      35.734  23.625  23.488  1.00  0.00    -0.376 OA
BRANCH   2   3
ATOM      3  C   UNL A   1      34.514  23.399  22.786  1.00  0.00     0.202 C 
BRANCH   3   4
ATOM      4  C   UNL A   1      33.393  24.407  23.064  1.00  0.00     0.261 C 
BRANCH   4   5
ATOM      5  O   UNL A   1      33.784  25.433  23.997  1.00  0.00    -0.463 OA
BRANCH   5   6
ATOM      6  C   UNL A   1      32.781  25.972  24.735  1.00  0.00     0.306 C 
ATOM      7  O   UNL A   1      31.915  26.722  24.298  1.00  0.00    -0.252 OA
BRANCH   6   8
ATOM      8  C   UNL A   1      32.752  25.487  26.171  1.00  0.00     0.126 C 
BRANCH   8   9
ATOM      9  C   UNL A   1      32.446  24.009  26.467  1.00  0.00     0.003 C 
ATOM     10  C   UNL A   1      33.057  20.418  24.576  1.00  0.00     0.277 C 
ATOM     11  O   UNL A   1      32.539  20.592  23.466  1.00  0.00    -0.268 OA
ATOM     12  N   UNL A   1      32.699  21.213  25.658  1.00  0.00    -0.338 N 
ATOM     13  C   UNL A   1      31.398  21.866  25.642  1.00  0.00     0.120 C 
ATOM     14  C   UNL A   1      33.602  21.724  26.680  1.00  0.00     0.120 C 
ATOM     15  C   UNL A   1      31.537  23.367  25.407  1.00  0.00     0.026 C 
ATOM     16  C   UNL A   1      33.783  23.237  26.541  1.00  0.00     0.026 C 
BRANCH  10  17
ATOM     17  C   UNL A   1      33.931  19.166  24.808  1.00  0.00     0.362 C 
BRANCH  17  18
ATOM     18  N   UNL A   1      33.286  18.067  25.542  1.00  0.00    -0.338 N 
ATOM     19  H   UNL A   1      33.326  18.267  26.541  1.00  0.00     0.346 HD
ATOM     20  H   UNL A   1      32.320  17.994  25.225  1.00  0.00     0.346 HD
BRANCH  18  21
ATOM     21  C   UNL A   1      33.948  16.788  25.288  1.00  0.00     0.260 C 
BRANCH  21  22
ATOM     22  C   UNL A   1      33.029  15.645  24.824  1.00  0.00     0.058 C 
ATOM     23  C   UNL A   1      32.258  14.900  25.905  1.00  0.00     0.010 C 
ENDBRANCH  21  22
ENDBRANCH  18  21
ENDBRANCH  17  18
ENDBRANCH  10  17
ENDBRANCH   8   9
ENDBRANCH   6   8
ENDBRANCH   5   6
ENDBRANCH   4   5
ENDBRANCH   3   4
ENDBRANCH   2   3
ENDBRANCH   1   2
BRANCH   1  24
ATOM     24  C   UNL A   1      37.196  22.774  25.330  1.00  0.00     0.188 C 
BRANCH  24  25
ATOM     25  O   UNL A   1      38.072  21.728  25.735  1.00  0.00    -0.376 OA
BRANCH  25  26
ATOM     26  C   UNL A   1      37.991  20.521  24.965  1.00  0.00     0.202 C 
BRANCH  26  27
ATOM     27  C   UNL A   1      38.927  19.366  25.378  1.00  0.00     0.261 C 
BRANCH  27  28
ATOM     28  O   UNL A   1      39.764  19.624  26.527  1.00  0.00    -0.460 OA
BRANCH  28  29
ATOM     29  C   UNL A   1      41.101  19.745  26.330  1.00  0.00     0.338 C 
ATOM     30  O   UNL A   1      41.815  18.968  25.732  1.00  0.00    -0.246 OA
BRANCH  29  31
ATOM     31  C   UNL A   1      41.499  21.130  26.715  1.00  0.00     0.060 A 
ATOM     32  C   UNL A   1      41.501  22.116  25.716  1.00  0.00     0.016 A 
ATOM     33  C   UNL A   1      41.772  21.486  28.040  1.00  0.00     0.016 A 
ATOM     34  C   UNL A   1      41.794  23.447  26.035  1.00  0.00     0.010 A 
ATOM     35  C   UNL A   1      42.080  22.815  28.355  1.00  0.00     0.010 A 
ATOM     36  C   UNL A   1      42.115  23.800  27.352  1.00  0.00    -0.014 A 
BRANCH  36  37
ATOM     37  C   UNL A   1      42.650  25.152  27.659  1.00  0.00     0.031 A 
ATOM     38  C   UNL A   1      41.725  26.165  28.278  1.00  0.00     0.074 A 
ATOM     39  C   UNL A   1      43.920  25.496  27.377  1.00  0.00     0.049 A 
ATOM     40  N   UNL A   1      41.946  27.418  28.576  1.00  0.00    -0.248 NA
ATOM     41  C   UNL A   1      40.367  25.697  28.604  1.00  0.00     0.031 C 
ATOM     42  C   UNL A   1      44.928  24.619  26.786  1.00  0.00     0.029 A 
ATOM     43  N   UNL A   1      44.569  26.700  27.527  1.00  0.00    -0.354 N 
ATOM     44  C   UNL A   1      40.751  27.899  29.096  1.00  0.00     0.074 A 
ATOM     45  C   UNL A   1      39.806  26.803  29.072  1.00  0.00     0.031 C 
ATOM     46  C   UNL A   1      46.057  25.324  26.588  1.00  0.00     0.029 A 
ATOM     47  C   UNL A   1      45.844  26.709  27.012  1.00  0.00     0.049 A 
ATOM     48  H   UNL A   1      44.159  27.483  27.961  1.00  0.00     0.167 HD
ATOM     49  C   UNL A   1      40.463  29.137  29.562  1.00  0.00     0.034 A 
ATOM     50  C   UNL A   1      46.725  27.721  26.868  1.00  0.00     0.034 A 
ATOM     51  C   UNL A   1      41.395  30.230  29.601  1.00  0.00     0.049 A 
ATOM     52  C   UNL A   1      46.364  29.104  27.355  1.00  0.00     0.074 A 
ATOM     53  C   UNL A   1      41.200  31.504  30.103  1.00  0.00     0.029 A 
ATOM     54  N   UNL A   1      42.687  30.189  29.103  1.00  0.00    -0.354 N 
ATOM     55  N   UNL A   1      45.275  29.510  27.964  1.00  0.00    -0.248 NA
ATOM     56  C   UNL A   1      47.366  30.164  27.158  1.00  0.00     0.031 C 
ATOM     57  C   UNL A   1      42.364  32.246  29.880  1.00  0.00     0.029 A 
ATOM     58  C   UNL A   1      43.295  31.422  29.268  1.00  0.00     0.049 A 
ATOM     59  H   UNL A   1      43.110  29.401  28.694  1.00  0.00     0.167 HD
ATOM     60  C   UNL A   1      45.476  30.858  28.249  1.00  0.00     0.074 A 
ATOM     61  C   UNL A   1      46.799  31.196  27.769  1.00  0.00     0.031 C 
ATOM     62  C   UNL A   1      44.633  31.741  28.840  1.00  0.00     0.034 A 
BRANCH  49  63
ATOM     63  C   UNL A   1      39.073  29.376  30.087  1.00  0.00     0.023 A 
ATOM     64  C   UNL A   1      38.721  28.903  31.366  1.00  0.00     0.012 A 
ATOM     65  C   UNL A   1      38.141  30.120  29.339  1.00  0.00     0.148 A 
ATOM     66  C   UNL A   1      37.450  29.146  31.885  1.00  0.00     0.002 A 
ATOM     67  C   UNL A   1      36.892  30.395  29.881  1.00  0.00     0.091 A 
ATOM     68  F   UNL A   1      38.491  30.537  28.114  1.00  0.00    -0.205 F 
ATOM     69  C   UNL A   1      36.541  29.901  31.148  1.00  0.00     0.022 A 
BRANCH  67  70
ATOM     70  S   UNL A   1      35.679  31.420  29.041  1.00  0.00     0.127 S 
ATOM     71  O   UNL A   1      34.843  30.411  28.392  1.00  0.00    -0.237 OA
ATOM     72  O   UNL A   1      35.040  32.115  30.158  1.00  0.00    -0.237 OA
ATOM     73  O   UNL A   1      36.433  32.278  28.139  1.00  0.00    -0.744 OA
ENDBRANCH  67  70
ENDBRANCH  49  63
BRANCH  50  74
ATOM     74  C   UNL A   1      48.054  27.477  26.234  1.00  0.00     0.023 A 
ATOM     75  C   UNL A   1      49.169  27.182  27.043  1.00  0.00     0.012 A 
ATOM     76  C   UNL A   1      48.221  27.558  24.839  1.00  0.00     0.148 A 
ATOM     77  C   UNL A   1      50.432  27.004  26.476  1.00  0.00     0.002 A 
ATOM     78  C   UNL A   1      49.471  27.325  24.275  1.00  0.00     0.091 A 
ATOM     79  F   UNL A   1      47.154  27.867  24.088  1.00  0.00    -0.205 F 
ATOM     80  C   UNL A   1      50.581  27.065  25.093  1.00  0.00     0.022 A 
BRANCH  78  81
ATOM     81  S   UNL A   1      49.731  27.270  22.498  1.00  0.00     0.127 S 
ATOM     82  O   UNL A   1      49.427  28.645  22.110  1.00  0.00    -0.237 OA
ATOM     83  O   UNL A   1      51.143  26.902  22.412  1.00  0.00    -0.237 OA
ATOM     84  O   UNL A   1      48.814  26.254  22.000  1.00  0.00    -0.744 OA
ENDBRANCH  78  81
ENDBRANCH  50  74
BRANCH  62  85
ATOM     85  C   UNL A   1      45.112  33.157  29.041  1.00  0.00     0.023 A 
ATOM     86  C   UNL A   1      46.026  33.448  30.074  1.00  0.00     0.012 A 
ATOM     87  C   UNL A   1      44.724  34.183  28.156  1.00  0.00     0.148 A 
ATOM     88  C   UNL A   1      46.521  34.742  30.242  1.00  0.00     0.002 A 
ATOM     89  C   UNL A   1      45.258  35.459  28.300  1.00  0.00     0.091 A 
ATOM     90  F   UNL A   1      43.842  33.893  27.188  1.00  0.00    -0.205 F 
ATOM     91  C   UNL A   1      46.146  35.743  29.348  1.00  0.00     0.022 A 
BRANCH  89  92
ATOM     92  S   UNL A   1      44.908  36.787  27.140  1.00  0.00     0.127 S 
ATOM     93  O   UNL A   1      44.894  37.955  28.019  1.00  0.00    -0.237 OA
ATOM     94  O   UNL A   1      46.057  36.721  26.235  1.00  0.00    -0.237 OA
ATOM     95  O   UNL A   1      43.633  36.455  26.521  1.00  0.00    -0.744 OA
ENDBRANCH  89  92
ENDBRANCH  62  85
ENDBRANCH  36  37
ENDBRANCH  29  31
ENDBRANCH  28  29
ENDBRANCH  27  28
ENDBRANCH  26  27
ENDBRANCH  25  26
ENDBRANCH  24  25
ENDBRANCH   1  24
TORSDOF 25
ENDMDL
MODEL 2
REMARK VINA RESULT:      -9.3      6.232     10.940
REMARK SMILES CCC[NH2+]CC(=O)N1CCC(CC(=O)OCCOCCOCCOC(=O)c2ccc(-c3c4nc(c(-c5cccc(S(=O)(=O)[O-])c5F)c5ccc([nH]5)c(-c5cccc(S(=O)(=O)[O-])c5F)c5nc(c(-c6cccc(S(=O)(=O)[O-])c6F)c6ccc3[nH]6)C=C5)C=C4)cc2)CC1
REMARK SMILES IDX 19 1 18 2 17 3 16 4 15 5 13 6 14 7 12 8 11 9 6 10 7 11 8 12
REMARK SMILES IDX 9 13 91 14 10 15 90 16 5 17 4 18 3 21 2 22 1 23 20 24 21 25
REMARK SMILES IDX 22 26 23 27 24 28 25 29 26 30 27 31 28 32 89 33 29 34 88 35
REMARK SMILES IDX 30 36 31 37 32 38 82 39 33 40 87 41 81 42 83 43 34 44 86 45
REMARK SMILES IDX 80 46 79 47 35 49 67 50 47 51 66 52 48 53 51 54 65 55 84 56
REMARK SMILES IDX 49 57 50 58 64 60 85 61 52 62 36 63 37 64 45 65 38 66 40 67
REMARK SMILES IDX 46 68 39 69 41 70 42 71 43 72 44 73 68 74 69 75 77 76 70 77
REMARK SMILES IDX 72 78 78 79 71 80 73 81 74 82 75 83 76 84 53 85 54 86 62 87
REMARK SMILES IDX 55 88 57 89 63 90 56 91 58 92 59 93 60 94 61 95
REMARK H PARENT 4 19 4 20 83 48 51 59
REMARK Flexibility Score: inf
ROOT
ATOM      1  C   UNL A   1      31.863  29.604  24.855  1.00  0.00     0.188 C 
ENDROOT
BRANCH   1   2
ATOM      2  O   UNL A   1      32.789  28.841  24.089  1.00  0.00    -0.376 OA
BRANCH   2   3
ATOM      3  C   UNL A   1      32.465  28.625  22.717  1.00  0.00     0.202 C 
BRANCH   3   4
ATOM      4  C   UNL A   1      31.140  29.234  22.245  1.00  0.00     0.261 C 
BRANCH   4   5
ATOM      5  O   UNL A   1      30.115  28.245  22.033  1.00  0.00    -0.463 OA
BRANCH   5   6
ATOM      6  C   UNL A   1      29.094  28.254  22.925  1.00  0.00     0.306 C 
ATOM      7  O   UNL A   1      28.268  29.154  23.037  1.00  0.00    -0.252 OA
BRANCH   6   8
ATOM      8  C   UNL A   1      28.984  26.980  23.740  1.00  0.00     0.126 C 
BRANCH   8   9
ATOM      9  C   UNL A   1      30.263  26.250  24.184  1.00  0.00     0.003 C 
ATOM     10  C   UNL A   1      31.228  22.469  25.457  1.00  0.00     0.277 C 
ATOM     11  O   UNL A   1      30.460  22.288  26.410  1.00  0.00    -0.268 OA
ATOM     12  N   UNL A   1      31.529  23.755  25.025  1.00  0.00    -0.338 N 
ATOM     13  C   UNL A   1      31.386  24.857  25.964  1.00  0.00     0.120 C 
ATOM     14  C   UNL A   1      31.681  24.177  23.640  1.00  0.00     0.120 C 
ATOM     15  C   UNL A   1      30.174  25.718  25.624  1.00  0.00     0.026 C 
ATOM     16  C   UNL A   1      30.518  25.075  23.213  1.00  0.00     0.026 C 
BRANCH  10  17
ATOM     17  C   UNL A   1      32.028  21.272  24.901  1.00  0.00     0.362 C 
BRANCH  17  18
ATOM     18  N   UNL A   1      32.342  20.210  25.870  1.00  0.00    -0.338 N 
ATOM     19  H   UNL A   1      32.840  20.619  26.660  1.00  0.00     0.346 HD
ATOM     20  H   UNL A   1      31.465  19.785  26.173  1.00  0.00     0.346 HD
BRANCH  18  21
ATOM     21  C   UNL A   1      33.173  19.166  25.274  1.00  0.00     0.260 C 
BRANCH  21  22
ATOM     22  C   UNL A   1      32.423  18.109  24.447  1.00  0.00     0.058 C 
ATOM     23  C   UNL A   1      32.508  18.233  22.932  1.00  0.00     0.010 C 
ENDBRANCH  21  22
ENDBRANCH  18  21
ENDBRANCH  17  18
ENDBRANCH  10  17
ENDBRANCH   8   9
ENDBRANCH   6   8
ENDBRANCH   5   6
ENDBRANCH   4   5
ENDBRANCH   3   4
ENDBRANCH   2   3
ENDBRANCH   1   2
BRANCH   1  24
ATOM     24  C   UNL A   1      31.832  29.300  26.352  1.00  0.00     0.188 C 
BRANCH  24  25
ATOM     25  O   UNL A   1      32.784  30.000  27.146  1.00  0.00    -0.376 OA
BRANCH  25  26
ATOM     26  C   UNL A   1      32.532  31.400  27.321  1.00  0.00     0.202 C 
BRANCH  26  27
ATOM     27  C   UNL A   1      33.751  32.294  27.633  1.00  0.00     0.261 C 
BRANCH  27  28
ATOM     28  O   UNL A   1      33.482  33.711  27.704  1.00  0.00    -0.460 OA
BRANCH  28  29
ATOM     29  C   UNL A   1      33.467  34.298  28.927  1.00  0.00     0.338 C 
ATOM     30  O   UNL A   1      32.547  34.920  29.417  1.00  0.00    -0.246 OA
BRANCH  29  31
ATOM     31  C   UNL A   1      34.654  33.810  29.687  1.00  0.00     0.060 A 
ATOM     32  C   UNL A   1      35.921  34.263  29.291  1.00  0.00     0.016 A 
ATOM     33  C   UNL A   1      34.530  33.004  30.823  1.00  0.00     0.016 A 
ATOM     34  C   UNL A   1      37.063  33.897  30.014  1.00  0.00     0.010 A 
ATOM     35  C   UNL A   1      35.674  32.625  31.536  1.00  0.00     0.010 A 
ATOM     36  C   UNL A   1      36.950  33.051  31.124  1.00  0.00    -0.014 A 
BRANCH  36  37
ATOM     37  C   UNL A   1      38.164  32.472  31.755  1.00  0.00     0.031 A 
ATOM     38  C   UNL A   1      38.820  31.290  31.093  1.00  0.00     0.074 A 
ATOM     39  C   UNL A   1      38.672  32.958  32.903  1.00  0.00     0.049 A 
ATOM     40  N   UNL A   1      39.846  30.582  31.488  1.00  0.00    -0.248 NA
ATOM     41  C   UNL A   1      38.238  30.849  29.815  1.00  0.00     0.031 C 
ATOM     42  C   UNL A   1      38.147  34.100  33.648  1.00  0.00     0.029 A 
ATOM     43  N   UNL A   1      39.734  32.522  33.660  1.00  0.00    -0.354 N 
ATOM     44  C   UNL A   1      40.016  29.595  30.525  1.00  0.00     0.074 A 
ATOM     45  C   UNL A   1      38.986  29.794  29.527  1.00  0.00     0.031 C 
ATOM     46  C   UNL A   1      38.865  34.251  34.776  1.00  0.00     0.029 A 
ATOM     47  C   UNL A   1      39.883  33.201  34.847  1.00  0.00     0.049 A 
ATOM     48  H   UNL A   1      40.332  31.791  33.380  1.00  0.00     0.167 HD
ATOM     49  C   UNL A   1      40.948  28.615  30.466  1.00  0.00     0.034 A 
ATOM     50  C   UNL A   1      40.719  32.983  35.883  1.00  0.00     0.034 A 
ATOM     51  C   UNL A   1      41.981  28.413  31.445  1.00  0.00     0.049 A 
ATOM     52  C   UNL A   1      41.721  31.855  35.813  1.00  0.00     0.074 A 
ATOM     53  C   UNL A   1      42.997  27.475  31.436  1.00  0.00     0.029 A 
ATOM     54  N   UNL A   1      42.120  29.144  32.613  1.00  0.00    -0.354 N 
ATOM     55  N   UNL A   1      41.953  31.012  34.836  1.00  0.00    -0.248 NA
ATOM     56  C   UNL A   1      42.595  31.666  36.983  1.00  0.00     0.031 C 
ATOM     57  C   UNL A   1      43.734  27.616  32.617  1.00  0.00     0.029 A 
ATOM     58  C   UNL A   1      43.194  28.665  33.343  1.00  0.00     0.049 A 
ATOM     59  H   UNL A   1      41.542  29.893  32.883  1.00  0.00     0.167 HD
ATOM     60  C   UNL A   1      43.016  30.218  35.259  1.00  0.00     0.074 A 
ATOM     61  C   UNL A   1      43.399  30.695  36.570  1.00  0.00     0.031 C 
ATOM     62  C   UNL A   1      43.609  29.177  34.624  1.00  0.00     0.034 A 
BRANCH  49  63
ATOM     63  C   UNL A   1      40.903  27.684  29.286  1.00  0.00     0.023 A 
ATOM     64  C   UNL A   1      39.969  26.629  29.266  1.00  0.00     0.012 A 
ATOM     65  C   UNL A   1      41.741  27.892  28.173  1.00  0.00     0.148 A 
ATOM     66  C   UNL A   1      39.887  25.778  28.165  1.00  0.00     0.002 A 
ATOM     67  C   UNL A   1      41.623  27.066  27.063  1.00  0.00     0.091 A 
ATOM     68  F   UNL A   1      42.639  28.886  28.227  1.00  0.00    -0.205 F 
ATOM     69  C   UNL A   1      40.705  26.003  27.061  1.00  0.00     0.022 A 
BRANCH  67  70
ATOM     70  S   UNL A   1      42.580  27.320  25.564  1.00  0.00     0.127 S 
ATOM     71  O   UNL A   1      43.941  27.390  26.094  1.00  0.00    -0.237 OA
ATOM     72  O   UNL A   1      42.283  26.106  24.803  1.00  0.00    -0.237 OA
ATOM     73  O   UNL A   1      42.077  28.550  24.970  1.00  0.00    -0.744 OA
ENDBRANCH  67  70
ENDBRANCH  49  63
BRANCH  50  74
ATOM     74  C   UNL A   1      40.659  33.853  37.094  1.00  0.00     0.023 A 
ATOM     75  C   UNL A   1      41.487  34.990  37.178  1.00  0.00     0.012 A 
ATOM     76  C   UNL A   1      39.802  33.548  38.169  1.00  0.00     0.148 A 
ATOM     77  C   UNL A   1      41.486  35.787  38.324  1.00  0.00     0.002 A 
ATOM     78  C   UNL A   1      39.766  34.377  39.285  1.00  0.00     0.091 A 
ATOM     79  F   UNL A   1      39.042  32.448  38.082  1.00  0.00    -0.205 F 
ATOM     80  C   UNL A   1      40.620  35.487  39.372  1.00  0.00     0.022 A 
BRANCH  78  81
ATOM     81  S   UNL A   1      38.600  34.133  40.629  1.00  0.00     0.127 S 
ATOM     82  O   UNL A   1      37.555  33.348  39.978  1.00  0.00    -0.237 OA
ATOM     83  O   UNL A   1      39.411  33.398  41.599  1.00  0.00    -0.237 OA
ATOM     84  O   UNL A   1      38.213  35.469  41.059  1.00  0.00    -0.744 OA
ENDBRANCH  78  81
ENDBRANCH  50  74
BRANCH  62  85
ATOM     85  C   UNL A   1      44.764  28.490  35.311  1.00  0.00     0.023 A 
ATOM     86  C   UNL A   1      46.088  28.855  34.992  1.00  0.00     0.012 A 
ATOM     87  C   UNL A   1      44.537  27.544  36.331  1.00  0.00     0.148 A 
ATOM     88  C   UNL A   1      47.166  28.268  35.655  1.00  0.00     0.002 A 
ATOM     89  C   UNL A   1      45.614  26.999  37.021  1.00  0.00     0.091 A 
ATOM     90  F   UNL A   1      43.272  27.197  36.611  1.00  0.00    -0.205 F 
ATOM     91  C   UNL A   1      46.929  27.350  36.676  1.00  0.00     0.022 A 
BRANCH  89  92
ATOM     92  S   UNL A   1      45.404  25.882  38.414  1.00  0.00     0.127 S 
ATOM     93  O   UNL A   1      45.126  24.615  37.741  1.00  0.00    -0.237 OA
ATOM     94  O   UNL A   1      46.711  25.951  39.068  1.00  0.00    -0.237 OA
ATOM     95  O   UNL A   1      44.306  26.426  39.202  1.00  0.00    -0.744 OA
ENDBRANCH  89  92
ENDBRANCH  62  85
ENDBRANCH  36  37
ENDBRANCH  29  31
ENDBRANCH  28  29
ENDBRANCH  27  28
ENDBRANCH  26  27
ENDBRANCH  25  26
ENDBRANCH  24  25
ENDBRANCH   1  24
TORSDOF 25
ENDMDL
MODEL 3
REMARK VINA RESULT:      -9.2      6.094     10.898
REMARK SMILES CCC[NH2+]CC(=O)N1CCC(CC(=O)OCCOCCOCCOC(=O)c2ccc(-c3c4nc(c(-c5cccc(S(=O)(=O)[O-])c5F)c5ccc([nH]5)c(-c5cccc(S(=O)(=O)[O-])c5F)c5nc(c(-c6cccc(S(=O)(=O)[O-])c6F)c6ccc3[nH]6)C=C5)C=C4)cc2)CC1
REMARK SMILES IDX 19 1 18 2 17 3 16 4 15 5 13 6 14 7 12 8 11 9 6 10 7 11 8 12
REMARK SMILES IDX 9 13 91 14 10 15 90 16 5 17 4 18 3 21 2 22 1 23 20 24 21 25
REMARK SMILES IDX 22 26 23 27 24 28 25 29 26 30 27 31 28 32 89 33 29 34 88 35
REMARK SMILES IDX 30 36 31 37 32 38 82 39 33 40 87 41 81 42 83 43 34 44 86 45
REMARK SMILES IDX 80 46 79 47 35 49 67 50 47 51 66 52 48 53 51 54 65 55 84 56
REMARK SMILES IDX 49 57 50 58 64 60 85 61 52 62 36 63 37 64 45 65 38 66 40 67
REMARK SMILES IDX 46 68 39 69 41 70 42 71 43 72 44 73 68 74 69 75 77 76 70 77
REMARK SMILES IDX 72 78 78 79 71 80 73 81 74 82 75 83 76 84 53 85 54 86 62 87
REMARK SMILES IDX 55 88 57 89 63 90 56 91 58 92 59 93 60 94 61 95
REMARK H PARENT 4 19 4 20 83 48 51 59
REMARK Flexibility Score: inf
ROOT
ATOM      1  C   UNL A   1      32.325  29.101  25.312  1.00  0.00     0.188 C 
ENDROOT
BRANCH   1   2
ATOM      2  O   UNL A   1      32.641  28.702  23.983  1.00  0.00    -0.376 OA
BRANCH   2   3
ATOM      3  C   UNL A   1      31.604  28.073  23.235  1.00  0.00     0.202 C 
BRANCH   3   4
ATOM      4  C   UNL A   1      30.449  27.494  24.062  1.00  0.00     0.261 C 
BRANCH   4   5
ATOM      5  O   UNL A   1      30.570  26.074  24.271  1.00  0.00    -0.463 OA
BRANCH   5   6
ATOM      6  C   UNL A   1      30.757  25.681  25.555  1.00  0.00     0.306 C 
ATOM      7  O   UNL A   1      29.860  25.510  26.374  1.00  0.00    -0.252 OA
BRANCH   6   8
ATOM      8  C   UNL A   1      32.202  25.364  25.892  1.00  0.00     0.126 C 
BRANCH   8   9
ATOM      9  C   UNL A   1      32.740  23.941  25.667  1.00  0.00     0.003 C 
ATOM     10  C   UNL A   1      36.300  22.270  24.494  1.00  0.00     0.277 C 
ATOM     11  O   UNL A   1      36.532  22.829  23.414  1.00  0.00    -0.268 OA
ATOM     12  N   UNL A   1      35.009  22.224  25.005  1.00  0.00    -0.338 N 
ATOM     13  C   UNL A   1      33.890  22.349  24.082  1.00  0.00     0.120 C 
ATOM     14  C   UNL A   1      34.638  22.374  26.405  1.00  0.00     0.120 C 
ATOM     15  C   UNL A   1      33.208  23.705  24.222  1.00  0.00     0.026 C 
ATOM     16  C   UNL A   1      33.918  23.704  26.639  1.00  0.00     0.026 C 
BRANCH  10  17
ATOM     17  C   UNL A   1      37.411  21.425  25.154  1.00  0.00     0.362 C 
BRANCH  17  18
ATOM     18  N   UNL A   1      38.743  22.047  25.198  1.00  0.00    -0.338 N 
ATOM     19  H   UNL A   1      39.406  21.445  24.711  1.00  0.00     0.346 HD
ATOM     20  H   UNL A   1      38.684  22.961  24.750  1.00  0.00     0.346 HD
BRANCH  18  21
ATOM     21  C   UNL A   1      39.201  22.242  26.573  1.00  0.00     0.260 C 
BRANCH  21  22
ATOM     22  C   UNL A   1      40.642  21.792  26.864  1.00  0.00     0.058 C 
ATOM     23  C   UNL A   1      41.756  22.543  26.148  1.00  0.00     0.010 C 
ENDBRANCH  21  22
ENDBRANCH  18  21
ENDBRANCH  17  18
ENDBRANCH  10  17
ENDBRANCH   8   9
ENDBRANCH   6   8
ENDBRANCH   5   6
ENDBRANCH   4   5
ENDBRANCH   3   4
ENDBRANCH   2   3
ENDBRANCH   1   2
BRANCH   1  24
ATOM     24  C   UNL A   1      33.385  28.793  26.368  1.00  0.00     0.188 C 
BRANCH  24  25
ATOM     25  O   UNL A   1      33.812  29.897  27.159  1.00  0.00    -0.376 OA
BRANCH  25  26
ATOM     26  C   UNL A   1      32.883  30.984  27.254  1.00  0.00     0.202 C 
BRANCH  26  27
ATOM     27  C   UNL A   1      33.479  32.403  27.367  1.00  0.00     0.261 C 
BRANCH  27  28
ATOM     28  O   UNL A   1      32.656  33.372  28.052  1.00  0.00    -0.460 OA
BRANCH  28  29
ATOM     29  C   UNL A   1      33.264  34.451  28.605  1.00  0.00     0.338 C 
ATOM     30  O   UNL A   1      32.827  35.582  28.648  1.00  0.00    -0.246 OA
BRANCH  29  31
ATOM     31  C   UNL A   1      34.423  33.964  29.408  1.00  0.00     0.060 A 
ATOM     32  C   UNL A   1      35.710  34.364  29.016  1.00  0.00     0.016 A 
ATOM     33  C   UNL A   1      34.257  33.214  30.576  1.00  0.00     0.016 A 
ATOM     34  C   UNL A   1      36.828  34.000  29.775  1.00  0.00     0.010 A 
ATOM     35  C   UNL A   1      35.378  32.837  31.326  1.00  0.00     0.010 A 
ATOM     36  C   UNL A   1      36.672  33.208  30.919  1.00  0.00    -0.014 A 
BRANCH  36  37
ATOM     37  C   UNL A   1      37.859  32.625  31.597  1.00  0.00     0.031 A 
ATOM     38  C   UNL A   1      38.541  31.445  30.958  1.00  0.00     0.074 A 
ATOM     39  C   UNL A   1      38.318  33.105  32.768  1.00  0.00     0.049 A 
ATOM     40  N   UNL A   1      39.549  30.735  31.392  1.00  0.00    -0.248 NA
ATOM     41  C   UNL A   1      38.012  31.011  29.654  1.00  0.00     0.031 C 
ATOM     42  C   UNL A   1      37.763  34.244  33.496  1.00  0.00     0.029 A 
ATOM     43  N   UNL A   1      39.348  32.664  33.567  1.00  0.00    -0.354 N 
ATOM     44  C   UNL A   1      39.758  29.752  30.432  1.00  0.00     0.074 A 
ATOM     45  C   UNL A   1      38.771  29.957  29.393  1.00  0.00     0.031 C 
ATOM     46  C   UNL A   1      38.434  34.389  34.653  1.00  0.00     0.029 A 
ATOM     47  C   UNL A   1      39.447  33.338  34.762  1.00  0.00     0.049 A 
ATOM     48  H   UNL A   1      39.956  31.935  33.308  1.00  0.00     0.167 HD
ATOM     49  C   UNL A   1      40.691  28.772  30.408  1.00  0.00     0.034 A 
ATOM     50  C   UNL A   1      40.240  33.114  35.832  1.00  0.00     0.034 A 
ATOM     51  C   UNL A   1      41.682  28.564  31.428  1.00  0.00     0.049 A 
ATOM     52  C   UNL A   1      41.242  31.985  35.798  1.00  0.00     0.074 A 
ATOM     53  C   UNL A   1      42.697  27.625  31.457  1.00  0.00     0.029 A 
ATOM     54  N   UNL A   1      41.773  29.289  32.604  1.00  0.00    -0.354 N 
ATOM     55  N   UNL A   1      41.514  31.147  34.827  1.00  0.00    -0.248 NA
ATOM     56  C   UNL A   1      42.067  31.790  37.002  1.00  0.00     0.031 C 
ATOM     57  C   UNL A   1      43.384  27.760  32.668  1.00  0.00     0.029 A 
ATOM     58  C   UNL A   1      42.815  28.806  33.376  1.00  0.00     0.049 A 
ATOM     59  H   UNL A   1      41.185  30.038  32.853  1.00  0.00     0.167 HD
ATOM     60  C   UNL A   1      42.558  30.350  35.290  1.00  0.00     0.074 A 
ATOM     61  C   UNL A   1      42.887  30.820  36.619  1.00  0.00     0.031 C 
ATOM     62  C   UNL A   1      43.177  29.311  34.676  1.00  0.00     0.034 A 
BRANCH  49  63
ATOM     63  C   UNL A   1      40.695  27.846  29.222  1.00  0.00     0.023 A 
ATOM     64  C   UNL A   1      39.778  26.777  29.170  1.00  0.00     0.012 A 
ATOM     65  C   UNL A   1      41.562  28.073  28.136  1.00  0.00     0.148 A 
ATOM     66  C   UNL A   1      39.741  25.931  28.063  1.00  0.00     0.002 A 
ATOM     67  C   UNL A   1      41.488  27.251  27.019  1.00  0.00     0.091 A 
ATOM     68  F   UNL A   1      42.442  29.080  28.220  1.00  0.00    -0.205 F 
ATOM     69  C   UNL A   1      40.587  26.174  26.984  1.00  0.00     0.022 A 
BRANCH  67  70
ATOM     70  S   UNL A   1      42.484  27.527  25.549  1.00  0.00     0.127 S 
ATOM     71  O   UNL A   1      43.836  27.520  26.106  1.00  0.00    -0.237 OA
ATOM     72  O   UNL A   1      42.154  26.360  24.732  1.00  0.00    -0.237 OA
ATOM     73  O   UNL A   1      42.043  28.801  24.998  1.00  0.00    -0.744 OA
ENDBRANCH  67  70
ENDBRANCH  49  63
BRANCH  50  74
ATOM     74  C   UNL A   1      40.129  33.979  37.043  1.00  0.00     0.023 A 
ATOM     75  C   UNL A   1      39.058  33.791  37.939  1.00  0.00     0.012 A 
ATOM     76  C   UNL A   1      41.066  34.998  37.298  1.00  0.00     0.148 A 
ATOM     77  C   UNL A   1      38.905  34.623  39.049  1.00  0.00     0.002 A 
ATOM     78  C   UNL A   1      40.939  35.789  38.435  1.00  0.00     0.091 A 
ATOM     79  F   UNL A   1      42.062  35.179  36.420  1.00  0.00    -0.205 F 
ATOM     80  C   UNL A   1      39.849  35.615  39.302  1.00  0.00     0.022 A 
BRANCH  78  81
ATOM     81  S   UNL A   1      42.169  37.011  38.901  1.00  0.00     0.127 S 
ATOM     82  O   UNL A   1      42.742  37.367  37.605  1.00  0.00    -0.237 OA
ATOM     83  O   UNL A   1      41.344  38.049  39.518  1.00  0.00    -0.237 OA
ATOM     84  O   UNL A   1      43.067  36.330  39.823  1.00  0.00    -0.744 OA
ENDBRANCH  78  81
ENDBRANCH  50  74
BRANCH  62  85
ATOM     85  C   UNL A   1      44.301  28.620  35.407  1.00  0.00     0.023 A 
ATOM     86  C   UNL A   1      45.633  29.026  35.190  1.00  0.00     0.012 A 
ATOM     87  C   UNL A   1      44.032  27.627  36.370  1.00  0.00     0.148 A 
ATOM     88  C   UNL A   1      46.681  28.434  35.897  1.00  0.00     0.002 A 
ATOM     89  C   UNL A   1      45.076  27.075  37.105  1.00  0.00     0.091 A 
ATOM     90  F   UNL A   1      42.761  27.241  36.553  1.00  0.00    -0.205 F 
ATOM     91  C   UNL A   1      46.401  27.469  36.861  1.00  0.00     0.022 A 
BRANCH  89  92
ATOM     92  S   UNL A   1      44.803  25.896  38.434  1.00  0.00     0.127 S 
ATOM     93  O   UNL A   1      44.209  24.769  37.716  1.00  0.00    -0.237 OA
ATOM     94  O   UNL A   1      46.162  25.658  38.922  1.00  0.00    -0.237 OA
ATOM     95  O   UNL A   1      43.928  26.561  39.388  1.00  0.00    -0.744 OA
ENDBRANCH  89  92
ENDBRANCH  62  85
ENDBRANCH  36  37
ENDBRANCH  29  31
ENDBRANCH  28  29
ENDBRANCH  27  28
ENDBRANCH  26  27
ENDBRANCH  25  26
ENDBRANCH  24  25
ENDBRANCH   1  24
TORSDOF 25
ENDMDL
