MODEL 1
REMARK VINA RESULT:     -10.2      0.000      0.000
REMARK SMILES O=C(C[N@H+]1CCCC[C@H]1C(=O)OCCOCCOCCOC(=O)c1ccc(-c2c3nc(c(-c4cccc(S(=O)(=O)[O-])c4F)c4ccc([nH]4)c(-c4cccc(S(=O)(=O)[O-])c4F)c4nc(c(-c5cccc(S(=O)(=O)[O-])c5F)c5ccc2[nH]5)C=C4)C=C3)cc1)NC1CCCCC1
REMARK SMILES IDX 16 1 15 2 14 3 13 4 12 5 10 6 11 7 9 8 4 9 5 10 6 12 8 13
REMARK SMILES IDX 7 14 3 15 2 16 1 17 87 18 88 20 89 21 93 22 90 23 92 24
REMARK SMILES IDX 91 25 17 26 18 27 19 28 20 29 21 30 22 31 23 32 24 33 25 34
REMARK SMILES IDX 86 35 26 36 85 37 27 38 28 39 29 40 79 41 30 42 84 43 78 44
REMARK SMILES IDX 80 45 31 46 83 47 77 48 76 49 32 51 64 52 44 53 63 54 45 55
REMARK SMILES IDX 48 56 62 57 81 58 46 59 47 60 61 62 82 63 49 64 33 65 34 66
REMARK SMILES IDX 42 67 35 68 37 69 43 70 36 71 38 72 39 73 40 74 41 75 65 76
REMARK SMILES IDX 66 77 74 78 67 79 69 80 75 81 68 82 70 83 71 84 72 85 73 86
REMARK SMILES IDX 50 87 51 88 59 89 52 90 54 91 60 92 53 93 55 94 56 95 57 96
REMARK SMILES IDX 58 97
REMARK H PARENT 4 11 87 19 80 50 48 61
REMARK Flexibility Score: inf
ROOT
ATOM      1  C   UNL A   1      37.332  23.027  25.480  1.00  0.00     0.188 C 
ENDROOT
BRANCH   1   2
ATOM      2  O   UNL A   1      36.419  24.045  25.868  1.00  0.00    -0.376 OA
BRANCH   2   3
ATOM      3  C   UNL A   1      35.144  24.150  25.257  1.00  0.00     0.202 C 
BRANCH   3   4
ATOM      4  C   UNL A   1      33.914  24.235  26.168  1.00  0.00     0.261 C 
BRANCH   4   5
ATOM      5  O   UNL A   1      33.036  25.363  25.953  1.00  0.00    -0.459 OA
BRANCH   5   6
ATOM      6  C   UNL A   1      31.729  25.031  25.768  1.00  0.00     0.365 C 
ATOM      7  O   UNL A   1      30.934  25.005  26.699  1.00  0.00    -0.245 OA
BRANCH   6   8
ATOM      8  C   UNL A   1      31.360  24.579  24.323  1.00  0.00     0.295 C 
ATOM      9  N   UNL A   1      31.634  25.565  23.220  1.00  0.00    -0.315 N 
ATOM     10  C   UNL A   1      32.910  25.308  22.537  1.00  0.00     0.263 C 
ATOM     11  H   UNL A   1      30.834  25.392  22.610  1.00  0.00     0.349 HD
ATOM     12  C   UNL A   1      32.953  23.916  21.925  1.00  0.00     0.062 C 
ATOM     13  C   UNL A   1      31.611  23.107  23.907  1.00  0.00     0.078 C 
ATOM     14  C   UNL A   1      32.794  22.838  22.980  1.00  0.00     0.013 C 
BRANCH   9  15
ATOM     15  C   UNL A   1      31.593  27.028  23.570  1.00  0.00     0.364 C 
BRANCH  15  16
ATOM     16  C   UNL A   1      30.199  27.670  23.571  1.00  0.00     0.275 C 
ATOM     17  O   UNL A   1      29.175  27.027  23.355  1.00  0.00    -0.268 OA
ATOM     18  N   UNL A   1      30.192  29.023  23.813  1.00  0.00    -0.348 N 
ATOM     19  H   UNL A   1      30.906  29.421  24.361  1.00  0.00     0.163 HD
BRANCH  18  20
ATOM     20  C   UNL A   1      29.151  29.875  23.273  1.00  0.00     0.082 C 
ATOM     21  C   UNL A   1      29.221  31.285  23.856  1.00  0.00     0.025 C 
ATOM     22  C   UNL A   1      29.233  29.870  21.740  1.00  0.00     0.025 C 
ATOM     23  C   UNL A   1      28.202  32.208  23.195  1.00  0.00     0.002 C 
ATOM     24  C   UNL A   1      28.241  30.825  21.095  1.00  0.00     0.002 C 
ATOM     25  C   UNL A   1      28.365  32.225  21.678  1.00  0.00     0.000 C 
ENDBRANCH  18  20
ENDBRANCH  15  16
ENDBRANCH   9  15
ENDBRANCH   6   8
ENDBRANCH   5   6
ENDBRANCH   4   5
ENDBRANCH   3   4
ENDBRANCH   2   3
ENDBRANCH   1   2
BRANCH   1  26
ATOM     26  C   UNL A   1      36.846  21.818  24.676  1.00  0.00     0.188 C 
BRANCH  26  27
ATOM     27  O   UNL A   1      37.786  20.764  24.589  1.00  0.00    -0.376 OA
BRANCH  27  28
ATOM     28  C   UNL A   1      38.702  20.655  25.665  1.00  0.00     0.202 C 
BRANCH  28  29
ATOM     29  C   UNL A   1      39.554  19.385  25.571  1.00  0.00     0.261 C 
BRANCH  29  30
ATOM     30  O   UNL A   1      40.666  19.339  26.484  1.00  0.00    -0.460 OA
BRANCH  30  31
ATOM     31  C   UNL A   1      41.861  19.757  26.001  1.00  0.00     0.338 C 
ATOM     32  O   UNL A   1      42.560  19.181  25.189  1.00  0.00    -0.246 OA
BRANCH  31  33
ATOM     33  C   UNL A   1      42.074  21.152  26.444  1.00  0.00     0.060 A 
ATOM     34  C   UNL A   1      42.119  22.163  25.474  1.00  0.00     0.016 A 
ATOM     35  C   UNL A   1      42.238  21.461  27.794  1.00  0.00     0.016 A 
ATOM     36  C   UNL A   1      42.348  23.488  25.851  1.00  0.00     0.010 A 
ATOM     37  C   UNL A   1      42.491  22.786  28.167  1.00  0.00     0.010 A 
ATOM     38  C   UNL A   1      42.572  23.803  27.197  1.00  0.00    -0.014 A 
BRANCH  38  39
ATOM     39  C   UNL A   1      43.072  25.149  27.577  1.00  0.00     0.031 A 
ATOM     40  C   UNL A   1      42.108  26.116  28.212  1.00  0.00     0.074 A 
ATOM     41  C   UNL A   1      44.347  25.519  27.358  1.00  0.00     0.049 A 
ATOM     42  N   UNL A   1      42.283  27.370  28.534  1.00  0.00    -0.248 NA
ATOM     43  C   UNL A   1      40.766  25.596  28.526  1.00  0.00     0.031 C 
ATOM     44  C   UNL A   1      45.394  24.671  26.792  1.00  0.00     0.029 A 
ATOM     45  N   UNL A   1      44.970  26.727  27.567  1.00  0.00    -0.354 N 
ATOM     46  C   UNL A   1      41.063  27.805  29.039  1.00  0.00     0.074 A 
ATOM     47  C   UNL A   1      40.161  26.675  28.997  1.00  0.00     0.031 C 
ATOM     48  C   UNL A   1      46.523  25.393  26.674  1.00  0.00     0.029 A 
ATOM     49  C   UNL A   1      46.270  26.763  27.114  1.00  0.00     0.049 A 
ATOM     50  H   UNL A   1      44.528  27.493  28.000  1.00  0.00     0.167 HD
ATOM     51  C   UNL A   1      40.723  29.032  29.494  1.00  0.00     0.034 A 
ATOM     52  C   UNL A   1      47.137  27.793  27.033  1.00  0.00     0.034 A 
ATOM     53  C   UNL A   1      41.624  30.148  29.569  1.00  0.00     0.049 A 
ATOM     54  C   UNL A   1      46.712  29.162  27.509  1.00  0.00     0.074 A 
ATOM     55  C   UNL A   1      41.377  31.418  30.062  1.00  0.00     0.029 A 
ATOM     56  N   UNL A   1      42.936  30.139  29.126  1.00  0.00    -0.354 N 
ATOM     57  N   UNL A   1      45.590  29.532  28.078  1.00  0.00    -0.248 NA
ATOM     58  C   UNL A   1      47.685  30.255  27.348  1.00  0.00     0.031 C 
ATOM     59  C   UNL A   1      42.531  32.187  29.886  1.00  0.00     0.029 A 
ATOM     60  C   UNL A   1      43.507  31.385  29.317  1.00  0.00     0.049 A 
ATOM     61  H   UNL A   1      43.394  29.361  28.735  1.00  0.00     0.167 HD
ATOM     62  C   UNL A   1      45.740  30.883  28.381  1.00  0.00     0.074 A 
ATOM     63  C   UNL A   1      47.069  31.263  27.949  1.00  0.00     0.031 C 
ATOM     64  C   UNL A   1      44.854  31.735  28.951  1.00  0.00     0.034 A 
BRANCH  51  65
ATOM     65  C   UNL A   1      39.305  29.243  29.949  1.00  0.00     0.023 A 
ATOM     66  C   UNL A   1      38.959  29.042  31.299  1.00  0.00     0.012 A 
ATOM     67  C   UNL A   1      38.333  29.714  29.045  1.00  0.00     0.148 A 
ATOM     68  C   UNL A   1      37.659  29.285  31.739  1.00  0.00     0.002 A 
ATOM     69  C   UNL A   1      37.051  29.994  29.499  1.00  0.00     0.091 A 
ATOM     70  F   UNL A   1      38.681  29.874  27.760  1.00  0.00    -0.205 F 
ATOM     71  C   UNL A   1      36.709  29.772  30.842  1.00  0.00     0.022 A 
BRANCH  69  72
ATOM     72  S   UNL A   1      35.781  30.697  28.441  1.00  0.00     0.127 S 
ATOM     73  O   UNL A   1      34.929  31.377  29.417  1.00  0.00    -0.237 OA
ATOM     74  O   UNL A   1      36.557  31.591  27.582  1.00  0.00    -0.237 OA
ATOM     75  O   UNL A   1      35.163  29.574  27.752  1.00  0.00    -0.744 OA
ENDBRANCH  69  72
ENDBRANCH  51  65
BRANCH  52  76
ATOM     76  C   UNL A   1      48.509  27.593  26.481  1.00  0.00     0.023 A 
ATOM     77  C   UNL A   1      49.587  27.373  27.361  1.00  0.00     0.012 A 
ATOM     78  C   UNL A   1      48.761  27.667  25.097  1.00  0.00     0.148 A 
ATOM     79  C   UNL A   1      50.892  27.272  26.880  1.00  0.00     0.002 A 
ATOM     80  C   UNL A   1      50.058  27.512  24.618  1.00  0.00     0.091 A 
ATOM     81  F   UNL A   1      47.730  27.905  24.274  1.00  0.00    -0.205 F 
ATOM     82  C   UNL A   1      51.127  27.334  25.509  1.00  0.00     0.022 A 
BRANCH  80  83
ATOM     83  S   UNL A   1      50.435  27.483  22.863  1.00  0.00     0.127 S 
ATOM     84  O   UNL A   1      51.813  26.999  22.861  1.00  0.00    -0.237 OA
ATOM     85  O   UNL A   1      49.448  26.528  22.356  1.00  0.00    -0.237 OA
ATOM     86  O   UNL A   1      50.241  28.850  22.399  1.00  0.00    -0.744 OA
ENDBRANCH  80  83
ENDBRANCH  52  76
BRANCH  64  87
ATOM     87  C   UNL A   1      45.295  33.155  29.205  1.00  0.00     0.023 A 
ATOM     88  C   UNL A   1      45.858  33.507  30.447  1.00  0.00     0.012 A 
ATOM     89  C   UNL A   1      45.233  34.118  28.178  1.00  0.00     0.148 A 
ATOM     90  C   UNL A   1      46.323  34.803  30.673  1.00  0.00     0.002 A 
ATOM     91  C   UNL A   1      45.746  35.392  28.393  1.00  0.00     0.091 A 
ATOM     92  F   UNL A   1      44.680  33.770  27.007  1.00  0.00    -0.205 F 
ATOM     93  C   UNL A   1      46.279  35.740  29.644  1.00  0.00     0.022 A 
BRANCH  91  94
ATOM     94  S   UNL A   1      45.825  36.629  27.092  1.00  0.00     0.127 S 
ATOM     95  O   UNL A   1      44.451  37.129  27.071  1.00  0.00    -0.237 OA
ATOM     96  O   UNL A   1      46.809  37.575  27.621  1.00  0.00    -0.237 OA
ATOM     97  O   UNL A   1      46.253  35.925  25.892  1.00  0.00    -0.744 OA
ENDBRANCH  91  94
ENDBRANCH  64  87
ENDBRANCH  38  39
ENDBRANCH  31  33
ENDBRANCH  30  31
ENDBRANCH  29  30
ENDBRANCH  28  29
ENDBRANCH  27  28
ENDBRANCH  26  27
ENDBRANCH   1  26
TORSDOF 23
ENDMDL
MODEL 2
REMARK VINA RESULT:      -9.6      2.477      2.968
REMARK SMILES O=C(C[N@H+]1CCCC[C@H]1C(=O)OCCOCCOCCOC(=O)c1ccc(-c2c3nc(c(-c4cccc(S(=O)(=O)[O-])c4F)c4ccc([nH]4)c(-c4cccc(S(=O)(=O)[O-])c4F)c4nc(c(-c5cccc(S(=O)(=O)[O-])c5F)c5ccc2[nH]5)C=C4)C=C3)cc1)NC1CCCCC1
REMARK SMILES IDX 16 1 15 2 14 3 13 4 12 5 10 6 11 7 9 8 4 9 5 10 6 12 8 13
REMARK SMILES IDX 7 14 3 15 2 16 1 17 87 18 88 20 89 21 93 22 90 23 92 24
REMARK SMILES IDX 91 25 17 26 18 27 19 28 20 29 21 30 22 31 23 32 24 33 25 34
REMARK SMILES IDX 86 35 26 36 85 37 27 38 28 39 29 40 79 41 30 42 84 43 78 44
REMARK SMILES IDX 80 45 31 46 83 47 77 48 76 49 32 51 64 52 44 53 63 54 45 55
REMARK SMILES IDX 48 56 62 57 81 58 46 59 47 60 61 62 82 63 49 64 33 65 34 66
REMARK SMILES IDX 42 67 35 68 37 69 43 70 36 71 38 72 39 73 40 74 41 75 65 76
REMARK SMILES IDX 66 77 74 78 67 79 69 80 75 81 68 82 70 83 71 84 72 85 73 86
REMARK SMILES IDX 50 87 51 88 59 89 52 90 54 91 60 92 53 93 55 94 56 95 57 96
REMARK SMILES IDX 58 97
REMARK H PARENT 4 11 87 19 80 50 48 61
REMARK Flexibility Score: inf
ROOT
ATOM      1  C   UNL A   1      38.089  23.977  26.164  1.00  0.00     0.188 C 
ENDROOT
BRANCH   1   2
ATOM      2  O   UNL A   1      37.161  24.076  25.092  1.00  0.00    -0.376 OA
BRANCH   2   3
ATOM      3  C   UNL A   1      35.765  24.025  25.332  1.00  0.00     0.202 C 
BRANCH   3   4
ATOM      4  C   UNL A   1      35.226  22.886  26.205  1.00  0.00     0.261 C 
BRANCH   4   5
ATOM      5  O   UNL A   1      34.719  21.728  25.504  1.00  0.00    -0.459 OA
BRANCH   5   6
ATOM      6  C   UNL A   1      33.522  21.271  25.963  1.00  0.00     0.365 C 
ATOM      7  O   UNL A   1      33.436  20.614  26.993  1.00  0.00    -0.245 OA
BRANCH   6   8
ATOM      8  C   UNL A   1      32.308  21.542  25.025  1.00  0.00     0.295 C 
ATOM      9  N   UNL A   1      31.608  22.863  25.198  1.00  0.00    -0.315 N 
ATOM     10  C   UNL A   1      32.060  23.873  24.231  1.00  0.00     0.263 C 
ATOM     11  H   UNL A   1      30.639  22.586  25.035  1.00  0.00     0.349 HD
ATOM     12  C   UNL A   1      31.834  23.421  22.795  1.00  0.00     0.062 C 
ATOM     13  C   UNL A   1      32.374  21.072  23.550  1.00  0.00     0.078 C 
ATOM     14  C   UNL A   1      32.593  22.145  22.487  1.00  0.00     0.013 C 
BRANCH   9  15
ATOM     15  C   UNL A   1      31.643  23.495  26.563  1.00  0.00     0.364 C 
BRANCH  15  16
ATOM     16  C   UNL A   1      30.897  24.829  26.696  1.00  0.00     0.275 C 
ATOM     17  O   UNL A   1      29.690  24.935  26.494  1.00  0.00    -0.268 OA
ATOM     18  N   UNL A   1      31.691  25.898  27.040  1.00  0.00    -0.348 N 
ATOM     19  H   UNL A   1      32.503  25.745  27.574  1.00  0.00     0.163 HD
BRANCH  18  20
ATOM     20  C   UNL A   1      31.351  27.246  26.629  1.00  0.00     0.082 C 
ATOM     21  C   UNL A   1      32.160  28.288  27.399  1.00  0.00     0.025 C 
ATOM     22  C   UNL A   1      31.524  27.374  25.110  1.00  0.00     0.025 C 
ATOM     23  C   UNL A   1      31.887  29.695  26.878  1.00  0.00     0.002 C 
ATOM     24  C   UNL A   1      31.292  28.790  24.608  1.00  0.00     0.002 C 
ATOM     25  C   UNL A   1      32.140  29.794  25.376  1.00  0.00     0.000 C 
ENDBRANCH  18  20
ENDBRANCH  15  16
ENDBRANCH   9  15
ENDBRANCH   6   8
ENDBRANCH   5   6
ENDBRANCH   4   5
ENDBRANCH   3   4
ENDBRANCH   2   3
ENDBRANCH   1   2
BRANCH   1  26
ATOM     26  C   UNL A   1      38.808  22.654  26.446  1.00  0.00     0.188 C 
BRANCH  26  27
ATOM     27  O   UNL A   1      38.797  21.746  25.360  1.00  0.00    -0.376 OA
BRANCH  27  28
ATOM     28  C   UNL A   1      38.521  20.393  25.681  1.00  0.00     0.202 C 
BRANCH  28  29
ATOM     29  C   UNL A   1      39.711  19.476  25.381  1.00  0.00     0.261 C 
BRANCH  29  30
ATOM     30  O   UNL A   1      40.740  19.479  26.389  1.00  0.00    -0.460 OA
BRANCH  30  31
ATOM     31  C   UNL A   1      41.963  19.913  25.999  1.00  0.00     0.338 C 
ATOM     32  O   UNL A   1      42.727  19.351  25.237  1.00  0.00    -0.246 OA
BRANCH  31  33
ATOM     33  C   UNL A   1      42.128  21.306  26.469  1.00  0.00     0.060 A 
ATOM     34  C   UNL A   1      42.267  22.322  25.514  1.00  0.00     0.016 A 
ATOM     35  C   UNL A   1      42.157  21.607  27.831  1.00  0.00     0.016 A 
ATOM     36  C   UNL A   1      42.454  23.645  25.919  1.00  0.00     0.010 A 
ATOM     37  C   UNL A   1      42.369  22.930  28.234  1.00  0.00     0.010 A 
ATOM     38  C   UNL A   1      42.543  23.953  27.282  1.00  0.00    -0.014 A 
BRANCH  38  39
ATOM     39  C   UNL A   1      43.000  25.298  27.717  1.00  0.00     0.031 A 
ATOM     40  C   UNL A   1      41.982  26.248  28.288  1.00  0.00     0.074 A 
ATOM     41  C   UNL A   1      44.285  25.681  27.602  1.00  0.00     0.049 A 
ATOM     42  N   UNL A   1      42.120  27.499  28.640  1.00  0.00    -0.248 NA
ATOM     43  C   UNL A   1      40.624  25.713  28.491  1.00  0.00     0.031 C 
ATOM     44  C   UNL A   1      45.380  24.848  27.107  1.00  0.00     0.029 A 
ATOM     45  N   UNL A   1      44.879  26.890  27.874  1.00  0.00    -0.354 N 
ATOM     46  C   UNL A   1      40.861  27.917  29.054  1.00  0.00     0.074 A 
ATOM     47  C   UNL A   1      39.975  26.781  28.928  1.00  0.00     0.031 C 
ATOM     48  C   UNL A   1      46.509  25.581  27.086  1.00  0.00     0.029 A 
ATOM     49  C   UNL A   1      46.210  26.944  27.523  1.00  0.00     0.049 A 
ATOM     50  H   UNL A   1      44.399  27.647  28.281  1.00  0.00     0.167 HD
ATOM     51  C   UNL A   1      40.476  29.135  29.498  1.00  0.00     0.034 A 
ATOM     52  C   UNL A   1      47.072  27.981  27.523  1.00  0.00     0.034 A 
ATOM     53  C   UNL A   1      41.358  30.257  29.656  1.00  0.00     0.049 A 
ATOM     54  C   UNL A   1      46.599  29.341  27.982  1.00  0.00     0.074 A 
ATOM     55  C   UNL A   1      41.063  31.518  30.146  1.00  0.00     0.029 A 
ATOM     56  N   UNL A   1      42.700  30.264  29.316  1.00  0.00    -0.354 N 
ATOM     57  N   UNL A   1      45.433  29.693  28.468  1.00  0.00    -0.248 NA
ATOM     58  C   UNL A   1      47.571  30.443  27.911  1.00  0.00     0.031 C 
ATOM     59  C   UNL A   1      42.220  32.298  30.069  1.00  0.00     0.029 A 
ATOM     60  C   UNL A   1      43.244  31.512  29.567  1.00  0.00     0.049 A 
ATOM     61  H   UNL A   1      43.195  29.496  28.951  1.00  0.00     0.167 HD
ATOM     62  C   UNL A   1      45.547  31.041  28.799  1.00  0.00     0.074 A 
ATOM     63  C   UNL A   1      46.901  31.437  28.476  1.00  0.00     0.031 C 
ATOM     64  C   UNL A   1      44.612  31.878  29.310  1.00  0.00     0.034 A 
BRANCH  51  65
ATOM     65  C   UNL A   1      39.025  29.328  29.844  1.00  0.00     0.023 A 
ATOM     66  C   UNL A   1      38.564  29.036  31.142  1.00  0.00     0.012 A 
ATOM     67  C   UNL A   1      38.136  29.872  28.897  1.00  0.00     0.148 A 
ATOM     68  C   UNL A   1      37.232  29.262  31.487  1.00  0.00     0.002 A 
ATOM     69  C   UNL A   1      36.822  30.134  29.259  1.00  0.00     0.091 A 
ATOM     70  F   UNL A   1      38.593  30.119  27.660  1.00  0.00    -0.205 F 
ATOM     71  C   UNL A   1      36.365  29.820  30.550  1.00  0.00     0.022 A 
BRANCH  69  72
ATOM     72  S   UNL A   1      35.650  30.923  28.150  1.00  0.00     0.127 S 
ATOM     73  O   UNL A   1      34.515  31.161  29.043  1.00  0.00    -0.237 OA
ATOM     74  O   UNL A   1      36.373  32.128  27.747  1.00  0.00    -0.237 OA
ATOM     75  O   UNL A   1      35.406  29.971  27.077  1.00  0.00    -0.744 OA
ENDBRANCH  69  72
ENDBRANCH  51  65
BRANCH  52  76
ATOM     76  C   UNL A   1      48.484  27.799  27.075  1.00  0.00     0.023 A 
ATOM     77  C   UNL A   1      48.777  27.774  25.697  1.00  0.00     0.012 A 
ATOM     78  C   UNL A   1      49.528  27.602  28.000  1.00  0.00     0.148 A 
ATOM     79  C   UNL A   1      50.072  27.517  25.248  1.00  0.00     0.002 A 
ATOM     80  C   UNL A   1      50.827  27.398  27.547  1.00  0.00     0.091 A 
ATOM     81  F   UNL A   1      49.228  27.599  29.306  1.00  0.00    -0.205 F 
ATOM     82  C   UNL A   1      51.098  27.336  26.171  1.00  0.00     0.022 A 
BRANCH  80  83
ATOM     83  S   UNL A   1      52.222  27.253  28.668  1.00  0.00     0.127 S 
ATOM     84  O   UNL A   1      52.053  28.435  29.510  1.00  0.00    -0.237 OA
ATOM     85  O   UNL A   1      51.945  25.979  29.335  1.00  0.00    -0.237 OA
ATOM     86  O   UNL A   1      53.405  27.242  27.819  1.00  0.00    -0.744 OA
ENDBRANCH  80  83
ENDBRANCH  52  76
BRANCH  64  87
ATOM     87  C   UNL A   1      45.019  33.298  29.616  1.00  0.00     0.023 A 
ATOM     88  C   UNL A   1      44.832  34.309  28.653  1.00  0.00     0.012 A 
ATOM     89  C   UNL A   1      45.506  33.643  30.893  1.00  0.00     0.148 A 
ATOM     90  C   UNL A   1      45.152  35.635  28.946  1.00  0.00     0.002 A 
ATOM     91  C   UNL A   1      45.772  34.973  31.195  1.00  0.00     0.091 A 
ATOM     92  F   UNL A   1      45.693  32.665  31.792  1.00  0.00    -0.205 F 
ATOM     93  C   UNL A   1      45.608  35.969  30.219  1.00  0.00     0.022 A 
BRANCH  91  94
ATOM     94  S   UNL A   1      46.264  35.507  32.839  1.00  0.00     0.127 S 
ATOM     95  O   UNL A   1      45.752  36.876  32.875  1.00  0.00    -0.237 OA
ATOM     96  O   UNL A   1      45.547  34.565  33.700  1.00  0.00    -0.237 OA
ATOM     97  O   UNL A   1      47.715  35.381  32.886  1.00  0.00    -0.744 OA
ENDBRANCH  91  94
ENDBRANCH  64  87
ENDBRANCH  38  39
ENDBRANCH  31  33
ENDBRANCH  30  31
ENDBRANCH  29  30
ENDBRANCH  28  29
ENDBRANCH  27  28
ENDBRANCH  26  27
ENDBRANCH   1  26
TORSDOF 23
ENDMDL
MODEL 3
REMARK VINA RESULT:      -9.3      3.063      3.709
REMARK SMILES O=C(C[N@H+]1CCCC[C@H]1C(=O)OCCOCCOCCOC(=O)c1ccc(-c2c3nc(c(-c4cccc(S(=O)(=O)[O-])c4F)c4ccc([nH]4)c(-c4cccc(S(=O)(=O)[O-])c4F)c4nc(c(-c5cccc(S(=O)(=O)[O-])c5F)c5ccc2[nH]5)C=C4)C=C3)cc1)NC1CCCCC1
REMARK SMILES IDX 16 1 15 2 14 3 13 4 12 5 10 6 11 7 9 8 4 9 5 10 6 12 8 13
REMARK SMILES IDX 7 14 3 15 2 16 1 17 87 18 88 20 89 21 93 22 90 23 92 24
REMARK SMILES IDX 91 25 17 26 18 27 19 28 20 29 21 30 22 31 23 32 24 33 25 34
REMARK SMILES IDX 86 35 26 36 85 37 27 38 28 39 29 40 79 41 30 42 84 43 78 44
REMARK SMILES IDX 80 45 31 46 83 47 77 48 76 49 32 51 64 52 44 53 63 54 45 55
REMARK SMILES IDX 48 56 62 57 81 58 46 59 47 60 61 62 82 63 49 64 33 65 34 66
REMARK SMILES IDX 42 67 35 68 37 69 43 70 36 71 38 72 39 73 40 74 41 75 65 76
REMARK SMILES IDX 66 77 74 78 67 79 69 80 75 81 68 82 70 83 71 84 72 85 73 86
REMARK SMILES IDX 50 87 51 88 59 89 52 90 54 91 60 92 53 93 55 94 56 95 57 96
REMARK SMILES IDX 58 97
REMARK H PARENT 4 11 87 19 80 50 48 61
REMARK Flexibility Score: inf
ROOT
ATOM      1  C   UNL A   1      37.290  23.438  25.816  1.00  0.00     0.188 C 
ENDROOT
BRANCH   1   2
ATOM      2  O   UNL A   1      36.153  24.284  25.707  1.00  0.00    -0.376 OA
BRANCH   2   3
ATOM      3  C   UNL A   1      34.873  23.749  25.415  1.00  0.00     0.202 C 
BRANCH   3   4
ATOM      4  C   UNL A   1      33.703  24.145  26.322  1.00  0.00     0.261 C 
BRANCH   4   5
ATOM      5  O   UNL A   1      32.960  25.321  25.928  1.00  0.00    -0.459 OA
BRANCH   5   6
ATOM      6  C   UNL A   1      31.638  25.099  25.690  1.00  0.00     0.365 C 
ATOM      7  O   UNL A   1      30.807  25.140  26.589  1.00  0.00    -0.245 OA
BRANCH   6   8
ATOM      8  C   UNL A   1      31.293  24.675  24.232  1.00  0.00     0.295 C 
ATOM      9  N   UNL A   1      31.610  25.671  23.149  1.00  0.00    -0.315 N 
ATOM     10  C   UNL A   1      32.895  25.399  22.491  1.00  0.00     0.263 C 
ATOM     11  H   UNL A   1      30.820  25.525  22.520  1.00  0.00     0.349 HD
ATOM     12  C   UNL A   1      32.924  24.015  21.858  1.00  0.00     0.062 C 
ATOM     13  C   UNL A   1      31.522  23.205  23.798  1.00  0.00     0.078 C 
ATOM     14  C   UNL A   1      32.720  22.926  22.894  1.00  0.00     0.013 C 
BRANCH   9  15
ATOM     15  C   UNL A   1      31.590  27.130  23.520  1.00  0.00     0.364 C 
BRANCH  15  16
ATOM     16  C   UNL A   1      30.202  27.783  23.567  1.00  0.00     0.275 C 
ATOM     17  O   UNL A   1      29.163  27.132  23.505  1.00  0.00    -0.268 OA
ATOM     18  N   UNL A   1      30.218  29.154  23.664  1.00  0.00    -0.348 N 
ATOM     19  H   UNL A   1      30.975  29.600  24.108  1.00  0.00     0.163 HD
BRANCH  18  20
ATOM     20  C   UNL A   1      29.138  29.956  23.124  1.00  0.00     0.082 C 
ATOM     21  C   UNL A   1      29.003  31.287  23.861  1.00  0.00     0.025 C 
ATOM     22  C   UNL A   1      29.346  30.140  21.615  1.00  0.00     0.025 C 
ATOM     23  C   UNL A   1      27.946  32.174  23.211  1.00  0.00     0.002 C 
ATOM     24  C   UNL A   1      28.312  31.061  20.986  1.00  0.00     0.002 C 
ATOM     25  C   UNL A   1      28.232  32.388  21.727  1.00  0.00     0.000 C 
ENDBRANCH  18  20
ENDBRANCH  15  16
ENDBRANCH   9  15
ENDBRANCH   6   8
ENDBRANCH   5   6
ENDBRANCH   4   5
ENDBRANCH   3   4
ENDBRANCH   2   3
ENDBRANCH   1   2
BRANCH   1  26
ATOM     26  C   UNL A   1      37.221  21.983  25.341  1.00  0.00     0.188 C 
BRANCH  26  27
ATOM     27  O   UNL A   1      38.415  21.251  25.541  1.00  0.00    -0.376 OA
BRANCH  27  28
ATOM     28  C   UNL A   1      39.433  21.908  26.276  1.00  0.00     0.202 C 
BRANCH  28  29
ATOM     29  C   UNL A   1      40.625  20.987  26.559  1.00  0.00     0.261 C 
BRANCH  29  30
ATOM     30  O   UNL A   1      41.811  21.664  27.017  1.00  0.00    -0.460 OA
BRANCH  30  31
ATOM     31  C   UNL A   1      42.367  22.553  26.159  1.00  0.00     0.338 C 
ATOM     32  O   UNL A   1      42.652  22.359  24.992  1.00  0.00    -0.246 OA
BRANCH  31  33
ATOM     33  C   UNL A   1      42.358  23.883  26.805  1.00  0.00     0.060 A 
ATOM     34  C   UNL A   1      42.149  25.014  26.005  1.00  0.00     0.016 A 
ATOM     35  C   UNL A   1      42.564  24.018  28.179  1.00  0.00     0.016 A 
ATOM     36  C   UNL A   1      42.163  26.289  26.574  1.00  0.00     0.010 A 
ATOM     37  C   UNL A   1      42.601  25.297  28.743  1.00  0.00     0.010 A 
ATOM     38  C   UNL A   1      42.426  26.441  27.941  1.00  0.00    -0.014 A 
BRANCH  38  39
ATOM     39  C   UNL A   1      42.703  27.788  28.504  1.00  0.00     0.031 A 
ATOM     40  C   UNL A   1      41.543  28.598  29.022  1.00  0.00     0.074 A 
ATOM     41  C   UNL A   1      43.948  28.295  28.549  1.00  0.00     0.049 A 
ATOM     42  N   UNL A   1      41.522  29.828  29.462  1.00  0.00    -0.248 NA
ATOM     43  C   UNL A   1      40.232  27.927  29.046  1.00  0.00     0.031 C 
ATOM     44  C   UNL A   1      45.164  27.604  28.124  1.00  0.00     0.029 A 
ATOM     45  N   UNL A   1      44.390  29.531  28.957  1.00  0.00    -0.354 N 
ATOM     46  C   UNL A   1      40.193  30.098  29.766  1.00  0.00     0.074 A 
ATOM     47  C   UNL A   1      39.440  28.897  29.477  1.00  0.00     0.031 C 
ATOM     48  C   UNL A   1      46.211  28.437  28.267  1.00  0.00     0.029 A 
ATOM     49  C   UNL A   1      45.737  29.731  28.754  1.00  0.00     0.049 A 
ATOM     50  H   UNL A   1      43.799  30.209  29.357  1.00  0.00     0.167 HD
ATOM     51  C   UNL A   1      39.647  31.240  30.241  1.00  0.00     0.034 A 
ATOM     52  C   UNL A   1      46.488  30.841  28.909  1.00  0.00     0.034 A 
ATOM     53  C   UNL A   1      40.394  32.425  30.561  1.00  0.00     0.049 A 
ATOM     54  C   UNL A   1      45.840  32.115  29.398  1.00  0.00     0.074 A 
ATOM     55  C   UNL A   1      39.929  33.615  31.093  1.00  0.00     0.029 A 
ATOM     56  N   UNL A   1      41.756  32.579  30.365  1.00  0.00    -0.354 N 
ATOM     57  N   UNL A   1      44.603  32.323  29.778  1.00  0.00    -0.248 NA
ATOM     58  C   UNL A   1      46.701  33.304  29.499  1.00  0.00     0.031 C 
ATOM     59  C   UNL A   1      41.005  34.501  31.188  1.00  0.00     0.029 A 
ATOM     60  C   UNL A   1      42.147  33.851  30.749  1.00  0.00     0.049 A 
ATOM     61  H   UNL A   1      42.358  31.887  30.008  1.00  0.00     0.167 HD
ATOM     62  C   UNL A   1      44.550  33.648  30.202  1.00  0.00     0.074 A 
ATOM     63  C   UNL A   1      45.884  34.190  30.049  1.00  0.00     0.031 C 
ATOM     64  C   UNL A   1      43.490  34.358  30.662  1.00  0.00     0.034 A 
BRANCH  51  65
ATOM     65  C   UNL A   1      38.157  31.275  30.443  1.00  0.00     0.023 A 
ATOM     66  C   UNL A   1      37.606  30.940  31.695  1.00  0.00     0.012 A 
ATOM     67  C   UNL A   1      37.311  31.713  29.406  1.00  0.00     0.148 A 
ATOM     68  C   UNL A   1      36.231  31.019  31.906  1.00  0.00     0.002 A 
ATOM     69  C   UNL A   1      35.947  31.830  29.636  1.00  0.00     0.091 A 
ATOM     70  F   UNL A   1      37.856  32.003  28.216  1.00  0.00    -0.205 F 
ATOM     71  C   UNL A   1      35.403  31.474  30.881  1.00  0.00     0.022 A 
BRANCH  69  72
ATOM     72  S   UNL A   1      34.809  32.481  28.407  1.00  0.00     0.127 S 
ATOM     73  O   UNL A   1      33.810  33.138  29.250  1.00  0.00    -0.237 OA
ATOM     74  O   UNL A   1      35.665  33.395  27.651  1.00  0.00    -0.237 OA
ATOM     75  O   UNL A   1      34.328  31.332  27.654  1.00  0.00    -0.744 OA
ENDBRANCH  69  72
ENDBRANCH  51  65
BRANCH  52  76
ATOM     76  C   UNL A   1      47.949  30.822  28.603  1.00  0.00     0.023 A 
ATOM     77  C   UNL A   1      48.391  31.157  27.307  1.00  0.00     0.012 A 
ATOM     78  C   UNL A   1      48.896  30.427  29.567  1.00  0.00     0.148 A 
ATOM     79  C   UNL A   1      49.740  31.062  26.967  1.00  0.00     0.002 A 
ATOM     80  C   UNL A   1      50.247  30.385  29.237  1.00  0.00     0.091 A 
ATOM     81  F   UNL A   1      48.458  30.084  30.786  1.00  0.00    -0.205 F 
ATOM     82  C   UNL A   1      50.669  30.683  27.932  1.00  0.00     0.022 A 
BRANCH  80  83
ATOM     83  S   UNL A   1      51.518  30.002  30.446  1.00  0.00     0.127 S 
ATOM     84  O   UNL A   1      52.715  30.536  29.802  1.00  0.00    -0.237 OA
ATOM     85  O   UNL A   1      51.062  30.754  31.616  1.00  0.00    -0.237 OA
ATOM     86  O   UNL A   1      51.477  28.555  30.609  1.00  0.00    -0.744 OA
ENDBRANCH  80  83
ENDBRANCH  52  76
BRANCH  64  87
ATOM     87  C   UNL A   1      43.723  35.783  31.096  1.00  0.00     0.023 A 
ATOM     88  C   UNL A   1      43.788  36.812  30.136  1.00  0.00     0.012 A 
ATOM     89  C   UNL A   1      43.789  36.112  32.465  1.00  0.00     0.148 A 
ATOM     90  C   UNL A   1      43.945  38.141  30.530  1.00  0.00     0.002 A 
ATOM     91  C   UNL A   1      43.893  37.444  32.852  1.00  0.00     0.091 A 
ATOM     92  F   UNL A   1      43.742  35.119  33.365  1.00  0.00    -0.205 F 
ATOM     93  C   UNL A   1      43.984  38.458  31.886  1.00  0.00     0.022 A 
BRANCH  91  94
ATOM     94  S   UNL A   1      43.846  37.951  34.575  1.00  0.00     0.127 S 
ATOM     95  O   UNL A   1      42.569  37.392  35.016  1.00  0.00    -0.237 OA
ATOM     96  O   UNL A   1      45.026  37.286  35.128  1.00  0.00    -0.237 OA
ATOM     97  O   UNL A   1      43.923  39.405  34.569  1.00  0.00    -0.744 OA
ENDBRANCH  91  94
ENDBRANCH  64  87
ENDBRANCH  38  39
ENDBRANCH  31  33
ENDBRANCH  30  31
ENDBRANCH  29  30
ENDBRANCH  28  29
ENDBRANCH  27  28
ENDBRANCH  26  27
ENDBRANCH   1  26
TORSDOF 23
ENDMDL
