MODEL 1
REMARK VINA RESULT:     -11.1      0.000      0.000
REMARK SMILES NC(=O)c1ccccc1NC(=O)[C@@H]1CC=CC[C@@H]1C(=O)OCCOCCOCCOC(=O)c1ccc(-c2c3nc(c(-c4cccc(S(=O)(=O)[O-])c4F)c4ccc([nH]4)c(-c4cccc(S(=O)(=O)[O-])c4F)c4nc(c(-c5cccc(S(=O)(=O)[O-])c5F)c5ccc2[nH]5)C=C4)C=C3)cc1
REMARK SMILES IDX 25 1 24 2 23 3 22 4 21 5 19 6 20 7 18 8 13 9 14 10 15 11
REMARK SMILES IDX 17 12 16 13 11 14 10 15 12 17 9 18 4 19 5 20 6 21 8 22 7 23
REMARK SMILES IDX 2 24 1 25 3 28 26 29 27 30 28 31 29 32 30 33 31 34 32 35
REMARK SMILES IDX 33 36 34 37 95 38 35 39 94 40 36 41 37 42 38 43 88 44 39 45
REMARK SMILES IDX 93 46 87 47 89 48 40 49 92 50 86 51 85 52 41 54 73 55 53 56
REMARK SMILES IDX 72 57 54 58 57 59 71 60 90 61 55 62 56 63 70 65 91 66 58 67
REMARK SMILES IDX 42 68 43 69 51 70 44 71 46 72 52 73 45 74 47 75 48 76 49 77
REMARK SMILES IDX 50 78 74 79 75 80 83 81 76 82 78 83 84 84 77 85 79 86 80 87
REMARK SMILES IDX 81 88 82 89 59 90 60 91 68 92 61 93 63 94 69 95 62 96 64 97
REMARK SMILES IDX 65 98 66 99 67 100
REMARK H PARENT 10 16 1 26 1 27 89 53 57 64
REMARK Flexibility Score: inf
ROOT
ATOM      1  C   UNL A   1      32.041  29.099  25.590  1.00  0.00     0.188 C 
ENDROOT
BRANCH   1   2
ATOM      2  O   UNL A   1      33.375  29.000  25.118  1.00  0.00    -0.376 OA
BRANCH   2   3
ATOM      3  C   UNL A   1      34.121  27.884  25.571  1.00  0.00     0.202 C 
BRANCH   3   4
ATOM      4  C   UNL A   1      33.263  26.686  25.965  1.00  0.00     0.261 C 
BRANCH   4   5
ATOM      5  O   UNL A   1      32.947  25.830  24.833  1.00  0.00    -0.463 OA
BRANCH   5   6
ATOM      6  C   UNL A   1      31.903  24.973  24.998  1.00  0.00     0.310 C 
ATOM      7  O   UNL A   1      31.805  24.223  25.960  1.00  0.00    -0.252 OA
BRANCH   6   8
ATOM      8  C   UNL A   1      30.981  24.886  23.782  1.00  0.00     0.116 C 
ATOM      9  C   UNL A   1      31.448  25.277  22.362  1.00  0.00     0.097 C 
ATOM     10  C   UNL A   1      31.451  26.829  22.177  1.00  0.00     0.041 C 
ATOM     11  C   UNL A   1      30.384  27.583  22.903  1.00  0.00    -0.030 C 
ATOM     12  C   UNL A   1      29.619  25.557  24.106  1.00  0.00     0.043 C 
ATOM     13  C   UNL A   1      29.551  27.009  23.774  1.00  0.00    -0.030 C 
BRANCH   9  14
ATOM     14  C   UNL A   1      32.712  24.745  21.648  1.00  0.00     0.228 C 
ATOM     15  N   UNL A   1      33.350  23.559  21.798  1.00  0.00    -0.325 N 
ATOM     16  H   UNL A   1      33.997  23.378  21.077  1.00  0.00     0.169 HD
ATOM     17  O   UNL A   1      33.229  25.446  20.760  1.00  0.00    -0.274 OA
BRANCH  15  18
ATOM     18  C   UNL A   1      33.294  22.535  22.750  1.00  0.00     0.053 A 
ATOM     19  C   UNL A   1      34.274  22.478  23.763  1.00  0.00     0.063 A 
ATOM     20  C   UNL A   1      34.101  21.615  24.855  1.00  0.00     0.016 A 
ATOM     21  C   UNL A   1      32.956  20.824  24.946  1.00  0.00     0.001 A 
ATOM     22  C   UNL A   1      32.276  21.588  22.756  1.00  0.00     0.027 A 
ATOM     23  C   UNL A   1      32.061  20.787  23.880  1.00  0.00     0.002 A 
BRANCH  19  24
ATOM     24  C   UNL A   1      35.485  23.340  23.796  1.00  0.00     0.250 C 
ATOM     25  N   UNL A   1      35.650  24.174  24.866  1.00  0.00    -0.366 N 
ATOM     26  H   UNL A   1      36.442  24.756  24.918  1.00  0.00     0.159 HD
ATOM     27  H   UNL A   1      34.978  24.191  25.584  1.00  0.00     0.159 HD
ATOM     28  O   UNL A   1      36.321  23.282  22.902  1.00  0.00    -0.269 OA
ENDBRANCH  19  24
ENDBRANCH  15  18
ENDBRANCH   9  14
ENDBRANCH   6   8
ENDBRANCH   5   6
ENDBRANCH   4   5
ENDBRANCH   3   4
ENDBRANCH   2   3
ENDBRANCH   1   2
BRANCH   1  29
ATOM     29  C   UNL A   1      31.842  29.844  26.925  1.00  0.00     0.188 C 
BRANCH  29  30
ATOM     30  O   UNL A   1      32.378  31.154  27.060  1.00  0.00    -0.376 OA
BRANCH  30  31
ATOM     31  C   UNL A   1      31.520  32.237  26.718  1.00  0.00     0.202 C 
BRANCH  31  32
ATOM     32  C   UNL A   1      32.062  33.655  26.962  1.00  0.00     0.261 C 
BRANCH  32  33
ATOM     33  O   UNL A   1      32.711  33.806  28.244  1.00  0.00    -0.460 OA
BRANCH  33  34
ATOM     34  C   UNL A   1      33.904  34.453  28.253  1.00  0.00     0.338 C 
ATOM     35  O   UNL A   1      34.073  35.664  28.214  1.00  0.00    -0.246 OA
BRANCH  34  36
ATOM     36  C   UNL A   1      35.003  33.507  28.564  1.00  0.00     0.060 A 
ATOM     37  C   UNL A   1      34.657  32.230  29.031  1.00  0.00     0.016 A 
ATOM     38  C   UNL A   1      36.346  33.859  28.446  1.00  0.00     0.016 A 
ATOM     39  C   UNL A   1      35.641  31.313  29.408  1.00  0.00     0.010 A 
ATOM     40  C   UNL A   1      37.333  32.947  28.851  1.00  0.00     0.010 A 
ATOM     41  C   UNL A   1      36.988  31.679  29.364  1.00  0.00    -0.014 A 
BRANCH  41  42
ATOM     42  C   UNL A   1      38.011  30.845  30.054  1.00  0.00     0.031 A 
ATOM     43  C   UNL A   1      38.253  31.092  31.520  1.00  0.00     0.074 A 
ATOM     44  C   UNL A   1      38.701  29.872  29.428  1.00  0.00     0.049 A 
ATOM     45  N   UNL A   1      39.209  30.655  32.296  1.00  0.00    -0.248 NA
ATOM     46  C   UNL A   1      37.273  31.957  32.200  1.00  0.00     0.031 C 
ATOM     47  C   UNL A   1      38.500  29.439  28.048  1.00  0.00     0.029 A 
ATOM     48  N   UNL A   1      39.736  29.085  29.881  1.00  0.00    -0.354 N 
ATOM     49  C   UNL A   1      38.988  31.246  33.535  1.00  0.00     0.074 A 
ATOM     50  C   UNL A   1      37.799  32.061  33.410  1.00  0.00     0.031 C 
ATOM     51  C   UNL A   1      39.406  28.490  27.753  1.00  0.00     0.029 A 
ATOM     52  C   UNL A   1      40.289  28.291  28.902  1.00  0.00     0.049 A 
ATOM     53  H   UNL A   1      40.050  29.091  30.813  1.00  0.00     0.167 HD
ATOM     54  C   UNL A   1      39.710  31.126  34.675  1.00  0.00     0.034 A 
ATOM     55  C   UNL A   1      41.408  27.536  28.916  1.00  0.00     0.034 A 
ATOM     56  C   UNL A   1      40.869  30.288  34.808  1.00  0.00     0.049 A 
ATOM     57  C   UNL A   1      42.249  27.481  30.169  1.00  0.00     0.074 A 
ATOM     58  C   UNL A   1      41.667  30.092  35.921  1.00  0.00     0.029 A 
ATOM     59  N   UNL A   1      41.401  29.509  33.792  1.00  0.00    -0.354 N 
ATOM     60  N   UNL A   1      42.030  28.031  31.339  1.00  0.00    -0.248 NA
ATOM     61  C   UNL A   1      43.491  26.693  30.105  1.00  0.00     0.031 C 
ATOM     62  C   UNL A   1      42.702  29.220  35.566  1.00  0.00     0.029 A 
ATOM     63  C   UNL A   1      42.526  28.842  34.246  1.00  0.00     0.049 A 
ATOM     64  H   UNL A   1      41.033  29.441  32.881  1.00  0.00     0.167 HD
ATOM     65  C   UNL A   1      43.084  27.631  32.156  1.00  0.00     0.074 A 
ATOM     66  C   UNL A   1      43.934  26.777  31.353  1.00  0.00     0.031 C 
ATOM     67  C   UNL A   1      43.334  27.953  33.451  1.00  0.00     0.034 A 
BRANCH  54  68
ATOM     68  C   UNL A   1      39.271  31.945  35.862  1.00  0.00     0.023 A 
ATOM     69  C   UNL A   1      39.722  33.272  36.013  1.00  0.00     0.012 A 
ATOM     70  C   UNL A   1      38.400  31.397  36.824  1.00  0.00     0.148 A 
ATOM     71  C   UNL A   1      39.350  34.025  37.128  1.00  0.00     0.002 A 
ATOM     72  C   UNL A   1      37.994  32.169  37.906  1.00  0.00     0.091 A 
ATOM     73  F   UNL A   1      38.001  30.126  36.676  1.00  0.00    -0.205 F 
ATOM     74  C   UNL A   1      38.480  33.477  38.068  1.00  0.00     0.022 A 
BRANCH  72  75
ATOM     75  S   UNL A   1      36.817  31.579  39.126  1.00  0.00     0.127 S 
ATOM     76  O   UNL A   1      36.464  30.267  38.585  1.00  0.00    -0.237 OA
ATOM     77  O   UNL A   1      37.629  31.538  40.343  1.00  0.00    -0.237 OA
ATOM     78  O   UNL A   1      35.738  32.557  39.150  1.00  0.00    -0.744 OA
ENDBRANCH  72  75
ENDBRANCH  54  68
BRANCH  55  79
ATOM     79  C   UNL A   1      41.818  26.775  27.697  1.00  0.00     0.023 A 
ATOM     80  C   UNL A   1      42.426  27.456  26.624  1.00  0.00     0.012 A 
ATOM     81  C   UNL A   1      41.611  25.385  27.595  1.00  0.00     0.148 A 
ATOM     82  C   UNL A   1      42.801  26.772  25.466  1.00  0.00     0.002 A 
ATOM     83  C   UNL A   1      42.039  24.700  26.462  1.00  0.00     0.091 A 
ATOM     84  F   UNL A   1      41.005  24.757  28.613  1.00  0.00    -0.205 F 
ATOM     85  C   UNL A   1      42.617  25.394  25.390  1.00  0.00     0.022 A 
BRANCH  83  86
ATOM     86  S   UNL A   1      41.956  22.911  26.323  1.00  0.00     0.127 S 
ATOM     87  O   UNL A   1      42.523  22.485  27.600  1.00  0.00    -0.237 OA
ATOM     88  O   UNL A   1      40.516  22.689  26.184  1.00  0.00    -0.237 OA
ATOM     89  O   UNL A   1      42.738  22.568  25.144  1.00  0.00    -0.744 OA
ENDBRANCH  83  86
ENDBRANCH  55  79
BRANCH  67  90
ATOM     90  C   UNL A   1      44.550  27.348  34.109  1.00  0.00     0.023 A 
ATOM     91  C   UNL A   1      45.799  27.991  34.009  1.00  0.00     0.012 A 
ATOM     92  C   UNL A   1      44.431  26.191  34.905  1.00  0.00     0.148 A 
ATOM     93  C   UNL A   1      46.915  27.478  34.669  1.00  0.00     0.002 A 
ATOM     94  C   UNL A   1      45.535  25.714  35.601  1.00  0.00     0.091 A 
ATOM     95  F   UNL A   1      43.236  25.585  34.977  1.00  0.00    -0.205 F 
ATOM     96  C   UNL A   1      46.781  26.349  35.474  1.00  0.00     0.022 A 
BRANCH  94  97
ATOM     97  S   UNL A   1      45.438  24.327  36.739  1.00  0.00     0.127 S 
ATOM     98  O   UNL A   1      46.760  24.359  37.361  1.00  0.00    -0.237 OA
ATOM     99  O   UNL A   1      44.339  24.726  37.620  1.00  0.00    -0.237 OA
ATOM    100  O   UNL A   1      45.164  23.153  35.922  1.00  0.00    -0.744 OA
ENDBRANCH  94  97
ENDBRANCH  67  90
ENDBRANCH  41  42
ENDBRANCH  34  36
ENDBRANCH  33  34
ENDBRANCH  32  33
ENDBRANCH  31  32
ENDBRANCH  30  31
ENDBRANCH  29  30
ENDBRANCH   1  29
TORSDOF 23
ENDMDL
MODEL 2
REMARK VINA RESULT:     -10.5      2.089      8.793
REMARK SMILES NC(=O)c1ccccc1NC(=O)[C@@H]1CC=CC[C@@H]1C(=O)OCCOCCOCCOC(=O)c1ccc(-c2c3nc(c(-c4cccc(S(=O)(=O)[O-])c4F)c4ccc([nH]4)c(-c4cccc(S(=O)(=O)[O-])c4F)c4nc(c(-c5cccc(S(=O)(=O)[O-])c5F)c5ccc2[nH]5)C=C4)C=C3)cc1
REMARK SMILES IDX 25 1 24 2 23 3 22 4 21 5 19 6 20 7 18 8 13 9 14 10 15 11
REMARK SMILES IDX 17 12 16 13 11 14 10 15 12 17 9 18 4 19 5 20 6 21 8 22 7 23
REMARK SMILES IDX 2 24 1 25 3 28 26 29 27 30 28 31 29 32 30 33 31 34 32 35
REMARK SMILES IDX 33 36 34 37 95 38 35 39 94 40 36 41 37 42 38 43 88 44 39 45
REMARK SMILES IDX 93 46 87 47 89 48 40 49 92 50 86 51 85 52 41 54 73 55 53 56
REMARK SMILES IDX 72 57 54 58 57 59 71 60 90 61 55 62 56 63 70 65 91 66 58 67
REMARK SMILES IDX 42 68 43 69 51 70 44 71 46 72 52 73 45 74 47 75 48 76 49 77
REMARK SMILES IDX 50 78 74 79 75 80 83 81 76 82 78 83 84 84 77 85 79 86 80 87
REMARK SMILES IDX 81 88 82 89 59 90 60 91 68 92 61 93 63 94 69 95 62 96 64 97
REMARK SMILES IDX 65 98 66 99 67 100
REMARK H PARENT 10 16 1 26 1 27 89 53 57 64
REMARK Flexibility Score: inf
ROOT
ATOM      1  C   UNL A   1      38.055  22.050  26.074  1.00  0.00     0.188 C 
ENDROOT
BRANCH   1   2
ATOM      2  O   UNL A   1      37.475  22.314  24.807  1.00  0.00    -0.376 OA
BRANCH   2   3
ATOM      3  C   UNL A   1      36.060  22.341  24.758  1.00  0.00     0.202 C 
BRANCH   3   4
ATOM      4  C   UNL A   1      35.405  22.819  26.049  1.00  0.00     0.261 C 
BRANCH   4   5
ATOM      5  O   UNL A   1      34.329  23.768  25.812  1.00  0.00    -0.463 OA
BRANCH   5   6
ATOM      6  C   UNL A   1      34.018  24.015  24.511  1.00  0.00     0.310 C 
ATOM      7  O   UNL A   1      34.738  24.671  23.769  1.00  0.00    -0.252 OA
BRANCH   6   8
ATOM      8  C   UNL A   1      32.606  23.580  24.122  1.00  0.00     0.116 C 
ATOM      9  C   UNL A   1      31.564  23.125  25.169  1.00  0.00     0.097 C 
ATOM     10  C   UNL A   1      31.830  21.655  25.628  1.00  0.00     0.041 C 
ATOM     11  C   UNL A   1      32.376  20.729  24.590  1.00  0.00    -0.030 C 
ATOM     12  C   UNL A   1      32.672  22.563  22.951  1.00  0.00     0.043 C 
ATOM     13  C   UNL A   1      32.754  21.136  23.376  1.00  0.00    -0.030 C 
BRANCH   9  14
ATOM     14  C   UNL A   1      31.152  23.914  26.434  1.00  0.00     0.228 C 
ATOM     15  N   UNL A   1      30.588  25.141  26.537  1.00  0.00    -0.325 N 
ATOM     16  H   UNL A   1      30.227  25.323  27.436  1.00  0.00     0.169 HD
ATOM     17  O   UNL A   1      31.287  23.366  27.543  1.00  0.00    -0.274 OA
BRANCH  15  18
ATOM     18  C   UNL A   1      30.406  26.208  25.650  1.00  0.00     0.053 A 
ATOM     19  C   UNL A   1      31.179  27.378  25.807  1.00  0.00     0.063 A 
ATOM     20  C   UNL A   1      31.185  28.351  24.798  1.00  0.00     0.016 A 
ATOM     21  C   UNL A   1      30.438  28.158  23.636  1.00  0.00     0.001 A 
ATOM     22  C   UNL A   1      29.511  26.140  24.589  1.00  0.00     0.027 A 
ATOM     23  C   UNL A   1      29.576  27.069  23.547  1.00  0.00     0.002 A 
BRANCH  19  24
ATOM     24  C   UNL A   1      32.069  27.635  26.970  1.00  0.00     0.250 C 
ATOM     25  N   UNL A   1      31.501  28.107  28.121  1.00  0.00    -0.366 N 
ATOM     26  H   UNL A   1      32.063  28.286  28.908  1.00  0.00     0.159 HD
ATOM     27  H   UNL A   1      30.531  28.267  28.160  1.00  0.00     0.159 HD
ATOM     28  O   UNL A   1      33.270  27.403  26.905  1.00  0.00    -0.269 OA
ENDBRANCH  19  24
ENDBRANCH  15  18
ENDBRANCH   9  14
ENDBRANCH   6   8
ENDBRANCH   5   6
ENDBRANCH   4   5
ENDBRANCH   3   4
ENDBRANCH   2   3
ENDBRANCH   1   2
BRANCH   1  29
ATOM     29  C   UNL A   1      39.589  22.178  26.163  1.00  0.00     0.188 C 
BRANCH  29  30
ATOM     30  O   UNL A   1      40.388  21.069  25.771  1.00  0.00    -0.376 OA
BRANCH  30  31
ATOM     31  C   UNL A   1      41.675  20.961  26.369  1.00  0.00     0.202 C 
BRANCH  31  32
ATOM     32  C   UNL A   1      42.868  21.481  25.550  1.00  0.00     0.261 C 
BRANCH  32  33
ATOM     33  O   UNL A   1      42.609  22.750  24.909  1.00  0.00    -0.460 OA
BRANCH  33  34
ATOM     34  C   UNL A   1      43.422  23.783  25.246  1.00  0.00     0.338 C 
ATOM     35  O   UNL A   1      44.521  24.028  24.770  1.00  0.00    -0.246 OA
BRANCH  34  36
ATOM     36  C   UNL A   1      42.700  24.745  26.115  1.00  0.00     0.060 A 
ATOM     37  C   UNL A   1      42.895  26.115  25.882  1.00  0.00     0.016 A 
ATOM     38  C   UNL A   1      41.879  24.333  27.163  1.00  0.00     0.016 A 
ATOM     39  C   UNL A   1      42.301  27.075  26.704  1.00  0.00     0.010 A 
ATOM     40  C   UNL A   1      41.305  25.298  28.006  1.00  0.00     0.010 A 
ATOM     41  C   UNL A   1      41.536  26.674  27.802  1.00  0.00    -0.014 A 
BRANCH  41  42
ATOM     42  C   UNL A   1      41.171  27.661  28.857  1.00  0.00     0.031 A 
ATOM     43  C   UNL A   1      42.062  27.766  30.067  1.00  0.00     0.074 A 
ATOM     44  C   UNL A   1      40.099  28.471  28.757  1.00  0.00     0.049 A 
ATOM     45  N   UNL A   1      41.866  28.385  31.200  1.00  0.00    -0.248 NA
ATOM     46  C   UNL A   1      43.357  27.069  29.978  1.00  0.00     0.031 C 
ATOM     47  C   UNL A   1      39.210  28.567  27.602  1.00  0.00     0.029 A 
ATOM     48  N   UNL A   1      39.567  29.356  29.667  1.00  0.00    -0.354 N 
ATOM     49  C   UNL A   1      42.976  28.096  31.985  1.00  0.00     0.074 A 
ATOM     50  C   UNL A   1      43.849  27.257  31.191  1.00  0.00     0.031 C 
ATOM     51  C   UNL A   1      38.221  29.434  27.885  1.00  0.00     0.029 A 
ATOM     52  C   UNL A   1      38.373  29.908  29.261  1.00  0.00     0.049 A 
ATOM     53  H   UNL A   1      39.998  29.572  30.525  1.00  0.00     0.167 HD
ATOM     54  C   UNL A   1      43.247  28.489  33.252  1.00  0.00     0.034 A 
ATOM     55  C   UNL A   1      37.481  30.661  29.939  1.00  0.00     0.034 A 
ATOM     56  C   UNL A   1      42.397  29.351  34.026  1.00  0.00     0.049 A 
ATOM     57  C   UNL A   1      37.757  31.018  31.380  1.00  0.00     0.074 A 
ATOM     58  C   UNL A   1      42.583  29.812  35.317  1.00  0.00     0.029 A 
ATOM     59  N   UNL A   1      41.194  29.879  33.582  1.00  0.00    -0.354 N 
ATOM     60  N   UNL A   1      38.812  30.753  32.112  1.00  0.00    -0.248 NA
ATOM     61  C   UNL A   1      36.720  31.787  32.087  1.00  0.00     0.031 C 
ATOM     62  C   UNL A   1      41.475  30.592  35.665  1.00  0.00     0.029 A 
ATOM     63  C   UNL A   1      40.618  30.649  34.578  1.00  0.00     0.049 A 
ATOM     64  H   UNL A   1      40.806  29.728  32.690  1.00  0.00     0.167 HD
ATOM     65  C   UNL A   1      38.582  31.347  33.350  1.00  0.00     0.074 A 
ATOM     66  C   UNL A   1      37.294  32.003  33.264  1.00  0.00     0.031 C 
ATOM     67  C   UNL A   1      39.360  31.340  34.462  1.00  0.00     0.034 A 
BRANCH  54  68
ATOM     68  C   UNL A   1      44.509  27.963  33.886  1.00  0.00     0.023 A 
ATOM     69  C   UNL A   1      45.708  28.700  33.800  1.00  0.00     0.012 A 
ATOM     70  C   UNL A   1      44.501  26.735  34.579  1.00  0.00     0.148 A 
ATOM     71  C   UNL A   1      46.888  28.202  34.352  1.00  0.00     0.002 A 
ATOM     72  C   UNL A   1      45.670  26.270  35.169  1.00  0.00     0.091 A 
ATOM     73  F   UNL A   1      43.358  26.038  34.631  1.00  0.00    -0.205 F 
ATOM     74  C   UNL A   1      46.867  26.993  35.044  1.00  0.00     0.022 A 
BRANCH  72  75
ATOM     75  S   UNL A   1      45.725  24.764  36.145  1.00  0.00     0.127 S 
ATOM     76  O   UNL A   1      47.028  24.883  36.799  1.00  0.00    -0.237 OA
ATOM     77  O   UNL A   1      44.578  24.934  37.038  1.00  0.00    -0.237 OA
ATOM     78  O   UNL A   1      45.599  23.665  35.198  1.00  0.00    -0.744 OA
ENDBRANCH  72  75
ENDBRANCH  54  68
BRANCH  55  79
ATOM     79  C   UNL A   1      36.226  31.123  29.273  1.00  0.00     0.023 A 
ATOM     80  C   UNL A   1      35.415  30.191  28.596  1.00  0.00     0.012 A 
ATOM     81  C   UNL A   1      35.831  32.475  29.308  1.00  0.00     0.148 A 
ATOM     82  C   UNL A   1      34.247  30.599  27.949  1.00  0.00     0.002 A 
ATOM     83  C   UNL A   1      34.637  32.865  28.710  1.00  0.00     0.091 A 
ATOM     84  F   UNL A   1      36.628  33.354  29.932  1.00  0.00    -0.205 F 
ATOM     85  C   UNL A   1      33.853  31.933  28.016  1.00  0.00     0.022 A 
BRANCH  83  86
ATOM     86  S   UNL A   1      33.986  34.534  28.846  1.00  0.00     0.127 S 
ATOM     87  O   UNL A   1      34.135  34.798  30.276  1.00  0.00    -0.237 OA
ATOM     88  O   UNL A   1      34.901  35.282  27.984  1.00  0.00    -0.237 OA
ATOM     89  O   UNL A   1      32.615  34.467  28.360  1.00  0.00    -0.744 OA
ENDBRANCH  83  86
ENDBRANCH  55  79
BRANCH  67  90
ATOM     90  C   UNL A   1      38.873  32.099  35.672  1.00  0.00     0.023 A 
ATOM     91  C   UNL A   1      38.988  33.502  35.718  1.00  0.00     0.012 A 
ATOM     92  C   UNL A   1      38.214  31.426  36.720  1.00  0.00     0.148 A 
ATOM     93  C   UNL A   1      38.479  34.219  36.801  1.00  0.00     0.002 A 
ATOM     94  C   UNL A   1      37.665  32.151  37.771  1.00  0.00     0.091 A 
ATOM     95  F   UNL A   1      38.126  30.088  36.665  1.00  0.00    -0.205 F 
ATOM     96  C   UNL A   1      37.808  33.547  37.819  1.00  0.00     0.022 A 
BRANCH  94  97
ATOM     97  S   UNL A   1      36.698  31.384  39.077  1.00  0.00     0.127 S 
ATOM     98  O   UNL A   1      36.354  30.097  38.475  1.00  0.00    -0.237 OA
ATOM     99  O   UNL A   1      37.665  31.306  40.173  1.00  0.00    -0.237 OA
ATOM    100  O   UNL A   1      35.573  32.275  39.323  1.00  0.00    -0.744 OA
ENDBRANCH  94  97
ENDBRANCH  67  90
ENDBRANCH  41  42
ENDBRANCH  34  36
ENDBRANCH  33  34
ENDBRANCH  32  33
ENDBRANCH  31  32
ENDBRANCH  30  31
ENDBRANCH  29  30
ENDBRANCH   1  29
TORSDOF 23
ENDMDL
MODEL 3
REMARK VINA RESULT:     -10.5      2.308      7.878
REMARK SMILES NC(=O)c1ccccc1NC(=O)[C@@H]1CC=CC[C@@H]1C(=O)OCCOCCOCCOC(=O)c1ccc(-c2c3nc(c(-c4cccc(S(=O)(=O)[O-])c4F)c4ccc([nH]4)c(-c4cccc(S(=O)(=O)[O-])c4F)c4nc(c(-c5cccc(S(=O)(=O)[O-])c5F)c5ccc2[nH]5)C=C4)C=C3)cc1
REMARK SMILES IDX 25 1 24 2 23 3 22 4 21 5 19 6 20 7 18 8 13 9 14 10 15 11
REMARK SMILES IDX 17 12 16 13 11 14 10 15 12 17 9 18 4 19 5 20 6 21 8 22 7 23
REMARK SMILES IDX 2 24 1 25 3 28 26 29 27 30 28 31 29 32 30 33 31 34 32 35
REMARK SMILES IDX 33 36 34 37 95 38 35 39 94 40 36 41 37 42 38 43 88 44 39 45
REMARK SMILES IDX 93 46 87 47 89 48 40 49 92 50 86 51 85 52 41 54 73 55 53 56
REMARK SMILES IDX 72 57 54 58 57 59 71 60 90 61 55 62 56 63 70 65 91 66 58 67
REMARK SMILES IDX 42 68 43 69 51 70 44 71 46 72 52 73 45 74 47 75 48 76 49 77
REMARK SMILES IDX 50 78 74 79 75 80 83 81 76 82 78 83 84 84 77 85 79 86 80 87
REMARK SMILES IDX 81 88 82 89 59 90 60 91 68 92 61 93 63 94 69 95 62 96 64 97
REMARK SMILES IDX 65 98 66 99 67 100
REMARK H PARENT 10 16 1 26 1 27 89 53 57 64
REMARK Flexibility Score: inf
ROOT
ATOM      1  C   UNL A   1      34.285  29.752  27.433  1.00  0.00     0.188 C 
ENDROOT
BRANCH   1   2
ATOM      2  O   UNL A   1      33.475  28.727  26.882  1.00  0.00    -0.376 OA
BRANCH   2   3
ATOM      3  C   UNL A   1      32.345  28.341  27.644  1.00  0.00     0.202 C 
BRANCH   3   4
ATOM      4  C   UNL A   1      31.354  27.467  26.882  1.00  0.00     0.261 C 
BRANCH   4   5
ATOM      5  O   UNL A   1      31.759  26.072  26.837  1.00  0.00    -0.463 OA
BRANCH   5   6
ATOM      6  C   UNL A   1      32.168  25.601  25.629  1.00  0.00     0.310 C 
ATOM      7  O   UNL A   1      33.275  25.840  25.162  1.00  0.00    -0.252 OA
BRANCH   6   8
ATOM      8  C   UNL A   1      31.058  24.927  24.823  1.00  0.00     0.116 C 
ATOM      9  C   UNL A   1      30.943  23.390  24.701  1.00  0.00     0.097 C 
ATOM     10  C   UNL A   1      31.963  22.829  23.659  1.00  0.00     0.041 C 
ATOM     11  C   UNL A   1      32.254  23.704  22.483  1.00  0.00    -0.030 C 
ATOM     12  C   UNL A   1      30.949  25.588  23.423  1.00  0.00     0.043 C 
ATOM     13  C   UNL A   1      31.793  24.951  22.371  1.00  0.00    -0.030 C 
BRANCH   9  14
ATOM     14  C   UNL A   1      30.922  22.390  25.880  1.00  0.00     0.228 C 
ATOM     15  N   UNL A   1      31.953  21.772  26.504  1.00  0.00    -0.325 N 
ATOM     16  H   UNL A   1      31.692  21.356  27.358  1.00  0.00     0.169 HD
ATOM     17  O   UNL A   1      29.827  22.118  26.406  1.00  0.00    -0.274 OA
BRANCH  15  18
ATOM     18  C   UNL A   1      33.308  21.593  26.203  1.00  0.00     0.053 A 
ATOM     19  C   UNL A   1      33.727  20.398  25.581  1.00  0.00     0.063 A 
ATOM     20  C   UNL A   1      35.024  20.300  25.058  1.00  0.00     0.016 A 
ATOM     21  C   UNL A   1      35.895  21.385  25.141  1.00  0.00     0.001 A 
ATOM     22  C   UNL A   1      34.257  22.575  26.461  1.00  0.00     0.027 A 
ATOM     23  C   UNL A   1      35.522  22.510  25.871  1.00  0.00     0.002 A 
BRANCH  19  24
ATOM     24  C   UNL A   1      32.846  19.218  25.373  1.00  0.00     0.250 C 
ATOM     25  N   UNL A   1      32.766  18.292  26.376  1.00  0.00    -0.366 N 
ATOM     26  H   UNL A   1      32.191  17.501  26.269  1.00  0.00     0.159 HD
ATOM     27  H   UNL A   1      33.283  18.418  27.203  1.00  0.00     0.159 HD
ATOM     28  O   UNL A   1      32.192  19.097  24.344  1.00  0.00    -0.269 OA
ENDBRANCH  19  24
ENDBRANCH  15  18
ENDBRANCH   9  14
ENDBRANCH   6   8
ENDBRANCH   5   6
ENDBRANCH   4   5
ENDBRANCH   3   4
ENDBRANCH   2   3
ENDBRANCH   1   2
BRANCH   1  29
ATOM     29  C   UNL A   1      33.663  31.163  27.481  1.00  0.00     0.188 C 
BRANCH  29  30
ATOM     30  O   UNL A   1      32.373  31.356  26.916  1.00  0.00    -0.376 OA
BRANCH  30  31
ATOM     31  C   UNL A   1      31.832  32.671  26.985  1.00  0.00     0.202 C 
BRANCH  31  32
ATOM     32  C   UNL A   1      32.755  33.774  27.531  1.00  0.00     0.261 C 
BRANCH  32  33
ATOM     33  O   UNL A   1      32.382  34.228  28.851  1.00  0.00    -0.460 OA
BRANCH  33  34
ATOM     34  C   UNL A   1      33.258  35.046  29.486  1.00  0.00     0.338 C 
ATOM     35  O   UNL A   1      33.030  36.174  29.902  1.00  0.00    -0.246 OA
BRANCH  34  36
ATOM     36  C   UNL A   1      34.492  34.304  29.841  1.00  0.00     0.060 A 
ATOM     37  C   UNL A   1      34.427  33.391  30.905  1.00  0.00     0.016 A 
ATOM     38  C   UNL A   1      35.704  34.513  29.185  1.00  0.00     0.016 A 
ATOM     39  C   UNL A   1      35.567  32.708  31.336  1.00  0.00     0.010 A 
ATOM     40  C   UNL A   1      36.854  33.847  29.637  1.00  0.00     0.010 A 
ATOM     41  C   UNL A   1      36.801  32.964  30.735  1.00  0.00    -0.014 A 
BRANCH  41  42
ATOM     42  C   UNL A   1      38.058  32.496  31.383  1.00  0.00     0.031 A 
ATOM     43  C   UNL A   1      38.797  31.348  30.746  1.00  0.00     0.074 A 
ATOM     44  C   UNL A   1      38.566  33.073  32.490  1.00  0.00     0.049 A 
ATOM     45  N   UNL A   1      39.785  30.630  31.208  1.00  0.00    -0.248 NA
ATOM     46  C   UNL A   1      38.350  30.962  29.397  1.00  0.00     0.031 C 
ATOM     47  C   UNL A   1      38.030  34.258  33.154  1.00  0.00     0.029 A 
ATOM     48  N   UNL A   1      39.645  32.711  33.264  1.00  0.00    -0.354 N 
ATOM     49  C   UNL A   1      40.033  29.663  30.240  1.00  0.00     0.074 A 
ATOM     50  C   UNL A   1      39.099  29.898  29.159  1.00  0.00     0.031 C 
ATOM     51  C   UNL A   1      38.760  34.506  34.257  1.00  0.00     0.029 A 
ATOM     52  C   UNL A   1      39.775  33.464  34.409  1.00  0.00     0.049 A 
ATOM     53  H   UNL A   1      40.263  31.984  33.023  1.00  0.00     0.167 HD
ATOM     54  C   UNL A   1      40.951  28.667  30.248  1.00  0.00     0.034 A 
ATOM     55  C   UNL A   1      40.581  33.298  35.479  1.00  0.00     0.034 A 
ATOM     56  C   UNL A   1      41.901  28.458  31.306  1.00  0.00     0.049 A 
ATOM     57  C   UNL A   1      41.539  32.132  35.511  1.00  0.00     0.074 A 
ATOM     58  C   UNL A   1      42.876  27.482  31.407  1.00  0.00     0.029 A 
ATOM     59  N   UNL A   1      41.993  29.236  32.450  1.00  0.00    -0.354 N 
ATOM     60  N   UNL A   1      41.778  31.229  34.590  1.00  0.00    -0.248 NA
ATOM     61  C   UNL A   1      42.348  31.965  36.730  1.00  0.00     0.031 C 
ATOM     62  C   UNL A   1      43.534  27.650  32.630  1.00  0.00     0.029 A 
ATOM     63  C   UNL A   1      42.997  28.754  33.271  1.00  0.00     0.049 A 
ATOM     64  H   UNL A   1      41.426  30.016  32.649  1.00  0.00     0.167 HD
ATOM     65  C   UNL A   1      42.781  30.411  35.101  1.00  0.00     0.074 A 
ATOM     66  C   UNL A   1      43.120  30.935  36.408  1.00  0.00     0.031 C 
ATOM     67  C   UNL A   1      43.360  29.316  34.547  1.00  0.00     0.034 A 
BRANCH  54  68
ATOM     68  C   UNL A   1      40.949  27.714  29.081  1.00  0.00     0.023 A 
ATOM     69  C   UNL A   1      40.070  26.611  29.068  1.00  0.00     0.012 A 
ATOM     70  C   UNL A   1      41.816  27.920  27.990  1.00  0.00     0.148 A 
ATOM     71  C   UNL A   1      40.088  25.704  28.008  1.00  0.00     0.002 A 
ATOM     72  C   UNL A   1      41.792  27.040  26.915  1.00  0.00     0.091 A 
ATOM     73  F   UNL A   1      42.659  28.961  28.031  1.00  0.00    -0.205 F 
ATOM     74  C   UNL A   1      40.942  25.923  26.929  1.00  0.00     0.022 A 
BRANCH  72  75
ATOM     75  S   UNL A   1      42.797  27.281  25.447  1.00  0.00     0.127 S 
ATOM     76  O   UNL A   1      42.363  26.167  24.605  1.00  0.00    -0.237 OA
ATOM     77  O   UNL A   1      42.358  28.599  24.987  1.00  0.00    -0.237 OA
ATOM     78  O   UNL A   1      44.182  27.225  25.893  1.00  0.00    -0.744 OA
ENDBRANCH  72  75
ENDBRANCH  54  68
BRANCH  55  79
ATOM     79  C   UNL A   1      40.514  34.252  36.627  1.00  0.00     0.023 A 
ATOM     80  C   UNL A   1      41.088  35.532  36.501  1.00  0.00     0.012 A 
ATOM     81  C   UNL A   1      39.887  33.900  37.839  1.00  0.00     0.148 A 
ATOM     82  C   UNL A   1      41.057  36.436  37.566  1.00  0.00     0.002 A 
ATOM     83  C   UNL A   1      39.809  34.825  38.875  1.00  0.00     0.091 A 
ATOM     84  F   UNL A   1      39.371  32.668  37.952  1.00  0.00    -0.205 F 
ATOM     85  C   UNL A   1      40.408  36.086  38.747  1.00  0.00     0.022 A 
BRANCH  83  86
ATOM     86  S   UNL A   1      38.891  34.511  40.387  1.00  0.00     0.127 S 
ATOM     87  O   UNL A   1      39.866  33.765  41.180  1.00  0.00    -0.237 OA
ATOM     88  O   UNL A   1      38.623  35.869  40.860  1.00  0.00    -0.237 OA
ATOM     89  O   UNL A   1      37.707  33.765  39.986  1.00  0.00    -0.744 OA
ENDBRANCH  83  86
ENDBRANCH  55  79
BRANCH  67  90
ATOM     90  C   UNL A   1      44.457  28.627  35.321  1.00  0.00     0.023 A 
ATOM     91  C   UNL A   1      45.796  29.035  35.162  1.00  0.00     0.012 A 
ATOM     92  C   UNL A   1      44.145  27.638  36.276  1.00  0.00     0.148 A 
ATOM     93  C   UNL A   1      46.809  28.451  35.922  1.00  0.00     0.002 A 
ATOM     94  C   UNL A   1      45.153  27.097  37.065  1.00  0.00     0.091 A 
ATOM     95  F   UNL A   1      42.866  27.253  36.403  1.00  0.00    -0.205 F 
ATOM     96  C   UNL A   1      46.488  27.493  36.881  1.00  0.00     0.022 A 
BRANCH  94  97
ATOM     97  S   UNL A   1      44.823  25.932  38.392  1.00  0.00     0.127 S 
ATOM     98  O   UNL A   1      44.243  24.805  37.662  1.00  0.00    -0.237 OA
ATOM     99  O   UNL A   1      46.162  25.686  38.928  1.00  0.00    -0.237 OA
ATOM    100  O   UNL A   1      43.917  26.609  39.309  1.00  0.00    -0.744 OA
ENDBRANCH  94  97
ENDBRANCH  67  90
ENDBRANCH  41  42
ENDBRANCH  34  36
ENDBRANCH  33  34
ENDBRANCH  32  33
ENDBRANCH  31  32
ENDBRANCH  30  31
ENDBRANCH  29  30
ENDBRANCH   1  29
TORSDOF 23
ENDMDL
