MODEL 1
REMARK VINA RESULT:     -10.7      0.000      0.000
REMARK SMILES CC[C@@H](C(=O)OCCOCCOCCOC(=O)c1ccc(-c2c3nc(c(-c4cccc(S(=O)(=O)[O-])c4F)c4ccc([nH]4)c(-c4cccc(S(=O)(=O)[O-])c4F)c4nc(c(-c5cccc(S(=O)(=O)[O-])c5F)c5ccc2[nH]5)C=C4)C=C3)cc1)[N@@H+]1CCc2ccc(N)cc2C1
REMARK SMILES IDX 11 1 10 2 9 3 8 4 7 5 6 6 4 7 5 8 3 9 2 10 1 11 81 12 82 13
REMARK SMILES IDX 91 14 83 16 90 17 84 18 89 19 85 20 87 21 86 22 88 23 12 26
REMARK SMILES IDX 13 27 14 28 15 29 16 30 17 31 18 32 19 33 80 34 20 35 79 36
REMARK SMILES IDX 21 37 22 38 23 39 73 40 24 41 78 42 72 43 74 44 25 45 77 46
REMARK SMILES IDX 71 47 70 48 26 50 58 51 38 52 57 53 39 54 42 55 56 56 75 57
REMARK SMILES IDX 40 58 41 59 55 61 76 62 43 63 27 64 28 65 36 66 29 67 31 68
REMARK SMILES IDX 37 69 30 70 32 71 33 72 34 73 35 74 59 75 60 76 68 77 61 78
REMARK SMILES IDX 63 79 69 80 62 81 64 82 65 83 66 84 67 85 44 86 45 87 53 88
REMARK SMILES IDX 46 89 48 90 54 91 47 92 49 93 50 94 51 95 52 96
REMARK H PARENT 81 15 88 24 88 25 74 49 42 60
REMARK Flexibility Score: inf
ROOT
ATOM      1  C   UNL A   1      32.463  22.747  27.135  1.00  0.00     0.188 C 
ENDROOT
BRANCH   1   2
ATOM      2  C   UNL A   1      31.994  22.924  25.655  1.00  0.00     0.188 C 
BRANCH   2   3
ATOM      3  O   UNL A   1      32.503  21.981  24.665  1.00  0.00    -0.376 OA
BRANCH   3   4
ATOM      4  C   UNL A   1      32.153  22.318  23.298  1.00  0.00     0.202 C 
BRANCH   4   5
ATOM      5  C   UNL A   1      33.261  23.033  22.409  1.00  0.00     0.261 C 
BRANCH   5   6
ATOM      6  O   UNL A   1      33.779  24.309  22.929  1.00  0.00    -0.459 OA
BRANCH   6   7
ATOM      7  C   UNL A   1      33.330  25.539  22.491  1.00  0.00     0.364 C 
ATOM      8  O   UNL A   1      33.306  25.822  21.296  1.00  0.00    -0.245 OA
BRANCH   7   9
ATOM      9  C   UNL A   1      32.728  26.558  23.672  1.00  0.00     0.295 C 
BRANCH   9  10
ATOM     10  C   UNL A   1      33.718  27.332  24.581  1.00  0.00     0.074 C 
ATOM     11  C   UNL A   1      33.807  26.952  26.052  1.00  0.00     0.011 C 
ENDBRANCH   9  10
BRANCH   9  12
ATOM     12  N   UNL A   1      31.426  26.056  24.321  1.00  0.00    -0.319 N 
ATOM     13  C   UNL A   1      30.309  25.351  23.553  1.00  0.00     0.268 C 
ATOM     14  C   UNL A   1      30.776  27.206  24.892  1.00  0.00     0.300 C 
ATOM     15  H   UNL A   1      31.801  25.313  24.910  1.00  0.00     0.349 HD
ATOM     16  C   UNL A   1      28.782  25.965  23.754  1.00  0.00     0.097 C 
ATOM     17  C   UNL A   1      30.104  27.939  23.770  1.00  0.00     0.012 A 
ATOM     18  C   UNL A   1      28.861  27.456  23.556  1.00  0.00    -0.033 A 
ATOM     19  C   UNL A   1      30.589  28.708  22.718  1.00  0.00     0.035 A 
ATOM     20  C   UNL A   1      27.973  28.428  23.220  1.00  0.00     0.006 A 
ATOM     21  C   UNL A   1      29.755  29.555  22.043  1.00  0.00     0.032 A 
ATOM     22  C   UNL A   1      28.447  29.512  22.463  1.00  0.00     0.026 A 
BRANCH  21  23
ATOM     23  N   UNL A   1      30.269  30.505  21.186  1.00  0.00    -0.399 N 
ATOM     24  H   UNL A   1      31.213  30.458  20.909  1.00  0.00     0.156 HD
ATOM     25  H   UNL A   1      29.693  31.229  20.851  1.00  0.00     0.156 HD
ENDBRANCH  21  23
ENDBRANCH   9  12
ENDBRANCH   7   9
ENDBRANCH   6   7
ENDBRANCH   5   6
ENDBRANCH   4   5
ENDBRANCH   3   4
ENDBRANCH   2   3
ENDBRANCH   1   2
BRANCH   1  26
ATOM     26  O   UNL A   1      33.884  22.789  27.218  1.00  0.00    -0.376 OA
BRANCH  26  27
ATOM     27  C   UNL A   1      34.647  23.338  26.147  1.00  0.00     0.202 C 
BRANCH  27  28
ATOM     28  C   UNL A   1      35.795  22.590  25.437  1.00  0.00     0.261 C 
BRANCH  28  29
ATOM     29  O   UNL A   1      36.670  21.809  26.249  1.00  0.00    -0.460 OA
BRANCH  29  30
ATOM     30  C   UNL A   1      37.903  21.495  25.754  1.00  0.00     0.338 C 
ATOM     31  O   UNL A   1      38.170  20.597  24.994  1.00  0.00    -0.246 OA
BRANCH  30  32
ATOM     32  C   UNL A   1      38.850  22.545  26.235  1.00  0.00     0.060 A 
ATOM     33  C   UNL A   1      39.938  22.202  27.054  1.00  0.00     0.016 A 
ATOM     34  C   UNL A   1      38.707  23.862  25.786  1.00  0.00     0.016 A 
ATOM     35  C   UNL A   1      40.924  23.157  27.348  1.00  0.00     0.010 A 
ATOM     36  C   UNL A   1      39.652  24.822  26.127  1.00  0.00     0.010 A 
ATOM     37  C   UNL A   1      40.767  24.478  26.905  1.00  0.00    -0.014 A 
BRANCH  37  38
ATOM     38  C   UNL A   1      41.582  25.590  27.446  1.00  0.00     0.031 A 
ATOM     39  C   UNL A   1      40.846  26.652  28.210  1.00  0.00     0.074 A 
ATOM     40  C   UNL A   1      42.879  25.747  27.125  1.00  0.00     0.049 A 
ATOM     41  N   UNL A   1      41.259  27.827  28.602  1.00  0.00    -0.248 NA
ATOM     42  C   UNL A   1      39.444  26.356  28.554  1.00  0.00     0.031 C 
ATOM     43  C   UNL A   1      43.695  24.796  26.373  1.00  0.00     0.029 A 
ATOM     44  N   UNL A   1      43.721  26.811  27.349  1.00  0.00    -0.354 N 
ATOM     45  C   UNL A   1      40.161  28.419  29.210  1.00  0.00     0.074 A 
ATOM     46  C   UNL A   1      39.065  27.480  29.139  1.00  0.00     0.031 C 
ATOM     47  C   UNL A   1      44.908  25.339  26.157  1.00  0.00     0.029 A 
ATOM     48  C   UNL A   1      44.943  26.686  26.727  1.00  0.00     0.049 A 
ATOM     49  H   UNL A   1      43.475  27.587  27.901  1.00  0.00     0.167 HD
ATOM     50  C   UNL A   1      40.067  29.641  29.777  1.00  0.00     0.034 A 
ATOM     51  C   UNL A   1      45.953  27.573  26.607  1.00  0.00     0.034 A 
ATOM     52  C   UNL A   1      41.143  30.584  29.838  1.00  0.00     0.049 A 
ATOM     53  C   UNL A   1      45.813  28.943  27.227  1.00  0.00     0.074 A 
ATOM     54  C   UNL A   1      41.154  31.836  30.423  1.00  0.00     0.029 A 
ATOM     55  N   UNL A   1      42.394  30.385  29.278  1.00  0.00    -0.354 N 
ATOM     56  N   UNL A   1      44.819  29.439  27.925  1.00  0.00    -0.248 NA
ATOM     57  C   UNL A   1      46.943  29.873  27.059  1.00  0.00     0.031 C 
ATOM     58  C   UNL A   1      42.414  32.402  30.204  1.00  0.00     0.029 A 
ATOM     59  C   UNL A   1      43.186  31.495  29.496  1.00  0.00     0.049 A 
ATOM     60  H   UNL A   1      42.676  29.573  28.797  1.00  0.00     0.167 HD
ATOM     61  C   UNL A   1      45.219  30.716  28.313  1.00  0.00     0.074 A 
ATOM     62  C   UNL A   1      46.551  30.915  27.780  1.00  0.00     0.031 C 
ATOM     63  C   UNL A   1      44.540  31.645  29.028  1.00  0.00     0.034 A 
BRANCH  50  64
ATOM     64  C   UNL A   1      38.750  30.005  30.398  1.00  0.00     0.023 A 
ATOM     65  C   UNL A   1      38.455  29.549  31.699  1.00  0.00     0.012 A 
ATOM     66  C   UNL A   1      37.818  30.802  29.710  1.00  0.00     0.148 A 
ATOM     67  C   UNL A   1      37.238  29.864  32.298  1.00  0.00     0.002 A 
ATOM     68  C   UNL A   1      36.621  31.141  30.328  1.00  0.00     0.091 A 
ATOM     69  F   UNL A   1      38.105  31.188  28.459  1.00  0.00    -0.205 F 
ATOM     70  C   UNL A   1      36.327  30.667  31.617  1.00  0.00     0.022 A 
BRANCH  68  71
ATOM     71  S   UNL A   1      35.412  32.216  29.551  1.00  0.00     0.127 S 
ATOM     72  O   UNL A   1      34.952  31.387  28.437  1.00  0.00    -0.237 OA
ATOM     73  O   UNL A   1      34.429  32.401  30.619  1.00  0.00    -0.237 OA
ATOM     74  O   UNL A   1      36.134  33.425  29.180  1.00  0.00    -0.744 OA
ENDBRANCH  68  71
ENDBRANCH  50  64
BRANCH  51  75
ATOM     75  C   UNL A   1      47.209  27.197  25.897  1.00  0.00     0.023 A 
ATOM     76  C   UNL A   1      48.219  26.516  26.607  1.00  0.00     0.012 A 
ATOM     77  C   UNL A   1      47.422  27.516  24.542  1.00  0.00     0.148 A 
ATOM     78  C   UNL A   1      49.427  26.187  25.991  1.00  0.00     0.002 A 
ATOM     79  C   UNL A   1      48.610  27.142  23.920  1.00  0.00     0.091 A 
ATOM     80  F   UNL A   1      46.462  28.184  23.888  1.00  0.00    -0.205 F 
ATOM     81  C   UNL A   1      49.619  26.492  24.647  1.00  0.00     0.022 A 
BRANCH  79  82
ATOM     82  S   UNL A   1      48.901  27.401  22.166  1.00  0.00     0.127 S 
ATOM     83  O   UNL A   1      48.126  28.612  21.909  1.00  0.00    -0.237 OA
ATOM     84  O   UNL A   1      50.353  27.578  22.120  1.00  0.00    -0.237 OA
ATOM     85  O   UNL A   1      48.424  26.192  21.509  1.00  0.00    -0.744 OA
ENDBRANCH  79  82
ENDBRANCH  51  75
BRANCH  63  86
ATOM     86  C   UNL A   1      45.222  32.951  29.335  1.00  0.00     0.023 A 
ATOM     87  C   UNL A   1      46.001  33.073  30.501  1.00  0.00     0.012 A 
ATOM     88  C   UNL A   1      45.203  34.005  28.399  1.00  0.00     0.148 A 
ATOM     89  C   UNL A   1      46.744  34.230  30.737  1.00  0.00     0.002 A 
ATOM     90  C   UNL A   1      45.979  35.136  28.620  1.00  0.00     0.091 A 
ATOM     91  F   UNL A   1      44.441  33.872  27.303  1.00  0.00    -0.205 F 
ATOM     92  C   UNL A   1      46.745  35.253  29.791  1.00  0.00     0.022 A 
BRANCH  90  93
ATOM     93  S   UNL A   1      46.121  36.457  27.409  1.00  0.00     0.127 S 
ATOM     94  O   UNL A   1      46.855  37.473  28.163  1.00  0.00    -0.237 OA
ATOM     95  O   UNL A   1      46.888  35.818  26.339  1.00  0.00    -0.237 OA
ATOM     96  O   UNL A   1      44.757  36.814  27.043  1.00  0.00    -0.744 OA
ENDBRANCH  90  93
ENDBRANCH  63  86
ENDBRANCH  37  38
ENDBRANCH  30  32
ENDBRANCH  29  30
ENDBRANCH  28  29
ENDBRANCH  27  28
ENDBRANCH  26  27
ENDBRANCH   1  26
TORSDOF 23
ENDMDL
MODEL 2
REMARK VINA RESULT:     -10.6      6.399      9.912
REMARK SMILES CC[C@@H](C(=O)OCCOCCOCCOC(=O)c1ccc(-c2c3nc(c(-c4cccc(S(=O)(=O)[O-])c4F)c4ccc([nH]4)c(-c4cccc(S(=O)(=O)[O-])c4F)c4nc(c(-c5cccc(S(=O)(=O)[O-])c5F)c5ccc2[nH]5)C=C4)C=C3)cc1)[N@@H+]1CCc2ccc(N)cc2C1
REMARK SMILES IDX 11 1 10 2 9 3 8 4 7 5 6 6 4 7 5 8 3 9 2 10 1 11 81 12 82 13
REMARK SMILES IDX 91 14 83 16 90 17 84 18 89 19 85 20 87 21 86 22 88 23 12 26
REMARK SMILES IDX 13 27 14 28 15 29 16 30 17 31 18 32 19 33 80 34 20 35 79 36
REMARK SMILES IDX 21 37 22 38 23 39 73 40 24 41 78 42 72 43 74 44 25 45 77 46
REMARK SMILES IDX 71 47 70 48 26 50 58 51 38 52 57 53 39 54 42 55 56 56 75 57
REMARK SMILES IDX 40 58 41 59 55 61 76 62 43 63 27 64 28 65 36 66 29 67 31 68
REMARK SMILES IDX 37 69 30 70 32 71 33 72 34 73 35 74 59 75 60 76 68 77 61 78
REMARK SMILES IDX 63 79 69 80 62 81 64 82 65 83 66 84 67 85 44 86 45 87 53 88
REMARK SMILES IDX 46 89 48 90 54 91 47 92 49 93 50 94 51 95 52 96
REMARK H PARENT 81 15 88 24 88 25 74 49 42 60
REMARK Flexibility Score: inf
ROOT
ATOM      1  C   UNL A   1      35.392  33.488  28.790  1.00  0.00     0.188 C 
ENDROOT
BRANCH   1   2
ATOM      2  C   UNL A   1      34.506  32.204  28.697  1.00  0.00     0.188 C 
BRANCH   2   3
ATOM      3  O   UNL A   1      34.884  31.189  27.721  1.00  0.00    -0.376 OA
BRANCH   3   4
ATOM      4  C   UNL A   1      33.756  30.504  27.117  1.00  0.00     0.202 C 
BRANCH   4   5
ATOM      5  C   UNL A   1      34.049  29.155  26.328  1.00  0.00     0.261 C 
BRANCH   5   6
ATOM      6  O   UNL A   1      33.306  28.970  25.071  1.00  0.00    -0.459 OA
BRANCH   6   7
ATOM      7  C   UNL A   1      33.066  27.731  24.513  1.00  0.00     0.364 C 
ATOM      8  O   UNL A   1      33.988  27.002  24.154  1.00  0.00    -0.245 OA
BRANCH   7   9
ATOM      9  C   UNL A   1      31.465  27.252  24.461  1.00  0.00     0.295 C 
BRANCH   9  10
ATOM     10  C   UNL A   1      30.399  28.232  23.907  1.00  0.00     0.074 C 
ATOM     11  C   UNL A   1      30.054  28.175  22.426  1.00  0.00     0.011 C 
ENDBRANCH   9  10
BRANCH   9  12
ATOM     12  N   UNL A   1      31.047  26.352  25.638  1.00  0.00    -0.319 N 
ATOM     13  C   UNL A   1      32.036  25.615  26.539  1.00  0.00     0.268 C 
ATOM     14  C   UNL A   1      30.233  25.301  25.089  1.00  0.00     0.300 C 
ATOM     15  H   UNL A   1      30.652  27.057  26.262  1.00  0.00     0.349 HD
ATOM     16  C   UNL A   1      31.771  23.991  26.743  1.00  0.00     0.097 C 
ATOM     17  C   UNL A   1      31.162  24.301  24.467  1.00  0.00     0.012 A 
ATOM     18  C   UNL A   1      31.566  23.389  25.378  1.00  0.00    -0.033 A 
ATOM     19  C   UNL A   1      31.945  24.323  23.319  1.00  0.00     0.035 A 
ATOM     20  C   UNL A   1      31.687  22.142  24.852  1.00  0.00     0.006 A 
ATOM     21  C   UNL A   1      32.423  23.158  22.788  1.00  0.00     0.032 A 
ATOM     22  C   UNL A   1      32.105  22.035  23.515  1.00  0.00     0.026 A 
BRANCH  21  23
ATOM     23  N   UNL A   1      32.969  23.140  21.523  1.00  0.00    -0.399 N 
ATOM     24  H   UNL A   1      32.383  23.183  20.733  1.00  0.00     0.156 HD
ATOM     25  H   UNL A   1      33.945  23.085  21.408  1.00  0.00     0.156 HD
ENDBRANCH  21  23
ENDBRANCH   9  12
ENDBRANCH   7   9
ENDBRANCH   6   7
ENDBRANCH   5   6
ENDBRANCH   4   5
ENDBRANCH   3   4
ENDBRANCH   2   3
ENDBRANCH   1   2
BRANCH   1  26
ATOM     26  O   UNL A   1      34.683  34.621  28.298  1.00  0.00    -0.376 OA
BRANCH  26  27
ATOM     27  C   UNL A   1      33.324  34.832  28.669  1.00  0.00     0.202 C 
BRANCH  27  28
ATOM     28  C   UNL A   1      32.841  36.013  29.536  1.00  0.00     0.261 C 
BRANCH  28  29
ATOM     29  O   UNL A   1      32.106  35.700  30.718  1.00  0.00    -0.460 OA
BRANCH  29  30
ATOM     30  C   UNL A   1      32.606  36.113  31.919  1.00  0.00     0.338 C 
ATOM     31  O   UNL A   1      32.213  37.038  32.587  1.00  0.00    -0.246 OA
BRANCH  30  32
ATOM     32  C   UNL A   1      33.660  35.132  32.318  1.00  0.00     0.060 A 
ATOM     33  C   UNL A   1      33.306  33.905  32.902  1.00  0.00     0.016 A 
ATOM     34  C   UNL A   1      34.999  35.398  32.017  1.00  0.00     0.016 A 
ATOM     35  C   UNL A   1      34.282  32.916  33.103  1.00  0.00     0.010 A 
ATOM     36  C   UNL A   1      35.975  34.440  32.271  1.00  0.00     0.010 A 
ATOM     37  C   UNL A   1      35.625  33.194  32.811  1.00  0.00    -0.014 A 
BRANCH  37  38
ATOM     38  C   UNL A   1      36.728  32.335  33.297  1.00  0.00     0.031 A 
ATOM     39  C   UNL A   1      37.419  32.775  34.555  1.00  0.00     0.074 A 
ATOM     40  C   UNL A   1      37.215  31.315  32.567  1.00  0.00     0.049 A 
ATOM     41  N   UNL A   1      38.534  32.348  35.081  1.00  0.00    -0.248 NA
ATOM     42  C   UNL A   1      36.773  33.868  35.305  1.00  0.00     0.031 C 
ATOM     43  C   UNL A   1      36.643  30.807  31.321  1.00  0.00     0.029 A 
ATOM     44  N   UNL A   1      38.349  30.560  32.750  1.00  0.00    -0.354 N 
ATOM     45  C   UNL A   1      38.738  33.138  36.204  1.00  0.00     0.074 A 
ATOM     46  C   UNL A   1      37.635  34.068  36.288  1.00  0.00     0.031 C 
ATOM     47  C   UNL A   1      37.456  29.854  30.826  1.00  0.00     0.029 A 
ATOM     48  C   UNL A   1      38.619  29.708  31.702  1.00  0.00     0.049 A 
ATOM     49  H   UNL A   1      38.914  30.622  33.553  1.00  0.00     0.167 HD
ATOM     50  C   UNL A   1      39.755  33.097  37.091  1.00  0.00     0.034 A 
ATOM     51  C   UNL A   1      39.697  28.931  31.469  1.00  0.00     0.034 A 
ATOM     52  C   UNL A   1      40.859  32.189  37.008  1.00  0.00     0.049 A 
ATOM     53  C   UNL A   1      40.835  28.924  32.462  1.00  0.00     0.074 A 
ATOM     54  C   UNL A   1      41.922  32.049  37.878  1.00  0.00     0.029 A 
ATOM     55  N   UNL A   1      41.050  31.278  35.982  1.00  0.00    -0.354 N 
ATOM     56  N   UNL A   1      40.947  29.572  33.597  1.00  0.00    -0.248 NA
ATOM     57  C   UNL A   1      41.988  28.062  32.153  1.00  0.00     0.031 C 
ATOM     58  C   UNL A   1      42.768  31.058  37.371  1.00  0.00     0.029 A 
ATOM     59  C   UNL A   1      42.220  30.575  36.192  1.00  0.00     0.049 A 
ATOM     60  H   UNL A   1      40.442  31.150  35.218  1.00  0.00     0.167 HD
ATOM     61  C   UNL A   1      42.158  29.167  34.154  1.00  0.00     0.074 A 
ATOM     62  C   UNL A   1      42.739  28.209  33.237  1.00  0.00     0.031 C 
ATOM     63  C   UNL A   1      42.744  29.565  35.310  1.00  0.00     0.034 A 
BRANCH  50  64
ATOM     64  C   UNL A   1      39.694  34.057  38.243  1.00  0.00     0.023 A 
ATOM     65  C   UNL A   1      40.341  35.304  38.134  1.00  0.00     0.012 A 
ATOM     66  C   UNL A   1      38.993  33.736  39.419  1.00  0.00     0.148 A 
ATOM     67  C   UNL A   1      40.308  36.211  39.190  1.00  0.00     0.002 A 
ATOM     68  C   UNL A   1      38.936  34.660  40.454  1.00  0.00     0.091 A 
ATOM     69  F   UNL A   1      38.422  32.526  39.515  1.00  0.00    -0.205 F 
ATOM     70  C   UNL A   1      39.598  35.894  40.344  1.00  0.00     0.022 A 
BRANCH  68  71
ATOM     71  S   UNL A   1      37.999  34.360  41.956  1.00  0.00     0.127 S 
ATOM     72  O   UNL A   1      38.860  33.410  42.657  1.00  0.00    -0.237 OA
ATOM     73  O   UNL A   1      37.944  35.693  42.558  1.00  0.00    -0.237 OA
ATOM     74  O   UNL A   1      36.709  33.841  41.523  1.00  0.00    -0.744 OA
ENDBRANCH  68  71
ENDBRANCH  50  64
BRANCH  51  75
ATOM     75  C   UNL A   1      39.754  28.062  30.258  1.00  0.00     0.023 A 
ATOM     76  C   UNL A   1      39.040  26.847  30.254  1.00  0.00     0.012 A 
ATOM     77  C   UNL A   1      40.514  28.413  29.125  1.00  0.00     0.148 A 
ATOM     78  C   UNL A   1      39.104  25.985  29.158  1.00  0.00     0.002 A 
ATOM     79  C   UNL A   1      40.536  27.571  28.018  1.00  0.00     0.091 A 
ATOM     80  F   UNL A   1      41.206  29.560  29.155  1.00  0.00    -0.205 F 
ATOM     81  C   UNL A   1      39.845  26.350  28.038  1.00  0.00     0.022 A 
BRANCH  79  82
ATOM     82  S   UNL A   1      41.377  28.011  26.491  1.00  0.00     0.127 S 
ATOM     83  O   UNL A   1      40.660  29.218  26.091  1.00  0.00    -0.237 OA
ATOM     84  O   UNL A   1      42.748  28.233  26.952  1.00  0.00    -0.237 OA
ATOM     85  O   UNL A   1      41.219  26.859  25.614  1.00  0.00    -0.744 OA
ENDBRANCH  79  82
ENDBRANCH  51  75
BRANCH  63  86
ATOM     86  C   UNL A   1      44.058  28.942  35.697  1.00  0.00     0.023 A 
ATOM     87  C   UNL A   1      45.261  29.525  35.256  1.00  0.00     0.012 A 
ATOM     88  C   UNL A   1      44.100  27.867  36.608  1.00  0.00     0.148 A 
ATOM     89  C   UNL A   1      46.489  29.039  35.708  1.00  0.00     0.002 A 
ATOM     90  C   UNL A   1      45.324  27.418  37.088  1.00  0.00     0.091 A 
ATOM     91  F   UNL A   1      42.941  27.319  37.002  1.00  0.00    -0.205 F 
ATOM     92  C   UNL A   1      46.520  27.999  36.634  1.00  0.00     0.022 A 
BRANCH  90  93
ATOM     93  S   UNL A   1      45.455  26.153  38.357  1.00  0.00     0.127 S 
ATOM     94  O   UNL A   1      46.864  26.253  38.733  1.00  0.00    -0.237 OA
ATOM     95  O   UNL A   1      44.517  26.632  39.374  1.00  0.00    -0.237 OA
ATOM     96  O   UNL A   1      45.065  24.902  37.719  1.00  0.00    -0.744 OA
ENDBRANCH  90  93
ENDBRANCH  63  86
ENDBRANCH  37  38
ENDBRANCH  30  32
ENDBRANCH  29  30
ENDBRANCH  28  29
ENDBRANCH  27  28
ENDBRANCH  26  27
ENDBRANCH   1  26
TORSDOF 23
ENDMDL
MODEL 3
REMARK VINA RESULT:     -10.5      2.020      3.050
REMARK SMILES CC[C@@H](C(=O)OCCOCCOCCOC(=O)c1ccc(-c2c3nc(c(-c4cccc(S(=O)(=O)[O-])c4F)c4ccc([nH]4)c(-c4cccc(S(=O)(=O)[O-])c4F)c4nc(c(-c5cccc(S(=O)(=O)[O-])c5F)c5ccc2[nH]5)C=C4)C=C3)cc1)[N@@H+]1CCc2ccc(N)cc2C1
REMARK SMILES IDX 11 1 10 2 9 3 8 4 7 5 6 6 4 7 5 8 3 9 2 10 1 11 81 12 82 13
REMARK SMILES IDX 91 14 83 16 90 17 84 18 89 19 85 20 87 21 86 22 88 23 12 26
REMARK SMILES IDX 13 27 14 28 15 29 16 30 17 31 18 32 19 33 80 34 20 35 79 36
REMARK SMILES IDX 21 37 22 38 23 39 73 40 24 41 78 42 72 43 74 44 25 45 77 46
REMARK SMILES IDX 71 47 70 48 26 50 58 51 38 52 57 53 39 54 42 55 56 56 75 57
REMARK SMILES IDX 40 58 41 59 55 61 76 62 43 63 27 64 28 65 36 66 29 67 31 68
REMARK SMILES IDX 37 69 30 70 32 71 33 72 34 73 35 74 59 75 60 76 68 77 61 78
REMARK SMILES IDX 63 79 69 80 62 81 64 82 65 83 66 84 67 85 44 86 45 87 53 88
REMARK SMILES IDX 46 89 48 90 54 91 47 92 49 93 50 94 51 95 52 96
REMARK H PARENT 81 15 88 24 88 25 74 49 42 60
REMARK Flexibility Score: inf
ROOT
ATOM      1  C   UNL A   1      35.361  20.474  24.937  1.00  0.00     0.188 C 
ENDROOT
BRANCH   1   2
ATOM      2  C   UNL A   1      34.199  20.919  25.882  1.00  0.00     0.188 C 
BRANCH   2   3
ATOM      3  O   UNL A   1      34.526  21.815  26.984  1.00  0.00    -0.376 OA
BRANCH   3   4
ATOM      4  C   UNL A   1      33.387  22.546  27.506  1.00  0.00     0.202 C 
BRANCH   4   5
ATOM      5  C   UNL A   1      32.663  23.575  26.534  1.00  0.00     0.261 C 
BRANCH   5   6
ATOM      6  O   UNL A   1      33.493  24.685  26.037  1.00  0.00    -0.459 OA
BRANCH   6   7
ATOM      7  C   UNL A   1      34.243  24.606  24.881  1.00  0.00     0.364 C 
ATOM      8  O   UNL A   1      35.450  24.379  24.917  1.00  0.00    -0.245 OA
BRANCH   7   9
ATOM      9  C   UNL A   1      33.391  24.731  23.448  1.00  0.00     0.295 C 
BRANCH   9  10
ATOM     10  C   UNL A   1      33.138  23.455  22.603  1.00  0.00     0.074 C 
ATOM     11  C   UNL A   1      32.044  22.493  23.043  1.00  0.00     0.011 C 
ENDBRANCH   9  10
BRANCH   9  12
ATOM     12  N   UNL A   1      33.652  26.039  22.682  1.00  0.00    -0.319 N 
ATOM     13  C   UNL A   1      33.772  27.408  23.349  1.00  0.00     0.268 C 
ATOM     14  C   UNL A   1      32.564  26.204  21.756  1.00  0.00     0.300 C 
ATOM     15  H   UNL A   1      34.603  25.861  22.355  1.00  0.00     0.349 HD
ATOM     16  C   UNL A   1      32.824  28.615  22.722  1.00  0.00     0.097 C 
ATOM     17  C   UNL A   1      31.394  26.726  22.535  1.00  0.00     0.012 A 
ATOM     18  C   UNL A   1      31.423  28.075  22.599  1.00  0.00    -0.033 A 
ATOM     19  C   UNL A   1      30.542  26.144  23.467  1.00  0.00     0.035 A 
ATOM     20  C   UNL A   1      30.184  28.629  22.533  1.00  0.00     0.006 A 
ATOM     21  C   UNL A   1      29.342  26.729  23.762  1.00  0.00     0.032 A 
ATOM     22  C   UNL A   1      29.119  27.919  23.112  1.00  0.00     0.026 A 
BRANCH  21  23
ATOM     23  N   UNL A   1      28.386  26.036  24.474  1.00  0.00    -0.399 N 
ATOM     24  H   UNL A   1      28.462  25.957  25.453  1.00  0.00     0.156 HD
ATOM     25  H   UNL A   1      27.626  25.622  24.005  1.00  0.00     0.156 HD
ENDBRANCH  21  23
ENDBRANCH   9  12
ENDBRANCH   7   9
ENDBRANCH   6   7
ENDBRANCH   5   6
ENDBRANCH   4   5
ENDBRANCH   3   4
ENDBRANCH   2   3
ENDBRANCH   1   2
BRANCH   1  26
ATOM     26  O   UNL A   1      36.624  20.713  25.551  1.00  0.00    -0.376 OA
BRANCH  26  27
ATOM     27  C   UNL A   1      37.817  20.215  24.952  1.00  0.00     0.202 C 
BRANCH  27  28
ATOM     28  C   UNL A   1      39.237  20.639  25.382  1.00  0.00     0.261 C 
BRANCH  28  29
ATOM     29  O   UNL A   1      39.963  19.741  26.219  1.00  0.00    -0.460 OA
BRANCH  29  30
ATOM     30  C   UNL A   1      41.315  19.653  26.053  1.00  0.00     0.338 C 
ATOM     31  O   UNL A   1      41.929  18.719  25.600  1.00  0.00    -0.246 OA
BRANCH  30  32
ATOM     32  C   UNL A   1      41.892  20.980  26.428  1.00  0.00     0.060 A 
ATOM     33  C   UNL A   1      42.290  21.889  25.434  1.00  0.00     0.016 A 
ATOM     34  C   UNL A   1      41.943  21.354  27.774  1.00  0.00     0.016 A 
ATOM     35  C   UNL A   1      42.655  23.198  25.787  1.00  0.00     0.010 A 
ATOM     36  C   UNL A   1      42.362  22.632  28.127  1.00  0.00     0.010 A 
ATOM     37  C   UNL A   1      42.717  23.562  27.140  1.00  0.00    -0.014 A 
BRANCH  37  38
ATOM     38  C   UNL A   1      43.398  24.798  27.590  1.00  0.00     0.031 A 
ATOM     39  C   UNL A   1      42.516  25.914  28.070  1.00  0.00     0.074 A 
ATOM     40  C   UNL A   1      44.717  24.992  27.413  1.00  0.00     0.049 A 
ATOM     41  N   UNL A   1      42.815  27.161  28.313  1.00  0.00    -0.248 NA
ATOM     42  C   UNL A   1      41.095  25.580  28.279  1.00  0.00     0.031 C 
ATOM     43  C   UNL A   1      45.671  23.993  26.937  1.00  0.00     0.029 A 
ATOM     44  N   UNL A   1      45.470  26.132  27.564  1.00  0.00    -0.354 N 
ATOM     45  C   UNL A   1      41.618  27.764  28.672  1.00  0.00     0.074 A 
ATOM     46  C   UNL A   1      40.588  26.753  28.619  1.00  0.00     0.031 C 
ATOM     47  C   UNL A   1      46.876  24.577  26.789  1.00  0.00     0.029 A 
ATOM     48  C   UNL A   1      46.769  25.996  27.130  1.00  0.00     0.049 A 
ATOM     49  H   UNL A   1      45.114  26.967  27.946  1.00  0.00     0.167 HD
ATOM     50  C   UNL A   1      41.390  29.051  29.015  1.00  0.00     0.034 A 
ATOM     51  C   UNL A   1      47.743  26.921  26.994  1.00  0.00     0.034 A 
ATOM     52  C   UNL A   1      42.402  30.063  29.056  1.00  0.00     0.049 A 
ATOM     53  C   UNL A   1      47.456  28.358  27.358  1.00  0.00     0.074 A 
ATOM     54  C   UNL A   1      42.275  31.388  29.424  1.00  0.00     0.029 A 
ATOM     55  N   UNL A   1      43.726  29.865  28.698  1.00  0.00    -0.354 N 
ATOM     56  N   UNL A   1      46.354  28.888  27.835  1.00  0.00    -0.248 NA
ATOM     57  C   UNL A   1      48.553  29.325  27.184  1.00  0.00     0.031 C 
ATOM     58  C   UNL A   1      43.524  31.998  29.276  1.00  0.00     0.029 A 
ATOM     59  C   UNL A   1      44.428  31.047  28.829  1.00  0.00     0.049 A 
ATOM     60  H   UNL A   1      44.108  29.009  28.396  1.00  0.00     0.167 HD
ATOM     61  C   UNL A   1      46.637  30.233  28.055  1.00  0.00     0.074 A 
ATOM     62  C   UNL A   1      48.017  30.438  27.669  1.00  0.00     0.031 C 
ATOM     63  C   UNL A   1      45.824  31.214  28.517  1.00  0.00     0.034 A 
BRANCH  50  64
ATOM     64  C   UNL A   1      39.986  29.416  29.397  1.00  0.00     0.023 A 
ATOM     65  C   UNL A   1      39.073  29.785  28.389  1.00  0.00     0.012 A 
ATOM     66  C   UNL A   1      39.567  29.384  30.739  1.00  0.00     0.148 A 
ATOM     67  C   UNL A   1      37.766  30.137  28.715  1.00  0.00     0.002 A 
ATOM     68  C   UNL A   1      38.253  29.703  31.052  1.00  0.00     0.091 A 
ATOM     69  F   UNL A   1      40.466  29.071  31.684  1.00  0.00    -0.205 F 
ATOM     70  C   UNL A   1      37.353  30.086  30.043  1.00  0.00     0.022 A 
BRANCH  68  71
ATOM     71  S   UNL A   1      37.617  29.611  32.729  1.00  0.00     0.127 S 
ATOM     72  O   UNL A   1      36.301  30.230  32.580  1.00  0.00    -0.237 OA
ATOM     73  O   UNL A   1      37.589  28.169  32.972  1.00  0.00    -0.237 OA
ATOM     74  O   UNL A   1      38.567  30.344  33.555  1.00  0.00    -0.744 OA
ENDBRANCH  68  71
ENDBRANCH  50  64
BRANCH  51  75
ATOM     75  C   UNL A   1      49.100  26.525  26.519  1.00  0.00     0.023 A 
ATOM     76  C   UNL A   1      49.876  25.656  27.312  1.00  0.00     0.012 A 
ATOM     77  C   UNL A   1      49.635  27.008  25.309  1.00  0.00     0.148 A 
ATOM     78  C   UNL A   1      51.168  25.298  26.925  1.00  0.00     0.002 A 
ATOM     79  C   UNL A   1      50.906  26.609  24.905  1.00  0.00     0.091 A 
ATOM     80  F   UNL A   1      48.894  27.853  24.579  1.00  0.00    -0.205 F 
ATOM     81  C   UNL A   1      51.680  25.768  25.719  1.00  0.00     0.022 A 
BRANCH  79  82
ATOM     82  S   UNL A   1      51.603  27.081  23.317  1.00  0.00     0.127 S 
ATOM     83  O   UNL A   1      50.505  26.773  22.405  1.00  0.00    -0.237 OA
ATOM     84  O   UNL A   1      51.862  28.508  23.510  1.00  0.00    -0.237 OA
ATOM     85  O   UNL A   1      52.803  26.270  23.163  1.00  0.00    -0.744 OA
ENDBRANCH  79  82
ENDBRANCH  51  75
BRANCH  63  86
ATOM     86  C   UNL A   1      46.395  32.596  28.689  1.00  0.00     0.023 A 
ATOM     87  C   UNL A   1      46.988  32.957  29.914  1.00  0.00     0.012 A 
ATOM     88  C   UNL A   1      46.468  33.481  27.594  1.00  0.00     0.148 A 
ATOM     89  C   UNL A   1      47.636  34.185  30.050  1.00  0.00     0.002 A 
ATOM     90  C   UNL A   1      47.154  34.683  27.725  1.00  0.00     0.091 A 
ATOM     91  F   UNL A   1      45.884  33.121  26.442  1.00  0.00    -0.205 F 
ATOM     92  C   UNL A   1      47.732  35.040  28.954  1.00  0.00     0.022 A 
BRANCH  90  93
ATOM     93  S   UNL A   1      47.415  35.797  26.339  1.00  0.00     0.127 S 
ATOM     94  O   UNL A   1      48.017  34.905  25.349  1.00  0.00    -0.237 OA
ATOM     95  O   UNL A   1      46.052  36.228  26.024  1.00  0.00    -0.237 OA
ATOM     96  O   UNL A   1      48.283  36.857  26.835  1.00  0.00    -0.744 OA
ENDBRANCH  90  93
ENDBRANCH  63  86
ENDBRANCH  37  38
ENDBRANCH  30  32
ENDBRANCH  29  30
ENDBRANCH  28  29
ENDBRANCH  27  28
ENDBRANCH  26  27
ENDBRANCH   1  26
TORSDOF 23
ENDMDL
