MODEL 1
REMARK VINA RESULT:     -10.7      0.000      0.000
REMARK SMILES O=C(OCCOCCOCCOC(=O)C(F)(F)[C@H](O)c1ccccc1C1CC1)c1ccc(-c2c3nc(c(-c4cccc(S(=O)(=O)[O-])c4F)c4ccc([nH]4)c(-c4cccc(S(=O)(=O)[O-])c4F)c4nc(c(-c5cccc(S(=O)(=O)[O-])c5F)c5ccc2[nH]5)C=C4)C=C3)cc1
REMARK SMILES IDX 7 1 6 2 5 3 4 4 3 5 2 6 1 7 29 8 30 9 91 10 31 11 90 12
REMARK SMILES IDX 32 13 33 14 34 15 84 16 35 17 89 18 83 19 85 20 36 21 88 22
REMARK SMILES IDX 82 23 81 24 37 26 69 27 49 28 68 29 50 30 53 31 67 32 86 33
REMARK SMILES IDX 51 34 52 35 66 37 87 38 54 39 38 40 39 41 47 42 40 43 42 44
REMARK SMILES IDX 48 45 41 46 43 47 44 48 45 49 46 50 70 51 71 52 79 53 72 54
REMARK SMILES IDX 74 55 80 56 73 57 75 58 76 59 77 60 78 61 55 62 56 63 64 64
REMARK SMILES IDX 57 65 59 66 65 67 58 68 60 69 61 70 62 71 63 72 8 73 9 74
REMARK SMILES IDX 10 75 11 76 12 77 13 78 14 79 15 80 16 81 17 82 18 83 20 84
REMARK SMILES IDX 21 85 25 86 22 87 24 88 23 89 26 90 27 91 28 92 19 93
REMARK H PARENT 85 25 53 36 19 94
REMARK Flexibility Score: inf
ROOT
ATOM      1  C   UNL A   1      33.600  19.418  24.648  1.00  0.00     0.188 C 
ENDROOT
BRANCH   1   2
ATOM      2  O   UNL A   1      34.401  20.460  25.190  1.00  0.00    -0.376 OA
BRANCH   2   3
ATOM      3  C   UNL A   1      35.819  20.390  25.032  1.00  0.00     0.202 C 
BRANCH   3   4
ATOM      4  C   UNL A   1      36.764  21.379  25.756  1.00  0.00     0.261 C 
BRANCH   4   5
ATOM      5  O   UNL A   1      38.131  21.435  25.300  1.00  0.00    -0.460 OA
BRANCH   5   6
ATOM      6  C   UNL A   1      39.261  21.474  26.049  1.00  0.00     0.338 C 
ATOM      7  O   UNL A   1      39.873  20.435  26.281  1.00  0.00    -0.246 OA
BRANCH   6   8
ATOM      8  C   UNL A   1      39.733  22.744  26.662  1.00  0.00     0.060 A 
ATOM      9  C   UNL A   1      39.137  23.968  26.403  1.00  0.00     0.016 A 
ATOM     10  C   UNL A   1      40.738  22.704  27.637  1.00  0.00     0.016 A 
ATOM     11  C   UNL A   1      39.643  25.148  26.905  1.00  0.00     0.010 A 
ATOM     12  C   UNL A   1      41.139  23.876  28.288  1.00  0.00     0.010 A 
ATOM     13  C   UNL A   1      40.647  25.118  27.864  1.00  0.00    -0.014 A 
BRANCH  13  14
ATOM     14  C   UNL A   1      41.247  26.409  28.263  1.00  0.00     0.031 A 
ATOM     15  C   UNL A   1      42.636  26.718  27.785  1.00  0.00     0.074 A 
ATOM     16  C   UNL A   1      40.497  27.340  28.891  1.00  0.00     0.049 A 
ATOM     17  N   UNL A   1      43.364  27.778  27.996  1.00  0.00    -0.248 NA
ATOM     18  C   UNL A   1      43.300  25.695  26.953  1.00  0.00     0.031 C 
ATOM     19  C   UNL A   1      39.109  27.156  29.328  1.00  0.00     0.029 A 
ATOM     20  N   UNL A   1      40.773  28.637  29.231  1.00  0.00    -0.354 N 
ATOM     21  C   UNL A   1      44.583  27.522  27.383  1.00  0.00     0.074 A 
ATOM     22  C   UNL A   1      44.511  26.203  26.804  1.00  0.00     0.031 C 
ATOM     23  C   UNL A   1      38.641  28.308  29.832  1.00  0.00     0.029 A 
ATOM     24  C   UNL A   1      39.718  29.288  29.833  1.00  0.00     0.049 A 
ATOM     25  H   UNL A   1      41.644  29.065  29.060  1.00  0.00     0.167 HD
ATOM     26  C   UNL A   1      45.664  28.327  27.290  1.00  0.00     0.034 A 
ATOM     27  C   UNL A   1      39.649  30.528  30.355  1.00  0.00     0.034 A 
ATOM     28  C   UNL A   1      45.698  29.654  27.831  1.00  0.00     0.049 A 
ATOM     29  C   UNL A   1      40.879  31.389  30.265  1.00  0.00     0.074 A 
ATOM     30  C   UNL A   1      46.744  30.554  27.844  1.00  0.00     0.029 A 
ATOM     31  N   UNL A   1      44.619  30.272  28.448  1.00  0.00    -0.354 N 
ATOM     32  N   UNL A   1      42.027  31.128  29.683  1.00  0.00    -0.248 NA
ATOM     33  C   UNL A   1      40.807  32.717  30.886  1.00  0.00     0.031 C 
ATOM     34  C   UNL A   1      46.302  31.715  28.488  1.00  0.00     0.029 A 
ATOM     35  C   UNL A   1      44.970  31.547  28.844  1.00  0.00     0.049 A 
ATOM     36  H   UNL A   1      43.734  29.863  28.581  1.00  0.00     0.167 HD
ATOM     37  C   UNL A   1      42.808  32.263  29.856  1.00  0.00     0.074 A 
ATOM     38  C   UNL A   1      41.984  33.229  30.556  1.00  0.00     0.031 C 
ATOM     39  C   UNL A   1      44.097  32.487  29.497  1.00  0.00     0.034 A 
BRANCH  26  40
ATOM     40  C   UNL A   1      46.876  27.771  26.596  1.00  0.00     0.023 A 
ATOM     41  C   UNL A   1      47.886  27.127  27.340  1.00  0.00     0.012 A 
ATOM     42  C   UNL A   1      47.028  27.918  25.205  1.00  0.00     0.148 A 
ATOM     43  C   UNL A   1      49.047  26.671  26.715  1.00  0.00     0.002 A 
ATOM     44  C   UNL A   1      48.166  27.421  24.582  1.00  0.00     0.091 A 
ATOM     45  F   UNL A   1      46.070  28.560  24.523  1.00  0.00    -0.205 F 
ATOM     46  C   UNL A   1      49.183  26.812  25.337  1.00  0.00     0.022 A 
BRANCH  44  47
ATOM     47  S   UNL A   1      48.415  27.500  22.806  1.00  0.00     0.127 S 
ATOM     48  O   UNL A   1      48.393  26.085  22.440  1.00  0.00    -0.237 OA
ATOM     49  O   UNL A   1      47.248  28.263  22.370  1.00  0.00    -0.237 OA
ATOM     50  O   UNL A   1      49.696  28.169  22.607  1.00  0.00    -0.744 OA
ENDBRANCH  44  47
ENDBRANCH  26  40
BRANCH  27  51
ATOM     51  C   UNL A   1      38.407  31.011  31.029  1.00  0.00     0.023 A 
ATOM     52  C   UNL A   1      38.209  30.785  32.405  1.00  0.00     0.012 A 
ATOM     53  C   UNL A   1      37.402  31.678  30.300  1.00  0.00     0.148 A 
ATOM     54  C   UNL A   1      37.020  31.174  33.030  1.00  0.00     0.002 A 
ATOM     55  C   UNL A   1      36.247  32.115  30.939  1.00  0.00     0.091 A 
ATOM     56  F   UNL A   1      37.589  31.868  28.986  1.00  0.00    -0.205 F 
ATOM     57  C   UNL A   1      36.045  31.846  32.300  1.00  0.00     0.022 A 
BRANCH  55  58
ATOM     58  S   UNL A   1      34.999  33.089  30.092  1.00  0.00     0.127 S 
ATOM     59  O   UNL A   1      34.434  32.109  29.168  1.00  0.00    -0.237 OA
ATOM     60  O   UNL A   1      34.116  33.478  31.193  1.00  0.00    -0.237 OA
ATOM     61  O   UNL A   1      35.721  34.198  29.483  1.00  0.00    -0.744 OA
ENDBRANCH  55  58
ENDBRANCH  27  51
BRANCH  39  62
ATOM     62  C   UNL A   1      44.669  33.835  29.828  1.00  0.00     0.023 A 
ATOM     63  C   UNL A   1      45.364  34.024  31.039  1.00  0.00     0.012 A 
ATOM     64  C   UNL A   1      44.575  34.892  28.903  1.00  0.00     0.148 A 
ATOM     65  C   UNL A   1      45.925  35.262  31.342  1.00  0.00     0.002 A 
ATOM     66  C   UNL A   1      45.185  36.105  29.188  1.00  0.00     0.091 A 
ATOM     67  F   UNL A   1      43.890  34.691  27.768  1.00  0.00    -0.205 F 
ATOM     68  C   UNL A   1      45.846  36.297  30.412  1.00  0.00     0.022 A 
BRANCH  66  69
ATOM     69  S   UNL A   1      45.229  37.450  28.001  1.00  0.00     0.127 S 
ATOM     70  O   UNL A   1      46.017  38.452  28.718  1.00  0.00    -0.237 OA
ATOM     71  O   UNL A   1      45.911  36.836  26.862  1.00  0.00    -0.237 OA
ATOM     72  O   UNL A   1      43.839  37.808  27.750  1.00  0.00    -0.744 OA
ENDBRANCH  66  69
ENDBRANCH  39  62
ENDBRANCH  13  14
ENDBRANCH   6   8
ENDBRANCH   5   6
ENDBRANCH   4   5
ENDBRANCH   3   4
ENDBRANCH   2   3
ENDBRANCH   1   2
BRANCH   1  73
ATOM     73  C   UNL A   1      32.351  19.906  23.905  1.00  0.00     0.188 C 
BRANCH  73  74
ATOM     74  O   UNL A   1      32.543  20.859  22.865  1.00  0.00    -0.376 OA
BRANCH  74  75
ATOM     75  C   UNL A   1      31.971  22.153  23.053  1.00  0.00     0.202 C 
BRANCH  75  76
ATOM     76  C   UNL A   1      32.319  22.916  24.343  1.00  0.00     0.261 C 
BRANCH  76  77
ATOM     77  O   UNL A   1      31.289  22.913  25.349  1.00  0.00    -0.459 OA
BRANCH  77  78
ATOM     78  C   UNL A   1      31.274  23.975  26.220  1.00  0.00     0.380 C 
ATOM     79  O   UNL A   1      31.492  23.866  27.423  1.00  0.00    -0.245 OA
BRANCH  78  80
ATOM     80  C   UNL A   1      30.946  25.294  25.498  1.00  0.00     0.372 C 
ATOM     81  F   UNL A   1      30.315  25.070  24.308  1.00  0.00    -0.190 F 
ATOM     82  F   UNL A   1      30.035  26.011  26.229  1.00  0.00    -0.190 F 
BRANCH  80  83
ATOM     83  C   UNL A   1      32.239  26.172  25.308  1.00  0.00     0.227 C 
BRANCH  83  84
ATOM     84  C   UNL A   1      32.215  27.652  25.680  1.00  0.00    -0.009 A 
ATOM     85  C   UNL A   1      33.149  28.094  26.648  1.00  0.00     0.007 A 
ATOM     86  C   UNL A   1      31.413  28.629  25.021  1.00  0.00    -0.039 A 
ATOM     87  C   UNL A   1      33.222  29.424  27.054  1.00  0.00     0.000 A 
ATOM     88  C   UNL A   1      31.474  29.956  25.530  1.00  0.00     0.004 A 
ATOM     89  C   UNL A   1      32.350  30.353  26.533  1.00  0.00     0.000 A 
BRANCH  86  90
ATOM     90  C   UNL A   1      30.542  28.493  23.773  1.00  0.00     0.019 C 
ATOM     91  C   UNL A   1      29.793  29.580  23.060  1.00  0.00     0.009 C 
ATOM     92  C   UNL A   1      31.010  28.959  22.425  1.00  0.00     0.009 C 
ENDBRANCH  86  90
ENDBRANCH  83  84
BRANCH  83  93
ATOM     93  O   UNL A   1      33.391  25.644  25.988  1.00  0.00    -0.381 OA
ATOM     94  H   UNL A   1      33.863  25.033  25.401  1.00  0.00     0.211 HD
ENDBRANCH  83  93
ENDBRANCH  80  83
ENDBRANCH  78  80
ENDBRANCH  77  78
ENDBRANCH  76  77
ENDBRANCH  75  76
ENDBRANCH  74  75
ENDBRANCH  73  74
ENDBRANCH   1  73
TORSDOF 24
ENDMDL
MODEL 2
REMARK VINA RESULT:     -10.1      1.594      2.615
REMARK SMILES O=C(OCCOCCOCCOC(=O)C(F)(F)[C@H](O)c1ccccc1C1CC1)c1ccc(-c2c3nc(c(-c4cccc(S(=O)(=O)[O-])c4F)c4ccc([nH]4)c(-c4cccc(S(=O)(=O)[O-])c4F)c4nc(c(-c5cccc(S(=O)(=O)[O-])c5F)c5ccc2[nH]5)C=C4)C=C3)cc1
REMARK SMILES IDX 7 1 6 2 5 3 4 4 3 5 2 6 1 7 29 8 30 9 91 10 31 11 90 12
REMARK SMILES IDX 32 13 33 14 34 15 84 16 35 17 89 18 83 19 85 20 36 21 88 22
REMARK SMILES IDX 82 23 81 24 37 26 69 27 49 28 68 29 50 30 53 31 67 32 86 33
REMARK SMILES IDX 51 34 52 35 66 37 87 38 54 39 38 40 39 41 47 42 40 43 42 44
REMARK SMILES IDX 48 45 41 46 43 47 44 48 45 49 46 50 70 51 71 52 79 53 72 54
REMARK SMILES IDX 74 55 80 56 73 57 75 58 76 59 77 60 78 61 55 62 56 63 64 64
REMARK SMILES IDX 57 65 59 66 65 67 58 68 60 69 61 70 62 71 63 72 8 73 9 74
REMARK SMILES IDX 10 75 11 76 12 77 13 78 14 79 15 80 16 81 17 82 18 83 20 84
REMARK SMILES IDX 21 85 25 86 22 87 24 88 23 89 26 90 27 91 28 92 19 93
REMARK H PARENT 85 25 53 36 19 94
REMARK Flexibility Score: inf
ROOT
ATOM      1  C   UNL A   1      37.202  22.478  25.618  1.00  0.00     0.188 C 
ENDROOT
BRANCH   1   2
ATOM      2  O   UNL A   1      38.463  21.828  25.529  1.00  0.00    -0.376 OA
BRANCH   2   3
ATOM      3  C   UNL A   1      38.512  20.484  25.046  1.00  0.00     0.202 C 
BRANCH   3   4
ATOM      4  C   UNL A   1      39.343  19.395  25.764  1.00  0.00     0.261 C 
BRANCH   4   5
ATOM      5  O   UNL A   1      40.738  19.292  25.412  1.00  0.00    -0.460 OA
BRANCH   5   6
ATOM      6  C   UNL A   1      41.816  19.668  26.144  1.00  0.00     0.338 C 
ATOM      7  O   UNL A   1      42.625  18.822  26.514  1.00  0.00    -0.246 OA
BRANCH   6   8
ATOM      8  C   UNL A   1      41.995  21.079  26.577  1.00  0.00     0.060 A 
ATOM      9  C   UNL A   1      41.851  22.152  25.713  1.00  0.00     0.016 A 
ATOM     10  C   UNL A   1      42.196  21.360  27.934  1.00  0.00     0.016 A 
ATOM     11  C   UNL A   1      42.112  23.448  26.106  1.00  0.00     0.010 A 
ATOM     12  C   UNL A   1      42.284  22.685  28.377  1.00  0.00     0.010 A 
ATOM     13  C   UNL A   1      42.323  23.734  27.448  1.00  0.00    -0.014 A 
BRANCH  13  14
ATOM     14  C   UNL A   1      42.735  25.111  27.794  1.00  0.00     0.031 A 
ATOM     15  C   UNL A   1      44.099  25.568  27.363  1.00  0.00     0.074 A 
ATOM     16  C   UNL A   1      41.843  25.972  28.328  1.00  0.00     0.049 A 
ATOM     17  N   UNL A   1      44.677  26.722  27.542  1.00  0.00    -0.248 NA
ATOM     18  C   UNL A   1      44.929  24.593  26.628  1.00  0.00     0.031 C 
ATOM     19  C   UNL A   1      40.467  25.637  28.710  1.00  0.00     0.029 A 
ATOM     20  N   UNL A   1      41.936  27.311  28.600  1.00  0.00    -0.354 N 
ATOM     21  C   UNL A   1      45.950  26.590  27.003  1.00  0.00     0.074 A 
ATOM     22  C   UNL A   1      46.073  25.243  26.504  1.00  0.00     0.031 C 
ATOM     23  C   UNL A   1      39.833  26.746  29.120  1.00  0.00     0.029 A 
ATOM     24  C   UNL A   1      40.778  27.854  29.111  1.00  0.00     0.049 A 
ATOM     25  H   UNL A   1      42.755  27.836  28.444  1.00  0.00     0.167 HD
ATOM     26  C   UNL A   1      46.925  27.520  26.912  1.00  0.00     0.034 A 
ATOM     27  C   UNL A   1      40.526  29.102  29.552  1.00  0.00     0.034 A 
ATOM     28  C   UNL A   1      46.764  28.868  27.370  1.00  0.00     0.049 A 
ATOM     29  C   UNL A   1      41.642  30.106  29.466  1.00  0.00     0.074 A 
ATOM     30  C   UNL A   1      47.687  29.894  27.376  1.00  0.00     0.029 A 
ATOM     31  N   UNL A   1      45.584  29.377  27.897  1.00  0.00    -0.354 N 
ATOM     32  N   UNL A   1      42.844  29.962  28.956  1.00  0.00    -0.248 NA
ATOM     33  C   UNL A   1      41.371  31.447  30.000  1.00  0.00     0.031 C 
ATOM     34  C   UNL A   1      47.070  31.023  27.927  1.00  0.00     0.029 A 
ATOM     35  C   UNL A   1      45.753  30.706  28.230  1.00  0.00     0.049 A 
ATOM     36  H   UNL A   1      44.752  28.866  28.014  1.00  0.00     0.167 HD
ATOM     37  C   UNL A   1      43.466  31.195  29.094  1.00  0.00     0.074 A 
ATOM     38  C   UNL A   1      42.492  32.086  29.695  1.00  0.00     0.031 C 
ATOM     39  C   UNL A   1      44.735  31.562  28.782  1.00  0.00     0.034 A 
BRANCH  26  40
ATOM     40  C   UNL A   1      48.233  27.087  26.310  1.00  0.00     0.023 A 
ATOM     41  C   UNL A   1      49.197  26.433  27.105  1.00  0.00     0.012 A 
ATOM     42  C   UNL A   1      48.518  27.357  24.959  1.00  0.00     0.148 A 
ATOM     43  C   UNL A   1      50.440  26.090  26.574  1.00  0.00     0.002 A 
ATOM     44  C   UNL A   1      49.741  26.972  24.425  1.00  0.00     0.091 A 
ATOM     45  F   UNL A   1      47.599  28.006  24.230  1.00  0.00    -0.205 F 
ATOM     46  C   UNL A   1      50.709  26.353  25.234  1.00  0.00     0.022 A 
BRANCH  44  47
ATOM     47  S   UNL A   1      50.167  27.213  22.697  1.00  0.00     0.127 S 
ATOM     48  O   UNL A   1      49.100  26.477  22.023  1.00  0.00    -0.237 OA
ATOM     49  O   UNL A   1      50.085  28.666  22.566  1.00  0.00    -0.237 OA
ATOM     50  O   UNL A   1      51.504  26.654  22.529  1.00  0.00    -0.744 OA
ENDBRANCH  44  47
ENDBRANCH  26  40
BRANCH  27  51
ATOM     51  C   UNL A   1      39.199  29.459  30.136  1.00  0.00     0.023 A 
ATOM     52  C   UNL A   1      38.864  29.054  31.443  1.00  0.00     0.012 A 
ATOM     53  C   UNL A   1      38.251  30.184  29.387  1.00  0.00     0.148 A 
ATOM     54  C   UNL A   1      37.599  29.326  31.974  1.00  0.00     0.002 A 
ATOM     55  C   UNL A   1      37.016  30.502  29.941  1.00  0.00     0.091 A 
ATOM     56  F   UNL A   1      38.570  30.544  28.136  1.00  0.00    -0.205 F 
ATOM     57  C   UNL A   1      36.680  30.057  31.227  1.00  0.00     0.022 A 
BRANCH  55  58
ATOM     58  S   UNL A   1      35.825  31.540  29.085  1.00  0.00     0.127 S 
ATOM     59  O   UNL A   1      34.888  31.862  30.158  1.00  0.00    -0.237 OA
ATOM     60  O   UNL A   1      36.659  32.656  28.639  1.00  0.00    -0.237 OA
ATOM     61  O   UNL A   1      35.299  30.715  28.006  1.00  0.00    -0.744 OA
ENDBRANCH  55  58
ENDBRANCH  27  51
BRANCH  39  62
ATOM     62  C   UNL A   1      45.116  32.989  29.056  1.00  0.00     0.023 A 
ATOM     63  C   UNL A   1      45.740  33.326  30.273  1.00  0.00     0.012 A 
ATOM     64  C   UNL A   1      44.916  33.976  28.074  1.00  0.00     0.148 A 
ATOM     65  C   UNL A   1      46.125  34.641  30.524  1.00  0.00     0.002 A 
ATOM     66  C   UNL A   1      45.354  35.272  28.310  1.00  0.00     0.091 A 
ATOM     67  F   UNL A   1      44.301  33.632  26.933  1.00  0.00    -0.205 F 
ATOM     68  C   UNL A   1      45.943  35.609  29.539  1.00  0.00     0.022 A 
BRANCH  66  69
ATOM     69  S   UNL A   1      45.262  36.551  27.054  1.00  0.00     0.127 S 
ATOM     70  O   UNL A   1      43.876  36.426  26.605  1.00  0.00    -0.237 OA
ATOM     71  O   UNL A   1      45.550  37.762  27.823  1.00  0.00    -0.237 OA
ATOM     72  O   UNL A   1      46.276  36.211  26.063  1.00  0.00    -0.744 OA
ENDBRANCH  66  69
ENDBRANCH  39  62
ENDBRANCH  13  14
ENDBRANCH   6   8
ENDBRANCH   5   6
ENDBRANCH   4   5
ENDBRANCH   3   4
ENDBRANCH   2   3
ENDBRANCH   1   2
BRANCH   1  73
ATOM     73  C   UNL A   1      36.033  21.663  25.053  1.00  0.00     0.188 C 
BRANCH  73  74
ATOM     74  O   UNL A   1      35.186  21.003  25.989  1.00  0.00    -0.376 OA
BRANCH  74  75
ATOM     75  C   UNL A   1      33.781  21.217  25.860  1.00  0.00     0.202 C 
BRANCH  75  76
ATOM     76  C   UNL A   1      33.270  21.915  24.587  1.00  0.00     0.261 C 
BRANCH  76  77
ATOM     77  O   UNL A   1      32.722  23.230  24.792  1.00  0.00    -0.459 OA
BRANCH  77  78
ATOM     78  C   UNL A   1      31.355  23.346  24.726  1.00  0.00     0.380 C 
ATOM     79  O   UNL A   1      30.730  23.386  23.671  1.00  0.00    -0.245 OA
BRANCH  78  80
ATOM     80  C   UNL A   1      30.726  23.425  26.129  1.00  0.00     0.372 C 
ATOM     81  F   UNL A   1      29.755  22.479  26.296  1.00  0.00    -0.190 F 
ATOM     82  F   UNL A   1      31.664  23.112  27.078  1.00  0.00    -0.190 F 
BRANCH  80  83
ATOM     83  C   UNL A   1      30.178  24.871  26.423  1.00  0.00     0.227 C 
BRANCH  83  84
ATOM     84  C   UNL A   1      30.349  25.975  25.383  1.00  0.00    -0.009 A 
ATOM     85  C   UNL A   1      29.262  26.220  24.510  1.00  0.00     0.007 A 
ATOM     86  C   UNL A   1      31.469  26.855  25.328  1.00  0.00    -0.039 A 
ATOM     87  C   UNL A   1      29.305  27.210  23.531  1.00  0.00     0.000 A 
ATOM     88  C   UNL A   1      31.493  27.796  24.261  1.00  0.00     0.004 A 
ATOM     89  C   UNL A   1      30.442  27.969  23.369  1.00  0.00     0.000 A 
BRANCH  86  90
ATOM     90  C   UNL A   1      32.634  27.010  26.304  1.00  0.00     0.019 C 
ATOM     91  C   UNL A   1      33.798  27.950  26.195  1.00  0.00     0.009 C 
ATOM     92  C   UNL A   1      32.736  28.181  27.239  1.00  0.00     0.009 C 
ENDBRANCH  86  90
ENDBRANCH  83  84
BRANCH  83  93
ATOM     93  O   UNL A   1      28.778  24.894  26.750  1.00  0.00    -0.381 OA
ATOM     94  H   UNL A   1      28.333  25.577  26.225  1.00  0.00     0.211 HD
ENDBRANCH  83  93
ENDBRANCH  80  83
ENDBRANCH  78  80
ENDBRANCH  77  78
ENDBRANCH  76  77
ENDBRANCH  75  76
ENDBRANCH  74  75
ENDBRANCH  73  74
ENDBRANCH   1  73
TORSDOF 24
ENDMDL
MODEL 3
REMARK VINA RESULT:     -10.0      1.803      2.130
REMARK SMILES O=C(OCCOCCOCCOC(=O)C(F)(F)[C@H](O)c1ccccc1C1CC1)c1ccc(-c2c3nc(c(-c4cccc(S(=O)(=O)[O-])c4F)c4ccc([nH]4)c(-c4cccc(S(=O)(=O)[O-])c4F)c4nc(c(-c5cccc(S(=O)(=O)[O-])c5F)c5ccc2[nH]5)C=C4)C=C3)cc1
REMARK SMILES IDX 7 1 6 2 5 3 4 4 3 5 2 6 1 7 29 8 30 9 91 10 31 11 90 12
REMARK SMILES IDX 32 13 33 14 34 15 84 16 35 17 89 18 83 19 85 20 36 21 88 22
REMARK SMILES IDX 82 23 81 24 37 26 69 27 49 28 68 29 50 30 53 31 67 32 86 33
REMARK SMILES IDX 51 34 52 35 66 37 87 38 54 39 38 40 39 41 47 42 40 43 42 44
REMARK SMILES IDX 48 45 41 46 43 47 44 48 45 49 46 50 70 51 71 52 79 53 72 54
REMARK SMILES IDX 74 55 80 56 73 57 75 58 76 59 77 60 78 61 55 62 56 63 64 64
REMARK SMILES IDX 57 65 59 66 65 67 58 68 60 69 61 70 62 71 63 72 8 73 9 74
REMARK SMILES IDX 10 75 11 76 12 77 13 78 14 79 15 80 16 81 17 82 18 83 20 84
REMARK SMILES IDX 21 85 25 86 22 87 24 88 23 89 26 90 27 91 28 92 19 93
REMARK H PARENT 85 25 53 36 19 94
REMARK Flexibility Score: inf
ROOT
ATOM      1  C   UNL A   1      33.409  19.404  24.719  1.00  0.00     0.188 C 
ENDROOT
BRANCH   1   2
ATOM      2  O   UNL A   1      34.249  20.317  25.413  1.00  0.00    -0.376 OA
BRANCH   2   3
ATOM      3  C   UNL A   1      35.568  20.552  24.917  1.00  0.00     0.202 C 
BRANCH   3   4
ATOM      4  C   UNL A   1      36.582  21.425  25.694  1.00  0.00     0.261 C 
BRANCH   4   5
ATOM      5  O   UNL A   1      37.937  21.457  25.200  1.00  0.00    -0.460 OA
BRANCH   5   6
ATOM      6  C   UNL A   1      39.089  21.441  25.915  1.00  0.00     0.338 C 
ATOM      7  O   UNL A   1      39.675  20.378  26.102  1.00  0.00    -0.246 OA
BRANCH   6   8
ATOM      8  C   UNL A   1      39.616  22.679  26.548  1.00  0.00     0.060 A 
ATOM      9  C   UNL A   1      38.972  23.902  26.454  1.00  0.00     0.016 A 
ATOM     10  C   UNL A   1      40.740  22.598  27.380  1.00  0.00     0.016 A 
ATOM     11  C   UNL A   1      39.520  25.058  26.966  1.00  0.00     0.010 A 
ATOM     12  C   UNL A   1      41.205  23.735  28.053  1.00  0.00     0.010 A 
ATOM     13  C   UNL A   1      40.641  24.989  27.782  1.00  0.00    -0.014 A 
BRANCH  13  14
ATOM     14  C   UNL A   1      41.268  26.266  28.189  1.00  0.00     0.031 A 
ATOM     15  C   UNL A   1      42.650  26.565  27.682  1.00  0.00     0.074 A 
ATOM     16  C   UNL A   1      40.546  27.196  28.850  1.00  0.00     0.049 A 
ATOM     17  N   UNL A   1      43.396  27.612  27.894  1.00  0.00    -0.248 NA
ATOM     18  C   UNL A   1      43.280  25.548  26.818  1.00  0.00     0.031 C 
ATOM     19  C   UNL A   1      39.167  27.022  29.318  1.00  0.00     0.029 A 
ATOM     20  N   UNL A   1      40.848  28.483  29.205  1.00  0.00    -0.354 N 
ATOM     21  C   UNL A   1      44.597  27.350  27.246  1.00  0.00     0.074 A 
ATOM     22  C   UNL A   1      44.493  26.042  26.648  1.00  0.00     0.031 C 
ATOM     23  C   UNL A   1      38.727  28.171  29.852  1.00  0.00     0.029 A 
ATOM     24  C   UNL A   1      39.816  29.137  29.844  1.00  0.00     0.049 A 
ATOM     25  H   UNL A   1      41.720  28.903  29.021  1.00  0.00     0.167 HD
ATOM     26  C   UNL A   1      45.686  28.143  27.141  1.00  0.00     0.034 A 
ATOM     27  C   UNL A   1      39.776  30.368  30.388  1.00  0.00     0.034 A 
ATOM     28  C   UNL A   1      45.750  29.460  27.703  1.00  0.00     0.049 A 
ATOM     29  C   UNL A   1      41.015  31.215  30.282  1.00  0.00     0.074 A 
ATOM     30  C   UNL A   1      46.808  30.346  27.706  1.00  0.00     0.029 A 
ATOM     31  N   UNL A   1      44.694  30.081  28.356  1.00  0.00    -0.354 N 
ATOM     32  N   UNL A   1      42.145  30.949  29.669  1.00  0.00    -0.248 NA
ATOM     33  C   UNL A   1      40.975  32.533  30.927  1.00  0.00     0.031 C 
ATOM     34  C   UNL A   1      46.397  31.501  28.380  1.00  0.00     0.029 A 
ATOM     35  C   UNL A   1      45.073  31.344  28.765  1.00  0.00     0.049 A 
ATOM     36  H   UNL A   1      43.808  29.681  28.504  1.00  0.00     0.167 HD
ATOM     37  C   UNL A   1      42.945  32.071  29.841  1.00  0.00     0.074 A 
ATOM     38  C   UNL A   1      42.151  33.035  30.578  1.00  0.00     0.031 C 
ATOM     39  C   UNL A   1      44.227  32.284  29.455  1.00  0.00     0.034 A 
BRANCH  26  40
ATOM     40  C   UNL A   1      46.874  27.584  26.409  1.00  0.00     0.023 A 
ATOM     41  C   UNL A   1      46.976  27.728  25.010  1.00  0.00     0.012 A 
ATOM     42  C   UNL A   1      47.876  26.886  27.109  1.00  0.00     0.148 A 
ATOM     43  C   UNL A   1      48.038  27.152  24.314  1.00  0.00     0.002 A 
ATOM     44  C   UNL A   1      48.955  26.355  26.414  1.00  0.00     0.091 A 
ATOM     45  F   UNL A   1      47.743  26.737  28.433  1.00  0.00    -0.205 F 
ATOM     46  C   UNL A   1      49.030  26.473  25.015  1.00  0.00     0.022 A 
BRANCH  44  47
ATOM     47  S   UNL A   1      50.315  25.511  27.228  1.00  0.00     0.127 S 
ATOM     48  O   UNL A   1      50.692  26.477  28.257  1.00  0.00    -0.237 OA
ATOM     49  O   UNL A   1      49.663  24.304  27.731  1.00  0.00    -0.237 OA
ATOM     50  O   UNL A   1      51.322  25.281  26.197  1.00  0.00    -0.744 OA
ENDBRANCH  44  47
ENDBRANCH  26  40
BRANCH  27  51
ATOM     51  C   UNL A   1      38.557  30.856  31.100  1.00  0.00     0.023 A 
ATOM     52  C   UNL A   1      38.420  30.666  32.489  1.00  0.00     0.012 A 
ATOM     53  C   UNL A   1      37.514  31.491  30.396  1.00  0.00     0.148 A 
ATOM     54  C   UNL A   1      37.253  31.059  33.153  1.00  0.00     0.002 A 
ATOM     55  C   UNL A   1      36.381  31.932  31.071  1.00  0.00     0.091 A 
ATOM     56  F   UNL A   1      37.644  31.646  29.071  1.00  0.00    -0.205 F 
ATOM     57  C   UNL A   1      36.239  31.699  32.446  1.00  0.00     0.022 A 
BRANCH  55  58
ATOM     58  S   UNL A   1      35.087  32.868  30.251  1.00  0.00     0.127 S 
ATOM     59  O   UNL A   1      34.152  33.105  31.348  1.00  0.00    -0.237 OA
ATOM     60  O   UNL A   1      35.811  34.054  29.792  1.00  0.00    -0.237 OA
ATOM     61  O   UNL A   1      34.606  32.006  29.179  1.00  0.00    -0.744 OA
ENDBRANCH  55  58
ENDBRANCH  27  51
BRANCH  39  62
ATOM     62  C   UNL A   1      44.825  33.620  29.794  1.00  0.00     0.023 A 
ATOM     63  C   UNL A   1      44.743  34.679  28.870  1.00  0.00     0.012 A 
ATOM     64  C   UNL A   1      45.406  33.836  31.057  1.00  0.00     0.148 A 
ATOM     65  C   UNL A   1      45.268  35.930  29.186  1.00  0.00     0.002 A 
ATOM     66  C   UNL A   1      45.875  35.100  31.386  1.00  0.00     0.091 A 
ATOM     67  F   UNL A   1      45.490  32.805  31.910  1.00  0.00    -0.205 F 
ATOM     68  C   UNL A   1      45.822  36.143  30.447  1.00  0.00     0.022 A 
BRANCH  66  69
ATOM     69  S   UNL A   1      46.498  35.489  33.023  1.00  0.00     0.127 S 
ATOM     70  O   UNL A   1      46.818  36.909  32.889  1.00  0.00    -0.237 OA
ATOM     71  O   UNL A   1      45.341  35.200  33.872  1.00  0.00    -0.237 OA
ATOM     72  O   UNL A   1      47.637  34.606  33.238  1.00  0.00    -0.744 OA
ENDBRANCH  66  69
ENDBRANCH  39  62
ENDBRANCH  13  14
ENDBRANCH   6   8
ENDBRANCH   5   6
ENDBRANCH   4   5
ENDBRANCH   3   4
ENDBRANCH   2   3
ENDBRANCH   1   2
BRANCH   1  73
ATOM     73  C   UNL A   1      32.199  20.055  24.039  1.00  0.00     0.188 C 
BRANCH  73  74
ATOM     74  O   UNL A   1      32.460  20.953  22.964  1.00  0.00    -0.376 OA
BRANCH  74  75
ATOM     75  C   UNL A   1      31.902  22.263  23.060  1.00  0.00     0.202 C 
BRANCH  75  76
ATOM     76  C   UNL A   1      32.307  23.134  24.261  1.00  0.00     0.261 C 
BRANCH  76  77
ATOM     77  O   UNL A   1      31.681  22.780  25.508  1.00  0.00    -0.459 OA
BRANCH  77  78
ATOM     78  C   UNL A   1      31.413  23.810  26.378  1.00  0.00     0.380 C 
ATOM     79  O   UNL A   1      31.495  23.703  27.598  1.00  0.00    -0.245 OA
BRANCH  78  80
ATOM     80  C   UNL A   1      30.995  25.088  25.630  1.00  0.00     0.372 C 
ATOM     81  F   UNL A   1      30.331  24.796  24.473  1.00  0.00    -0.190 F 
ATOM     82  F   UNL A   1      30.079  25.784  26.374  1.00  0.00    -0.190 F 
BRANCH  80  83
ATOM     83  C   UNL A   1      32.236  26.018  25.362  1.00  0.00     0.227 C 
BRANCH  83  84
ATOM     84  C   UNL A   1      32.153  27.508  25.683  1.00  0.00    -0.009 A 
ATOM     85  C   UNL A   1      32.989  27.998  26.714  1.00  0.00     0.007 A 
ATOM     86  C   UNL A   1      31.397  28.448  24.923  1.00  0.00    -0.039 A 
ATOM     87  C   UNL A   1      33.002  29.341  27.082  1.00  0.00     0.000 A 
ATOM     88  C   UNL A   1      31.390  29.791  25.392  1.00  0.00     0.004 A 
ATOM     89  C   UNL A   1      32.164  30.236  26.456  1.00  0.00     0.000 A 
BRANCH  86  90
ATOM     90  C   UNL A   1      30.645  28.256  23.608  1.00  0.00     0.019 C 
ATOM     91  C   UNL A   1      29.440  29.010  23.127  1.00  0.00     0.009 C 
ATOM     92  C   UNL A   1      30.778  29.225  22.468  1.00  0.00     0.009 C 
ENDBRANCH  86  90
ENDBRANCH  83  84
BRANCH  83  93
ATOM     93  O   UNL A   1      33.435  25.571  26.018  1.00  0.00    -0.381 OA
ATOM     94  H   UNL A   1      34.135  26.232  25.901  1.00  0.00     0.211 HD
ENDBRANCH  83  93
ENDBRANCH  80  83
ENDBRANCH  78  80
ENDBRANCH  77  78
ENDBRANCH  76  77
ENDBRANCH  75  76
ENDBRANCH  74  75
ENDBRANCH  73  74
ENDBRANCH   1  73
TORSDOF 24
ENDMDL
