MODEL 1
REMARK VINA RESULT:     -11.3      0.000      0.000
REMARK SMILES Cc1ccccc1Nc1nc2c(c(=O)[nH]c(=O)n2C)n1CC(=O)OCCOCCOCCOC(=O)c1ccc(-c2c3nc(c(-c4cccc(S(=O)(=O)[O-])c4F)c4ccc([nH]4)c(-c4cccc(S(=O)(=O)[O-])c4F)c4nc(c(-c5cccc(S(=O)(=O)[O-])c5F)c5ccc2[nH]5)C=C4)C=C3)cc1
REMARK SMILES IDX 28 1 27 2 26 3 25 4 24 5 22 6 23 7 21 8 20 9 9 10 10 11
REMARK SMILES IDX 11 12 12 13 18 14 13 15 16 16 19 17 14 18 15 19 17 20 8 22
REMARK SMILES IDX 7 24 1 25 2 26 3 27 4 28 6 29 5 30 29 31 30 32 31 33 32 34
REMARK SMILES IDX 33 35 34 36 35 37 36 38 37 39 98 40 38 41 97 42 39 43 40 44
REMARK SMILES IDX 41 45 91 46 42 47 96 48 90 49 92 50 43 51 95 52 89 53 88 54
REMARK SMILES IDX 44 56 76 57 56 58 75 59 57 60 60 61 74 62 93 63 58 64 59 65
REMARK SMILES IDX 73 67 94 68 61 69 45 70 46 71 54 72 47 73 49 74 55 75 48 76
REMARK SMILES IDX 50 77 51 78 52 79 53 80 77 81 78 82 86 83 79 84 81 85 87 86
REMARK SMILES IDX 80 87 82 88 83 89 84 90 85 91 62 92 63 93 71 94 64 95 66 96
REMARK SMILES IDX 72 97 65 98 67 99 68 100 69 101 70 102
REMARK H PARENT 15 21 8 23 92 55 60 66
REMARK Flexibility Score: inf
ROOT
ATOM      1  C   UNL A   1      35.327  32.581  30.068  1.00  0.00     0.188 C 
ENDROOT
BRANCH   1   2
ATOM      2  O   UNL A   1      34.029  32.691  29.561  1.00  0.00    -0.376 OA
BRANCH   2   3
ATOM      3  C   UNL A   1      34.026  32.215  28.269  1.00  0.00     0.202 C 
BRANCH   3   4
ATOM      4  C   UNL A   1      34.661  30.847  28.182  1.00  0.00     0.261 C 
BRANCH   4   5
ATOM      5  O   UNL A   1      33.939  29.512  27.148  1.00  0.00    -0.462 OA
BRANCH   5   6
ATOM      6  C   UNL A   1      33.187  28.200  26.976  1.00  0.00     0.326 C 
ATOM      7  O   UNL A   1      32.021  28.181  27.348  1.00  0.00    -0.250 OA
BRANCH   6   8
ATOM      8  C   UNL A   1      33.702  27.009  26.136  1.00  0.00     0.248 C 
BRANCH   8   9
ATOM      9  N   UNL A   1      32.443  26.334  25.453  1.00  0.00    -0.293 N 
ATOM     10  C   UNL A   1      32.394  27.185  23.720  1.00  0.00     0.210 A 
ATOM     11  N   UNL A   1      33.259  26.076  22.638  1.00  0.00    -0.194 NA
ATOM     12  C   UNL A   1      33.445  24.164  23.548  1.00  0.00     0.170 A 
ATOM     13  C   UNL A   1      32.902  24.473  25.297  1.00  0.00     0.154 A 
ATOM     14  N   UNL A   1      33.178  22.770  23.250  1.00  0.00    -0.279 N 
ATOM     15  C   UNL A   1      33.634  23.523  26.143  1.00  0.00     0.279 A 
ATOM     16  C   UNL A   1      33.606  21.858  24.231  1.00  0.00     0.329 A 
ATOM     17  C   UNL A   1      32.076  22.238  22.431  1.00  0.00     0.157 C 
ATOM     18  O   UNL A   1      33.967  23.680  27.312  1.00  0.00    -0.267 OA
ATOM     19  N   UNL A   1      34.025  22.361  25.451  1.00  0.00    -0.272 N 
ATOM     20  O   UNL A   1      33.535  20.633  24.086  1.00  0.00    -0.248 OA
ATOM     21  H   UNL A   1      34.706  21.817  25.909  1.00  0.00     0.175 HD
BRANCH  10  22
ATOM     22  N   UNL A   1      31.529  28.351  23.315  1.00  0.00    -0.325 N 
ATOM     23  H   UNL A   1      31.982  29.180  23.590  1.00  0.00     0.170 HD
BRANCH  22  24
ATOM     24  C   UNL A   1      30.160  28.741  22.610  1.00  0.00     0.044 A 
ATOM     25  C   UNL A   1      28.677  26.983  23.559  1.00  0.00     0.046 C 
ATOM     26  C   UNL A   1      28.943  28.405  23.209  1.00  0.00    -0.027 A 
ATOM     27  C   UNL A   1      27.818  29.336  23.320  1.00  0.00     0.005 A 
ATOM     28  C   UNL A   1      27.842  30.619  22.809  1.00  0.00     0.000 A 
ATOM     29  C   UNL A   1      29.828  29.760  21.679  1.00  0.00     0.026 A 
ATOM     30  C   UNL A   1      28.783  30.786  21.835  1.00  0.00     0.002 A 
ENDBRANCH  22  24
ENDBRANCH  10  22
ENDBRANCH   8   9
ENDBRANCH   6   8
ENDBRANCH   5   6
ENDBRANCH   4   5
ENDBRANCH   3   4
ENDBRANCH   2   3
ENDBRANCH   1   2
BRANCH   1  31
ATOM     31  C   UNL A   1      35.576  32.357  31.637  1.00  0.00     0.188 C 
BRANCH  31  32
ATOM     32  O   UNL A   1      34.525  32.508  32.553  1.00  0.00    -0.376 OA
BRANCH  32  33
ATOM     33  C   UNL A   1      34.627  33.457  33.582  1.00  0.00     0.202 C 
BRANCH  33  34
ATOM     34  C   UNL A   1      35.652  34.605  33.725  1.00  0.00     0.261 C 
BRANCH  34  35
ATOM     35  O   UNL A   1      37.134  34.517  33.709  1.00  0.00    -0.460 OA
BRANCH  35  36
ATOM     36  C   UNL A   1      38.372  34.583  34.241  1.00  0.00     0.338 C 
ATOM     37  O   UNL A   1      38.654  35.568  34.932  1.00  0.00    -0.246 OA
BRANCH  36  38
ATOM     38  C   UNL A   1      39.495  33.605  33.989  1.00  0.00     0.060 A 
ATOM     39  C   UNL A   1      41.000  34.454  34.076  1.00  0.00     0.016 A 
ATOM     40  C   UNL A   1      39.369  32.564  32.650  1.00  0.00     0.016 A 
ATOM     41  C   UNL A   1      42.085  34.302  32.294  1.00  0.00     0.010 A 
ATOM     42  C   UNL A   1      40.459  32.471  31.287  1.00  0.00     0.010 A 
ATOM     43  C   UNL A   1      41.799  33.401  31.013  1.00  0.00    -0.014 A 
BRANCH  43  44
ATOM     44  C   UNL A   1      42.757  33.773  29.450  1.00  0.00     0.031 A 
ATOM     45  C   UNL A   1      43.614  32.563  29.445  1.00  0.00     0.074 A 
ATOM     46  C   UNL A   1      43.016  35.051  28.456  1.00  0.00     0.049 A 
ATOM     47  N   UNL A   1      44.862  32.464  29.127  1.00  0.00    -0.248 NA
ATOM     48  C   UNL A   1      43.141  31.279  30.063  1.00  0.00     0.031 C 
ATOM     49  C   UNL A   1      42.811  35.281  26.906  1.00  0.00     0.029 A 
ATOM     50  N   UNL A   1      42.678  36.531  28.575  1.00  0.00    -0.354 N 
ATOM     51  C   UNL A   1      44.855  31.138  28.727  1.00  0.00     0.074 A 
ATOM     52  C   UNL A   1      44.161  30.471  29.780  1.00  0.00     0.031 C 
ATOM     53  C   UNL A   1      42.846  36.600  26.479  1.00  0.00     0.029 A 
ATOM     54  C   UNL A   1      42.859  37.506  27.615  1.00  0.00     0.049 A 
ATOM     55  H   UNL A   1      42.288  36.826  29.430  1.00  0.00     0.167 HD
ATOM     56  C   UNL A   1      44.591  30.928  27.393  1.00  0.00     0.034 A 
ATOM     57  C   UNL A   1      43.602  38.660  27.846  1.00  0.00     0.034 A 
ATOM     58  C   UNL A   1      44.727  32.181  26.591  1.00  0.00     0.049 A 
ATOM     59  C   UNL A   1      44.961  38.161  27.530  1.00  0.00     0.074 A 
ATOM     60  C   UNL A   1      44.004  32.803  25.593  1.00  0.00     0.029 A 
ATOM     61  N   UNL A   1      45.671  33.145  26.985  1.00  0.00    -0.354 N 
ATOM     62  N   UNL A   1      45.174  36.886  27.481  1.00  0.00    -0.248 NA
ATOM     63  C   UNL A   1      46.119  38.967  27.212  1.00  0.00     0.031 C 
ATOM     64  C   UNL A   1      44.642  34.070  25.307  1.00  0.00     0.029 A 
ATOM     65  C   UNL A   1      45.611  34.329  26.277  1.00  0.00     0.049 A 
ATOM     66  H   UNL A   1      46.323  32.989  27.707  1.00  0.00     0.167 HD
ATOM     67  C   UNL A   1      46.316  36.654  26.860  1.00  0.00     0.074 A 
ATOM     68  C   UNL A   1      46.937  37.984  26.801  1.00  0.00     0.031 C 
ATOM     69  C   UNL A   1      46.629  35.375  26.531  1.00  0.00     0.034 A 
BRANCH  56  70
ATOM     70  C   UNL A   1      44.027  29.608  26.845  1.00  0.00     0.023 A 
ATOM     71  C   UNL A   1      42.712  29.677  26.356  1.00  0.00     0.012 A 
ATOM     72  C   UNL A   1      44.672  28.341  26.695  1.00  0.00     0.148 A 
ATOM     73  C   UNL A   1      42.120  28.622  25.653  1.00  0.00     0.002 A 
ATOM     74  C   UNL A   1      44.122  27.325  25.910  1.00  0.00     0.091 A 
ATOM     75  F   UNL A   1      45.771  28.036  27.393  1.00  0.00    -0.205 F 
ATOM     76  C   UNL A   1      42.843  27.469  25.379  1.00  0.00     0.022 A 
BRANCH  74  77
ATOM     77  S   UNL A   1      45.040  25.832  25.459  1.00  0.00     0.127 S 
ATOM     78  O   UNL A   1      44.031  25.049  24.747  1.00  0.00    -0.237 OA
ATOM     79  O   UNL A   1      46.105  26.369  24.611  1.00  0.00    -0.237 OA
ATOM     80  O   UNL A   1      45.505  25.242  26.710  1.00  0.00    -0.744 OA
ENDBRANCH  74  77
ENDBRANCH  56  70
BRANCH  57  81
ATOM     81  C   UNL A   1      43.490  39.607  29.033  1.00  0.00     0.023 A 
ATOM     82  C   UNL A   1      42.497  40.603  29.045  1.00  0.00     0.012 A 
ATOM     83  C   UNL A   1      44.200  39.369  30.249  1.00  0.00     0.148 A 
ATOM     84  C   UNL A   1      42.013  41.056  30.259  1.00  0.00     0.002 A 
ATOM     85  C   UNL A   1      43.603  39.681  31.458  1.00  0.00     0.091 A 
ATOM     86  F   UNL A   1      45.328  38.651  30.227  1.00  0.00    -0.205 F 
ATOM     87  C   UNL A   1      42.400  40.355  31.388  1.00  0.00     0.022 A 
BRANCH  85  88
ATOM     88  S   UNL A   1      43.919  38.753  32.985  1.00  0.00     0.127 S 
ATOM     89  O   UNL A   1      45.238  39.224  33.392  1.00  0.00    -0.237 OA
ATOM     90  O   UNL A   1      42.859  39.206  33.891  1.00  0.00    -0.237 OA
ATOM     91  O   UNL A   1      43.856  37.348  32.612  1.00  0.00    -0.744 OA
ENDBRANCH  85  88
ENDBRANCH  57  81
BRANCH  69  92
ATOM     92  C   UNL A   1      48.057  35.056  26.403  1.00  0.00     0.023 A 
ATOM     93  C   UNL A   1      48.724  35.162  25.171  1.00  0.00     0.012 A 
ATOM     94  C   UNL A   1      48.798  34.727  27.538  1.00  0.00     0.148 A 
ATOM     95  C   UNL A   1      49.990  34.646  25.009  1.00  0.00     0.002 A 
ATOM     96  C   UNL A   1      50.125  34.429  27.407  1.00  0.00     0.091 A 
ATOM     97  F   UNL A   1      48.226  34.674  28.747  1.00  0.00    -0.205 F 
ATOM     98  C   UNL A   1      50.698  34.287  26.140  1.00  0.00     0.022 A 
BRANCH  96  99
ATOM     99  S   UNL A   1      51.164  34.298  28.844  1.00  0.00     0.127 S 
ATOM    100  O   UNL A   1      50.659  33.062  29.439  1.00  0.00    -0.237 OA
ATOM    101  O   UNL A   1      52.489  34.201  28.233  1.00  0.00    -0.237 OA
ATOM    102  O   UNL A   1      50.948  35.505  29.629  1.00  0.00    -0.744 OA
ENDBRANCH  96  99
ENDBRANCH  69  92
ENDBRANCH  43  44
ENDBRANCH  36  38
ENDBRANCH  35  36
ENDBRANCH  34  35
ENDBRANCH  33  34
ENDBRANCH  32  33
ENDBRANCH  31  32
ENDBRANCH   1  31
TORSDOF 23
ENDMDL
MODEL 2
REMARK VINA RESULT:     -11.1      5.220     13.802
REMARK SMILES Cc1ccccc1Nc1nc2c(c(=O)[nH]c(=O)n2C)n1CC(=O)OCCOCCOCCOC(=O)c1ccc(-c2c3nc(c(-c4cccc(S(=O)(=O)[O-])c4F)c4ccc([nH]4)c(-c4cccc(S(=O)(=O)[O-])c4F)c4nc(c(-c5cccc(S(=O)(=O)[O-])c5F)c5ccc2[nH]5)C=C4)C=C3)cc1
REMARK SMILES IDX 28 1 27 2 26 3 25 4 24 5 22 6 23 7 21 8 20 9 9 10 10 11
REMARK SMILES IDX 11 12 12 13 18 14 13 15 16 16 19 17 14 18 15 19 17 20 8 22
REMARK SMILES IDX 7 24 1 25 2 26 3 27 4 28 6 29 5 30 29 31 30 32 31 33 32 34
REMARK SMILES IDX 33 35 34 36 35 37 36 38 37 39 98 40 38 41 97 42 39 43 40 44
REMARK SMILES IDX 41 45 91 46 42 47 96 48 90 49 92 50 43 51 95 52 89 53 88 54
REMARK SMILES IDX 44 56 76 57 56 58 75 59 57 60 60 61 74 62 93 63 58 64 59 65
REMARK SMILES IDX 73 67 94 68 61 69 45 70 46 71 54 72 47 73 49 74 55 75 48 76
REMARK SMILES IDX 50 77 51 78 52 79 53 80 77 81 78 82 86 83 79 84 81 85 87 86
REMARK SMILES IDX 80 87 82 88 83 89 84 90 85 91 62 92 63 93 71 94 64 95 66 96
REMARK SMILES IDX 72 97 65 98 67 99 68 100 69 101 70 102
REMARK H PARENT 15 21 8 23 92 55 60 66
REMARK Flexibility Score: inf
ROOT
ATOM      1  C   UNL A   1      49.200  27.415  31.365  1.00  0.00     0.188 C 
ENDROOT
BRANCH   1   2
ATOM      2  O   UNL A   1      47.949  27.883  30.952  1.00  0.00    -0.376 OA
BRANCH   2   3
ATOM      3  C   UNL A   1      48.120  28.617  29.799  1.00  0.00     0.202 C 
BRANCH   3   4
ATOM      4  C   UNL A   1      46.976  28.408  28.836  1.00  0.00     0.261 C 
BRANCH   4   5
ATOM      5  O   UNL A   1      46.339  29.771  27.783  1.00  0.00    -0.462 OA
BRANCH   5   6
ATOM      6  C   UNL A   1      46.360  30.616  26.517  1.00  0.00     0.326 C 
ATOM      7  O   UNL A   1      46.399  30.013  25.453  1.00  0.00    -0.250 OA
BRANCH   6   8
ATOM      8  C   UNL A   1      46.066  32.134  26.483  1.00  0.00     0.248 C 
BRANCH   8   9
ATOM      9  N   UNL A   1      45.038  32.441  27.648  1.00  0.00    -0.293 N 
ATOM     10  C   UNL A   1      46.198  32.857  29.135  1.00  0.00     0.210 A 
ATOM     11  N   UNL A   1      46.335  34.626  29.132  1.00  0.00    -0.194 NA
ATOM     12  C   UNL A   1      44.801  35.475  27.930  1.00  0.00     0.170 A 
ATOM     13  C   UNL A   1      44.078  34.001  27.063  1.00  0.00     0.154 A 
ATOM     14  N   UNL A   1      43.761  36.482  28.018  1.00  0.00    -0.279 N 
ATOM     15  C   UNL A   1      43.581  34.472  25.764  1.00  0.00     0.279 A 
ATOM     16  C   UNL A   1      43.054  36.715  26.824  1.00  0.00     0.329 A 
ATOM     17  C   UNL A   1      42.980  36.841  29.212  1.00  0.00     0.157 C 
ATOM     18  O   UNL A   1      43.499  33.826  24.727  1.00  0.00    -0.267 OA
ATOM     19  N   UNL A   1      43.250  35.841  25.768  1.00  0.00    -0.272 N 
ATOM     20  O   UNL A   1      42.203  37.603  26.711  1.00  0.00    -0.248 OA
ATOM     21  H   UNL A   1      43.140  36.241  24.875  1.00  0.00     0.175 HD
BRANCH  10  22
ATOM     22  N   UNL A   1      46.610  31.921  30.243  1.00  0.00    -0.325 N 
ATOM     23  H   UNL A   1      47.068  31.149  29.839  1.00  0.00     0.170 HD
BRANCH  22  24
ATOM     24  C   UNL A   1      46.583  31.716  31.818  1.00  0.00     0.044 A 
ATOM     25  C   UNL A   1      44.882  33.422  32.440  1.00  0.00     0.046 C 
ATOM     26  C   UNL A   1      45.437  32.045  32.547  1.00  0.00    -0.027 A 
ATOM     27  C   UNL A   1      44.869  31.181  33.584  1.00  0.00     0.005 A 
ATOM     28  C   UNL A   1      45.434  29.979  33.963  1.00  0.00     0.000 A 
ATOM     29  C   UNL A   1      47.315  30.854  32.676  1.00  0.00     0.026 A 
ATOM     30  C   UNL A   1      46.755  29.885  33.633  1.00  0.00     0.002 A 
ENDBRANCH  22  24
ENDBRANCH  10  22
ENDBRANCH   8   9
ENDBRANCH   6   8
ENDBRANCH   5   6
ENDBRANCH   4   5
ENDBRANCH   3   4
ENDBRANCH   2   3
ENDBRANCH   1   2
BRANCH   1  31
ATOM     31  C   UNL A   1      49.734  27.711  32.849  1.00  0.00     0.188 C 
BRANCH  31  32
ATOM     32  O   UNL A   1      49.120  27.112  33.958  1.00  0.00    -0.376 OA
BRANCH  32  33
ATOM     33  C   UNL A   1      48.469  25.876  33.813  1.00  0.00     0.202 C 
BRANCH  33  34
ATOM     34  C   UNL A   1      47.053  25.479  34.291  1.00  0.00     0.261 C 
BRANCH  34  35
ATOM     35  O   UNL A   1      46.612  25.141  35.666  1.00  0.00    -0.460 OA
BRANCH  35  36
ATOM     36  C   UNL A   1      45.730  24.752  36.610  1.00  0.00     0.338 C 
ATOM     37  O   UNL A   1      46.018  23.772  37.305  1.00  0.00    -0.246 OA
BRANCH  36  38
ATOM     38  C   UNL A   1      44.360  25.348  36.838  1.00  0.00     0.060 A 
ATOM     39  C   UNL A   1      43.275  24.712  35.649  1.00  0.00     0.016 A 
ATOM     40  C   UNL A   1      44.240  27.030  37.049  1.00  0.00     0.016 A 
ATOM     41  C   UNL A   1      42.415  26.227  34.491  1.00  0.00     0.010 A 
ATOM     42  C   UNL A   1      43.351  28.153  36.048  1.00  0.00     0.010 A 
ATOM     43  C   UNL A   1      42.488  27.806  34.680  1.00  0.00    -0.014 A 
BRANCH  43  44
ATOM     44  C   UNL A   1      41.914  28.884  33.264  1.00  0.00     0.031 A 
ATOM     45  C   UNL A   1      40.728  29.477  33.928  1.00  0.00     0.074 A 
ATOM     46  C   UNL A   1      42.207  29.043  31.658  1.00  0.00     0.049 A 
ATOM     47  N   UNL A   1      39.567  29.731  33.422  1.00  0.00    -0.248 NA
ATOM     48  C   UNL A   1      40.686  29.654  35.418  1.00  0.00     0.031 C 
ATOM     49  C   UNL A   1      42.679  30.250  30.753  1.00  0.00     0.029 A 
ATOM     50  N   UNL A   1      42.974  28.183  30.663  1.00  0.00    -0.354 N 
ATOM     51  C   UNL A   1      39.210  30.767  34.268  1.00  0.00     0.074 A 
ATOM     52  C   UNL A   1      39.510  30.262  35.568  1.00  0.00     0.031 C 
ATOM     53  C   UNL A   1      43.119  29.917  29.481  1.00  0.00     0.029 A 
ATOM     54  C   UNL A   1      43.241  28.476  29.342  1.00  0.00     0.049 A 
ATOM     55  H   UNL A   1      43.320  27.324  30.999  1.00  0.00     0.167 HD
ATOM     56  C   UNL A   1      39.570  32.025  33.841  1.00  0.00     0.034 A 
ATOM     57  C   UNL A   1      42.875  27.633  28.296  1.00  0.00     0.034 A 
ATOM     58  C   UNL A   1      39.944  32.039  32.395  1.00  0.00     0.049 A 
ATOM     59  C   UNL A   1      41.484  28.088  28.069  1.00  0.00     0.074 A 
ATOM     60  C   UNL A   1      40.952  32.600  31.638  1.00  0.00     0.029 A 
ATOM     61  N   UNL A   1      39.308  31.146  31.515  1.00  0.00    -0.354 N 
ATOM     62  N   UNL A   1      40.888  28.787  28.981  1.00  0.00    -0.248 NA
ATOM     63  C   UNL A   1      40.692  27.870  26.879  1.00  0.00     0.031 C 
ATOM     64  C   UNL A   1      40.791  32.142  30.275  1.00  0.00     0.029 A 
ATOM     65  C   UNL A   1      39.833  31.129  30.239  1.00  0.00     0.049 A 
ATOM     66  H   UNL A   1      38.550  30.580  31.788  1.00  0.00     0.167 HD
ATOM     67  C   UNL A   1      39.825  29.373  28.461  1.00  0.00     0.074 A 
ATOM     68  C   UNL A   1      39.669  28.691  27.169  1.00  0.00     0.031 C 
ATOM     69  C   UNL A   1      39.172  30.308  29.198  1.00  0.00     0.034 A 
BRANCH  56  70
ATOM     70  C   UNL A   1      39.757  33.214  34.795  1.00  0.00     0.023 A 
ATOM     71  C   UNL A   1      38.571  33.741  35.333  1.00  0.00     0.012 A 
ATOM     72  C   UNL A   1      40.965  33.812  35.271  1.00  0.00     0.148 A 
ATOM     73  C   UNL A   1      38.575  34.694  36.358  1.00  0.00     0.002 A 
ATOM     74  C   UNL A   1      40.973  34.686  36.360  1.00  0.00     0.091 A 
ATOM     75  F   UNL A   1      42.122  33.648  34.621  1.00  0.00    -0.205 F 
ATOM     76  C   UNL A   1      39.773  35.124  36.912  1.00  0.00     0.022 A 
BRANCH  74  77
ATOM     77  S   UNL A   1      42.499  35.226  37.170  1.00  0.00     0.127 S 
ATOM     78  O   UNL A   1      43.084  36.118  36.170  1.00  0.00    -0.237 OA
ATOM     79  O   UNL A   1      41.992  35.900  38.365  1.00  0.00    -0.237 OA
ATOM     80  O   UNL A   1      43.270  34.017  37.442  1.00  0.00    -0.744 OA
ENDBRANCH  74  77
ENDBRANCH  56  70
BRANCH  57  81
ATOM     81  C   UNL A   1      43.120  26.133  28.193  1.00  0.00     0.023 A 
ATOM     82  C   UNL A   1      42.124  25.230  28.607  1.00  0.00     0.012 A 
ATOM     83  C   UNL A   1      44.229  25.605  27.465  1.00  0.00     0.148 A 
ATOM     84  C   UNL A   1      42.068  23.977  28.024  1.00  0.00     0.002 A 
ATOM     85  C   UNL A   1      44.075  24.430  26.750  1.00  0.00     0.091 A 
ATOM     86  F   UNL A   1      45.326  26.350  27.296  1.00  0.00    -0.205 F 
ATOM     87  C   UNL A   1      42.879  23.763  26.923  1.00  0.00     0.022 A 
BRANCH  85  88
ATOM     88  S   UNL A   1      44.976  24.082  25.213  1.00  0.00     0.127 S 
ATOM     89  O   UNL A   1      46.107  23.280  25.667  1.00  0.00    -0.237 OA
ATOM     90  O   UNL A   1      44.021  23.303  24.420  1.00  0.00    -0.237 OA
ATOM     91  O   UNL A   1      45.327  25.382  24.661  1.00  0.00    -0.744 OA
ENDBRANCH  85  88
ENDBRANCH  57  81
BRANCH  69  92
ATOM     92  C   UNL A   1      37.747  30.504  28.902  1.00  0.00     0.023 A 
ATOM     93  C   UNL A   1      36.848  29.424  28.878  1.00  0.00     0.012 A 
ATOM     94  C   UNL A   1      37.246  31.795  28.728  1.00  0.00     0.148 A 
ATOM     95  C   UNL A   1      35.575  29.580  28.377  1.00  0.00     0.002 A 
ATOM     96  C   UNL A   1      35.919  31.966  28.450  1.00  0.00     0.091 A 
ATOM     97  F   UNL A   1      38.047  32.864  28.805  1.00  0.00    -0.205 F 
ATOM     98  C   UNL A   1      35.105  30.864  28.172  1.00  0.00     0.022 A 
BRANCH  96  99
ATOM     99  S   UNL A   1      35.188  33.584  28.516  1.00  0.00     0.127 S 
ATOM    100  O   UNL A   1      33.770  33.244  28.628  1.00  0.00    -0.237 OA
ATOM    101  O   UNL A   1      35.798  34.127  29.729  1.00  0.00    -0.237 OA
ATOM    102  O   UNL A   1      35.573  34.268  27.289  1.00  0.00    -0.744 OA
ENDBRANCH  96  99
ENDBRANCH  69  92
ENDBRANCH  43  44
ENDBRANCH  36  38
ENDBRANCH  35  36
ENDBRANCH  34  35
ENDBRANCH  33  34
ENDBRANCH  32  33
ENDBRANCH  31  32
ENDBRANCH   1  31
TORSDOF 23
ENDMDL
MODEL 3
REMARK VINA RESULT:     -10.4      5.553     11.943
REMARK SMILES Cc1ccccc1Nc1nc2c(c(=O)[nH]c(=O)n2C)n1CC(=O)OCCOCCOCCOC(=O)c1ccc(-c2c3nc(c(-c4cccc(S(=O)(=O)[O-])c4F)c4ccc([nH]4)c(-c4cccc(S(=O)(=O)[O-])c4F)c4nc(c(-c5cccc(S(=O)(=O)[O-])c5F)c5ccc2[nH]5)C=C4)C=C3)cc1
REMARK SMILES IDX 28 1 27 2 26 3 25 4 24 5 22 6 23 7 21 8 20 9 9 10 10 11
REMARK SMILES IDX 11 12 12 13 18 14 13 15 16 16 19 17 14 18 15 19 17 20 8 22
REMARK SMILES IDX 7 24 1 25 2 26 3 27 4 28 6 29 5 30 29 31 30 32 31 33 32 34
REMARK SMILES IDX 33 35 34 36 35 37 36 38 37 39 98 40 38 41 97 42 39 43 40 44
REMARK SMILES IDX 41 45 91 46 42 47 96 48 90 49 92 50 43 51 95 52 89 53 88 54
REMARK SMILES IDX 44 56 76 57 56 58 75 59 57 60 60 61 74 62 93 63 58 64 59 65
REMARK SMILES IDX 73 67 94 68 61 69 45 70 46 71 54 72 47 73 49 74 55 75 48 76
REMARK SMILES IDX 50 77 51 78 52 79 53 80 77 81 78 82 86 83 79 84 81 85 87 86
REMARK SMILES IDX 80 87 82 88 83 89 84 90 85 91 62 92 63 93 71 94 64 95 66 96
REMARK SMILES IDX 72 97 65 98 67 99 68 100 69 101 70 102
REMARK H PARENT 15 21 8 23 92 55 60 66
REMARK Flexibility Score: inf
ROOT
ATOM      1  C   UNL A   1      48.296  32.982  33.135  1.00  0.00     0.188 C 
ENDROOT
BRANCH   1   2
ATOM      2  O   UNL A   1      48.884  32.736  31.891  1.00  0.00    -0.376 OA
BRANCH   2   3
ATOM      3  C   UNL A   1      48.777  33.877  31.128  1.00  0.00     0.202 C 
BRANCH   3   4
ATOM      4  C   UNL A   1      48.460  33.550  29.687  1.00  0.00     0.261 C 
BRANCH   4   5
ATOM      5  O   UNL A   1      49.049  32.001  28.897  1.00  0.00    -0.462 OA
BRANCH   5   6
ATOM      6  C   UNL A   1      49.144  31.043  27.718  1.00  0.00     0.326 C 
ATOM      7  O   UNL A   1      50.215  30.474  27.554  1.00  0.00    -0.250 OA
BRANCH   6   8
ATOM      8  C   UNL A   1      47.926  30.549  26.903  1.00  0.00     0.248 C 
BRANCH   8   9
ATOM      9  N   UNL A   1      46.988  29.748  27.896  1.00  0.00    -0.293 N 
ATOM     10  C   UNL A   1      45.219  30.220  27.280  1.00  0.00     0.210 A 
ATOM     11  N   UNL A   1      44.750  28.909  26.181  1.00  0.00    -0.194 NA
ATOM     12  C   UNL A   1      46.020  27.227  26.463  1.00  0.00     0.170 A 
ATOM     13  C   UNL A   1      47.369  27.895  27.551  1.00  0.00     0.154 A 
ATOM     14  N   UNL A   1      45.923  25.802  26.714  1.00  0.00    -0.279 N 
ATOM     15  C   UNL A   1      48.587  27.141  27.229  1.00  0.00     0.279 A 
ATOM     16  C   UNL A   1      47.151  25.114  26.720  1.00  0.00     0.329 A 
ATOM     17  C   UNL A   1      44.889  25.113  27.502  1.00  0.00     0.157 C 
ATOM     18  O   UNL A   1      49.743  27.538  27.309  1.00  0.00    -0.267 OA
ATOM     19  N   UNL A   1      48.317  25.860  26.711  1.00  0.00    -0.272 N 
ATOM     20  O   UNL A   1      47.230  23.886  26.827  1.00  0.00    -0.248 OA
ATOM     21  H   UNL A   1      49.083  25.423  26.272  1.00  0.00     0.175 HD
BRANCH  10  22
ATOM     22  N   UNL A   1      44.316  31.276  27.863  1.00  0.00    -0.325 N 
ATOM     23  H   UNL A   1      43.741  31.620  27.142  1.00  0.00     0.170 HD
BRANCH  22  24
ATOM     24  C   UNL A   1      43.945  32.041  29.205  1.00  0.00     0.044 A 
ATOM     25  C   UNL A   1      45.783  31.235  30.676  1.00  0.00     0.046 C 
ATOM     26  C   UNL A   1      44.941  32.339  30.139  1.00  0.00    -0.027 A 
ATOM     27  C   UNL A   1      45.067  33.644  30.790  1.00  0.00     0.005 A 
ATOM     28  C   UNL A   1      44.192  34.690  30.569  1.00  0.00     0.000 A 
ATOM     29  C   UNL A   1      42.875  32.913  29.536  1.00  0.00     0.026 A 
ATOM     30  C   UNL A   1      42.989  34.281  30.071  1.00  0.00     0.002 A 
ENDBRANCH  22  24
ENDBRANCH  10  22
ENDBRANCH   8   9
ENDBRANCH   6   8
ENDBRANCH   5   6
ENDBRANCH   4   5
ENDBRANCH   3   4
ENDBRANCH   2   3
ENDBRANCH   1   2
BRANCH   1  31
ATOM     31  C   UNL A   1      48.345  34.449  33.786  1.00  0.00     0.188 C 
BRANCH  31  32
ATOM     32  O   UNL A   1      48.083  34.630  35.152  1.00  0.00    -0.376 OA
BRANCH  32  33
ATOM     33  C   UNL A   1      46.907  34.107  35.712  1.00  0.00     0.202 C 
BRANCH  33  34
ATOM     34  C   UNL A   1      45.447  34.542  35.447  1.00  0.00     0.261 C 
BRANCH  34  35
ATOM     35  O   UNL A   1      44.576  35.392  36.297  1.00  0.00    -0.460 OA
BRANCH  35  36
ATOM     36  C   UNL A   1      43.605  36.297  36.538  1.00  0.00     0.338 C 
ATOM     37  O   UNL A   1      43.760  37.075  37.485  1.00  0.00    -0.246 OA
BRANCH  36  38
ATOM     38  C   UNL A   1      42.282  36.388  35.814  1.00  0.00     0.060 A 
ATOM     39  C   UNL A   1      41.132  35.386  36.631  1.00  0.00     0.016 A 
ATOM     40  C   UNL A   1      42.278  36.202  34.124  1.00  0.00     0.016 A 
ATOM     41  C   UNL A   1      40.349  33.911  35.371  1.00  0.00     0.010 A 
ATOM     42  C   UNL A   1      41.442  34.972  33.206  1.00  0.00     0.010 A 
ATOM     43  C   UNL A   1      40.529  33.728  33.800  1.00  0.00    -0.014 A 
BRANCH  43  44
ATOM     44  C   UNL A   1      39.996  32.103  33.043  1.00  0.00     0.031 A 
ATOM     45  C   UNL A   1      41.346  31.521  32.841  1.00  0.00     0.074 A 
ATOM     46  C   UNL A   1      38.639  31.447  32.398  1.00  0.00     0.049 A 
ATOM     47  N   UNL A   1      41.779  30.824  31.844  1.00  0.00    -0.248 NA
ATOM     48  C   UNL A   1      42.490  31.895  33.738  1.00  0.00     0.031 C 
ATOM     49  C   UNL A   1      37.798  30.149  32.724  1.00  0.00     0.029 A 
ATOM     50  N   UNL A   1      37.295  32.045  32.004  1.00  0.00    -0.354 N 
ATOM     51  C   UNL A   1      42.759  30.114  32.515  1.00  0.00     0.074 A 
ATOM     52  C   UNL A   1      43.455  31.115  33.256  1.00  0.00     0.031 C 
ATOM     53  C   UNL A   1      36.530  30.092  32.164  1.00  0.00     0.029 A 
ATOM     54  C   UNL A   1      36.180  31.366  31.559  1.00  0.00     0.049 A 
ATOM     55  H   UNL A   1      37.212  33.024  32.075  1.00  0.00     0.167 HD
ATOM     56  C   UNL A   1      42.350  28.917  33.057  1.00  0.00     0.034 A 
ATOM     57  C   UNL A   1      35.558  31.653  30.348  1.00  0.00     0.034 A 
ATOM     58  C   UNL A   1      41.039  28.468  32.499  1.00  0.00     0.049 A 
ATOM     59  C   UNL A   1      36.374  30.820  29.433  1.00  0.00     0.074 A 
ATOM     60  C   UNL A   1      39.874  27.936  33.012  1.00  0.00     0.029 A 
ATOM     61  N   UNL A   1      40.714  28.794  31.171  1.00  0.00    -0.354 N 
ATOM     62  N   UNL A   1      37.522  30.378  29.832  1.00  0.00    -0.248 NA
ATOM     63  C   UNL A   1      36.002  30.388  28.104  1.00  0.00     0.031 C 
ATOM     64  C   UNL A   1      38.927  27.811  31.925  1.00  0.00     0.029 A 
ATOM     65  C   UNL A   1      39.423  28.474  30.802  1.00  0.00     0.049 A 
ATOM     66  H   UNL A   1      41.355  29.217  30.554  1.00  0.00     0.167 HD
ATOM     67  C   UNL A   1      37.919  29.401  29.036  1.00  0.00     0.074 A 
ATOM     68  C   UNL A   1      36.994  29.505  27.899  1.00  0.00     0.031 C 
ATOM     69  C   UNL A   1      39.004  28.670  29.395  1.00  0.00     0.034 A 
BRANCH  56  70
ATOM     70  C   UNL A   1      43.064  28.242  34.238  1.00  0.00     0.023 A 
ATOM     71  C   UNL A   1      43.391  26.889  34.045  1.00  0.00     0.012 A 
ATOM     72  C   UNL A   1      43.508  28.810  35.472  1.00  0.00     0.148 A 
ATOM     73  C   UNL A   1      44.206  26.183  34.936  1.00  0.00     0.002 A 
ATOM     74  C   UNL A   1      44.402  28.140  36.311  1.00  0.00     0.091 A 
ATOM     75  F   UNL A   1      42.998  29.958  35.930  1.00  0.00    -0.205 F 
ATOM     76  C   UNL A   1      44.760  26.822  36.038  1.00  0.00     0.022 A 
BRANCH  74  77
ATOM     77  S   UNL A   1      45.210  28.939  37.718  1.00  0.00     0.127 S 
ATOM     78  O   UNL A   1      45.659  27.795  38.511  1.00  0.00    -0.237 OA
ATOM     79  O   UNL A   1      46.285  29.691  37.071  1.00  0.00    -0.237 OA
ATOM     80  O   UNL A   1      44.195  29.769  38.358  1.00  0.00    -0.744 OA
ENDBRANCH  74  77
ENDBRANCH  56  70
BRANCH  57  81
ATOM     81  C   UNL A   1      35.145  33.022  29.825  1.00  0.00     0.023 A 
ATOM     82  C   UNL A   1      34.710  33.164  28.495  1.00  0.00     0.012 A 
ATOM     83  C   UNL A   1      34.950  34.130  30.705  1.00  0.00     0.148 A 
ATOM     84  C   UNL A   1      33.831  34.184  28.179  1.00  0.00     0.002 A 
ATOM     85  C   UNL A   1      33.939  35.038  30.441  1.00  0.00     0.091 A 
ATOM     86  F   UNL A   1      35.588  34.163  31.879  1.00  0.00    -0.205 F 
ATOM     87  C   UNL A   1      33.279  34.884  29.238  1.00  0.00     0.022 A 
BRANCH  85  88
ATOM     88  S   UNL A   1      33.039  35.921  31.746  1.00  0.00     0.127 S 
ATOM     89  O   UNL A   1      32.078  36.726  30.999  1.00  0.00    -0.237 OA
ATOM     90  O   UNL A   1      32.396  34.849  32.511  1.00  0.00    -0.237 OA
ATOM     91  O   UNL A   1      34.045  36.682  32.471  1.00  0.00    -0.744 OA
ENDBRANCH  85  88
ENDBRANCH  57  81
BRANCH  69  92
ATOM     92  C   UNL A   1      39.762  28.036  28.308  1.00  0.00     0.023 A 
ATOM     93  C   UNL A   1      40.517  28.798  27.400  1.00  0.00     0.012 A 
ATOM     94  C   UNL A   1      39.813  26.645  28.218  1.00  0.00     0.148 A 
ATOM     95  C   UNL A   1      41.030  28.226  26.258  1.00  0.00     0.002 A 
ATOM     96  C   UNL A   1      40.518  26.066  27.200  1.00  0.00     0.091 A 
ATOM     97  F   UNL A   1      39.164  25.871  29.095  1.00  0.00    -0.205 F 
ATOM     98  C   UNL A   1      41.038  26.847  26.164  1.00  0.00     0.022 A 
BRANCH  96  99
ATOM     99  S   UNL A   1      40.854  24.321  27.218  1.00  0.00     0.127 S 
ATOM    100  O   UNL A   1      39.514  23.777  27.008  1.00  0.00    -0.237 OA
ATOM    101  O   UNL A   1      41.766  24.192  26.082  1.00  0.00    -0.237 OA
ATOM    102  O   UNL A   1      41.455  24.023  28.511  1.00  0.00    -0.744 OA
ENDBRANCH  96  99
ENDBRANCH  69  92
ENDBRANCH  43  44
ENDBRANCH  36  38
ENDBRANCH  35  36
ENDBRANCH  34  35
ENDBRANCH  33  34
ENDBRANCH  32  33
ENDBRANCH  31  32
ENDBRANCH   1  31
TORSDOF 23
ENDMDL
