MODEL 1
REMARK VINA RESULT:      -7.9      0.000      0.000
REMARK SMILES O=C(C[NH+]1CCN(c2nccc(N3CCCCC3)n2)CC1)OCCOCCOCCOC(=O)c1ccc(-c2c3nc(c(-c4cccc(S(=O)(=O)[O-])c4F)c4ccc([nH]4)c(-c4cccc(S(=O)(=O)[O-])c4F)c4nc(c(-c5cccc(S(=O)(=O)[O-])c5F)c5ccc2[nH]5)C=C4)C=C3)cc1
REMARK SMILES IDX 26 1 25 2 24 3 23 4 22 5 2 6 1 7 3 8 4 9 5 10 21 11 6 13
REMARK SMILES IDX 20 14 7 15 8 16 9 17 19 18 10 19 12 20 11 21 13 22 14 23
REMARK SMILES IDX 18 24 15 25 17 26 16 27 27 28 28 29 29 30 30 31 31 32 32 33
REMARK SMILES IDX 33 34 34 35 35 36 96 37 36 38 95 39 37 40 38 41 39 42 89 43
REMARK SMILES IDX 40 44 94 45 88 46 90 47 41 48 93 49 87 50 86 51 42 53 74 54
REMARK SMILES IDX 54 55 73 56 55 57 58 58 72 59 91 60 56 61 57 62 71 64 92 65
REMARK SMILES IDX 59 66 43 67 44 68 52 69 45 70 47 71 53 72 46 73 48 74 49 75
REMARK SMILES IDX 50 76 51 77 75 78 76 79 84 80 77 81 79 82 85 83 78 84 80 85
REMARK SMILES IDX 81 86 82 87 83 88 60 89 61 90 69 91 62 92 64 93 70 94 63 95
REMARK SMILES IDX 65 96 66 97 67 98 68 99
REMARK H PARENT 4 12 90 52 58 63
REMARK Flexibility Score: inf
ROOT
ATOM      1  C   UNL A   1      34.369  33.388  29.310  1.00  0.00     0.188 C 
ENDROOT
BRANCH   1   2
ATOM      2  O   UNL A   1      35.380  33.581  28.322  1.00  0.00    -0.376 OA
BRANCH   2   3
ATOM      3  C   UNL A   1      36.684  33.864  28.819  1.00  0.00     0.202 C 
BRANCH   3   4
ATOM      4  C   UNL A   1      37.515  32.629  29.159  1.00  0.00     0.261 C 
BRANCH   4   5
ATOM      5  O   UNL A   1      37.093  31.473  28.434  1.00  0.00    -0.459 OA
BRANCH   5   6
ATOM      6  C   UNL A   1      37.389  30.277  29.018  1.00  0.00     0.361 C 
ATOM      7  O   UNL A   1      36.492  29.527  29.392  1.00  0.00    -0.245 OA
BRANCH   6   8
ATOM      8  C   UNL A   1      38.873  30.059  29.341  1.00  0.00     0.386 C 
BRANCH   8   9
ATOM      9  N   UNL A   1      39.241  28.624  29.383  1.00  0.00    -0.323 N 
ATOM     10  C   UNL A   1      39.125  27.961  28.055  1.00  0.00     0.284 C 
ATOM     11  C   UNL A   1      40.663  28.456  29.812  1.00  0.00     0.284 C 
ATOM     12  H   UNL A   1      38.589  28.196  30.041  1.00  0.00     0.348 HD
ATOM     13  C   UNL A   1      40.084  28.479  26.960  1.00  0.00     0.181 C 
ATOM     14  C   UNL A   1      41.735  28.908  28.789  1.00  0.00     0.181 C 
ATOM     15  N   UNL A   1      41.450  28.433  27.441  1.00  0.00    -0.329 N 
BRANCH  15  16
ATOM     16  C   UNL A   1      42.212  27.431  26.895  1.00  0.00     0.227 A 
ATOM     17  N   UNL A   1      42.152  27.311  25.559  1.00  0.00    -0.221 NA
ATOM     18  N   UNL A   1      42.898  26.596  27.694  1.00  0.00    -0.196 NA
ATOM     19  C   UNL A   1      42.931  26.380  24.998  1.00  0.00     0.119 A 
ATOM     20  C   UNL A   1      43.649  25.650  27.102  1.00  0.00     0.134 A 
ATOM     21  C   UNL A   1      43.714  25.528  25.728  1.00  0.00     0.067 A 
BRANCH  20  22
ATOM     22  N   UNL A   1      44.350  24.729  27.870  1.00  0.00    -0.356 N 
ATOM     23  C   UNL A   1      43.967  23.327  27.803  1.00  0.00     0.118 C 
ATOM     24  C   UNL A   1      44.990  25.230  29.084  1.00  0.00     0.118 C 
ATOM     25  C   UNL A   1      43.231  22.872  29.057  1.00  0.00     0.022 C 
ATOM     26  C   UNL A   1      44.211  24.795  30.323  1.00  0.00     0.022 C 
ATOM     27  C   UNL A   1      43.980  23.286  30.321  1.00  0.00     0.004 C 
ENDBRANCH  20  22
ENDBRANCH  15  16
ENDBRANCH   8   9
ENDBRANCH   6   8
ENDBRANCH   5   6
ENDBRANCH   4   5
ENDBRANCH   3   4
ENDBRANCH   2   3
ENDBRANCH   1   2
BRANCH   1  28
ATOM     28  C   UNL A   1      33.987  34.571  30.218  1.00  0.00     0.188 C 
BRANCH  28  29
ATOM     29  O   UNL A   1      33.910  34.379  31.623  1.00  0.00    -0.376 OA
BRANCH  29  30
ATOM     30  C   UNL A   1      35.120  34.286  32.370  1.00  0.00     0.202 C 
BRANCH  30  31
ATOM     31  C   UNL A   1      35.146  33.301  33.536  1.00  0.00     0.261 C 
BRANCH  31  32
ATOM     32  O   UNL A   1      36.268  32.404  33.458  1.00  0.00    -0.460 OA
BRANCH  32  33
ATOM     33  C   UNL A   1      37.075  32.417  34.544  1.00  0.00     0.338 C 
ATOM     34  O   UNL A   1      36.908  33.051  35.573  1.00  0.00    -0.246 OA
BRANCH  33  35
ATOM     35  C   UNL A   1      38.181  31.456  34.397  1.00  0.00     0.060 A 
ATOM     36  C   UNL A   1      39.379  31.753  35.059  1.00  0.00     0.016 A 
ATOM     37  C   UNL A   1      38.112  30.405  33.480  1.00  0.00     0.016 A 
ATOM     38  C   UNL A   1      40.542  31.063  34.727  1.00  0.00     0.010 A 
ATOM     39  C   UNL A   1      39.284  29.716  33.146  1.00  0.00     0.010 A 
ATOM     40  C   UNL A   1      40.512  30.089  33.718  1.00  0.00    -0.014 A 
BRANCH  40  41
ATOM     41  C   UNL A   1      41.796  29.642  33.126  1.00  0.00     0.031 A 
ATOM     42  C   UNL A   1      42.457  30.512  32.086  1.00  0.00     0.074 A 
ATOM     43  C   UNL A   1      42.394  28.509  33.535  1.00  0.00     0.049 A 
ATOM     44  N   UNL A   1      43.619  30.369  31.505  1.00  0.00    -0.248 NA
ATOM     45  C   UNL A   1      41.708  31.702  31.646  1.00  0.00     0.031 C 
ATOM     46  C   UNL A   1      41.853  27.578  34.522  1.00  0.00     0.029 A 
ATOM     47  N   UNL A   1      43.589  27.952  33.160  1.00  0.00    -0.354 N 
ATOM     48  C   UNL A   1      43.734  31.434  30.620  1.00  0.00     0.074 A 
ATOM     49  C   UNL A   1      42.517  32.208  30.727  1.00  0.00     0.031 C 
ATOM     50  C   UNL A   1      42.713  26.554  34.667  1.00  0.00     0.029 A 
ATOM     51  C   UNL A   1      43.859  26.757  33.782  1.00  0.00     0.049 A 
ATOM     52  H   UNL A   1      44.197  28.369  32.506  1.00  0.00     0.167 HD
ATOM     53  C   UNL A   1      44.768  31.757  29.807  1.00  0.00     0.034 A 
ATOM     54  C   UNL A   1      44.913  25.927  33.652  1.00  0.00     0.034 A 
ATOM     55  C   UNL A   1      45.993  31.012  29.721  1.00  0.00     0.049 A 
ATOM     56  C   UNL A   1      46.055  26.315  32.746  1.00  0.00     0.074 A 
ATOM     57  C   UNL A   1      47.121  31.291  28.969  1.00  0.00     0.029 A 
ATOM     58  N   UNL A   1      46.248  29.834  30.404  1.00  0.00    -0.354 N 
ATOM     59  N   UNL A   1      46.214  27.404  32.035  1.00  0.00    -0.248 NA
ATOM     60  C   UNL A   1      47.183  25.375  32.661  1.00  0.00     0.031 C 
ATOM     61  C   UNL A   1      48.056  30.274  29.191  1.00  0.00     0.029 A 
ATOM     62  C   UNL A   1      47.513  29.368  30.088  1.00  0.00     0.049 A 
ATOM     63  H   UNL A   1      45.624  29.392  31.024  1.00  0.00     0.167 HD
ATOM     64  C   UNL A   1      47.472  27.300  31.451  1.00  0.00     0.074 A 
ATOM     65  C   UNL A   1      48.042  26.049  31.905  1.00  0.00     0.031 C 
ATOM     66  C   UNL A   1      48.096  28.156  30.602  1.00  0.00     0.034 A 
BRANCH  53  67
ATOM     67  C   UNL A   1      44.636  33.005  28.976  1.00  0.00     0.023 A 
ATOM     68  C   UNL A   1      44.888  34.259  29.569  1.00  0.00     0.012 A 
ATOM     69  C   UNL A   1      44.315  32.937  27.608  1.00  0.00     0.148 A 
ATOM     70  C   UNL A   1      44.798  35.430  28.817  1.00  0.00     0.002 A 
ATOM     71  C   UNL A   1      44.261  34.107  26.856  1.00  0.00     0.091 A 
ATOM     72  F   UNL A   1      44.050  31.739  27.069  1.00  0.00    -0.205 F 
ATOM     73  C   UNL A   1      44.494  35.353  27.460  1.00  0.00     0.022 A 
BRANCH  71  74
ATOM     74  S   UNL A   1      43.944  34.096  25.088  1.00  0.00     0.127 S 
ATOM     75  O   UNL A   1      42.784  34.980  24.990  1.00  0.00    -0.237 OA
ATOM     76  O   UNL A   1      45.183  34.653  24.544  1.00  0.00    -0.237 OA
ATOM     77  O   UNL A   1      43.707  32.702  24.736  1.00  0.00    -0.744 OA
ENDBRANCH  71  74
ENDBRANCH  53  67
BRANCH  54  78
ATOM     78  C   UNL A   1      44.977  24.678  34.461  1.00  0.00     0.023 A 
ATOM     79  C   UNL A   1      44.235  23.553  34.053  1.00  0.00     0.012 A 
ATOM     80  C   UNL A   1      45.777  24.593  35.617  1.00  0.00     0.148 A 
ATOM     81  C   UNL A   1      44.265  22.373  34.797  1.00  0.00     0.002 A 
ATOM     82  C   UNL A   1      45.842  23.398  36.327  1.00  0.00     0.091 A 
ATOM     83  F   UNL A   1      46.460  25.680  36.000  1.00  0.00    -0.205 F 
ATOM     84  C   UNL A   1      45.076  22.292  35.927  1.00  0.00     0.022 A 
BRANCH  82  85
ATOM     85  S   UNL A   1      46.949  23.171  37.723  1.00  0.00     0.127 S 
ATOM     86  O   UNL A   1      46.136  23.659  38.833  1.00  0.00    -0.237 OA
ATOM     87  O   UNL A   1      47.167  21.723  37.707  1.00  0.00    -0.237 OA
ATOM     88  O   UNL A   1      48.137  23.955  37.411  1.00  0.00    -0.744 OA
ENDBRANCH  82  85
ENDBRANCH  54  78
BRANCH  66  89
ATOM     89  C   UNL A   1      49.480  27.794  30.129  1.00  0.00     0.023 A 
ATOM     90  C   UNL A   1      50.596  28.132  30.920  1.00  0.00     0.012 A 
ATOM     91  C   UNL A   1      49.669  27.053  28.946  1.00  0.00     0.148 A 
ATOM     92  C   UNL A   1      51.882  27.762  30.525  1.00  0.00     0.002 A 
ATOM     93  C   UNL A   1      50.951  26.650  28.582  1.00  0.00     0.091 A 
ATOM     94  F   UNL A   1      48.600  26.758  28.194  1.00  0.00    -0.205 F 
ATOM     95  C   UNL A   1      52.059  27.012  29.365  1.00  0.00     0.022 A 
BRANCH  93  96
ATOM     96  S   UNL A   1      51.242  25.604  27.151  1.00  0.00     0.127 S 
ATOM     97  O   UNL A   1      50.793  26.460  26.055  1.00  0.00    -0.237 OA
ATOM     98  O   UNL A   1      52.690  25.390  27.202  1.00  0.00    -0.237 OA
ATOM     99  O   UNL A   1      50.454  24.401  27.382  1.00  0.00    -0.744 OA
ENDBRANCH  93  96
ENDBRANCH  66  89
ENDBRANCH  40  41
ENDBRANCH  33  35
ENDBRANCH  32  33
ENDBRANCH  31  32
ENDBRANCH  30  31
ENDBRANCH  29  30
ENDBRANCH  28  29
ENDBRANCH   1  28
TORSDOF 23
ENDMDL
MODEL 2
REMARK VINA RESULT:      -7.8      5.579     10.443
REMARK SMILES O=C(C[NH+]1CCN(c2nccc(N3CCCCC3)n2)CC1)OCCOCCOCCOC(=O)c1ccc(-c2c3nc(c(-c4cccc(S(=O)(=O)[O-])c4F)c4ccc([nH]4)c(-c4cccc(S(=O)(=O)[O-])c4F)c4nc(c(-c5cccc(S(=O)(=O)[O-])c5F)c5ccc2[nH]5)C=C4)C=C3)cc1
REMARK SMILES IDX 26 1 25 2 24 3 23 4 22 5 2 6 1 7 3 8 4 9 5 10 21 11 6 13
REMARK SMILES IDX 20 14 7 15 8 16 9 17 19 18 10 19 12 20 11 21 13 22 14 23
REMARK SMILES IDX 18 24 15 25 17 26 16 27 27 28 28 29 29 30 30 31 31 32 32 33
REMARK SMILES IDX 33 34 34 35 35 36 96 37 36 38 95 39 37 40 38 41 39 42 89 43
REMARK SMILES IDX 40 44 94 45 88 46 90 47 41 48 93 49 87 50 86 51 42 53 74 54
REMARK SMILES IDX 54 55 73 56 55 57 58 58 72 59 91 60 56 61 57 62 71 64 92 65
REMARK SMILES IDX 59 66 43 67 44 68 52 69 45 70 47 71 53 72 46 73 48 74 49 75
REMARK SMILES IDX 50 76 51 77 75 78 76 79 84 80 77 81 79 82 85 83 78 84 80 85
REMARK SMILES IDX 81 86 82 87 83 88 60 89 61 90 69 91 62 92 64 93 70 94 63 95
REMARK SMILES IDX 65 96 66 97 67 98 68 99
REMARK H PARENT 4 12 90 52 58 63
REMARK Flexibility Score: inf
ROOT
ATOM      1  C   UNL A   1      38.474  21.703  25.715  1.00  0.00     0.188 C 
ENDROOT
BRANCH   1   2
ATOM      2  O   UNL A   1      37.597  21.367  24.641  1.00  0.00    -0.376 OA
BRANCH   2   3
ATOM      3  C   UNL A   1      36.208  21.534  24.903  1.00  0.00     0.202 C 
BRANCH   3   4
ATOM      4  C   UNL A   1      35.539  22.646  24.097  1.00  0.00     0.261 C 
BRANCH   4   5
ATOM      5  O   UNL A   1      34.118  22.636  24.232  1.00  0.00    -0.459 OA
BRANCH   5   6
ATOM      6  C   UNL A   1      33.430  23.230  23.215  1.00  0.00     0.361 C 
ATOM      7  O   UNL A   1      33.864  23.198  22.067  1.00  0.00    -0.245 OA
BRANCH   6   8
ATOM      8  C   UNL A   1      32.229  24.081  23.650  1.00  0.00     0.386 C 
BRANCH   8   9
ATOM      9  N   UNL A   1      32.396  25.514  23.311  1.00  0.00    -0.323 N 
ATOM     10  C   UNL A   1      31.401  26.386  23.992  1.00  0.00     0.284 C 
ATOM     11  C   UNL A   1      33.743  26.003  23.736  1.00  0.00     0.284 C 
ATOM     12  H   UNL A   1      32.270  25.569  22.300  1.00  0.00     0.348 HD
ATOM     13  C   UNL A   1      31.495  26.436  25.533  1.00  0.00     0.181 C 
ATOM     14  C   UNL A   1      33.963  26.132  25.264  1.00  0.00     0.181 C 
ATOM     15  N   UNL A   1      32.844  26.784  25.932  1.00  0.00    -0.329 N 
BRANCH  15  16
ATOM     16  C   UNL A   1      32.984  28.064  26.407  1.00  0.00     0.227 A 
ATOM     17  N   UNL A   1      31.867  28.808  26.424  1.00  0.00    -0.221 NA
ATOM     18  N   UNL A   1      34.199  28.525  26.750  1.00  0.00    -0.196 NA
ATOM     19  C   UNL A   1      31.966  30.038  26.938  1.00  0.00     0.119 A 
ATOM     20  C   UNL A   1      34.272  29.777  27.236  1.00  0.00     0.134 A 
ATOM     21  C   UNL A   1      33.149  30.569  27.374  1.00  0.00     0.067 A 
BRANCH  20  22
ATOM     22  N   UNL A   1      35.502  30.329  27.570  1.00  0.00    -0.356 N 
ATOM     23  C   UNL A   1      36.510  29.475  28.178  1.00  0.00     0.118 C 
ATOM     24  C   UNL A   1      35.531  31.763  27.844  1.00  0.00     0.118 C 
ATOM     25  C   UNL A   1      36.683  29.761  29.665  1.00  0.00     0.022 C 
ATOM     26  C   UNL A   1      35.664  32.023  29.343  1.00  0.00     0.022 C 
ATOM     27  C   UNL A   1      36.848  31.255  29.927  1.00  0.00     0.004 C 
ENDBRANCH  20  22
ENDBRANCH  15  16
ENDBRANCH   8   9
ENDBRANCH   6   8
ENDBRANCH   5   6
ENDBRANCH   4   5
ENDBRANCH   3   4
ENDBRANCH   2   3
ENDBRANCH   1   2
BRANCH   1  28
ATOM     28  C   UNL A   1      38.333  23.082  26.383  1.00  0.00     0.188 C 
BRANCH  28  29
ATOM     29  O   UNL A   1      39.457  23.948  26.446  1.00  0.00    -0.376 OA
BRANCH  29  30
ATOM     30  C   UNL A   1      40.763  23.381  26.403  1.00  0.00     0.202 C 
BRANCH  30  31
ATOM     31  C   UNL A   1      41.943  24.349  26.394  1.00  0.00     0.261 C 
BRANCH  31  32
ATOM     32  O   UNL A   1      41.809  25.370  27.399  1.00  0.00    -0.460 OA
BRANCH  32  33
ATOM     33  C   UNL A   1      41.528  26.602  26.916  1.00  0.00     0.338 C 
ATOM     34  O   UNL A   1      41.364  26.911  25.747  1.00  0.00    -0.246 OA
BRANCH  33  35
ATOM     35  C   UNL A   1      41.320  27.568  28.008  1.00  0.00     0.060 A 
ATOM     36  C   UNL A   1      40.752  28.803  27.672  1.00  0.00     0.016 A 
ATOM     37  C   UNL A   1      41.849  27.348  29.282  1.00  0.00     0.016 A 
ATOM     38  C   UNL A   1      40.806  29.858  28.578  1.00  0.00     0.010 A 
ATOM     39  C   UNL A   1      41.905  28.412  30.189  1.00  0.00     0.010 A 
ATOM     40  C   UNL A   1      41.445  29.686  29.814  1.00  0.00    -0.014 A 
BRANCH  40  41
ATOM     41  C   UNL A   1      41.820  30.891  30.593  1.00  0.00     0.031 A 
ATOM     42  C   UNL A   1      43.112  31.595  30.263  1.00  0.00     0.074 A 
ATOM     43  C   UNL A   1      41.008  31.385  31.544  1.00  0.00     0.049 A 
ATOM     44  N   UNL A   1      43.593  32.711  30.746  1.00  0.00    -0.248 NA
ATOM     45  C   UNL A   1      43.975  30.956  29.255  1.00  0.00     0.031 C 
ATOM     46  C   UNL A   1      39.740  30.792  31.963  1.00  0.00     0.029 A 
ATOM     47  N   UNL A   1      41.139  32.499  32.331  1.00  0.00    -0.354 N 
ATOM     48  C   UNL A   1      44.818  32.899  30.117  1.00  0.00     0.074 A 
ATOM     49  C   UNL A   1      45.017  31.774  29.230  1.00  0.00     0.031 C 
ATOM     50  C   UNL A   1      39.213  31.546  32.944  1.00  0.00     0.029 A 
ATOM     51  C   UNL A   1      40.107  32.670  33.222  1.00  0.00     0.049 A 
ATOM     52  H   UNL A   1      41.902  33.119  32.265  1.00  0.00     0.167 HD
ATOM     53  C   UNL A   1      45.691  33.926  30.244  1.00  0.00     0.034 A 
ATOM     54  C   UNL A   1      39.907  33.626  34.151  1.00  0.00     0.034 A 
ATOM     55  C   UNL A   1      45.484  35.063  31.099  1.00  0.00     0.049 A 
ATOM     56  C   UNL A   1      40.891  34.763  34.267  1.00  0.00     0.074 A 
ATOM     57  C   UNL A   1      46.283  36.182  31.254  1.00  0.00     0.029 A 
ATOM     58  N   UNL A   1      44.401  35.223  31.949  1.00  0.00    -0.354 N 
ATOM     59  N   UNL A   1      41.965  35.004  33.555  1.00  0.00    -0.248 NA
ATOM     60  C   UNL A   1      40.609  35.784  35.288  1.00  0.00     0.031 C 
ATOM     61  C   UNL A   1      45.688  37.015  32.208  1.00  0.00     0.029 A 
ATOM     62  C   UNL A   1      44.513  36.419  32.638  1.00  0.00     0.049 A 
ATOM     63  H   UNL A   1      43.661  34.582  32.048  1.00  0.00     0.167 HD
ATOM     64  C   UNL A   1      42.463  36.220  34.013  1.00  0.00     0.074 A 
ATOM     65  C   UNL A   1      41.564  36.675  35.052  1.00  0.00     0.031 C 
ATOM     66  C   UNL A   1      43.574  36.893  33.620  1.00  0.00     0.034 A 
BRANCH  53  67
ATOM     67  C   UNL A   1      46.937  33.890  29.400  1.00  0.00     0.023 A 
ATOM     68  C   UNL A   1      48.084  33.233  29.892  1.00  0.00     0.012 A 
ATOM     69  C   UNL A   1      46.960  34.456  28.113  1.00  0.00     0.148 A 
ATOM     70  C   UNL A   1      49.244  33.163  29.121  1.00  0.00     0.002 A 
ATOM     71  C   UNL A   1      48.109  34.350  27.337  1.00  0.00     0.091 A 
ATOM     72  F   UNL A   1      45.869  35.101  27.675  1.00  0.00    -0.205 F 
ATOM     73  C   UNL A   1      49.254  33.712  27.842  1.00  0.00     0.022 A 
BRANCH  71  74
ATOM     74  S   UNL A   1      48.189  34.969  25.652  1.00  0.00     0.127 S 
ATOM     75  O   UNL A   1      49.403  34.322  25.156  1.00  0.00    -0.237 OA
ATOM     76  O   UNL A   1      46.946  34.461  25.072  1.00  0.00    -0.237 OA
ATOM     77  O   UNL A   1      48.250  36.421  25.766  1.00  0.00    -0.744 OA
ENDBRANCH  71  74
ENDBRANCH  53  67
BRANCH  54  78
ATOM     78  C   UNL A   1      38.682  33.594  34.997  1.00  0.00     0.023 A 
ATOM     79  C   UNL A   1      37.503  34.204  34.527  1.00  0.00     0.012 A 
ATOM     80  C   UNL A   1      38.673  32.952  36.251  1.00  0.00     0.148 A 
ATOM     81  C   UNL A   1      36.344  34.202  35.304  1.00  0.00     0.002 A 
ATOM     82  C   UNL A   1      37.500  32.910  36.998  1.00  0.00     0.091 A 
ATOM     83  F   UNL A   1      39.810  32.395  36.689  1.00  0.00    -0.205 F 
ATOM     84  C   UNL A   1      36.339  33.546  36.532  1.00  0.00     0.022 A 
BRANCH  82  85
ATOM     85  S   UNL A   1      37.374  31.988  38.534  1.00  0.00     0.127 S 
ATOM     86  O   UNL A   1      38.568  32.431  39.248  1.00  0.00    -0.237 OA
ATOM     87  O   UNL A   1      36.109  32.481  39.082  1.00  0.00    -0.237 OA
ATOM     88  O   UNL A   1      37.349  30.584  38.146  1.00  0.00    -0.744 OA
ENDBRANCH  82  85
ENDBRANCH  54  78
BRANCH  66  89
ATOM     89  C   UNL A   1      43.870  38.211  34.286  1.00  0.00     0.023 A 
ATOM     90  C   UNL A   1      44.593  38.234  35.496  1.00  0.00     0.012 A 
ATOM     91  C   UNL A   1      43.505  39.428  33.677  1.00  0.00     0.148 A 
ATOM     92  C   UNL A   1      44.922  39.445  36.102  1.00  0.00     0.002 A 
ATOM     93  C   UNL A   1      43.875  40.633  34.266  1.00  0.00     0.091 A 
ATOM     94  F   UNL A   1      42.800  39.391  32.538  1.00  0.00    -0.205 F 
ATOM     95  C   UNL A   1      44.575  40.644  35.483  1.00  0.00     0.022 A 
BRANCH  93  96
ATOM     96  S   UNL A   1      43.543  42.213  33.477  1.00  0.00     0.127 S 
ATOM     97  O   UNL A   1      42.092  42.320  33.616  1.00  0.00    -0.237 OA
ATOM     98  O   UNL A   1      44.304  43.150  34.307  1.00  0.00    -0.237 OA
ATOM     99  O   UNL A   1      44.043  42.081  32.115  1.00  0.00    -0.744 OA
ENDBRANCH  93  96
ENDBRANCH  66  89
ENDBRANCH  40  41
ENDBRANCH  33  35
ENDBRANCH  32  33
ENDBRANCH  31  32
ENDBRANCH  30  31
ENDBRANCH  29  30
ENDBRANCH  28  29
ENDBRANCH   1  28
TORSDOF 23
ENDMDL
MODEL 3
REMARK VINA RESULT:      -7.7      7.254     12.923
REMARK SMILES O=C(C[NH+]1CCN(c2nccc(N3CCCCC3)n2)CC1)OCCOCCOCCOC(=O)c1ccc(-c2c3nc(c(-c4cccc(S(=O)(=O)[O-])c4F)c4ccc([nH]4)c(-c4cccc(S(=O)(=O)[O-])c4F)c4nc(c(-c5cccc(S(=O)(=O)[O-])c5F)c5ccc2[nH]5)C=C4)C=C3)cc1
REMARK SMILES IDX 26 1 25 2 24 3 23 4 22 5 2 6 1 7 3 8 4 9 5 10 21 11 6 13
REMARK SMILES IDX 20 14 7 15 8 16 9 17 19 18 10 19 12 20 11 21 13 22 14 23
REMARK SMILES IDX 18 24 15 25 17 26 16 27 27 28 28 29 29 30 30 31 31 32 32 33
REMARK SMILES IDX 33 34 34 35 35 36 96 37 36 38 95 39 37 40 38 41 39 42 89 43
REMARK SMILES IDX 40 44 94 45 88 46 90 47 41 48 93 49 87 50 86 51 42 53 74 54
REMARK SMILES IDX 54 55 73 56 55 57 58 58 72 59 91 60 56 61 57 62 71 64 92 65
REMARK SMILES IDX 59 66 43 67 44 68 52 69 45 70 47 71 53 72 46 73 48 74 49 75
REMARK SMILES IDX 50 76 51 77 75 78 76 79 84 80 77 81 79 82 85 83 78 84 80 85
REMARK SMILES IDX 81 86 82 87 83 88 60 89 61 90 69 91 62 92 64 93 70 94 63 95
REMARK SMILES IDX 65 96 66 97 67 98 68 99
REMARK H PARENT 4 12 90 52 58 63
REMARK Flexibility Score: inf
ROOT
ATOM      1  C   UNL A   1      48.772  40.415  27.796  1.00  0.00     0.188 C 
ENDROOT
BRANCH   1   2
ATOM      2  O   UNL A   1      49.357  41.105  28.900  1.00  0.00    -0.376 OA
BRANCH   2   3
ATOM      3  C   UNL A   1      49.028  42.485  29.010  1.00  0.00     0.202 C 
BRANCH   3   4
ATOM      4  C   UNL A   1      47.787  42.906  28.226  1.00  0.00     0.261 C 
BRANCH   4   5
ATOM      5  O   UNL A   1      47.857  44.262  27.784  1.00  0.00    -0.459 OA
BRANCH   5   6
ATOM      6  C   UNL A   1      46.738  44.734  27.164  1.00  0.00     0.361 C 
ATOM      7  O   UNL A   1      45.868  45.316  27.805  1.00  0.00    -0.245 OA
BRANCH   6   8
ATOM      8  C   UNL A   1      46.575  44.305  25.699  1.00  0.00     0.386 C 
BRANCH   8   9
ATOM      9  N   UNL A   1      45.154  44.183  25.297  1.00  0.00    -0.323 N 
ATOM     10  C   UNL A   1      44.768  45.159  24.242  1.00  0.00     0.284 C 
ATOM     11  C   UNL A   1      44.880  42.826  24.733  1.00  0.00     0.284 C 
ATOM     12  H   UNL A   1      44.616  44.360  26.146  1.00  0.00     0.348 HD
ATOM     13  C   UNL A   1      45.474  44.989  22.879  1.00  0.00     0.181 C 
ATOM     14  C   UNL A   1      45.507  42.533  23.347  1.00  0.00     0.181 C 
ATOM     15  N   UNL A   1      45.311  43.629  22.407  1.00  0.00    -0.329 N 
BRANCH  15  16
ATOM     16  C   UNL A   1      44.422  43.490  21.370  1.00  0.00     0.227 A 
ATOM     17  N   UNL A   1      43.475  42.554  21.533  1.00  0.00    -0.221 NA
ATOM     18  N   UNL A   1      44.578  44.214  20.249  1.00  0.00    -0.196 NA
ATOM     19  C   UNL A   1      42.561  42.441  20.563  1.00  0.00     0.119 A 
ATOM     20  C   UNL A   1      43.661  44.058  19.277  1.00  0.00     0.134 A 
ATOM     21  C   UNL A   1      42.601  43.183  19.414  1.00  0.00     0.067 A 
BRANCH  20  22
ATOM     22  N   UNL A   1      43.787  44.745  18.077  1.00  0.00    -0.356 N 
ATOM     23  C   UNL A   1      44.198  46.140  18.110  1.00  0.00     0.118 C 
ATOM     24  C   UNL A   1      42.981  44.271  16.956  1.00  0.00     0.118 C 
ATOM     25  C   UNL A   1      43.043  47.086  17.807  1.00  0.00     0.022 C 
ATOM     26  C   UNL A   1      41.807  45.213  16.699  1.00  0.00     0.022 C 
ATOM     27  C   UNL A   1      42.287  46.655  16.553  1.00  0.00     0.004 C 
ENDBRANCH  20  22
ENDBRANCH  15  16
ENDBRANCH   8   9
ENDBRANCH   6   8
ENDBRANCH   5   6
ENDBRANCH   4   5
ENDBRANCH   3   4
ENDBRANCH   2   3
ENDBRANCH   1   2
BRANCH   1  28
ATOM     28  C   UNL A   1      48.430  38.922  27.953  1.00  0.00     0.188 C 
BRANCH  28  29
ATOM     29  O   UNL A   1      47.706  38.258  26.927  1.00  0.00    -0.376 OA
BRANCH  29  30
ATOM     30  C   UNL A   1      46.308  38.046  27.101  1.00  0.00     0.202 C 
BRANCH  30  31
ATOM     31  C   UNL A   1      45.659  38.659  28.340  1.00  0.00     0.261 C 
BRANCH  31  32
ATOM     32  O   UNL A   1      44.498  37.921  28.760  1.00  0.00    -0.460 OA
BRANCH  32  33
ATOM     33  C   UNL A   1      44.681  37.167  29.869  1.00  0.00     0.338 C 
ATOM     34  O   UNL A   1      44.606  37.539  31.028  1.00  0.00    -0.246 OA
BRANCH  33  35
ATOM     35  C   UNL A   1      44.887  35.751  29.522  1.00  0.00     0.060 A 
ATOM     36  C   UNL A   1      44.428  35.325  28.270  1.00  0.00     0.016 A 
ATOM     37  C   UNL A   1      45.333  34.829  30.471  1.00  0.00     0.016 A 
ATOM     38  C   UNL A   1      44.315  33.964  28.001  1.00  0.00     0.010 A 
ATOM     39  C   UNL A   1      45.214  33.461  30.199  1.00  0.00     0.010 A 
ATOM     40  C   UNL A   1      44.642  33.027  28.991  1.00  0.00    -0.014 A 
BRANCH  40  41
ATOM     41  C   UNL A   1      44.171  31.630  28.830  1.00  0.00     0.031 A 
ATOM     42  C   UNL A   1      42.797  31.266  29.334  1.00  0.00     0.074 A 
ATOM     43  C   UNL A   1      44.924  30.710  28.204  1.00  0.00     0.049 A 
ATOM     44  N   UNL A   1      42.145  30.139  29.219  1.00  0.00    -0.248 NA
ATOM     45  C   UNL A   1      42.061  32.312  30.065  1.00  0.00     0.031 C 
ATOM     46  C   UNL A   1      46.270  30.932  27.681  1.00  0.00     0.029 A 
ATOM     47  N   UNL A   1      44.657  29.397  27.908  1.00  0.00    -0.354 N 
ATOM     48  C   UNL A   1      40.934  30.331  29.874  1.00  0.00     0.074 A 
ATOM     49  C   UNL A   1      40.947  31.678  30.402  1.00  0.00     0.031 C 
ATOM     50  C   UNL A   1      46.718  29.788  27.138  1.00  0.00     0.029 A 
ATOM     51  C   UNL A   1      45.694  28.754  27.276  1.00  0.00     0.049 A 
ATOM     52  H   UNL A   1      43.804  28.958  28.128  1.00  0.00     0.167 HD
ATOM     53  C   UNL A   1      39.893  29.476  30.007  1.00  0.00     0.034 A 
ATOM     54  C   UNL A   1      45.799  27.477  26.856  1.00  0.00     0.034 A 
ATOM     55  C   UNL A   1      39.861  28.149  29.457  1.00  0.00     0.049 A 
ATOM     56  C   UNL A   1      44.621  26.547  27.009  1.00  0.00     0.074 A 
ATOM     57  C   UNL A   1      38.829  27.227  29.490  1.00  0.00     0.029 A 
ATOM     58  N   UNL A   1      40.911  27.551  28.781  1.00  0.00    -0.354 N 
ATOM     59  N   UNL A   1      43.429  26.795  27.494  1.00  0.00    -0.248 NA
ATOM     60  C   UNL A   1      44.792  25.172  26.516  1.00  0.00     0.031 C 
ATOM     61  C   UNL A   1      39.261  26.066  28.841  1.00  0.00     0.029 A 
ATOM     62  C   UNL A   1      40.557  26.269  28.396  1.00  0.00     0.049 A 
ATOM     63  H   UNL A   1      41.781  27.974  28.599  1.00  0.00     0.167 HD
ATOM     64  C   UNL A   1      42.697  25.623  27.327  1.00  0.00     0.074 A 
ATOM     65  C   UNL A   1      43.574  24.670  26.682  1.00  0.00     0.031 C 
ATOM     66  C   UNL A   1      41.417  25.355  27.691  1.00  0.00     0.034 A 
BRANCH  53  67
ATOM     67  C   UNL A   1      38.676  29.971  30.742  1.00  0.00     0.023 A 
ATOM     68  C   UNL A   1      38.538  29.687  32.116  1.00  0.00     0.012 A 
ATOM     69  C   UNL A   1      37.701  30.750  30.093  1.00  0.00     0.148 A 
ATOM     70  C   UNL A   1      37.433  30.153  32.828  1.00  0.00     0.002 A 
ATOM     71  C   UNL A   1      36.620  31.241  30.818  1.00  0.00     0.091 A 
ATOM     72  F   UNL A   1      37.836  30.984  28.780  1.00  0.00    -0.205 F 
ATOM     73  C   UNL A   1      36.480  30.937  32.182  1.00  0.00     0.022 A 
BRANCH  71  74
ATOM     74  S   UNL A   1      35.382  32.315  30.084  1.00  0.00     0.127 S 
ATOM     75  O   UNL A   1      36.196  33.443  29.636  1.00  0.00    -0.237 OA
ATOM     76  O   UNL A   1      34.845  31.484  29.006  1.00  0.00    -0.237 OA
ATOM     77  O   UNL A   1      34.430  32.607  31.148  1.00  0.00    -0.744 OA
ENDBRANCH  71  74
ENDBRANCH  53  67
BRANCH  54  78
ATOM     78  C   UNL A   1      47.042  27.020  26.177  1.00  0.00     0.023 A 
ATOM     79  C   UNL A   1      47.180  27.211  24.788  1.00  0.00     0.012 A 
ATOM     80  C   UNL A   1      48.091  26.414  26.895  1.00  0.00     0.148 A 
ATOM     81  C   UNL A   1      48.327  26.780  24.121  1.00  0.00     0.002 A 
ATOM     82  C   UNL A   1      49.254  26.033  26.234  1.00  0.00     0.091 A 
ATOM     83  F   UNL A   1      47.933  26.223  28.212  1.00  0.00    -0.205 F 
ATOM     84  C   UNL A   1      49.368  26.202  24.845  1.00  0.00     0.022 A 
BRANCH  82  85
ATOM     85  S   UNL A   1      50.687  25.390  27.105  1.00  0.00     0.127 S 
ATOM     86  O   UNL A   1      51.558  24.999  26.000  1.00  0.00    -0.237 OA
ATOM     87  O   UNL A   1      51.136  26.561  27.860  1.00  0.00    -0.237 OA
ATOM     88  O   UNL A   1      50.184  24.303  27.934  1.00  0.00    -0.744 OA
ENDBRANCH  82  85
ENDBRANCH  54  78
BRANCH  66  89
ATOM     89  C   UNL A   1      40.868  23.988  27.373  1.00  0.00     0.023 A 
ATOM     90  C   UNL A   1      41.433  22.851  27.982  1.00  0.00     0.012 A 
ATOM     91  C   UNL A   1      39.745  23.837  26.535  1.00  0.00     0.148 A 
ATOM     92  C   UNL A   1      40.907  21.582  27.741  1.00  0.00     0.002 A 
ATOM     93  C   UNL A   1      39.200  22.572  26.334  1.00  0.00     0.091 A 
ATOM     94  F   UNL A   1      39.231  24.925  25.945  1.00  0.00    -0.205 F 
ATOM     95  C   UNL A   1      39.785  21.443  26.928  1.00  0.00     0.022 A 
BRANCH  93  96
ATOM     96  S   UNL A   1      37.700  22.332  25.374  1.00  0.00     0.127 S 
ATOM     97  O   UNL A   1      37.708  23.505  24.503  1.00  0.00    -0.237 OA
ATOM     98  O   UNL A   1      37.960  21.064  24.689  1.00  0.00    -0.237 OA
ATOM     99  O   UNL A   1      36.619  22.271  26.349  1.00  0.00    -0.744 OA
ENDBRANCH  93  96
ENDBRANCH  66  89
ENDBRANCH  40  41
ENDBRANCH  33  35
ENDBRANCH  32  33
ENDBRANCH  31  32
ENDBRANCH  30  31
ENDBRANCH  29  30
ENDBRANCH  28  29
ENDBRANCH   1  28
TORSDOF 23
ENDMDL
