MODEL 1
REMARK VINA RESULT:      -6.8      0.000      0.000
REMARK SMILES O=C(N[C@@H](Cc1ccc(O)cc1)C(=O)N[C@@H](Cc1c[nH]c2ccccc12)C(=O)N[C@@H](CO)C(=O)OCCOCCOCCOC(=O)c1ccc(-c2c3nc(c(-c4cccc(S(=O)(=O)[O-])c4F)c4ccc([nH]4)c(-c4cccc(S(=O)(=O)[O-])c4F)c4nc(c(-c5cccc(S(=O)(=O)[O-])c5F)c5ccc2[nH]5)C=C4)C=C3)cc1)c1ccc(F)cc1
REMARK SMILES IDX 37 1 36 2 35 3 33 4 34 5 30 6 29 7 27 8 28 9 16 11 15 12
REMARK SMILES IDX 13 13 14 14 4 16 3 17 1 18 2 19 110 21 111 22 116 23 112 24
REMARK SMILES IDX 115 25 113 26 114 27 5 28 6 29 7 30 12 31 8 32 11 33 9 34
REMARK SMILES IDX 10 35 17 37 18 38 19 39 26 40 20 41 21 42 25 43 22 45 24 46
REMARK SMILES IDX 23 47 31 48 32 49 38 51 39 52 40 53 41 54 42 55 43 56 44 57
REMARK SMILES IDX 45 58 46 59 47 60 48 61 109 62 49 63 108 64 50 65 51 66
REMARK SMILES IDX 52 67 102 68 53 69 107 70 101 71 103 72 54 73 106 74 100 75
REMARK SMILES IDX 99 76 55 78 87 79 67 80 86 81 68 82 71 83 85 84 104 85 69 86
REMARK SMILES IDX 70 87 84 89 105 90 72 91 56 92 57 93 65 94 58 95 60 96 66 97
REMARK SMILES IDX 59 98 61 99 62 100 63 101 64 102 88 103 89 104 97 105 90 106
REMARK SMILES IDX 92 107 98 108 91 109 93 110 94 111 95 112 96 113 73 114
REMARK SMILES IDX 74 115 82 116 75 117 77 118 83 119 76 120 78 121 79 122
REMARK SMILES IDX 80 123 81 124
REMARK H PARENT 29 10 15 15 3 20 10 36 20 44 32 50 103 77 71 88
REMARK Flexibility Score: inf
ROOT
ATOM      1  C   UNL A   1      40.562  27.342  27.241  1.00  0.00     0.202 C 
ENDROOT
BRANCH   1   2
ATOM      2  C   UNL A   1      42.069  27.373  27.526  1.00  0.00     0.261 C 
BRANCH   2   3
ATOM      3  O   UNL A   1      42.389  28.130  28.713  1.00  0.00    -0.462 OA
BRANCH   3   4
ATOM      4  C   UNL A   1      43.196  29.208  28.557  1.00  0.00     0.331 C 
ATOM      5  O   UNL A   1      44.013  29.324  27.649  1.00  0.00    -0.250 OA
BRANCH   4   6
ATOM      6  C   UNL A   1      43.036  30.243  29.685  1.00  0.00     0.218 C 
BRANCH   6   7
ATOM      7  N   UNL A   1      42.107  29.960  30.807  1.00  0.00    -0.339 N 
ATOM      8  C   UNL A   1      40.744  30.038  30.618  1.00  0.00     0.243 C 
ATOM      9  O   UNL A   1      40.274  31.090  30.170  1.00  0.00    -0.273 OA
ATOM     10  H   UNL A   1      42.466  29.716  31.691  1.00  0.00     0.164 HD
BRANCH   8  11
ATOM     11  C   UNL A   1      39.796  28.854  31.070  1.00  0.00     0.175 C 
BRANCH  11  12
ATOM     12  N   UNL A   1      39.814  28.874  32.555  1.00  0.00    -0.342 N 
ATOM     13  C   UNL A   1      39.806  29.842  33.501  1.00  0.00     0.243 C 
ATOM     14  O   UNL A   1      39.173  29.567  34.531  1.00  0.00    -0.273 OA
ATOM     15  H   UNL A   1      39.838  27.969  32.942  1.00  0.00     0.164 HD
BRANCH  13  16
ATOM     16  C   UNL A   1      40.492  31.215  33.400  1.00  0.00     0.176 C 
BRANCH  16  17
ATOM     17  N   UNL A   1      39.773  32.279  34.085  1.00  0.00    -0.340 N 
ATOM     18  O   UNL A   1      38.848  34.315  34.308  1.00  0.00    -0.269 OA
ATOM     19  C   UNL A   1      39.386  33.507  33.577  1.00  0.00     0.251 C 
ATOM     20  H   UNL A   1      39.533  32.105  35.024  1.00  0.00     0.164 HD
BRANCH  19  21
ATOM     21  C   UNL A   1      39.702  33.860  32.164  1.00  0.00     0.040 A 
ATOM     22  C   UNL A   1      41.017  34.116  31.750  1.00  0.00     0.017 A 
ATOM     23  C   UNL A   1      38.646  33.974  31.249  1.00  0.00     0.017 A 
ATOM     24  C   UNL A   1      41.261  34.579  30.454  1.00  0.00     0.040 A 
ATOM     25  C   UNL A   1      38.897  34.424  29.949  1.00  0.00     0.040 A 
ATOM     26  C   UNL A   1      40.199  34.742  29.570  1.00  0.00     0.123 A 
ATOM     27  F   UNL A   1      40.434  35.221  28.341  1.00  0.00    -0.207 F 
ENDBRANCH  19  21
ENDBRANCH  16  17
BRANCH  16  28
ATOM     28  C   UNL A   1      42.019  31.235  33.559  1.00  0.00     0.070 C 
BRANCH  28  29
ATOM     29  C   UNL A   1      42.582  31.325  34.951  1.00  0.00    -0.045 A 
ATOM     30  C   UNL A   1      41.750  31.658  36.028  1.00  0.00     0.007 A 
ATOM     31  C   UNL A   1      43.932  31.037  35.196  1.00  0.00     0.007 A 
ATOM     32  C   UNL A   1      42.274  31.786  37.316  1.00  0.00     0.046 A 
ATOM     33  C   UNL A   1      44.447  31.123  36.490  1.00  0.00     0.046 A 
ATOM     34  C   UNL A   1      43.622  31.530  37.532  1.00  0.00     0.115 A 
BRANCH  34  35
ATOM     35  O   UNL A   1      44.177  31.675  38.768  1.00  0.00    -0.508 OA
ATOM     36  H   UNL A   1      44.143  30.969  39.382  1.00  0.00     0.293 HD
ENDBRANCH  34  35
ENDBRANCH  28  29
ENDBRANCH  16  28
ENDBRANCH  13  16
ENDBRANCH  11  12
BRANCH  11  37
ATOM     37  C   UNL A   1      38.358  28.872  30.523  1.00  0.00     0.072 C 
BRANCH  37  38
ATOM     38  C   UNL A   1      37.419  30.014  30.823  1.00  0.00    -0.020 A 
ATOM     39  C   UNL A   1      36.862  30.193  32.081  1.00  0.00     0.087 A 
ATOM     40  C   UNL A   1      36.864  31.056  29.997  1.00  0.00     0.003 A 
ATOM     41  N   UNL A   1      35.932  31.190  32.020  1.00  0.00    -0.361 N 
ATOM     42  C   UNL A   1      35.827  31.646  30.730  1.00  0.00     0.046 A 
ATOM     43  C   UNL A   1      37.025  31.484  28.660  1.00  0.00     0.010 A 
ATOM     44  H   UNL A   1      35.415  31.532  32.785  1.00  0.00     0.166 HD
ATOM     45  C   UNL A   1      34.885  32.516  30.164  1.00  0.00     0.026 A 
ATOM     46  C   UNL A   1      36.080  32.336  28.070  1.00  0.00     0.001 A 
ATOM     47  C   UNL A   1      35.008  32.819  28.807  1.00  0.00     0.002 A 
ENDBRANCH  37  38
ENDBRANCH  11  37
ENDBRANCH   8  11
ENDBRANCH   6   7
BRANCH   6  48
ATOM     48  C   UNL A   1      44.437  30.677  30.128  1.00  0.00     0.193 C 
BRANCH  48  49
ATOM     49  O   UNL A   1      45.293  29.549  30.307  1.00  0.00    -0.394 OA
ATOM     50  H   UNL A   1      44.853  28.896  30.874  1.00  0.00     0.210 HD
ENDBRANCH  48  49
ENDBRANCH   6  48
ENDBRANCH   4   6
ENDBRANCH   3   4
ENDBRANCH   2   3
ENDBRANCH   1   2
BRANCH   1  51
ATOM     51  O   UNL A   1      40.008  26.031  27.121  1.00  0.00    -0.376 OA
BRANCH  51  52
ATOM     52  C   UNL A   1      40.971  25.004  26.934  1.00  0.00     0.188 C 
BRANCH  52  53
ATOM     53  C   UNL A   1      41.063  23.990  28.089  1.00  0.00     0.188 C 
BRANCH  53  54
ATOM     54  O   UNL A   1      41.349  22.616  27.860  1.00  0.00    -0.376 OA
BRANCH  54  55
ATOM     55  C   UNL A   1      41.354  22.183  26.500  1.00  0.00     0.202 C 
BRANCH  55  56
ATOM     56  C   UNL A   1      42.700  21.948  25.785  1.00  0.00     0.261 C 
BRANCH  56  57
ATOM     57  O   UNL A   1      42.876  22.684  24.560  1.00  0.00    -0.460 OA
BRANCH  57  58
ATOM     58  C   UNL A   1      44.164  22.856  24.169  1.00  0.00     0.338 C 
ATOM     59  O   UNL A   1      44.725  22.313  23.225  1.00  0.00    -0.246 OA
BRANCH  58  60
ATOM     60  C   UNL A   1      44.805  23.933  24.946  1.00  0.00     0.060 A 
ATOM     61  C   UNL A   1      45.980  23.644  25.660  1.00  0.00     0.016 A 
ATOM     62  C   UNL A   1      44.170  25.165  25.101  1.00  0.00     0.016 A 
ATOM     63  C   UNL A   1      46.512  24.576  26.549  1.00  0.00     0.010 A 
ATOM     64  C   UNL A   1      44.684  26.084  26.022  1.00  0.00     0.010 A 
ATOM     65  C   UNL A   1      45.831  25.775  26.779  1.00  0.00    -0.014 A 
BRANCH  65  66
ATOM     66  C   UNL A   1      46.169  26.567  27.986  1.00  0.00     0.031 A 
ATOM     67  C   UNL A   1      47.036  27.788  27.812  1.00  0.00     0.074 A 
ATOM     68  C   UNL A   1      45.707  26.232  29.204  1.00  0.00     0.049 A 
ATOM     69  N   UNL A   1      47.534  28.590  28.716  1.00  0.00    -0.248 NA
ATOM     70  C   UNL A   1      47.397  28.145  26.428  1.00  0.00     0.031 C 
ATOM     71  C   UNL A   1      44.826  25.103  29.498  1.00  0.00     0.029 A 
ATOM     72  N   UNL A   1      45.936  26.809  30.428  1.00  0.00    -0.354 N 
ATOM     73  C   UNL A   1      48.301  29.515  28.018  1.00  0.00     0.074 A 
ATOM     74  C   UNL A   1      48.200  29.183  26.614  1.00  0.00     0.031 C 
ATOM     75  C   UNL A   1      44.610  25.056  30.824  1.00  0.00     0.029 A 
ATOM     76  C   UNL A   1      45.359  26.131  31.474  1.00  0.00     0.049 A 
ATOM     77  H   UNL A   1      46.465  27.631  30.545  1.00  0.00     0.167 HD
ATOM     78  C   UNL A   1      49.022  30.553  28.501  1.00  0.00     0.034 A 
ATOM     79  C   UNL A   1      45.447  26.346  32.803  1.00  0.00     0.034 A 
ATOM     80  C   UNL A   1      49.078  30.918  29.889  1.00  0.00     0.049 A 
ATOM     81  C   UNL A   1      46.252  27.519  33.309  1.00  0.00     0.074 A 
ATOM     82  C   UNL A   1      49.763  31.969  30.473  1.00  0.00     0.029 A 
ATOM     83  N   UNL A   1      48.421  30.250  30.908  1.00  0.00    -0.354 N 
ATOM     84  N   UNL A   1      46.904  28.434  32.633  1.00  0.00    -0.248 NA
ATOM     85  C   UNL A   1      46.308  27.707  34.768  1.00  0.00     0.031 C 
ATOM     86  C   UNL A   1      49.531  31.927  31.850  1.00  0.00     0.029 A 
ATOM     87  C   UNL A   1      48.685  30.864  32.119  1.00  0.00     0.049 A 
ATOM     88  H   UNL A   1      47.850  29.457  30.788  1.00  0.00     0.167 HD
ATOM     89  C   UNL A   1      47.401  29.328  33.576  1.00  0.00     0.074 A 
ATOM     90  C   UNL A   1      46.962  28.856  34.871  1.00  0.00     0.031 C 
ATOM     91  C   UNL A   1      48.168  30.430  33.391  1.00  0.00     0.034 A 
BRANCH  78  92
ATOM     92  C   UNL A   1      49.807  31.379  27.522  1.00  0.00     0.023 A 
ATOM     93  C   UNL A   1      50.997  30.870  26.967  1.00  0.00     0.012 A 
ATOM     94  C   UNL A   1      49.321  32.631  27.097  1.00  0.00     0.148 A 
ATOM     95  C   UNL A   1      51.702  31.602  26.013  1.00  0.00     0.002 A 
ATOM     96  C   UNL A   1      50.006  33.336  26.116  1.00  0.00     0.091 A 
ATOM     97  F   UNL A   1      48.201  33.105  27.659  1.00  0.00    -0.205 F 
ATOM     98  C   UNL A   1      51.201  32.828  25.579  1.00  0.00     0.022 A 
BRANCH  96  99
ATOM     99  S   UNL A   1      49.403  34.886  25.438  1.00  0.00     0.127 S 
ATOM    100  O   UNL A   1      50.399  35.164  24.403  1.00  0.00    -0.237 OA
ATOM    101  O   UNL A   1      48.085  34.506  24.930  1.00  0.00    -0.237 OA
ATOM    102  O   UNL A   1      49.380  35.831  26.546  1.00  0.00    -0.744 OA
ENDBRANCH  96  99
ENDBRANCH  78  92
BRANCH  79 103
ATOM    103  C   UNL A   1      44.745  25.446  33.763  1.00  0.00     0.023 A 
ATOM    104  C   UNL A   1      45.237  24.145  33.986  1.00  0.00     0.012 A 
ATOM    105  C   UNL A   1      43.576  25.859  34.431  1.00  0.00     0.148 A 
ATOM    106  C   UNL A   1      44.551  23.256  34.815  1.00  0.00     0.002 A 
ATOM    107  C   UNL A   1      42.931  24.988  35.303  1.00  0.00     0.091 A 
ATOM    108  F   UNL A   1      43.102  27.090  34.191  1.00  0.00    -0.205 F 
ATOM    109  C   UNL A   1      43.404  23.680  35.480  1.00  0.00     0.022 A 
BRANCH 107 110
ATOM    110  S   UNL A   1      41.528  25.512  36.294  1.00  0.00     0.127 S 
ATOM    111  O   UNL A   1      42.127  26.530  37.152  1.00  0.00    -0.237 OA
ATOM    112  O   UNL A   1      40.604  26.026  35.281  1.00  0.00    -0.237 OA
ATOM    113  O   UNL A   1      41.060  24.303  36.961  1.00  0.00    -0.744 OA
ENDBRANCH 107 110
ENDBRANCH  79 103
BRANCH  91 114
ATOM    114  C   UNL A   1      48.537  31.246  34.603  1.00  0.00     0.023 A 
ATOM    115  C   UNL A   1      49.743  30.988  35.283  1.00  0.00     0.012 A 
ATOM    116  C   UNL A   1      47.725  32.320  35.018  1.00  0.00     0.148 A 
ATOM    117  C   UNL A   1      50.117  31.764  36.380  1.00  0.00     0.002 A 
ATOM    118  C   UNL A   1      48.129  33.118  36.082  1.00  0.00     0.091 A 
ATOM    119  F   UNL A   1      46.572  32.541  34.371  1.00  0.00    -0.205 F 
ATOM    120  C   UNL A   1      49.317  32.835  36.771  1.00  0.00     0.022 A 
BRANCH 118 121
ATOM    121  S   UNL A   1      47.203  34.576  36.578  1.00  0.00     0.127 S 
ATOM    122  O   UNL A   1      46.705  35.068  35.295  1.00  0.00    -0.237 OA
ATOM    123  O   UNL A   1      46.174  34.014  37.455  1.00  0.00    -0.237 OA
ATOM    124  O   UNL A   1      48.160  35.439  37.258  1.00  0.00    -0.744 OA
ENDBRANCH 118 121
ENDBRANCH  91 114
ENDBRANCH  65  66
ENDBRANCH  58  60
ENDBRANCH  57  58
ENDBRANCH  56  57
ENDBRANCH  55  56
ENDBRANCH  54  55
ENDBRANCH  53  54
ENDBRANCH  52  53
ENDBRANCH  51  52
ENDBRANCH   1  51
TORSDOF 33
ENDMDL
MODEL 2
REMARK VINA RESULT:      -6.3      3.781     10.274
REMARK SMILES O=C(N[C@@H](Cc1ccc(O)cc1)C(=O)N[C@@H](Cc1c[nH]c2ccccc12)C(=O)N[C@@H](CO)C(=O)OCCOCCOCCOC(=O)c1ccc(-c2c3nc(c(-c4cccc(S(=O)(=O)[O-])c4F)c4ccc([nH]4)c(-c4cccc(S(=O)(=O)[O-])c4F)c4nc(c(-c5cccc(S(=O)(=O)[O-])c5F)c5ccc2[nH]5)C=C4)C=C3)cc1)c1ccc(F)cc1
REMARK SMILES IDX 37 1 36 2 35 3 33 4 34 5 30 6 29 7 27 8 28 9 16 11 15 12
REMARK SMILES IDX 13 13 14 14 4 16 3 17 1 18 2 19 110 21 111 22 116 23 112 24
REMARK SMILES IDX 115 25 113 26 114 27 5 28 6 29 7 30 12 31 8 32 11 33 9 34
REMARK SMILES IDX 10 35 17 37 18 38 19 39 26 40 20 41 21 42 25 43 22 45 24 46
REMARK SMILES IDX 23 47 31 48 32 49 38 51 39 52 40 53 41 54 42 55 43 56 44 57
REMARK SMILES IDX 45 58 46 59 47 60 48 61 109 62 49 63 108 64 50 65 51 66
REMARK SMILES IDX 52 67 102 68 53 69 107 70 101 71 103 72 54 73 106 74 100 75
REMARK SMILES IDX 99 76 55 78 87 79 67 80 86 81 68 82 71 83 85 84 104 85 69 86
REMARK SMILES IDX 70 87 84 89 105 90 72 91 56 92 57 93 65 94 58 95 60 96 66 97
REMARK SMILES IDX 59 98 61 99 62 100 63 101 64 102 88 103 89 104 97 105 90 106
REMARK SMILES IDX 92 107 98 108 91 109 93 110 94 111 95 112 96 113 73 114
REMARK SMILES IDX 74 115 82 116 75 117 77 118 83 119 76 120 78 121 79 122
REMARK SMILES IDX 80 123 81 124
REMARK H PARENT 29 10 15 15 3 20 10 36 20 44 32 50 103 77 71 88
REMARK Flexibility Score: inf
ROOT
ATOM      1  C   UNL A   1      53.863  29.096  24.933  1.00  0.00     0.202 C 
ENDROOT
BRANCH   1   2
ATOM      2  C   UNL A   1      52.471  28.751  24.388  1.00  0.00     0.261 C 
BRANCH   2   3
ATOM      3  O   UNL A   1      51.758  27.832  25.244  1.00  0.00    -0.462 OA
BRANCH   3   4
ATOM      4  C   UNL A   1      50.532  28.217  25.676  1.00  0.00     0.331 C 
ATOM      5  O   UNL A   1      50.141  29.381  25.670  1.00  0.00    -0.250 OA
BRANCH   4   6
ATOM      6  C   UNL A   1      49.705  27.052  26.249  1.00  0.00     0.218 C 
BRANCH   6   7
ATOM      7  N   UNL A   1      48.586  27.344  27.180  1.00  0.00    -0.339 N 
ATOM      8  C   UNL A   1      48.803  27.371  28.541  1.00  0.00     0.243 C 
ATOM      9  O   UNL A   1      49.312  26.379  29.073  1.00  0.00    -0.273 OA
ATOM     10  H   UNL A   1      47.685  27.517  26.823  1.00  0.00     0.164 HD
BRANCH   8  11
ATOM     11  C   UNL A   1      48.306  28.594  29.413  1.00  0.00     0.175 C 
BRANCH  11  12
ATOM     12  N   UNL A   1      48.540  28.199  30.825  1.00  0.00    -0.342 N 
ATOM     13  C   UNL A   1      47.863  27.467  31.740  1.00  0.00     0.243 C 
ATOM     14  O   UNL A   1      48.571  26.796  32.506  1.00  0.00    -0.273 OA
ATOM     15  H   UNL A   1      49.388  28.554  31.179  1.00  0.00     0.164 HD
BRANCH  13  16
ATOM     16  C   UNL A   1      46.335  27.398  31.897  1.00  0.00     0.176 C 
BRANCH  16  17
ATOM     17  N   UNL A   1      45.668  28.675  31.688  1.00  0.00    -0.340 N 
ATOM     18  O   UNL A   1      44.153  30.286  32.086  1.00  0.00    -0.269 OA
ATOM     19  C   UNL A   1      44.648  29.233  32.439  1.00  0.00     0.251 C 
ATOM     20  H   UNL A   1      45.981  29.206  30.920  1.00  0.00     0.164 HD
BRANCH  19  21
ATOM     21  C   UNL A   1      44.112  28.505  33.623  1.00  0.00     0.040 A 
ATOM     22  C   UNL A   1      42.953  27.722  33.537  1.00  0.00     0.017 A 
ATOM     23  C   UNL A   1      44.769  28.649  34.853  1.00  0.00     0.017 A 
ATOM     24  C   UNL A   1      42.401  27.166  34.695  1.00  0.00     0.040 A 
ATOM     25  C   UNL A   1      44.221  28.080  36.007  1.00  0.00     0.040 A 
ATOM     26  C   UNL A   1      43.031  27.361  35.920  1.00  0.00     0.123 A 
ATOM     27  F   UNL A   1      42.478  26.857  37.032  1.00  0.00    -0.207 F 
ENDBRANCH  19  21
ENDBRANCH  16  17
BRANCH  16  28
ATOM     28  C   UNL A   1      45.634  26.175  31.287  1.00  0.00     0.070 C 
BRANCH  28  29
ATOM     29  C   UNL A   1      45.184  25.084  32.219  1.00  0.00    -0.045 A 
ATOM     30  C   UNL A   1      44.334  24.069  31.760  1.00  0.00     0.007 A 
ATOM     31  C   UNL A   1      45.641  25.043  33.544  1.00  0.00     0.007 A 
ATOM     32  C   UNL A   1      43.878  23.077  32.631  1.00  0.00     0.046 A 
ATOM     33  C   UNL A   1      45.218  24.028  34.404  1.00  0.00     0.046 A 
ATOM     34  C   UNL A   1      44.315  23.075  33.950  1.00  0.00     0.115 A 
BRANCH  34  35
ATOM     35  O   UNL A   1      43.867  22.144  34.838  1.00  0.00    -0.508 OA
ATOM     36  H   UNL A   1      44.223  21.278  34.828  1.00  0.00     0.293 HD
ENDBRANCH  34  35
ENDBRANCH  28  29
ENDBRANCH  16  28
ENDBRANCH  13  16
ENDBRANCH  11  12
BRANCH  11  37
ATOM     37  C   UNL A   1      48.929  29.966  29.100  1.00  0.00     0.072 C 
BRANCH  37  38
ATOM     38  C   UNL A   1      49.271  30.941  30.198  1.00  0.00    -0.020 A 
ATOM     39  C   UNL A   1      50.576  31.126  30.633  1.00  0.00     0.087 A 
ATOM     40  C   UNL A   1      48.457  31.788  31.032  1.00  0.00     0.003 A 
ATOM     41  N   UNL A   1      50.569  31.930  31.736  1.00  0.00    -0.361 N 
ATOM     42  C   UNL A   1      49.277  32.244  32.072  1.00  0.00     0.046 A 
ATOM     43  C   UNL A   1      47.085  32.120  31.109  1.00  0.00     0.010 A 
ATOM     44  H   UNL A   1      51.370  32.238  32.219  1.00  0.00     0.166 HD
ATOM     45  C   UNL A   1      48.780  32.876  33.220  1.00  0.00     0.026 A 
ATOM     46  C   UNL A   1      46.566  32.732  32.258  1.00  0.00     0.001 A 
ATOM     47  C   UNL A   1      47.401  33.076  33.312  1.00  0.00     0.002 A 
ENDBRANCH  37  38
ENDBRANCH  11  37
ENDBRANCH   8  11
ENDBRANCH   6   7
BRANCH   6  48
ATOM     48  C   UNL A   1      49.329  26.126  25.089  1.00  0.00     0.193 C 
BRANCH  48  49
ATOM     49  O   UNL A   1      47.959  25.733  25.166  1.00  0.00    -0.394 OA
ATOM     50  H   UNL A   1      47.905  24.771  25.282  1.00  0.00     0.210 HD
ENDBRANCH  48  49
ENDBRANCH   6  48
ENDBRANCH   4   6
ENDBRANCH   3   4
ENDBRANCH   2   3
ENDBRANCH   1   2
BRANCH   1  51
ATOM     51  O   UNL A   1      54.882  29.191  23.937  1.00  0.00    -0.376 OA
BRANCH  51  52
ATOM     52  C   UNL A   1      55.502  30.466  23.854  1.00  0.00     0.188 C 
BRANCH  52  53
ATOM     53  C   UNL A   1      54.525  31.653  23.783  1.00  0.00     0.188 C 
BRANCH  53  54
ATOM     54  O   UNL A   1      53.832  31.984  22.587  1.00  0.00    -0.376 OA
BRANCH  54  55
ATOM     55  C   UNL A   1      52.846  33.012  22.682  1.00  0.00     0.202 C 
BRANCH  55  56
ATOM     56  C   UNL A   1      52.687  33.788  24.004  1.00  0.00     0.261 C 
BRANCH  56  57
ATOM     57  O   UNL A   1      51.342  33.856  24.514  1.00  0.00    -0.460 OA
BRANCH  57  58
ATOM     58  C   UNL A   1      50.844  35.109  24.667  1.00  0.00     0.338 C 
ATOM     59  O   UNL A   1      51.110  36.095  23.991  1.00  0.00    -0.246 OA
BRANCH  58  60
ATOM     60  C   UNL A   1      49.780  35.125  25.689  1.00  0.00     0.060 A 
ATOM     61  C   UNL A   1      49.903  34.282  26.806  1.00  0.00     0.016 A 
ATOM     62  C   UNL A   1      48.602  35.838  25.470  1.00  0.00     0.016 A 
ATOM     63  C   UNL A   1      48.842  34.130  27.696  1.00  0.00     0.010 A 
ATOM     64  C   UNL A   1      47.524  35.655  26.343  1.00  0.00     0.010 A 
ATOM     65  C   UNL A   1      47.626  34.769  27.433  1.00  0.00    -0.014 A 
BRANCH  65  66
ATOM     66  C   UNL A   1      46.408  34.302  28.137  1.00  0.00     0.031 A 
ATOM     67  C   UNL A   1      45.916  35.109  29.311  1.00  0.00     0.074 A 
ATOM     68  C   UNL A   1      45.738  33.205  27.740  1.00  0.00     0.049 A 
ATOM     69  N   UNL A   1      44.931  34.865  30.134  1.00  0.00    -0.248 NA
ATOM     70  C   UNL A   1      46.643  36.359  29.600  1.00  0.00     0.031 C 
ATOM     71  C   UNL A   1      46.086  32.366  26.595  1.00  0.00     0.029 A 
ATOM     72  N   UNL A   1      44.629  32.602  28.277  1.00  0.00    -0.354 N 
ATOM     73  C   UNL A   1      44.947  35.900  31.061  1.00  0.00     0.074 A 
ATOM     74  C   UNL A   1      46.035  36.781  30.700  1.00  0.00     0.031 C 
ATOM     75  C   UNL A   1      45.219  31.339  26.532  1.00  0.00     0.029 A 
ATOM     76  C   UNL A   1      44.276  31.435  27.646  1.00  0.00     0.049 A 
ATOM     77  H   UNL A   1      44.134  32.972  29.043  1.00  0.00     0.167 HD
ATOM     78  C   UNL A   1      44.127  36.102  32.118  1.00  0.00     0.034 A 
ATOM     79  C   UNL A   1      43.316  30.538  27.950  1.00  0.00     0.034 A 
ATOM     80  C   UNL A   1      43.012  35.258  32.446  1.00  0.00     0.049 A 
ATOM     81  C   UNL A   1      42.410  30.799  29.131  1.00  0.00     0.074 A 
ATOM     82  C   UNL A   1      42.108  35.395  33.484  1.00  0.00     0.029 A 
ATOM     83  N   UNL A   1      42.645  34.126  31.739  1.00  0.00    -0.354 N 
ATOM     84  N   UNL A   1      42.385  31.823  29.949  1.00  0.00    -0.248 NA
ATOM     85  C   UNL A   1      41.377  29.789  29.412  1.00  0.00     0.031 C 
ATOM     86  C   UNL A   1      41.200  34.335  33.414  1.00  0.00     0.029 A 
ATOM     87  C   UNL A   1      41.528  33.552  32.319  1.00  0.00     0.049 A 
ATOM     88  H   UNL A   1      43.109  33.782  30.941  1.00  0.00     0.167 HD
ATOM     89  C   UNL A   1      41.310  31.606  30.804  1.00  0.00     0.074 A 
ATOM     90  C   UNL A   1      40.696  30.360  30.396  1.00  0.00     0.031 C 
ATOM     91  C   UNL A   1      40.878  32.358  31.846  1.00  0.00     0.034 A 
BRANCH  78  92
ATOM     92  C   UNL A   1      44.396  37.289  32.999  1.00  0.00     0.023 A 
ATOM     93  C   UNL A   1      45.228  37.152  34.128  1.00  0.00     0.012 A 
ATOM     94  C   UNL A   1      43.885  38.557  32.662  1.00  0.00     0.148 A 
ATOM     95  C   UNL A   1      45.533  38.259  34.919  1.00  0.00     0.002 A 
ATOM     96  C   UNL A   1      44.226  39.662  33.430  1.00  0.00     0.091 A 
ATOM     97  F   UNL A   1      43.076  38.655  31.597  1.00  0.00    -0.205 F 
ATOM     98  C   UNL A   1      45.043  39.514  34.564  1.00  0.00     0.022 A 
BRANCH  96  99
ATOM     99  S   UNL A   1      43.708  41.330  33.012  1.00  0.00     0.127 S 
ATOM    100  O   UNL A   1      44.035  42.058  34.237  1.00  0.00    -0.237 OA
ATOM    101  O   UNL A   1      44.569  41.641  31.870  1.00  0.00    -0.237 OA
ATOM    102  O   UNL A   1      42.288  41.246  32.700  1.00  0.00    -0.744 OA
ENDBRANCH  96  99
ENDBRANCH  78  92
BRANCH  79 103
ATOM    103  C   UNL A   1      43.136  29.310  27.123  1.00  0.00     0.023 A 
ATOM    104  C   UNL A   1      42.143  29.281  26.125  1.00  0.00     0.012 A 
ATOM    105  C   UNL A   1      43.921  28.161  27.341  1.00  0.00     0.148 A 
ATOM    106  C   UNL A   1      41.901  28.116  25.394  1.00  0.00     0.002 A 
ATOM    107  C   UNL A   1      43.715  27.023  26.569  1.00  0.00     0.091 A 
ATOM    108  F   UNL A   1      44.845  28.191  28.312  1.00  0.00    -0.205 F 
ATOM    109  C   UNL A   1      42.692  26.991  25.610  1.00  0.00     0.022 A 
BRANCH 107 110
ATOM    110  S   UNL A   1      44.783  25.586  26.700  1.00  0.00     0.127 S 
ATOM    111  O   UNL A   1      45.886  26.101  27.506  1.00  0.00    -0.237 OA
ATOM    112  O   UNL A   1      43.922  24.617  27.381  1.00  0.00    -0.237 OA
ATOM    113  O   UNL A   1      45.106  25.223  25.325  1.00  0.00    -0.744 OA
ENDBRANCH 107 110
ENDBRANCH  79 103
BRANCH  91 114
ATOM    114  C   UNL A   1      39.648  31.898  32.588  1.00  0.00     0.023 A 
ATOM    115  C   UNL A   1      39.758  30.909  33.583  1.00  0.00     0.012 A 
ATOM    116  C   UNL A   1      38.400  32.507  32.351  1.00  0.00     0.148 A 
ATOM    117  C   UNL A   1      38.635  30.505  34.307  1.00  0.00     0.002 A 
ATOM    118  C   UNL A   1      37.297  32.134  33.109  1.00  0.00     0.091 A 
ATOM    119  F   UNL A   1      38.310  33.435  31.388  1.00  0.00    -0.205 F 
ATOM    120  C   UNL A   1      37.409  31.125  34.079  1.00  0.00     0.022 A 
BRANCH 118 121
ATOM    121  S   UNL A   1      35.709  32.958  32.944  1.00  0.00     0.127 S 
ATOM    122  O   UNL A   1      36.045  34.087  32.079  1.00  0.00    -0.237 OA
ATOM    123  O   UNL A   1      34.883  31.930  32.308  1.00  0.00    -0.237 OA
ATOM    124  O   UNL A   1      35.298  33.299  34.299  1.00  0.00    -0.744 OA
ENDBRANCH 118 121
ENDBRANCH  91 114
ENDBRANCH  65  66
ENDBRANCH  58  60
ENDBRANCH  57  58
ENDBRANCH  56  57
ENDBRANCH  55  56
ENDBRANCH  54  55
ENDBRANCH  53  54
ENDBRANCH  52  53
ENDBRANCH  51  52
ENDBRANCH   1  51
TORSDOF 33
ENDMDL
MODEL 3
REMARK VINA RESULT:      -6.2      4.722      9.198
REMARK SMILES O=C(N[C@@H](Cc1ccc(O)cc1)C(=O)N[C@@H](Cc1c[nH]c2ccccc12)C(=O)N[C@@H](CO)C(=O)OCCOCCOCCOC(=O)c1ccc(-c2c3nc(c(-c4cccc(S(=O)(=O)[O-])c4F)c4ccc([nH]4)c(-c4cccc(S(=O)(=O)[O-])c4F)c4nc(c(-c5cccc(S(=O)(=O)[O-])c5F)c5ccc2[nH]5)C=C4)C=C3)cc1)c1ccc(F)cc1
REMARK SMILES IDX 37 1 36 2 35 3 33 4 34 5 30 6 29 7 27 8 28 9 16 11 15 12
REMARK SMILES IDX 13 13 14 14 4 16 3 17 1 18 2 19 110 21 111 22 116 23 112 24
REMARK SMILES IDX 115 25 113 26 114 27 5 28 6 29 7 30 12 31 8 32 11 33 9 34
REMARK SMILES IDX 10 35 17 37 18 38 19 39 26 40 20 41 21 42 25 43 22 45 24 46
REMARK SMILES IDX 23 47 31 48 32 49 38 51 39 52 40 53 41 54 42 55 43 56 44 57
REMARK SMILES IDX 45 58 46 59 47 60 48 61 109 62 49 63 108 64 50 65 51 66
REMARK SMILES IDX 52 67 102 68 53 69 107 70 101 71 103 72 54 73 106 74 100 75
REMARK SMILES IDX 99 76 55 78 87 79 67 80 86 81 68 82 71 83 85 84 104 85 69 86
REMARK SMILES IDX 70 87 84 89 105 90 72 91 56 92 57 93 65 94 58 95 60 96 66 97
REMARK SMILES IDX 59 98 61 99 62 100 63 101 64 102 88 103 89 104 97 105 90 106
REMARK SMILES IDX 92 107 98 108 91 109 93 110 94 111 95 112 96 113 73 114
REMARK SMILES IDX 74 115 82 116 75 117 77 118 83 119 76 120 78 121 79 122
REMARK SMILES IDX 80 123 81 124
REMARK H PARENT 29 10 15 15 3 20 10 36 20 44 32 50 103 77 71 88
REMARK Flexibility Score: inf
ROOT
ATOM      1  C   UNL A   1      47.459  30.261  26.226  1.00  0.00     0.202 C 
ENDROOT
BRANCH   1   2
ATOM      2  C   UNL A   1      46.237  31.114  26.592  1.00  0.00     0.261 C 
BRANCH   2   3
ATOM      3  O   UNL A   1      46.316  32.449  26.050  1.00  0.00    -0.462 OA
BRANCH   3   4
ATOM      4  C   UNL A   1      45.979  33.470  26.875  1.00  0.00     0.331 C 
ATOM      5  O   UNL A   1      46.577  33.734  27.914  1.00  0.00    -0.250 OA
BRANCH   4   6
ATOM      6  C   UNL A   1      44.717  34.222  26.415  1.00  0.00     0.218 C 
BRANCH   6   7
ATOM      7  N   UNL A   1      44.825  35.646  26.012  1.00  0.00    -0.339 N 
ATOM      8  C   UNL A   1      43.926  36.574  26.491  1.00  0.00     0.243 C 
ATOM      9  O   UNL A   1      42.719  36.363  26.322  1.00  0.00    -0.273 OA
ATOM     10  H   UNL A   1      45.542  35.929  25.399  1.00  0.00     0.164 HD
BRANCH   8  11
ATOM     11  C   UNL A   1      44.429  37.929  27.136  1.00  0.00     0.175 C 
BRANCH  11  12
ATOM     12  N   UNL A   1      45.523  38.408  26.255  1.00  0.00    -0.342 N 
ATOM     13  C   UNL A   1      46.849  38.153  26.147  1.00  0.00     0.243 C 
ATOM     14  O   UNL A   1      47.294  38.162  24.990  1.00  0.00    -0.273 OA
ATOM     15  H   UNL A   1      45.212  39.066  25.592  1.00  0.00     0.164 HD
BRANCH  13  16
ATOM     16  C   UNL A   1      47.813  37.857  27.308  1.00  0.00     0.176 C 
BRANCH  16  17
ATOM     17  N   UNL A   1      47.326  36.838  28.226  1.00  0.00    -0.340 N 
ATOM     18  O   UNL A   1      47.066  35.827  30.217  1.00  0.00    -0.269 OA
ATOM     19  C   UNL A   1      47.479  36.791  29.601  1.00  0.00     0.251 C 
ATOM     20  H   UNL A   1      46.826  36.093  27.821  1.00  0.00     0.164 HD
BRANCH  19  21
ATOM     21  C   UNL A   1      48.216  37.877  30.305  1.00  0.00     0.040 A 
ATOM     22  C   UNL A   1      47.967  38.177  31.652  1.00  0.00     0.017 A 
ATOM     23  C   UNL A   1      49.147  38.635  29.581  1.00  0.00     0.017 A 
ATOM     24  C   UNL A   1      48.575  39.290  32.242  1.00  0.00     0.040 A 
ATOM     25  C   UNL A   1      49.763  39.739  30.179  1.00  0.00     0.040 A 
ATOM     26  C   UNL A   1      49.455  40.068  31.496  1.00  0.00     0.123 A 
ATOM     27  F   UNL A   1      50.007  41.154  32.055  1.00  0.00    -0.207 F 
ENDBRANCH  19  21
ENDBRANCH  16  17
BRANCH  16  28
ATOM     28  C   UNL A   1      49.307  37.780  26.961  1.00  0.00     0.070 C 
BRANCH  28  29
ATOM     29  C   UNL A   1      49.815  36.519  26.317  1.00  0.00    -0.045 A 
ATOM     30  C   UNL A   1      51.043  36.515  25.642  1.00  0.00     0.007 A 
ATOM     31  C   UNL A   1      49.092  35.322  26.421  1.00  0.00     0.007 A 
ATOM     32  C   UNL A   1      51.500  35.360  25.006  1.00  0.00     0.046 A 
ATOM     33  C   UNL A   1      49.569  34.156  25.821  1.00  0.00     0.046 A 
ATOM     34  C   UNL A   1      50.751  34.193  25.091  1.00  0.00     0.115 A 
BRANCH  34  35
ATOM     35  O   UNL A   1      51.147  33.054  24.457  1.00  0.00    -0.508 OA
ATOM     36  H   UNL A   1      51.061  32.226  24.885  1.00  0.00     0.293 HD
ENDBRANCH  34  35
ENDBRANCH  28  29
ENDBRANCH  16  28
ENDBRANCH  13  16
ENDBRANCH  11  12
BRANCH  11  37
ATOM     37  C   UNL A   1      43.370  39.021  27.366  1.00  0.00     0.072 C 
BRANCH  37  38
ATOM     38  C   UNL A   1      43.387  39.881  28.604  1.00  0.00    -0.020 A 
ATOM     39  C   UNL A   1      42.217  40.277  29.237  1.00  0.00     0.087 A 
ATOM     40  C   UNL A   1      44.459  40.501  29.341  1.00  0.00     0.003 A 
ATOM     41  N   UNL A   1      42.522  41.177  30.217  1.00  0.00    -0.361 N 
ATOM     42  C   UNL A   1      43.872  41.423  30.215  1.00  0.00     0.046 A 
ATOM     43  C   UNL A   1      45.871  40.490  29.279  1.00  0.00     0.010 A 
ATOM     44  H   UNL A   1      41.872  41.587  30.833  1.00  0.00     0.166 HD
ATOM     45  C   UNL A   1      44.603  42.399  30.906  1.00  0.00     0.026 A 
ATOM     46  C   UNL A   1      46.618  41.472  29.945  1.00  0.00     0.001 A 
ATOM     47  C   UNL A   1      45.986  42.432  30.723  1.00  0.00     0.002 A 
ENDBRANCH  37  38
ENDBRANCH  11  37
ENDBRANCH   8  11
ENDBRANCH   6   7
BRANCH   6  48
ATOM     48  C   UNL A   1      43.987  33.338  25.399  1.00  0.00     0.193 C 
BRANCH  48  49
ATOM     49  O   UNL A   1      43.946  33.956  24.113  1.00  0.00    -0.394 OA
ATOM     50  H   UNL A   1      43.102  33.749  23.682  1.00  0.00     0.210 HD
ENDBRANCH  48  49
ENDBRANCH   6  48
ENDBRANCH   4   6
ENDBRANCH   3   4
ENDBRANCH   2   3
ENDBRANCH   1   2
BRANCH   1  51
ATOM     51  O   UNL A   1      47.169  28.886  25.972  1.00  0.00    -0.376 OA
BRANCH  51  52
ATOM     52  C   UNL A   1      47.895  27.975  26.784  1.00  0.00     0.188 C 
BRANCH  52  53
ATOM     53  C   UNL A   1      48.269  26.652  26.092  1.00  0.00     0.188 C 
BRANCH  53  54
ATOM     54  O   UNL A   1      47.413  25.517  26.133  1.00  0.00    -0.376 OA
BRANCH  54  55
ATOM     55  C   UNL A   1      46.386  25.455  25.143  1.00  0.00     0.202 C 
BRANCH  55  56
ATOM     56  C   UNL A   1      45.290  24.376  25.255  1.00  0.00     0.261 C 
BRANCH  56  57
ATOM     57  O   UNL A   1      44.007  24.751  24.719  1.00  0.00    -0.460 OA
BRANCH  57  58
ATOM     58  C   UNL A   1      42.937  24.365  25.459  1.00  0.00     0.338 C 
ATOM     59  O   UNL A   1      42.494  23.230  25.576  1.00  0.00    -0.246 OA
BRANCH  58  60
ATOM     60  C   UNL A   1      42.432  25.490  26.268  1.00  0.00     0.060 A 
ATOM     61  C   UNL A   1      42.398  26.773  25.697  1.00  0.00     0.016 A 
ATOM     62  C   UNL A   1      42.148  25.313  27.622  1.00  0.00     0.016 A 
ATOM     63  C   UNL A   1      42.104  27.887  26.480  1.00  0.00     0.010 A 
ATOM     64  C   UNL A   1      41.890  26.437  28.415  1.00  0.00     0.010 A 
ATOM     65  C   UNL A   1      41.909  27.730  27.856  1.00  0.00    -0.014 A 
BRANCH  65  66
ATOM     66  C   UNL A   1      41.994  28.924  28.729  1.00  0.00     0.031 A 
ATOM     67  C   UNL A   1      43.356  29.355  29.209  1.00  0.00     0.074 A 
ATOM     68  C   UNL A   1      40.900  29.627  29.075  1.00  0.00     0.049 A 
ATOM     69  N   UNL A   1      43.682  30.309  30.041  1.00  0.00    -0.248 NA
ATOM     70  C   UNL A   1      44.507  28.598  28.684  1.00  0.00     0.031 C 
ATOM     71  C   UNL A   1      39.534  29.340  28.641  1.00  0.00     0.029 A 
ATOM     72  N   UNL A   1      40.773  30.722  29.892  1.00  0.00    -0.354 N 
ATOM     73  C   UNL A   1      45.063  30.238  30.174  1.00  0.00     0.074 A 
ATOM     74  C   UNL A   1      45.519  29.153  29.335  1.00  0.00     0.031 C 
ATOM     75  C   UNL A   1      38.701  30.224  29.220  1.00  0.00     0.029 A 
ATOM     76  C   UNL A   1      39.472  31.118  30.084  1.00  0.00     0.049 A 
ATOM     77  H   UNL A   1      41.541  31.179  30.303  1.00  0.00     0.167 HD
ATOM     78  C   UNL A   1      45.881  31.010  30.926  1.00  0.00     0.034 A 
ATOM     79  C   UNL A   1      38.964  32.079  30.884  1.00  0.00     0.034 A 
ATOM     80  C   UNL A   1      45.436  32.123  31.717  1.00  0.00     0.049 A 
ATOM     81  C   UNL A   1      39.906  32.931  31.702  1.00  0.00     0.074 A 
ATOM     82  C   UNL A   1      46.194  32.982  32.494  1.00  0.00     0.029 A 
ATOM     83  N   UNL A   1      44.120  32.537  31.826  1.00  0.00    -0.354 N 
ATOM     84  N   UNL A   1      41.216  32.906  31.756  1.00  0.00    -0.248 NA
ATOM     85  C   UNL A   1      39.297  33.966  32.552  1.00  0.00     0.031 C 
ATOM     86  C   UNL A   1      45.332  33.907  33.087  1.00  0.00     0.029 A 
ATOM     87  C   UNL A   1      44.042  33.637  32.661  1.00  0.00     0.049 A 
ATOM     88  H   UNL A   1      43.354  32.112  31.377  1.00  0.00     0.167 HD
ATOM     89  C   UNL A   1      41.586  33.948  32.599  1.00  0.00     0.074 A 
ATOM     90  C   UNL A   1      40.364  34.597  33.023  1.00  0.00     0.031 C 
ATOM     91  C   UNL A   1      42.824  34.325  33.003  1.00  0.00     0.034 A 
BRANCH  78  92
ATOM     92  C   UNL A   1      47.348  30.687  30.926  1.00  0.00     0.023 A 
ATOM     93  C   UNL A   1      48.211  31.334  30.019  1.00  0.00     0.012 A 
ATOM     94  C   UNL A   1      47.882  29.797  31.878  1.00  0.00     0.148 A 
ATOM     95  C   UNL A   1      49.582  31.087  30.050  1.00  0.00     0.002 A 
ATOM     96  C   UNL A   1      49.253  29.587  31.930  1.00  0.00     0.091 A 
ATOM     97  F   UNL A   1      47.037  29.175  32.713  1.00  0.00    -0.205 F 
ATOM     98  C   UNL A   1      50.105  30.224  31.012  1.00  0.00     0.022 A 
BRANCH  96  99
ATOM     99  S   UNL A   1      50.029  28.555  33.178  1.00  0.00     0.127 S 
ATOM    100  O   UNL A   1      51.446  28.700  32.844  1.00  0.00    -0.237 OA
ATOM    101  O   UNL A   1      49.624  29.218  34.419  1.00  0.00    -0.237 OA
ATOM    102  O   UNL A   1      49.481  27.218  32.995  1.00  0.00    -0.744 OA
ENDBRANCH  96  99
ENDBRANCH  78  92
BRANCH  79 103
ATOM    103  C   UNL A   1      37.493  32.311  30.949  1.00  0.00     0.023 A 
ATOM    104  C   UNL A   1      36.768  31.879  32.077  1.00  0.00     0.012 A 
ATOM    105  C   UNL A   1      36.802  32.927  29.887  1.00  0.00     0.148 A 
ATOM    106  C   UNL A   1      35.379  32.010  32.125  1.00  0.00     0.002 A 
ATOM    107  C   UNL A   1      35.425  33.109  29.967  1.00  0.00     0.091 A 
ATOM    108  F   UNL A   1      37.498  33.310  28.807  1.00  0.00    -0.205 F 
ATOM    109  C   UNL A   1      34.709  32.632  31.075  1.00  0.00     0.022 A 
BRANCH 107 110
ATOM    110  S   UNL A   1      34.519  34.021  28.715  1.00  0.00     0.127 S 
ATOM    111  O   UNL A   1      34.626  33.136  27.559  1.00  0.00    -0.237 OA
ATOM    112  O   UNL A   1      33.180  34.111  29.300  1.00  0.00    -0.237 OA
ATOM    113  O   UNL A   1      35.203  35.305  28.608  1.00  0.00    -0.744 OA
ENDBRANCH 107 110
ENDBRANCH  79 103
BRANCH  91 114
ATOM    114  C   UNL A   1      42.937  35.529  33.903  1.00  0.00     0.023 A 
ATOM    115  C   UNL A   1      42.848  35.373  35.299  1.00  0.00     0.012 A 
ATOM    116  C   UNL A   1      43.213  36.801  33.365  1.00  0.00     0.148 A 
ATOM    117  C   UNL A   1      42.994  36.473  36.145  1.00  0.00     0.002 A 
ATOM    118  C   UNL A   1      43.405  37.883  34.216  1.00  0.00     0.091 A 
ATOM    119  F   UNL A   1      43.277  36.936  32.032  1.00  0.00    -0.205 F 
ATOM    120  C   UNL A   1      43.285  37.724  35.605  1.00  0.00     0.022 A 
BRANCH 118 121
ATOM    121  S   UNL A   1      43.883  39.502  33.601  1.00  0.00     0.127 S 
ATOM    122  O   UNL A   1      42.647  39.960  32.969  1.00  0.00    -0.237 OA
ATOM    123  O   UNL A   1      44.238  40.216  34.829  1.00  0.00    -0.237 OA
ATOM    124  O   UNL A   1      45.004  39.268  32.701  1.00  0.00    -0.744 OA
ENDBRANCH 118 121
ENDBRANCH  91 114
ENDBRANCH  65  66
ENDBRANCH  58  60
ENDBRANCH  57  58
ENDBRANCH  56  57
ENDBRANCH  55  56
ENDBRANCH  54  55
ENDBRANCH  53  54
ENDBRANCH  52  53
ENDBRANCH  51  52
ENDBRANCH   1  51
TORSDOF 33
ENDMDL
