MODEL 1
REMARK VINA RESULT:     -10.4      0.000      0.000
REMARK SMILES Cc1ccc([C@@](C)(O)[C@H](F)C(=O)OCCOCCOCCOC(=O)c2ccc(-c3c4nc(c(-c5cccc(S(=O)(=O)[O-])c5F)c5ccc([nH]5)c(-c5cccc(S(=O)(=O)[O-])c5F)c5nc(c(-c6cccc(S(=O)(=O)[O-])c6F)c6ccc3[nH]6)C=C5)C=C4)cc2)cc1F
REMARK SMILES IDX 18 1 17 2 16 3 15 4 14 5 13 6 11 7 12 8 9 9 10 10 6 11 7 12
REMARK SMILES IDX 5 13 1 14 2 15 3 16 89 17 4 18 88 19 90 20 8 21 19 23 20 24
REMARK SMILES IDX 21 25 22 26 23 27 24 28 25 29 26 30 87 31 27 32 86 33 28 34
REMARK SMILES IDX 29 35 30 36 80 37 31 38 85 39 79 40 81 41 32 42 84 43 78 44
REMARK SMILES IDX 77 45 33 47 65 48 45 49 64 50 46 51 49 52 63 53 82 54 47 55
REMARK SMILES IDX 48 56 62 58 83 59 50 60 34 61 35 62 43 63 36 64 38 65 44 66
REMARK SMILES IDX 37 67 39 68 40 69 41 70 42 71 66 72 67 73 75 74 68 75 70 76
REMARK SMILES IDX 76 77 69 78 71 79 72 80 73 81 74 82 51 83 52 84 60 85 53 86
REMARK SMILES IDX 55 87 61 88 54 89 56 90 57 91 58 92 59 93
REMARK H PARENT 8 22 81 46 49 57
REMARK Flexibility Score: inf
ROOT
ATOM      1  C   UNL A   1      38.655  21.646  25.683  1.00  0.00     0.188 C 
ENDROOT
BRANCH   1   2
ATOM      2  C   UNL A   1      37.250  21.083  25.336  1.00  0.00     0.188 C 
BRANCH   2   3
ATOM      3  O   UNL A   1      36.495  21.562  24.231  1.00  0.00    -0.376 OA
BRANCH   3   4
ATOM      4  C   UNL A   1      36.561  22.941  23.900  1.00  0.00     0.202 C 
BRANCH   4   5
ATOM      5  C   UNL A   1      35.400  23.844  24.353  1.00  0.00     0.261 C 
BRANCH   5   6
ATOM      6  O   UNL A   1      34.744  24.594  23.315  1.00  0.00    -0.461 OA
BRANCH   6   7
ATOM      7  C   UNL A   1      33.583  24.080  22.812  1.00  0.00     0.344 C 
ATOM      8  O   UNL A   1      33.530  23.339  21.838  1.00  0.00    -0.249 OA
BRANCH   7   9
ATOM      9  C   UNL A   1      32.403  24.366  23.752  1.00  0.00     0.311 C 
ATOM     10  F   UNL A   1      32.781  24.318  25.076  1.00  0.00    -0.231 F 
BRANCH   9  11
ATOM     11  C   UNL A   1      31.732  25.725  23.566  1.00  0.00     0.129 C 
ATOM     12  C   UNL A   1      30.211  25.662  23.718  1.00  0.00     0.051 C 
BRANCH  11  13
ATOM     13  C   UNL A   1      32.279  26.804  24.521  1.00  0.00    -0.010 A 
ATOM     14  C   UNL A   1      33.575  29.814  27.365  1.00  0.00     0.047 C 
ATOM     15  C   UNL A   1      33.151  28.777  26.371  1.00  0.00    -0.015 A 
ATOM     16  C   UNL A   1      33.879  28.529  25.205  1.00  0.00     0.007 A 
ATOM     17  C   UNL A   1      31.995  28.036  26.601  1.00  0.00     0.126 A 
ATOM     18  C   UNL A   1      33.451  27.552  24.292  1.00  0.00     0.007 A 
ATOM     19  C   UNL A   1      31.567  27.066  25.704  1.00  0.00     0.046 A 
ATOM     20  F   UNL A   1      31.267  28.256  27.706  1.00  0.00    -0.207 F 
ENDBRANCH  11  13
BRANCH  11  21
ATOM     21  O   UNL A   1      32.045  26.158  22.228  1.00  0.00    -0.382 OA
ATOM     22  H   UNL A   1      32.926  25.837  21.981  1.00  0.00     0.212 HD
ENDBRANCH  11  21
ENDBRANCH   9  11
ENDBRANCH   7   9
ENDBRANCH   6   7
ENDBRANCH   5   6
ENDBRANCH   4   5
ENDBRANCH   3   4
ENDBRANCH   2   3
ENDBRANCH   1   2
BRANCH   1  23
ATOM     23  O   UNL A   1      39.371  20.937  26.678  1.00  0.00    -0.376 OA
BRANCH  23  24
ATOM     24  C   UNL A   1      40.758  20.753  26.417  1.00  0.00     0.202 C 
BRANCH  24  25
ATOM     25  C   UNL A   1      41.715  21.580  27.281  1.00  0.00     0.261 C 
BRANCH  25  26
ATOM     26  O   UNL A   1      41.296  22.907  27.607  1.00  0.00    -0.460 OA
BRANCH  26  27
ATOM     27  C   UNL A   1      41.472  23.806  26.633  1.00  0.00     0.338 C 
ATOM     28  O   UNL A   1      42.423  23.883  25.851  1.00  0.00    -0.246 OA
BRANCH  27  29
ATOM     29  C   UNL A   1      40.388  24.791  26.584  1.00  0.00     0.060 A 
ATOM     30  C   UNL A   1      40.801  26.007  26.003  1.00  0.00     0.016 A 
ATOM     31  C   UNL A   1      39.619  24.729  27.742  1.00  0.00     0.016 A 
ATOM     32  C   UNL A   1      40.891  27.095  26.832  1.00  0.00     0.010 A 
ATOM     33  C   UNL A   1      39.743  25.794  28.581  1.00  0.00     0.010 A 
ATOM     34  C   UNL A   1      40.457  26.915  28.143  1.00  0.00    -0.014 A 
BRANCH  34  35
ATOM     35  C   UNL A   1      40.570  27.950  29.125  1.00  0.00     0.031 A 
ATOM     36  C   UNL A   1      39.553  28.995  28.981  1.00  0.00     0.074 A 
ATOM     37  C   UNL A   1      41.521  27.840  30.073  1.00  0.00     0.049 A 
ATOM     38  N   UNL A   1      39.771  30.252  29.107  1.00  0.00    -0.248 NA
ATOM     39  C   UNL A   1      38.203  28.701  28.468  1.00  0.00     0.031 C 
ATOM     40  C   UNL A   1      41.621  28.564  31.326  1.00  0.00     0.029 A 
ATOM     41  N   UNL A   1      42.690  27.096  30.036  1.00  0.00    -0.354 N 
ATOM     42  C   UNL A   1      38.522  30.826  29.176  1.00  0.00     0.074 A 
ATOM     43  C   UNL A   1      37.624  29.903  28.532  1.00  0.00     0.031 C 
ATOM     44  C   UNL A   1      42.867  28.421  31.821  1.00  0.00     0.029 A 
ATOM     45  C   UNL A   1      43.663  27.699  30.840  1.00  0.00     0.049 A 
ATOM     46  H   UNL A   1      42.818  26.266  29.520  1.00  0.00     0.167 HD
ATOM     47  C   UNL A   1      38.319  31.853  30.043  1.00  0.00     0.034 A 
ATOM     48  C   UNL A   1      44.829  28.177  30.303  1.00  0.00     0.034 A 
ATOM     49  C   UNL A   1      39.546  32.115  30.783  1.00  0.00     0.049 A 
ATOM     50  C   UNL A   1      44.821  29.686  30.241  1.00  0.00     0.074 A 
ATOM     51  C   UNL A   1      39.982  31.654  32.015  1.00  0.00     0.029 A 
ATOM     52  N   UNL A   1      40.676  32.541  30.101  1.00  0.00    -0.354 N 
ATOM     53  N   UNL A   1      43.728  30.400  30.209  1.00  0.00    -0.248 NA
ATOM     54  C   UNL A   1      46.031  30.500  30.241  1.00  0.00     0.031 C 
ATOM     55  C   UNL A   1      41.392  31.776  32.056  1.00  0.00     0.029 A 
ATOM     56  C   UNL A   1      41.812  32.299  30.848  1.00  0.00     0.049 A 
ATOM     57  H   UNL A   1      40.670  32.958  29.209  1.00  0.00     0.167 HD
ATOM     58  C   UNL A   1      44.059  31.729  30.272  1.00  0.00     0.074 A 
ATOM     59  C   UNL A   1      45.510  31.738  30.273  1.00  0.00     0.031 C 
ATOM     60  C   UNL A   1      43.116  32.712  30.357  1.00  0.00     0.034 A 
BRANCH  47  61
ATOM     61  C   UNL A   1      36.949  32.314  30.461  1.00  0.00     0.023 A 
ATOM     62  C   UNL A   1      36.416  32.032  31.738  1.00  0.00     0.012 A 
ATOM     63  C   UNL A   1      36.125  33.044  29.580  1.00  0.00     0.148 A 
ATOM     64  C   UNL A   1      35.164  32.518  32.143  1.00  0.00     0.002 A 
ATOM     65  C   UNL A   1      34.865  33.493  29.971  1.00  0.00     0.091 A 
ATOM     66  F   UNL A   1      36.543  33.332  28.342  1.00  0.00    -0.205 F 
ATOM     67  C   UNL A   1      34.384  33.249  31.256  1.00  0.00     0.022 A 
BRANCH  65  68
ATOM     68  S   UNL A   1      33.857  34.365  28.770  1.00  0.00     0.127 S 
ATOM     69  O   UNL A   1      33.584  33.339  27.768  1.00  0.00    -0.237 OA
ATOM     70  O   UNL A   1      32.725  34.830  29.563  1.00  0.00    -0.237 OA
ATOM     71  O   UNL A   1      34.743  35.436  28.308  1.00  0.00    -0.744 OA
ENDBRANCH  65  68
ENDBRANCH  47  61
BRANCH  48  72
ATOM     72  C   UNL A   1      45.381  27.287  29.241  1.00  0.00     0.023 A 
ATOM     73  C   UNL A   1      46.436  26.420  29.575  1.00  0.00     0.012 A 
ATOM     74  C   UNL A   1      45.247  27.746  27.910  1.00  0.00     0.148 A 
ATOM     75  C   UNL A   1      47.450  26.194  28.645  1.00  0.00     0.002 A 
ATOM     76  C   UNL A   1      46.283  27.549  27.009  1.00  0.00     0.091 A 
ATOM     77  F   UNL A   1      44.187  28.506  27.592  1.00  0.00    -0.205 F 
ATOM     78  C   UNL A   1      47.388  26.784  27.379  1.00  0.00     0.022 A 
BRANCH  76  79
ATOM     79  S   UNL A   1      46.340  28.508  25.490  1.00  0.00     0.127 S 
ATOM     80  O   UNL A   1      47.709  28.326  25.023  1.00  0.00    -0.237 OA
ATOM     81  O   UNL A   1      45.286  27.892  24.687  1.00  0.00    -0.237 OA
ATOM     82  O   UNL A   1      46.028  29.873  25.921  1.00  0.00    -0.744 OA
ENDBRANCH  76  79
ENDBRANCH  48  72
BRANCH  60  83
ATOM     83  C   UNL A   1      43.340  34.187  30.149  1.00  0.00     0.023 A 
ATOM     84  C   UNL A   1      43.501  35.016  31.293  1.00  0.00     0.012 A 
ATOM     85  C   UNL A   1      43.314  34.833  28.911  1.00  0.00     0.148 A 
ATOM     86  C   UNL A   1      43.615  36.402  31.211  1.00  0.00     0.002 A 
ATOM     87  C   UNL A   1      43.583  36.196  28.824  1.00  0.00     0.091 A 
ATOM     88  F   UNL A   1      42.972  34.167  27.802  1.00  0.00    -0.205 F 
ATOM     89  C   UNL A   1      43.695  36.995  29.964  1.00  0.00     0.022 A 
BRANCH  87  90
ATOM     90  S   UNL A   1      43.968  36.866  27.209  1.00  0.00     0.127 S 
ATOM     91  O   UNL A   1      42.645  37.001  26.606  1.00  0.00    -0.237 OA
ATOM     92  O   UNL A   1      44.672  38.108  27.511  1.00  0.00    -0.237 OA
ATOM     93  O   UNL A   1      44.805  35.829  26.603  1.00  0.00    -0.744 OA
ENDBRANCH  87  90
ENDBRANCH  60  83
ENDBRANCH  34  35
ENDBRANCH  27  29
ENDBRANCH  26  27
ENDBRANCH  25  26
ENDBRANCH  24  25
ENDBRANCH  23  24
ENDBRANCH   1  23
TORSDOF 23
ENDMDL
MODEL 2
REMARK VINA RESULT:     -10.2      4.060      9.635
REMARK SMILES Cc1ccc([C@@](C)(O)[C@H](F)C(=O)OCCOCCOCCOC(=O)c2ccc(-c3c4nc(c(-c5cccc(S(=O)(=O)[O-])c5F)c5ccc([nH]5)c(-c5cccc(S(=O)(=O)[O-])c5F)c5nc(c(-c6cccc(S(=O)(=O)[O-])c6F)c6ccc3[nH]6)C=C5)C=C4)cc2)cc1F
REMARK SMILES IDX 18 1 17 2 16 3 15 4 14 5 13 6 11 7 12 8 9 9 10 10 6 11 7 12
REMARK SMILES IDX 5 13 1 14 2 15 3 16 89 17 4 18 88 19 90 20 8 21 19 23 20 24
REMARK SMILES IDX 21 25 22 26 23 27 24 28 25 29 26 30 87 31 27 32 86 33 28 34
REMARK SMILES IDX 29 35 30 36 80 37 31 38 85 39 79 40 81 41 32 42 84 43 78 44
REMARK SMILES IDX 77 45 33 47 65 48 45 49 64 50 46 51 49 52 63 53 82 54 47 55
REMARK SMILES IDX 48 56 62 58 83 59 50 60 34 61 35 62 43 63 36 64 38 65 44 66
REMARK SMILES IDX 37 67 39 68 40 69 41 70 42 71 66 72 67 73 75 74 68 75 70 76
REMARK SMILES IDX 76 77 69 78 71 79 72 80 73 81 74 82 51 83 52 84 60 85 53 86
REMARK SMILES IDX 55 87 61 88 54 89 56 90 57 91 58 92 59 93
REMARK H PARENT 8 22 81 46 49 57
REMARK Flexibility Score: inf
ROOT
ATOM      1  C   UNL A   1      32.638  30.103  27.107  1.00  0.00     0.188 C 
ENDROOT
BRANCH   1   2
ATOM      2  C   UNL A   1      32.647  29.811  25.582  1.00  0.00     0.188 C 
BRANCH   2   3
ATOM      3  O   UNL A   1      31.920  28.727  25.015  1.00  0.00    -0.376 OA
BRANCH   3   4
ATOM      4  C   UNL A   1      30.875  29.006  24.097  1.00  0.00     0.202 C 
BRANCH   4   5
ATOM      5  C   UNL A   1      30.602  27.976  22.987  1.00  0.00     0.261 C 
BRANCH   5   6
ATOM      6  O   UNL A   1      31.401  26.780  23.029  1.00  0.00    -0.461 OA
BRANCH   6   7
ATOM      7  C   UNL A   1      30.886  25.710  23.706  1.00  0.00     0.344 C 
ATOM      8  O   UNL A   1      29.701  25.399  23.692  1.00  0.00    -0.249 OA
BRANCH   7   9
ATOM      9  C   UNL A   1      32.008  24.838  24.288  1.00  0.00     0.311 C 
ATOM     10  F   UNL A   1      31.517  23.887  25.156  1.00  0.00    -0.231 F 
BRANCH   9  11
ATOM     11  C   UNL A   1      32.838  24.068  23.264  1.00  0.00     0.129 C 
ATOM     12  C   UNL A   1      34.225  24.677  23.045  1.00  0.00     0.051 C 
BRANCH  11  13
ATOM     13  C   UNL A   1      33.004  22.578  23.619  1.00  0.00    -0.010 A 
ATOM     14  C   UNL A   1      33.720  18.450  24.746  1.00  0.00     0.047 C 
ATOM     15  C   UNL A   1      33.450  19.867  24.348  1.00  0.00    -0.015 A 
ATOM     16  C   UNL A   1      32.383  20.210  23.513  1.00  0.00     0.007 A 
ATOM     17  C   UNL A   1      34.283  20.883  24.809  1.00  0.00     0.126 A 
ATOM     18  C   UNL A   1      32.160  21.549  23.155  1.00  0.00     0.007 A 
ATOM     19  C   UNL A   1      34.066  22.210  24.462  1.00  0.00     0.046 A 
ATOM     20  F   UNL A   1      35.322  20.587  25.604  1.00  0.00    -0.207 F 
ENDBRANCH  11  13
BRANCH  11  21
ATOM     21  O   UNL A   1      32.111  24.121  22.022  1.00  0.00    -0.382 OA
ATOM     22  H   UNL A   1      32.509  23.507  21.386  1.00  0.00     0.212 HD
ENDBRANCH  11  21
ENDBRANCH   9  11
ENDBRANCH   7   9
ENDBRANCH   6   7
ENDBRANCH   5   6
ENDBRANCH   4   5
ENDBRANCH   3   4
ENDBRANCH   2   3
ENDBRANCH   1   2
BRANCH   1  23
ATOM     23  O   UNL A   1      33.824  30.677  27.627  1.00  0.00    -0.376 OA
BRANCH  23  24
ATOM     24  C   UNL A   1      33.690  32.000  28.136  1.00  0.00     0.202 C 
BRANCH  24  25
ATOM     25  C   UNL A   1      34.999  32.725  28.461  1.00  0.00     0.261 C 
BRANCH  25  26
ATOM     26  O   UNL A   1      36.207  32.071  28.067  1.00  0.00    -0.460 OA
BRANCH  26  27
ATOM     27  C   UNL A   1      36.850  31.438  29.053  1.00  0.00     0.338 C 
ATOM     28  O   UNL A   1      37.292  31.933  30.093  1.00  0.00    -0.246 OA
BRANCH  27  29
ATOM     29  C   UNL A   1      37.039  30.013  28.769  1.00  0.00     0.060 A 
ATOM     30  C   UNL A   1      37.368  29.280  29.928  1.00  0.00     0.016 A 
ATOM     31  C   UNL A   1      37.694  29.841  27.554  1.00  0.00     0.016 A 
ATOM     32  C   UNL A   1      38.642  28.778  30.007  1.00  0.00     0.010 A 
ATOM     33  C   UNL A   1      38.972  29.380  27.641  1.00  0.00     0.010 A 
ATOM     34  C   UNL A   1      39.447  28.949  28.885  1.00  0.00    -0.014 A 
BRANCH  34  35
ATOM     35  C   UNL A   1      40.818  28.539  28.870  1.00  0.00     0.031 A 
ATOM     36  C   UNL A   1      40.991  27.112  28.582  1.00  0.00     0.074 A 
ATOM     37  C   UNL A   1      41.774  29.469  29.061  1.00  0.00     0.049 A 
ATOM     38  N   UNL A   1      41.823  26.340  29.177  1.00  0.00    -0.248 NA
ATOM     39  C   UNL A   1      40.061  26.378  27.705  1.00  0.00     0.031 C 
ATOM     40  C   UNL A   1      43.193  29.366  28.774  1.00  0.00     0.029 A 
ATOM     41  N   UNL A   1      41.658  30.706  29.677  1.00  0.00    -0.354 N 
ATOM     42  C   UNL A   1      41.851  25.193  28.418  1.00  0.00     0.074 A 
ATOM     43  C   UNL A   1      40.602  25.156  27.704  1.00  0.00     0.031 C 
ATOM     44  C   UNL A   1      43.845  30.359  29.409  1.00  0.00     0.029 A 
ATOM     45  C   UNL A   1      42.886  31.074  30.238  1.00  0.00     0.049 A 
ATOM     46  H   UNL A   1      40.835  31.246  29.714  1.00  0.00     0.167 HD
ATOM     47  C   UNL A   1      43.042  24.566  28.219  1.00  0.00     0.034 A 
ATOM     48  C   UNL A   1      43.024  31.244  31.590  1.00  0.00     0.034 A 
ATOM     49  C   UNL A   1      44.103  25.320  28.873  1.00  0.00     0.049 A 
ATOM     50  C   UNL A   1      43.779  30.093  32.209  1.00  0.00     0.074 A 
ATOM     51  C   UNL A   1      44.960  26.295  28.387  1.00  0.00     0.029 A 
ATOM     52  N   UNL A   1      44.087  25.464  30.252  1.00  0.00    -0.354 N 
ATOM     53  N   UNL A   1      43.844  28.903  31.676  1.00  0.00    -0.248 NA
ATOM     54  C   UNL A   1      44.539  30.200  33.449  1.00  0.00     0.031 C 
ATOM     55  C   UNL A   1      45.435  27.050  29.485  1.00  0.00     0.029 A 
ATOM     56  C   UNL A   1      44.859  26.543  30.635  1.00  0.00     0.049 A 
ATOM     57  H   UNL A   1      43.593  24.880  30.873  1.00  0.00     0.167 HD
ATOM     58  C   UNL A   1      44.694  28.125  32.417  1.00  0.00     0.074 A 
ATOM     59  C   UNL A   1      45.088  28.977  33.524  1.00  0.00     0.031 C 
ATOM     60  C   UNL A   1      45.036  26.858  32.042  1.00  0.00     0.034 A 
BRANCH  47  61
ATOM     61  C   UNL A   1      43.257  23.537  27.143  1.00  0.00     0.023 A 
ATOM     62  C   UNL A   1      44.103  23.770  26.036  1.00  0.00     0.012 A 
ATOM     63  C   UNL A   1      42.605  22.288  27.187  1.00  0.00     0.148 A 
ATOM     64  C   UNL A   1      44.348  22.783  25.069  1.00  0.00     0.002 A 
ATOM     65  C   UNL A   1      42.819  21.323  26.205  1.00  0.00     0.091 A 
ATOM     66  F   UNL A   1      41.766  21.996  28.188  1.00  0.00    -0.205 F 
ATOM     67  C   UNL A   1      43.701  21.556  25.152  1.00  0.00     0.022 A 
BRANCH  65  68
ATOM     68  S   UNL A   1      41.906  19.783  26.305  1.00  0.00     0.127 S 
ATOM     69  O   UNL A   1      42.276  19.270  27.621  1.00  0.00    -0.237 OA
ATOM     70  O   UNL A   1      40.521  20.207  26.129  1.00  0.00    -0.237 OA
ATOM     71  O   UNL A   1      42.440  19.006  25.184  1.00  0.00    -0.744 OA
ENDBRANCH  65  68
ENDBRANCH  47  61
BRANCH  48  72
ATOM     72  C   UNL A   1      41.844  31.916  32.209  1.00  0.00     0.023 A 
ATOM     73  C   UNL A   1      41.947  33.276  32.544  1.00  0.00     0.012 A 
ATOM     74  C   UNL A   1      40.959  31.082  32.931  1.00  0.00     0.148 A 
ATOM     75  C   UNL A   1      41.338  33.737  33.712  1.00  0.00     0.002 A 
ATOM     76  C   UNL A   1      40.395  31.540  34.111  1.00  0.00     0.091 A 
ATOM     77  F   UNL A   1      40.812  29.805  32.542  1.00  0.00    -0.205 F 
ATOM     78  C   UNL A   1      40.593  32.862  34.508  1.00  0.00     0.022 A 
BRANCH  76  79
ATOM     79  S   UNL A   1      39.663  30.372  35.265  1.00  0.00     0.127 S 
ATOM     80  O   UNL A   1      39.445  31.170  36.467  1.00  0.00    -0.237 OA
ATOM     81  O   UNL A   1      38.471  29.925  34.550  1.00  0.00    -0.237 OA
ATOM     82  O   UNL A   1      40.685  29.333  35.411  1.00  0.00    -0.744 OA
ENDBRANCH  76  79
ENDBRANCH  48  72
BRANCH  60  83
ATOM     83  C   UNL A   1      45.719  25.825  32.901  1.00  0.00     0.023 A 
ATOM     84  C   UNL A   1      47.139  25.835  32.971  1.00  0.00     0.012 A 
ATOM     85  C   UNL A   1      45.070  24.787  33.573  1.00  0.00     0.148 A 
ATOM     86  C   UNL A   1      47.868  24.864  33.656  1.00  0.00     0.002 A 
ATOM     87  C   UNL A   1      45.791  23.913  34.381  1.00  0.00     0.091 A 
ATOM     88  F   UNL A   1      43.758  24.581  33.402  1.00  0.00    -0.205 F 
ATOM     89  C   UNL A   1      47.187  23.916  34.399  1.00  0.00     0.022 A 
BRANCH  87  90
ATOM     90  S   UNL A   1      44.874  22.905  35.542  1.00  0.00     0.127 S 
ATOM     91  O   UNL A   1      45.939  22.330  36.361  1.00  0.00    -0.237 OA
ATOM     92  O   UNL A   1      43.992  23.860  36.204  1.00  0.00    -0.237 OA
ATOM     93  O   UNL A   1      44.186  21.940  34.684  1.00  0.00    -0.744 OA
ENDBRANCH  87  90
ENDBRANCH  60  83
ENDBRANCH  34  35
ENDBRANCH  27  29
ENDBRANCH  26  27
ENDBRANCH  25  26
ENDBRANCH  24  25
ENDBRANCH  23  24
ENDBRANCH   1  23
TORSDOF 23
ENDMDL
MODEL 3
REMARK VINA RESULT:      -9.8      4.013      9.223
REMARK SMILES Cc1ccc([C@@](C)(O)[C@H](F)C(=O)OCCOCCOCCOC(=O)c2ccc(-c3c4nc(c(-c5cccc(S(=O)(=O)[O-])c5F)c5ccc([nH]5)c(-c5cccc(S(=O)(=O)[O-])c5F)c5nc(c(-c6cccc(S(=O)(=O)[O-])c6F)c6ccc3[nH]6)C=C5)C=C4)cc2)cc1F
REMARK SMILES IDX 18 1 17 2 16 3 15 4 14 5 13 6 11 7 12 8 9 9 10 10 6 11 7 12
REMARK SMILES IDX 5 13 1 14 2 15 3 16 89 17 4 18 88 19 90 20 8 21 19 23 20 24
REMARK SMILES IDX 21 25 22 26 23 27 24 28 25 29 26 30 87 31 27 32 86 33 28 34
REMARK SMILES IDX 29 35 30 36 80 37 31 38 85 39 79 40 81 41 32 42 84 43 78 44
REMARK SMILES IDX 77 45 33 47 65 48 45 49 64 50 46 51 49 52 63 53 82 54 47 55
REMARK SMILES IDX 48 56 62 58 83 59 50 60 34 61 35 62 43 63 36 64 38 65 44 66
REMARK SMILES IDX 37 67 39 68 40 69 41 70 42 71 66 72 67 73 75 74 68 75 70 76
REMARK SMILES IDX 76 77 69 78 71 79 72 80 73 81 74 82 51 83 52 84 60 85 53 86
REMARK SMILES IDX 55 87 61 88 54 89 56 90 57 91 58 92 59 93
REMARK H PARENT 8 22 81 46 49 57
REMARK Flexibility Score: inf
ROOT
ATOM      1  C   UNL A   1      33.574  28.509  25.421  1.00  0.00     0.188 C 
ENDROOT
BRANCH   1   2
ATOM      2  C   UNL A   1      33.216  28.879  23.957  1.00  0.00     0.188 C 
BRANCH   2   3
ATOM      3  O   UNL A   1      31.870  28.970  23.508  1.00  0.00    -0.376 OA
BRANCH   3   4
ATOM      4  C   UNL A   1      30.879  28.175  24.140  1.00  0.00     0.202 C 
BRANCH   4   5
ATOM      5  C   UNL A   1      30.131  27.142  23.278  1.00  0.00     0.261 C 
BRANCH   5   6
ATOM      6  O   UNL A   1      30.355  25.761  23.615  1.00  0.00    -0.461 OA
BRANCH   6   7
ATOM      7  C   UNL A   1      31.346  25.107  22.941  1.00  0.00     0.344 C 
ATOM      8  O   UNL A   1      32.163  25.664  22.217  1.00  0.00    -0.249 OA
BRANCH   7   9
ATOM      9  C   UNL A   1      31.435  23.639  23.384  1.00  0.00     0.311 C 
ATOM     10  F   UNL A   1      32.239  22.900  22.544  1.00  0.00    -0.231 F 
BRANCH   9  11
ATOM     11  C   UNL A   1      31.991  23.411  24.787  1.00  0.00     0.129 C 
ATOM     12  C   UNL A   1      31.063  22.566  25.664  1.00  0.00     0.051 C 
BRANCH  11  13
ATOM     13  C   UNL A   1      33.391  22.767  24.786  1.00  0.00    -0.010 A 
ATOM     14  C   UNL A   1      37.442  21.215  24.732  1.00  0.00     0.047 C 
ATOM     15  C   UNL A   1      36.035  21.727  24.758  1.00  0.00    -0.015 A 
ATOM     16  C   UNL A   1      34.937  20.867  24.832  1.00  0.00     0.007 A 
ATOM     17  C   UNL A   1      35.800  23.098  24.698  1.00  0.00     0.126 A 
ATOM     18  C   UNL A   1      33.630  21.379  24.850  1.00  0.00     0.007 A 
ATOM     19  C   UNL A   1      34.511  23.613  24.718  1.00  0.00     0.046 A 
ATOM     20  F   UNL A   1      36.832  23.951  24.616  1.00  0.00    -0.207 F 
ENDBRANCH  11  13
BRANCH  11  21
ATOM     21  O   UNL A   1      32.133  24.713  25.389  1.00  0.00    -0.382 OA
ATOM     22  H   UNL A   1      31.678  24.726  26.245  1.00  0.00     0.212 HD
ENDBRANCH  11  21
ENDBRANCH   9  11
ENDBRANCH   7   9
ENDBRANCH   6   7
ENDBRANCH   5   6
ENDBRANCH   4   5
ENDBRANCH   3   4
ENDBRANCH   2   3
ENDBRANCH   1   2
BRANCH   1  23
ATOM     23  O   UNL A   1      33.708  29.601  26.314  1.00  0.00    -0.376 OA
BRANCH  23  24
ATOM     24  C   UNL A   1      34.670  29.428  27.350  1.00  0.00     0.202 C 
BRANCH  24  25
ATOM     25  C   UNL A   1      35.446  30.684  27.756  1.00  0.00     0.261 C 
BRANCH  25  26
ATOM     26  O   UNL A   1      35.256  31.148  29.095  1.00  0.00    -0.460 OA
BRANCH  26  27
ATOM     27  C   UNL A   1      34.948  32.444  29.201  1.00  0.00     0.338 C 
ATOM     28  O   UNL A   1      33.998  33.031  28.678  1.00  0.00    -0.246 OA
BRANCH  27  29
ATOM     29  C   UNL A   1      35.919  33.180  30.016  1.00  0.00     0.060 A 
ATOM     30  C   UNL A   1      36.826  33.916  29.226  1.00  0.00     0.016 A 
ATOM     31  C   UNL A   1      36.316  32.418  31.110  1.00  0.00     0.016 A 
ATOM     32  C   UNL A   1      38.128  33.488  29.208  1.00  0.00     0.010 A 
ATOM     33  C   UNL A   1      37.597  31.962  31.067  1.00  0.00     0.010 A 
ATOM     34  C   UNL A   1      38.447  32.434  30.060  1.00  0.00    -0.014 A 
BRANCH  34  35
ATOM     35  C   UNL A   1      39.751  31.846  30.079  1.00  0.00     0.031 A 
ATOM     36  C   UNL A   1      39.779  30.486  29.534  1.00  0.00     0.074 A 
ATOM     37  C   UNL A   1      40.787  32.584  30.525  1.00  0.00     0.049 A 
ATOM     38  N   UNL A   1      40.442  29.510  30.034  1.00  0.00    -0.248 NA
ATOM     39  C   UNL A   1      38.867  30.061  28.458  1.00  0.00     0.031 C 
ATOM     40  C   UNL A   1      42.205  32.337  30.342  1.00  0.00     0.029 A 
ATOM     41  N   UNL A   1      40.756  33.692  31.358  1.00  0.00    -0.354 N 
ATOM     42  C   UNL A   1      40.413  28.528  29.071  1.00  0.00     0.074 A 
ATOM     43  C   UNL A   1      39.252  28.796  28.264  1.00  0.00     0.031 C 
ATOM     44  C   UNL A   1      42.901  33.098  31.211  1.00  0.00     0.029 A 
ATOM     45  C   UNL A   1      41.952  33.776  32.080  1.00  0.00     0.049 A 
ATOM     46  H   UNL A   1      40.005  34.326  31.432  1.00  0.00     0.167 HD
ATOM     47  C   UNL A   1      41.533  27.788  28.853  1.00  0.00     0.034 A 
ATOM     48  C   UNL A   1      41.963  33.677  33.446  1.00  0.00     0.034 A 
ATOM     49  C   UNL A   1      42.601  28.255  29.728  1.00  0.00     0.049 A 
ATOM     50  C   UNL A   1      42.502  32.338  33.890  1.00  0.00     0.074 A 
ATOM     51  C   UNL A   1      43.617  29.172  29.512  1.00  0.00     0.029 A 
ATOM     52  N   UNL A   1      42.454  28.146  31.102  1.00  0.00    -0.354 N 
ATOM     53  N   UNL A   1      42.478  31.268  33.142  1.00  0.00    -0.248 NA
ATOM     54  C   UNL A   1      43.131  32.111  35.186  1.00  0.00     0.031 C 
ATOM     55  C   UNL A   1      44.059  29.641  30.773  1.00  0.00     0.029 A 
ATOM     56  C   UNL A   1      43.306  29.018  31.750  1.00  0.00     0.049 A 
ATOM     57  H   UNL A   1      41.830  27.533  31.554  1.00  0.00     0.167 HD
ATOM     58  C   UNL A   1      43.143  30.257  33.786  1.00  0.00     0.074 A 
ATOM     59  C   UNL A   1      43.517  30.830  35.065  1.00  0.00     0.031 C 
ATOM     60  C   UNL A   1      43.367  29.044  33.201  1.00  0.00     0.034 A 
BRANCH  47  61
ATOM     61  C   UNL A   1      41.736  26.952  27.619  1.00  0.00     0.023 A 
ATOM     62  C   UNL A   1      41.933  27.526  26.344  1.00  0.00     0.012 A 
ATOM     63  C   UNL A   1      41.724  25.543  27.682  1.00  0.00     0.148 A 
ATOM     64  C   UNL A   1      42.184  26.743  25.208  1.00  0.00     0.002 A 
ATOM     65  C   UNL A   1      41.935  24.765  26.545  1.00  0.00     0.091 A 
ATOM     66  F   UNL A   1      41.518  24.918  28.847  1.00  0.00    -0.205 F 
ATOM     67  C   UNL A   1      42.182  25.357  25.308  1.00  0.00     0.022 A 
BRANCH  65  68
ATOM     68  S   UNL A   1      41.847  22.981  26.702  1.00  0.00     0.127 S 
ATOM     69  O   UNL A   1      40.462  22.757  27.106  1.00  0.00    -0.237 OA
ATOM     70  O   UNL A   1      42.230  22.513  25.374  1.00  0.00    -0.237 OA
ATOM     71  O   UNL A   1      42.832  22.690  27.745  1.00  0.00    -0.744 OA
ENDBRANCH  65  68
ENDBRANCH  47  61
BRANCH  48  72
ATOM     72  C   UNL A   1      40.813  34.382  34.084  1.00  0.00     0.023 A 
ATOM     73  C   UNL A   1      41.034  35.652  34.644  1.00  0.00     0.012 A 
ATOM     74  C   UNL A   1      39.784  33.561  34.598  1.00  0.00     0.148 A 
ATOM     75  C   UNL A   1      40.380  35.997  35.826  1.00  0.00     0.002 A 
ATOM     76  C   UNL A   1      39.172  33.896  35.796  1.00  0.00     0.091 A 
ATOM     77  F   UNL A   1      39.534  32.387  33.996  1.00  0.00    -0.205 F 
ATOM     78  C   UNL A   1      39.478  35.107  36.416  1.00  0.00     0.022 A 
BRANCH  76  79
ATOM     79  S   UNL A   1      38.220  32.661  36.690  1.00  0.00     0.127 S 
ATOM     80  O   UNL A   1      37.969  33.291  37.981  1.00  0.00    -0.237 OA
ATOM     81  O   UNL A   1      37.063  32.462  35.821  1.00  0.00    -0.237 OA
ATOM     82  O   UNL A   1      39.114  31.502  36.751  1.00  0.00    -0.744 OA
ENDBRANCH  76  79
ENDBRANCH  48  72
BRANCH  60  83
ATOM     83  C   UNL A   1      43.824  27.787  33.896  1.00  0.00     0.023 A 
ATOM     84  C   UNL A   1      45.023  27.166  33.452  1.00  0.00     0.012 A 
ATOM     85  C   UNL A   1      43.110  27.121  34.895  1.00  0.00     0.148 A 
ATOM     86  C   UNL A   1      45.477  25.951  33.962  1.00  0.00     0.002 A 
ATOM     87  C   UNL A   1      43.646  25.992  35.508  1.00  0.00     0.091 A 
ATOM     88  F   UNL A   1      41.879  27.522  35.235  1.00  0.00    -0.205 F 
ATOM     89  C   UNL A   1      44.803  25.377  35.025  1.00  0.00     0.022 A 
BRANCH  87  90
ATOM     90  S   UNL A   1      42.912  25.455  37.050  1.00  0.00     0.127 S 
ATOM     91  O   UNL A   1      43.967  24.621  37.621  1.00  0.00    -0.237 OA
ATOM     92  O   UNL A   1      42.624  26.704  37.747  1.00  0.00    -0.237 OA
ATOM     93  O   UNL A   1      41.725  24.715  36.620  1.00  0.00    -0.744 OA
ENDBRANCH  87  90
ENDBRANCH  60  83
ENDBRANCH  34  35
ENDBRANCH  27  29
ENDBRANCH  26  27
ENDBRANCH  25  26
ENDBRANCH  24  25
ENDBRANCH  23  24
ENDBRANCH   1  23
TORSDOF 23
ENDMDL
