MODEL 1
REMARK VINA RESULT:     -10.5      0.000      0.000
REMARK SMILES O=C(C[C@H]1CN(C(=O)c2c(F)cccc2Cl)CCO1)OCCOCCOCCOC(=O)c1ccc(-c2c3nc(c(-c4cccc(S(=O)(=O)[O-])c4F)c4ccc([nH]4)c(-c4cccc(S(=O)(=O)[O-])c4F)c4nc(c(-c5cccc(S(=O)(=O)[O-])c5F)c5ccc2[nH]5)C=C4)C=C3)cc1
REMARK SMILES IDX 24 1 23 2 22 3 21 4 20 5 2 6 1 7 3 8 4 9 5 10 19 11 6 12
REMARK SMILES IDX 18 13 17 14 7 15 8 16 9 17 10 18 15 19 11 20 12 21 14 22
REMARK SMILES IDX 16 23 13 24 25 25 26 26 27 27 28 28 29 29 30 30 31 31 32 32
REMARK SMILES IDX 33 33 94 34 34 35 93 36 35 37 36 38 37 39 87 40 38 41 92 42
REMARK SMILES IDX 86 43 88 44 39 45 91 46 85 47 84 48 40 50 72 51 52 52 71 53
REMARK SMILES IDX 53 54 56 55 70 56 89 57 54 58 55 59 69 61 90 62 57 63 41 64
REMARK SMILES IDX 42 65 50 66 43 67 45 68 51 69 44 70 46 71 47 72 48 73 49 74
REMARK SMILES IDX 73 75 74 76 82 77 75 78 77 79 83 80 76 81 78 82 79 83 80 84
REMARK SMILES IDX 81 85 58 86 59 87 67 88 60 89 62 90 68 91 61 92 63 93 64 94
REMARK SMILES IDX 65 95 66 96
REMARK H PARENT 88 49 56 60
REMARK Flexibility Score: inf
ROOT
ATOM      1  C   UNL A   1      39.902  21.694  26.206  1.00  0.00     0.188 C 
ENDROOT
BRANCH   1   2
ATOM      2  O   UNL A   1      39.137  22.863  26.443  1.00  0.00    -0.376 OA
BRANCH   2   3
ATOM      3  C   UNL A   1      37.890  22.972  25.791  1.00  0.00     0.202 C 
BRANCH   3   4
ATOM      4  C   UNL A   1      37.302  21.590  25.520  1.00  0.00     0.261 C 
BRANCH   4   5
ATOM      5  O   UNL A   1      36.003  21.339  26.083  1.00  0.00    -0.463 OA
BRANCH   5   6
ATOM      6  C   UNL A   1      34.887  20.973  25.431  1.00  0.00     0.308 C 
ATOM      7  O   UNL A   1      34.878  19.911  24.806  1.00  0.00    -0.252 OA
BRANCH   6   8
ATOM      8  C   UNL A   1      33.717  21.911  25.364  1.00  0.00     0.156 C 
BRANCH   8   9
ATOM      9  C   UNL A   1      32.415  21.333  24.821  1.00  0.00     0.148 C 
ATOM     10  C   UNL A   1      31.200  21.993  25.509  1.00  0.00     0.152 C 
ATOM     11  O   UNL A   1      32.299  21.486  23.398  1.00  0.00    -0.374 OA
ATOM     12  N   UNL A   1      31.216  23.417  25.170  1.00  0.00    -0.334 N 
ATOM     13  C   UNL A   1      32.254  22.869  22.990  1.00  0.00     0.182 C 
ATOM     14  C   UNL A   1      31.181  23.675  23.733  1.00  0.00     0.148 C 
BRANCH  12  15
ATOM     15  C   UNL A   1      31.504  24.437  26.070  1.00  0.00     0.258 C 
ATOM     16  O   UNL A   1      31.632  24.276  27.280  1.00  0.00    -0.269 OA
BRANCH  15  17
ATOM     17  C   UNL A   1      31.725  25.769  25.497  1.00  0.00     0.094 A 
ATOM     18  C   UNL A   1      30.645  26.572  25.128  1.00  0.00     0.137 A 
ATOM     19  C   UNL A   1      33.028  26.183  25.230  1.00  0.00     0.056 A 
ATOM     20  F   UNL A   1      29.385  26.198  25.392  1.00  0.00    -0.206 F 
ATOM     21  C   UNL A   1      30.852  27.777  24.459  1.00  0.00     0.040 A 
ATOM     22  C   UNL A   1      33.228  27.380  24.547  1.00  0.00     0.021 A 
ATOM     23  Cl  UNL A   1      34.404  25.266  25.726  1.00  0.00    -0.083 Cl
ATOM     24  C   UNL A   1      32.151  28.183  24.168  1.00  0.00     0.005 A 
ENDBRANCH  15  17
ENDBRANCH  12  15
ENDBRANCH   8   9
ENDBRANCH   6   8
ENDBRANCH   5   6
ENDBRANCH   4   5
ENDBRANCH   3   4
ENDBRANCH   2   3
ENDBRANCH   1   2
BRANCH   1  25
ATOM     25  C   UNL A   1      41.002  21.480  27.260  1.00  0.00     0.188 C 
BRANCH  25  26
ATOM     26  O   UNL A   1      42.287  21.004  26.882  1.00  0.00    -0.376 OA
BRANCH  26  27
ATOM     27  C   UNL A   1      42.686  21.058  25.523  1.00  0.00     0.202 C 
BRANCH  27  28
ATOM     28  C   UNL A   1      43.993  21.787  25.184  1.00  0.00     0.261 C 
BRANCH  28  29
ATOM     29  O   UNL A   1      44.334  22.901  26.035  1.00  0.00    -0.460 OA
BRANCH  29  30
ATOM     30  C   UNL A   1      44.252  24.123  25.457  1.00  0.00     0.338 C 
ATOM     31  O   UNL A   1      44.721  24.446  24.368  1.00  0.00    -0.246 OA
BRANCH  30  32
ATOM     32  C   UNL A   1      43.408  25.056  26.240  1.00  0.00     0.060 A 
ATOM     33  C   UNL A   1      43.859  26.372  26.422  1.00  0.00     0.016 A 
ATOM     34  C   UNL A   1      42.275  24.612  26.923  1.00  0.00     0.016 A 
ATOM     35  C   UNL A   1      43.228  27.225  27.338  1.00  0.00     0.010 A 
ATOM     36  C   UNL A   1      41.650  25.469  27.847  1.00  0.00     0.010 A 
ATOM     37  C   UNL A   1      42.152  26.765  28.103  1.00  0.00    -0.014 A 
BRANCH  37  38
ATOM     38  C   UNL A   1      41.661  27.518  29.296  1.00  0.00     0.031 A 
ATOM     39  C   UNL A   1      40.419  28.361  29.165  1.00  0.00     0.074 A 
ATOM     40  C   UNL A   1      42.280  27.498  30.492  1.00  0.00     0.049 A 
ATOM     41  N   UNL A   1      39.882  29.177  30.034  1.00  0.00    -0.248 NA
ATOM     42  C   UNL A   1      39.657  28.227  27.913  1.00  0.00     0.031 C 
ATOM     43  C   UNL A   1      43.369  26.614  30.874  1.00  0.00     0.029 A 
ATOM     44  N   UNL A   1      42.114  28.305  31.596  1.00  0.00    -0.354 N 
ATOM     45  C   UNL A   1      38.702  29.623  29.456  1.00  0.00     0.074 A 
ATOM     46  C   UNL A   1      38.636  29.044  28.130  1.00  0.00     0.031 C 
ATOM     47  C   UNL A   1      43.890  27.034  32.040  1.00  0.00     0.029 A 
ATOM     48  C   UNL A   1      43.155  28.207  32.492  1.00  0.00     0.049 A 
ATOM     49  H   UNL A   1      41.333  28.890  31.731  1.00  0.00     0.167 HD
ATOM     50  C   UNL A   1      37.731  30.393  30.001  1.00  0.00     0.034 A 
ATOM     51  C   UNL A   1      43.498  28.986  33.536  1.00  0.00     0.034 A 
ATOM     52  C   UNL A   1      37.783  30.963  31.321  1.00  0.00     0.049 A 
ATOM     53  C   UNL A   1      42.532  30.028  34.018  1.00  0.00     0.074 A 
ATOM     54  C   UNL A   1      36.810  31.693  31.982  1.00  0.00     0.029 A 
ATOM     55  N   UNL A   1      38.875  30.897  32.170  1.00  0.00    -0.354 N 
ATOM     56  N   UNL A   1      41.366  30.352  33.520  1.00  0.00    -0.248 NA
ATOM     57  C   UNL A   1      42.875  30.730  35.263  1.00  0.00     0.031 C 
ATOM     58  C   UNL A   1      37.332  32.105  33.214  1.00  0.00     0.029 A 
ATOM     59  C   UNL A   1      38.617  31.605  33.333  1.00  0.00     0.049 A 
ATOM     60  H   UNL A   1      39.712  30.417  31.976  1.00  0.00     0.167 HD
ATOM     61  C   UNL A   1      40.792  31.219  34.441  1.00  0.00     0.074 A 
ATOM     62  C   UNL A   1      41.758  31.404  35.504  1.00  0.00     0.031 C 
ATOM     63  C   UNL A   1      39.554  31.772  34.415  1.00  0.00     0.034 A 
BRANCH  50  64
ATOM     64  C   UNL A   1      36.495  30.620  29.177  1.00  0.00     0.023 A 
ATOM     65  C   UNL A   1      35.860  29.523  28.559  1.00  0.00     0.012 A 
ATOM     66  C   UNL A   1      35.939  31.906  29.049  1.00  0.00     0.148 A 
ATOM     67  C   UNL A   1      34.707  29.706  27.800  1.00  0.00     0.002 A 
ATOM     68  C   UNL A   1      34.765  32.075  28.325  1.00  0.00     0.091 A 
ATOM     69  F   UNL A   1      36.574  32.937  29.624  1.00  0.00    -0.205 F 
ATOM     70  C   UNL A   1      34.155  30.980  27.690  1.00  0.00     0.022 A 
BRANCH  68  71
ATOM     71  S   UNL A   1      33.943  33.664  28.183  1.00  0.00     0.127 S 
ATOM     72  O   UNL A   1      32.728  33.304  27.455  1.00  0.00    -0.237 OA
ATOM     73  O   UNL A   1      33.730  34.027  29.585  1.00  0.00    -0.237 OA
ATOM     74  O   UNL A   1      34.869  34.531  27.466  1.00  0.00    -0.744 OA
ENDBRANCH  68  71
ENDBRANCH  50  64
BRANCH  51  75
ATOM     75  C   UNL A   1      44.798  28.795  34.235  1.00  0.00     0.023 A 
ATOM     76  C   UNL A   1      45.942  29.486  33.801  1.00  0.00     0.012 A 
ATOM     77  C   UNL A   1      44.905  27.894  35.314  1.00  0.00     0.148 A 
ATOM     78  C   UNL A   1      47.173  29.277  34.424  1.00  0.00     0.002 A 
ATOM     79  C   UNL A   1      46.132  27.703  35.943  1.00  0.00     0.091 A 
ATOM     80  F   UNL A   1      43.801  27.240  35.705  1.00  0.00    -0.205 F 
ATOM     81  C   UNL A   1      47.268  28.393  35.498  1.00  0.00     0.022 A 
BRANCH  79  82
ATOM     82  S   UNL A   1      46.328  26.646  37.389  1.00  0.00     0.127 S 
ATOM     83  O   UNL A   1      45.217  27.069  38.235  1.00  0.00    -0.237 OA
ATOM     84  O   UNL A   1      46.194  25.310  36.807  1.00  0.00    -0.237 OA
ATOM     85  O   UNL A   1      47.662  26.933  37.903  1.00  0.00    -0.744 OA
ENDBRANCH  79  82
ENDBRANCH  51  75
BRANCH  63  86
ATOM     86  C   UNL A   1      39.130  32.590  35.606  1.00  0.00     0.023 A 
ATOM     87  C   UNL A   1      38.251  32.047  36.562  1.00  0.00     0.012 A 
ATOM     88  C   UNL A   1      39.645  33.888  35.798  1.00  0.00     0.148 A 
ATOM     89  C   UNL A   1      37.864  32.796  37.673  1.00  0.00     0.002 A 
ATOM     90  C   UNL A   1      39.296  34.609  36.934  1.00  0.00     0.091 A 
ATOM     91  F   UNL A   1      40.463  34.398  34.865  1.00  0.00    -0.205 F 
ATOM     92  C   UNL A   1      38.394  34.070  37.865  1.00  0.00     0.022 A 
BRANCH  90  93
ATOM     93  S   UNL A   1      40.001  36.218  37.312  1.00  0.00     0.127 S 
ATOM     94  O   UNL A   1      41.370  35.865  37.683  1.00  0.00    -0.237 OA
ATOM     95  O   UNL A   1      39.876  36.918  36.032  1.00  0.00    -0.237 OA
ATOM     96  O   UNL A   1      39.185  36.772  38.385  1.00  0.00    -0.744 OA
ENDBRANCH  90  93
ENDBRANCH  63  86
ENDBRANCH  37  38
ENDBRANCH  30  32
ENDBRANCH  29  30
ENDBRANCH  28  29
ENDBRANCH  27  28
ENDBRANCH  26  27
ENDBRANCH  25  26
ENDBRANCH   1  25
TORSDOF 23
ENDMDL
MODEL 2
REMARK VINA RESULT:     -10.3      2.759      9.416
REMARK SMILES O=C(C[C@H]1CN(C(=O)c2c(F)cccc2Cl)CCO1)OCCOCCOCCOC(=O)c1ccc(-c2c3nc(c(-c4cccc(S(=O)(=O)[O-])c4F)c4ccc([nH]4)c(-c4cccc(S(=O)(=O)[O-])c4F)c4nc(c(-c5cccc(S(=O)(=O)[O-])c5F)c5ccc2[nH]5)C=C4)C=C3)cc1
REMARK SMILES IDX 24 1 23 2 22 3 21 4 20 5 2 6 1 7 3 8 4 9 5 10 19 11 6 12
REMARK SMILES IDX 18 13 17 14 7 15 8 16 9 17 10 18 15 19 11 20 12 21 14 22
REMARK SMILES IDX 16 23 13 24 25 25 26 26 27 27 28 28 29 29 30 30 31 31 32 32
REMARK SMILES IDX 33 33 94 34 34 35 93 36 35 37 36 38 37 39 87 40 38 41 92 42
REMARK SMILES IDX 86 43 88 44 39 45 91 46 85 47 84 48 40 50 72 51 52 52 71 53
REMARK SMILES IDX 53 54 56 55 70 56 89 57 54 58 55 59 69 61 90 62 57 63 41 64
REMARK SMILES IDX 42 65 50 66 43 67 45 68 51 69 44 70 46 71 47 72 48 73 49 74
REMARK SMILES IDX 73 75 74 76 82 77 75 78 77 79 83 80 76 81 78 82 79 83 80 84
REMARK SMILES IDX 81 85 58 86 59 87 67 88 60 89 62 90 68 91 61 92 63 93 64 94
REMARK SMILES IDX 65 95 66 96
REMARK H PARENT 88 49 56 60
REMARK Flexibility Score: inf
ROOT
ATOM      1  C   UNL A   1      34.362  28.661  26.561  1.00  0.00     0.188 C 
ENDROOT
BRANCH   1   2
ATOM      2  O   UNL A   1      33.633  29.043  25.407  1.00  0.00    -0.376 OA
BRANCH   2   3
ATOM      3  C   UNL A   1      32.421  28.368  25.146  1.00  0.00     0.202 C 
BRANCH   3   4
ATOM      4  C   UNL A   1      32.549  27.497  23.899  1.00  0.00     0.261 C 
BRANCH   4   5
ATOM      5  O   UNL A   1      33.058  26.169  24.111  1.00  0.00    -0.463 OA
BRANCH   5   6
ATOM      6  C   UNL A   1      32.775  25.063  23.404  1.00  0.00     0.308 C 
ATOM      7  O   UNL A   1      31.829  25.080  22.615  1.00  0.00    -0.252 OA
BRANCH   6   8
ATOM      8  C   UNL A   1      33.525  23.790  23.673  1.00  0.00     0.156 C 
BRANCH   8   9
ATOM      9  C   UNL A   1      34.372  23.757  24.940  1.00  0.00     0.148 C 
ATOM     10  C   UNL A   1      33.663  22.941  26.044  1.00  0.00     0.152 C 
ATOM     11  O   UNL A   1      35.681  23.213  24.710  1.00  0.00    -0.374 OA
ATOM     12  N   UNL A   1      33.541  21.563  25.569  1.00  0.00    -0.334 N 
ATOM     13  C   UNL A   1      35.643  21.834  24.289  1.00  0.00     0.182 C 
ATOM     14  C   UNL A   1      34.821  20.946  25.231  1.00  0.00     0.148 C 
BRANCH  12  15
ATOM     15  C   UNL A   1      32.342  20.958  25.208  1.00  0.00     0.258 C 
ATOM     16  O   UNL A   1      31.235  21.450  25.399  1.00  0.00    -0.269 OA
BRANCH  15  17
ATOM     17  C   UNL A   1      32.444  19.679  24.498  1.00  0.00     0.094 A 
ATOM     18  C   UNL A   1      32.739  18.503  25.190  1.00  0.00     0.137 A 
ATOM     19  C   UNL A   1      32.345  19.665  23.109  1.00  0.00     0.056 A 
ATOM     20  F   UNL A   1      32.822  18.494  26.529  1.00  0.00    -0.206 F 
ATOM     21  C   UNL A   1      32.973  17.313  24.503  1.00  0.00     0.040 A 
ATOM     22  C   UNL A   1      32.595  18.478  22.426  1.00  0.00     0.021 A 
ATOM     23  Cl  UNL A   1      31.913  21.071  22.205  1.00  0.00    -0.083 Cl
ATOM     24  C   UNL A   1      32.898  17.302  23.114  1.00  0.00     0.005 A 
ENDBRANCH  15  17
ENDBRANCH  12  15
ENDBRANCH   8   9
ENDBRANCH   6   8
ENDBRANCH   5   6
ENDBRANCH   4   5
ENDBRANCH   3   4
ENDBRANCH   2   3
ENDBRANCH   1   2
BRANCH   1  25
ATOM     25  C   UNL A   1      34.479  29.797  27.592  1.00  0.00     0.188 C 
BRANCH  25  26
ATOM     26  O   UNL A   1      34.041  31.113  27.275  1.00  0.00    -0.376 OA
BRANCH  26  27
ATOM     27  C   UNL A   1      32.676  31.459  27.442  1.00  0.00     0.202 C 
BRANCH  27  28
ATOM     28  C   UNL A   1      32.286  32.936  27.305  1.00  0.00     0.261 C 
BRANCH  28  29
ATOM     29  O   UNL A   1      33.366  33.887  27.411  1.00  0.00    -0.460 OA
BRANCH  29  30
ATOM     30  C   UNL A   1      33.394  34.613  28.554  1.00  0.00     0.338 C 
ATOM     31  O   UNL A   1      32.585  35.474  28.889  1.00  0.00    -0.246 OA
BRANCH  30  32
ATOM     32  C   UNL A   1      34.478  34.177  29.465  1.00  0.00     0.060 A 
ATOM     33  C   UNL A   1      35.807  34.408  29.080  1.00  0.00     0.016 A 
ATOM     34  C   UNL A   1      34.210  33.409  30.600  1.00  0.00     0.016 A 
ATOM     35  C   UNL A   1      36.869  33.817  29.779  1.00  0.00     0.010 A 
ATOM     36  C   UNL A   1      35.278  32.812  31.293  1.00  0.00     0.010 A 
ATOM     37  C   UNL A   1      36.614  32.966  30.859  1.00  0.00    -0.014 A 
BRANCH  37  38
ATOM     38  C   UNL A   1      37.675  32.079  31.423  1.00  0.00     0.031 A 
ATOM     39  C   UNL A   1      38.326  32.460  32.727  1.00  0.00     0.074 A 
ATOM     40  C   UNL A   1      38.097  30.951  30.819  1.00  0.00     0.049 A 
ATOM     41  N   UNL A   1      39.336  31.898  33.338  1.00  0.00    -0.248 NA
ATOM     42  C   UNL A   1      37.728  33.587  33.461  1.00  0.00     0.031 C 
ATOM     43  C   UNL A   1      37.477  30.318  29.666  1.00  0.00     0.029 A 
ATOM     44  N   UNL A   1      39.206  30.170  31.062  1.00  0.00    -0.354 N 
ATOM     45  C   UNL A   1      39.472  32.572  34.543  1.00  0.00     0.074 A 
ATOM     46  C   UNL A   1      38.488  33.634  34.546  1.00  0.00     0.031 C 
ATOM     47  C   UNL A   1      38.297  29.361  29.195  1.00  0.00     0.029 A 
ATOM     48  C   UNL A   1      39.490  29.307  30.028  1.00  0.00     0.049 A 
ATOM     49  H   UNL A   1      39.738  30.223  31.890  1.00  0.00     0.167 HD
ATOM     50  C   UNL A   1      40.298  32.294  35.580  1.00  0.00     0.034 A 
ATOM     51  C   UNL A   1      40.593  28.581  29.761  1.00  0.00     0.034 A 
ATOM     52  C   UNL A   1      41.271  31.235  35.589  1.00  0.00     0.049 A 
ATOM     53  C   UNL A   1      41.654  28.453  30.813  1.00  0.00     0.074 A 
ATOM     54  C   UNL A   1      42.097  30.836  36.626  1.00  0.00     0.029 A 
ATOM     55  N   UNL A   1      41.574  30.428  34.506  1.00  0.00    -0.354 N 
ATOM     56  N   UNL A   1      41.704  29.012  31.995  1.00  0.00    -0.248 NA
ATOM     57  C   UNL A   1      42.750  27.512  30.543  1.00  0.00     0.031 C 
ATOM     58  C   UNL A   1      42.931  29.814  36.154  1.00  0.00     0.029 A 
ATOM     59  C   UNL A   1      42.602  29.557  34.834  1.00  0.00     0.049 A 
ATOM     60  H   UNL A   1      41.126  30.467  33.631  1.00  0.00     0.167 HD
ATOM     61  C   UNL A   1      42.775  28.417  32.649  1.00  0.00     0.074 A 
ATOM     62  C   UNL A   1      43.375  27.488  31.713  1.00  0.00     0.031 C 
ATOM     63  C   UNL A   1      43.188  28.604  33.926  1.00  0.00     0.034 A 
BRANCH  50  64
ATOM     64  C   UNL A   1      40.143  33.129  36.820  1.00  0.00     0.023 A 
ATOM     65  C   UNL A   1      39.130  32.814  37.748  1.00  0.00     0.012 A 
ATOM     66  C   UNL A   1      41.023  34.193  37.088  1.00  0.00     0.148 A 
ATOM     67  C   UNL A   1      38.973  33.565  38.911  1.00  0.00     0.002 A 
ATOM     68  C   UNL A   1      40.887  34.912  38.270  1.00  0.00     0.091 A 
ATOM     69  F   UNL A   1      41.963  34.491  36.180  1.00  0.00    -0.205 F 
ATOM     70  C   UNL A   1      39.857  34.608  39.175  1.00  0.00     0.022 A 
BRANCH  68  71
ATOM     71  S   UNL A   1      42.018  36.228  38.730  1.00  0.00     0.127 S 
ATOM     72  O   UNL A   1      41.276  36.894  39.798  1.00  0.00    -0.237 OA
ATOM     73  O   UNL A   1      43.194  35.481  39.178  1.00  0.00    -0.237 OA
ATOM     74  O   UNL A   1      42.225  37.018  37.524  1.00  0.00    -0.744 OA
ENDBRANCH  68  71
ENDBRANCH  50  64
BRANCH  51  75
ATOM     75  C   UNL A   1      40.746  27.878  28.458  1.00  0.00     0.023 A 
ATOM     76  C   UNL A   1      41.343  28.533  27.368  1.00  0.00     0.012 A 
ATOM     77  C   UNL A   1      40.263  26.564  28.293  1.00  0.00     0.148 A 
ATOM     78  C   UNL A   1      41.448  27.894  26.131  1.00  0.00     0.002 A 
ATOM     79  C   UNL A   1      40.388  25.925  27.062  1.00  0.00     0.091 A 
ATOM     80  F   UNL A   1      39.690  25.963  29.346  1.00  0.00    -0.205 F 
ATOM     81  C   UNL A   1      40.979  26.591  25.979  1.00  0.00     0.022 A 
BRANCH  79  82
ATOM     82  S   UNL A   1      39.886  24.215  26.800  1.00  0.00     0.127 S 
ATOM     83  O   UNL A   1      41.088  23.625  26.221  1.00  0.00    -0.237 OA
ATOM     84  O   UNL A   1      39.572  23.780  28.161  1.00  0.00    -0.237 OA
ATOM     85  O   UNL A   1      38.724  24.281  25.920  1.00  0.00    -0.744 OA
ENDBRANCH  79  82
ENDBRANCH  51  75
BRANCH  63  86
ATOM     86  C   UNL A   1      44.315  27.741  34.429  1.00  0.00     0.023 A 
ATOM     87  C   UNL A   1      45.644  28.204  34.369  1.00  0.00     0.012 A 
ATOM     88  C   UNL A   1      44.047  26.483  35.006  1.00  0.00     0.148 A 
ATOM     89  C   UNL A   1      46.690  27.415  34.845  1.00  0.00     0.002 A 
ATOM     90  C   UNL A   1      45.089  25.724  35.525  1.00  0.00     0.091 A 
ATOM     91  F   UNL A   1      42.778  26.049  35.034  1.00  0.00    -0.205 F 
ATOM     92  C   UNL A   1      46.413  26.182  35.432  1.00  0.00     0.022 A 
BRANCH  90  93
ATOM     93  S   UNL A   1      44.818  24.169  36.382  1.00  0.00     0.127 S 
ATOM     94  O   UNL A   1      46.170  23.614  36.428  1.00  0.00    -0.237 OA
ATOM     95  O   UNL A   1      44.297  24.615  37.675  1.00  0.00    -0.237 OA
ATOM     96  O   UNL A   1      43.863  23.424  35.572  1.00  0.00    -0.744 OA
ENDBRANCH  90  93
ENDBRANCH  63  86
ENDBRANCH  37  38
ENDBRANCH  30  32
ENDBRANCH  29  30
ENDBRANCH  28  29
ENDBRANCH  27  28
ENDBRANCH  26  27
ENDBRANCH  25  26
ENDBRANCH   1  25
TORSDOF 23
ENDMDL
MODEL 3
REMARK VINA RESULT:     -10.1      2.709      9.176
REMARK SMILES O=C(C[C@H]1CN(C(=O)c2c(F)cccc2Cl)CCO1)OCCOCCOCCOC(=O)c1ccc(-c2c3nc(c(-c4cccc(S(=O)(=O)[O-])c4F)c4ccc([nH]4)c(-c4cccc(S(=O)(=O)[O-])c4F)c4nc(c(-c5cccc(S(=O)(=O)[O-])c5F)c5ccc2[nH]5)C=C4)C=C3)cc1
REMARK SMILES IDX 24 1 23 2 22 3 21 4 20 5 2 6 1 7 3 8 4 9 5 10 19 11 6 12
REMARK SMILES IDX 18 13 17 14 7 15 8 16 9 17 10 18 15 19 11 20 12 21 14 22
REMARK SMILES IDX 16 23 13 24 25 25 26 26 27 27 28 28 29 29 30 30 31 31 32 32
REMARK SMILES IDX 33 33 94 34 34 35 93 36 35 37 36 38 37 39 87 40 38 41 92 42
REMARK SMILES IDX 86 43 88 44 39 45 91 46 85 47 84 48 40 50 72 51 52 52 71 53
REMARK SMILES IDX 53 54 56 55 70 56 89 57 54 58 55 59 69 61 90 62 57 63 41 64
REMARK SMILES IDX 42 65 50 66 43 67 45 68 51 69 44 70 46 71 47 72 48 73 49 74
REMARK SMILES IDX 73 75 74 76 82 77 75 78 77 79 83 80 76 81 78 82 79 83 80 84
REMARK SMILES IDX 81 85 58 86 59 87 67 88 60 89 62 90 68 91 61 92 63 93 64 94
REMARK SMILES IDX 65 95 66 96
REMARK H PARENT 88 49 56 60
REMARK Flexibility Score: inf
ROOT
ATOM      1  C   UNL A   1      34.051  28.737  26.753  1.00  0.00     0.188 C 
ENDROOT
BRANCH   1   2
ATOM      2  O   UNL A   1      33.427  28.981  25.504  1.00  0.00    -0.376 OA
BRANCH   2   3
ATOM      3  C   UNL A   1      32.539  27.999  25.015  1.00  0.00     0.202 C 
BRANCH   3   4
ATOM      4  C   UNL A   1      33.153  27.262  23.828  1.00  0.00     0.261 C 
BRANCH   4   5
ATOM      5  O   UNL A   1      33.706  25.964  24.114  1.00  0.00    -0.463 OA
BRANCH   5   6
ATOM      6  C   UNL A   1      34.160  25.058  23.233  1.00  0.00     0.308 C 
ATOM      7  O   UNL A   1      34.034  25.276  22.028  1.00  0.00    -0.252 OA
BRANCH   6   8
ATOM      8  C   UNL A   1      34.697  23.743  23.721  1.00  0.00     0.156 C 
BRANCH   8   9
ATOM      9  C   UNL A   1      35.275  23.730  25.132  1.00  0.00     0.148 C 
ATOM     10  C   UNL A   1      34.158  23.499  26.174  1.00  0.00     0.152 C 
ATOM     11  O   UNL A   1      36.295  22.731  25.296  1.00  0.00    -0.374 OA
ATOM     12  N   UNL A   1      33.587  22.174  25.927  1.00  0.00    -0.334 N 
ATOM     13  C   UNL A   1      35.793  21.391  25.120  1.00  0.00     0.182 C 
ATOM     14  C   UNL A   1      34.567  21.093  25.993  1.00  0.00     0.148 C 
BRANCH  12  15
ATOM     15  C   UNL A   1      32.313  21.950  25.417  1.00  0.00     0.258 C 
ATOM     16  O   UNL A   1      31.767  20.852  25.379  1.00  0.00    -0.269 OA
BRANCH  15  17
ATOM     17  C   UNL A   1      31.575  23.133  24.961  1.00  0.00     0.094 A 
ATOM     18  C   UNL A   1      31.082  24.061  25.881  1.00  0.00     0.137 A 
ATOM     19  C   UNL A   1      31.283  23.268  23.607  1.00  0.00     0.056 A 
ATOM     20  F   UNL A   1      31.367  23.956  27.186  1.00  0.00    -0.206 F 
ATOM     21  C   UNL A   1      30.266  25.110  25.462  1.00  0.00     0.040 A 
ATOM     22  C   UNL A   1      30.454  24.309  23.196  1.00  0.00     0.021 A 
ATOM     23  Cl  UNL A   1      31.922  22.194  22.417  1.00  0.00    -0.083 Cl
ATOM     24  C   UNL A   1      29.951  25.234  24.113  1.00  0.00     0.005 A 
ENDBRANCH  15  17
ENDBRANCH  12  15
ENDBRANCH   8   9
ENDBRANCH   6   8
ENDBRANCH   5   6
ENDBRANCH   4   5
ENDBRANCH   3   4
ENDBRANCH   2   3
ENDBRANCH   1   2
BRANCH   1  25
ATOM     25  C   UNL A   1      33.978  29.947  27.700  1.00  0.00     0.188 C 
BRANCH  25  26
ATOM     26  O   UNL A   1      33.775  31.258  27.188  1.00  0.00    -0.376 OA
BRANCH  26  27
ATOM     27  C   UNL A   1      32.503  31.872  27.310  1.00  0.00     0.202 C 
BRANCH  27  28
ATOM     28  C   UNL A   1      32.432  33.403  27.230  1.00  0.00     0.261 C 
BRANCH  28  29
ATOM     29  O   UNL A   1      33.563  34.116  27.771  1.00  0.00    -0.460 OA
BRANCH  29  30
ATOM     30  C   UNL A   1      33.424  34.551  29.046  1.00  0.00     0.338 C 
ATOM     31  O   UNL A   1      32.432  35.094  29.525  1.00  0.00    -0.246 OA
BRANCH  30  32
ATOM     32  C   UNL A   1      34.590  34.194  29.888  1.00  0.00     0.060 A 
ATOM     33  C   UNL A   1      35.867  34.233  29.309  1.00  0.00     0.016 A 
ATOM     34  C   UNL A   1      34.428  33.674  31.172  1.00  0.00     0.016 A 
ATOM     35  C   UNL A   1      36.973  33.688  29.976  1.00  0.00     0.010 A 
ATOM     36  C   UNL A   1      35.539  33.122  31.835  1.00  0.00     0.010 A 
ATOM     37  C   UNL A   1      36.811  33.075  31.222  1.00  0.00    -0.014 A 
BRANCH  37  38
ATOM     38  C   UNL A   1      37.879  32.215  31.816  1.00  0.00     0.031 A 
ATOM     39  C   UNL A   1      38.620  32.708  33.031  1.00  0.00     0.074 A 
ATOM     40  C   UNL A   1      38.231  31.015  31.313  1.00  0.00     0.049 A 
ATOM     41  N   UNL A   1      39.650  32.179  33.639  1.00  0.00    -0.248 NA
ATOM     42  C   UNL A   1      38.102  33.928  33.673  1.00  0.00     0.031 C 
ATOM     43  C   UNL A   1      37.522  30.286  30.274  1.00  0.00     0.029 A 
ATOM     44  N   UNL A   1      39.329  30.226  31.574  1.00  0.00    -0.354 N 
ATOM     45  C   UNL A   1      39.879  32.971  34.755  1.00  0.00     0.074 A 
ATOM     46  C   UNL A   1      38.928  34.062  34.701  1.00  0.00     0.031 C 
ATOM     47  C   UNL A   1      38.283  29.256  29.861  1.00  0.00     0.029 A 
ATOM     48  C   UNL A   1      39.524  29.249  30.624  1.00  0.00     0.049 A 
ATOM     49  H   UNL A   1      39.912  30.347  32.358  1.00  0.00     0.167 HD
ATOM     50  C   UNL A   1      40.760  32.776  35.765  1.00  0.00     0.034 A 
ATOM     51  C   UNL A   1      40.586  28.460  30.372  1.00  0.00     0.034 A 
ATOM     52  C   UNL A   1      41.701  31.690  35.831  1.00  0.00     0.049 A 
ATOM     53  C   UNL A   1      41.706  28.406  31.369  1.00  0.00     0.074 A 
ATOM     54  C   UNL A   1      42.577  31.374  36.855  1.00  0.00     0.029 A 
ATOM     55  N   UNL A   1      41.913  30.762  34.825  1.00  0.00    -0.354 N 
ATOM     56  N   UNL A   1      41.845  29.085  32.479  1.00  0.00    -0.248 NA
ATOM     57  C   UNL A   1      42.756  27.403  31.138  1.00  0.00     0.031 C 
ATOM     58  C   UNL A   1      43.351  30.279  36.447  1.00  0.00     0.029 A 
ATOM     59  C   UNL A   1      42.933  29.896  35.184  1.00  0.00     0.049 A 
ATOM     60  H   UNL A   1      41.412  30.725  33.979  1.00  0.00     0.167 HD
ATOM     61  C   UNL A   1      42.937  28.525  33.129  1.00  0.00     0.074 A 
ATOM     62  C   UNL A   1      43.450  27.482  32.265  1.00  0.00     0.031 C 
ATOM     63  C   UNL A   1      43.434  28.832  34.352  1.00  0.00     0.034 A 
BRANCH  50  64
ATOM     64  C   UNL A   1      40.706  33.743  36.915  1.00  0.00     0.023 A 
ATOM     65  C   UNL A   1      41.364  34.985  36.809  1.00  0.00     0.012 A 
ATOM     66  C   UNL A   1      39.972  33.442  38.076  1.00  0.00     0.148 A 
ATOM     67  C   UNL A   1      41.319  35.903  37.856  1.00  0.00     0.002 A 
ATOM     68  C   UNL A   1      39.898  34.379  39.100  1.00  0.00     0.091 A 
ATOM     69  F   UNL A   1      39.376  32.244  38.164  1.00  0.00    -0.205 F 
ATOM     70  C   UNL A   1      40.579  35.603  38.997  1.00  0.00     0.022 A 
BRANCH  68  71
ATOM     71  S   UNL A   1      38.914  34.112  40.578  1.00  0.00     0.127 S 
ATOM     72  O   UNL A   1      39.024  35.409  41.243  1.00  0.00    -0.237 OA
ATOM     73  O   UNL A   1      37.593  33.821  40.021  1.00  0.00    -0.237 OA
ATOM     74  O   UNL A   1      39.537  32.995  41.276  1.00  0.00    -0.744 OA
ENDBRANCH  68  71
ENDBRANCH  50  64
BRANCH  51  75
ATOM     75  C   UNL A   1      40.638  27.618  29.146  1.00  0.00     0.023 A 
ATOM     76  C   UNL A   1      39.845  26.462  29.050  1.00  0.00     0.012 A 
ATOM     77  C   UNL A   1      41.507  27.949  28.087  1.00  0.00     0.148 A 
ATOM     78  C   UNL A   1      39.923  25.645  27.921  1.00  0.00     0.002 A 
ATOM     79  C   UNL A   1      41.566  27.139  26.956  1.00  0.00     0.091 A 
ATOM     80  F   UNL A   1      42.260  29.052  28.207  1.00  0.00    -0.205 F 
ATOM     81  C   UNL A   1      40.776  25.985  26.873  1.00  0.00     0.022 A 
BRANCH  79  82
ATOM     82  S   UNL A   1      42.576  27.548  25.521  1.00  0.00     0.127 S 
ATOM     83  O   UNL A   1      42.310  26.427  24.626  1.00  0.00    -0.237 OA
ATOM     84  O   UNL A   1      42.005  28.828  25.104  1.00  0.00    -0.237 OA
ATOM     85  O   UNL A   1      43.942  27.648  26.023  1.00  0.00    -0.744 OA
ENDBRANCH  79  82
ENDBRANCH  51  75
BRANCH  63  86
ATOM     86  C   UNL A   1      44.564  27.987  34.878  1.00  0.00     0.023 A 
ATOM     87  C   UNL A   1      45.900  28.384  34.673  1.00  0.00     0.012 A 
ATOM     88  C   UNL A   1      44.296  26.820  35.621  1.00  0.00     0.148 A 
ATOM     89  C   UNL A   1      46.951  27.612  35.169  1.00  0.00     0.002 A 
ATOM     90  C   UNL A   1      45.346  26.084  36.156  1.00  0.00     0.091 A 
ATOM     91  F   UNL A   1      43.019  26.445  35.787  1.00  0.00    -0.205 F 
ATOM     92  C   UNL A   1      46.675  26.470  35.918  1.00  0.00     0.022 A 
BRANCH  90  93
ATOM     93  S   UNL A   1      45.086  24.653  37.211  1.00  0.00     0.127 S 
ATOM     94  O   UNL A   1      44.164  23.852  36.407  1.00  0.00    -0.237 OA
ATOM     95  O   UNL A   1      46.437  24.102  37.323  1.00  0.00    -0.237 OA
ATOM     96  O   UNL A   1      44.540  25.169  38.460  1.00  0.00    -0.744 OA
ENDBRANCH  90  93
ENDBRANCH  63  86
ENDBRANCH  37  38
ENDBRANCH  30  32
ENDBRANCH  29  30
ENDBRANCH  28  29
ENDBRANCH  27  28
ENDBRANCH  26  27
ENDBRANCH  25  26
ENDBRANCH   1  25
TORSDOF 23
ENDMDL
