MODEL 1
REMARK VINA RESULT:      -9.5      0.000      0.000
REMARK SMILES CCOc1cc(OCC)cc(-c2ccc([C@@H](C)C(=O)OCCOCCOCCOC(=O)c3ccc(-c4c5nc(c(-c6cccc(S(=O)(=O)[O-])c6F)c6ccc([nH]6)c(-c6cccc(S(=O)(=O)[O-])c6F)c6nc(c(-c7cccc(S(=O)(=O)[O-])c7F)c7ccc4[nH]7)C=C6)C=C5)cc3)cc2)c1
REMARK SMILES IDX 24 1 23 2 22 3 21 4 20 5 18 6 19 7 16 8 17 9 15 10 12 11
REMARK SMILES IDX 13 12 96 13 14 14 95 15 11 16 4 17 5 18 97 19 6 20 10 21
REMARK SMILES IDX 3 22 2 23 1 24 7 25 8 26 9 27 25 28 26 29 27 30 28 31 29 32
REMARK SMILES IDX 30 33 31 34 32 35 33 36 94 37 34 38 93 39 35 40 36 41 37 42
REMARK SMILES IDX 87 43 38 44 92 45 86 46 88 47 39 48 91 49 85 50 84 51 40 53
REMARK SMILES IDX 72 54 52 55 71 56 53 57 56 58 70 59 89 60 54 61 55 62 69 64
REMARK SMILES IDX 90 65 57 66 41 67 42 68 50 69 43 70 45 71 51 72 44 73 46 74
REMARK SMILES IDX 47 75 48 76 49 77 73 78 74 79 82 80 75 81 77 82 83 83 76 84
REMARK SMILES IDX 78 85 79 86 80 87 81 88 58 89 59 90 67 91 60 92 62 93 68 94
REMARK SMILES IDX 61 95 63 96 64 97 65 98 66 99
REMARK H PARENT 88 52 56 63
REMARK Flexibility Score: inf
ROOT
ATOM      1  C   UNL A   1      39.099  22.121  26.020  1.00  0.00     0.188 C 
ENDROOT
BRANCH   1   2
ATOM      2  O   UNL A   1      38.323  20.982  25.665  1.00  0.00    -0.376 OA
BRANCH   2   3
ATOM      3  C   UNL A   1      37.356  21.097  24.631  1.00  0.00     0.202 C 
BRANCH   3   4
ATOM      4  C   UNL A   1      36.071  21.896  24.907  1.00  0.00     0.261 C 
BRANCH   4   5
ATOM      5  O   UNL A   1      35.046  21.191  25.643  1.00  0.00    -0.463 OA
BRANCH   5   6
ATOM      6  C   UNL A   1      34.306  20.295  24.940  1.00  0.00     0.313 C 
ATOM      7  O   UNL A   1      34.739  19.197  24.593  1.00  0.00    -0.252 OA
BRANCH   6   8
ATOM      8  C   UNL A   1      32.871  20.713  24.599  1.00  0.00     0.126 C 
ATOM      9  C   UNL A   1      32.405  19.889  23.398  1.00  0.00     0.025 C 
BRANCH   8  10
ATOM     10  C   UNL A   1      32.498  22.180  24.393  1.00  0.00    -0.034 A 
ATOM     11  C   UNL A   1      31.862  24.926  23.907  1.00  0.00    -0.018 A 
ATOM     12  C   UNL A   1      31.426  24.259  25.068  1.00  0.00     0.009 A 
ATOM     13  C   UNL A   1      32.624  24.194  22.990  1.00  0.00     0.009 A 
ATOM     14  C   UNL A   1      31.749  22.916  25.318  1.00  0.00     0.005 A 
ATOM     15  C   UNL A   1      32.941  22.848  23.231  1.00  0.00     0.005 A 
BRANCH  11  16
ATOM     16  C   UNL A   1      31.601  26.367  23.724  1.00  0.00    -0.011 A 
ATOM     17  C   UNL A   1      30.385  28.250  22.774  1.00  0.00     0.123 A 
ATOM     18  C   UNL A   1      31.205  29.144  23.464  1.00  0.00     0.092 A 
ATOM     19  C   UNL A   1      30.588  26.869  22.893  1.00  0.00     0.055 A 
ATOM     20  C   UNL A   1      32.238  28.670  24.269  1.00  0.00     0.123 A 
ATOM     21  C   UNL A   1      32.427  27.291  24.385  1.00  0.00     0.055 A 
BRANCH  17  22
ATOM     22  O   UNL A   1      29.515  28.786  21.863  1.00  0.00    -0.494 OA
BRANCH  22  23
ATOM     23  C   UNL A   1      28.517  29.653  22.411  1.00  0.00     0.226 C 
ATOM     24  C   UNL A   1      27.363  28.872  23.004  1.00  0.00     0.049 C 
ENDBRANCH  22  23
ENDBRANCH  17  22
BRANCH  20  25
ATOM     25  O   UNL A   1      32.992  29.623  24.900  1.00  0.00    -0.494 OA
BRANCH  25  26
ATOM     26  C   UNL A   1      33.725  29.220  26.061  1.00  0.00     0.226 C 
ATOM     27  C   UNL A   1      33.215  29.920  27.312  1.00  0.00     0.049 C 
ENDBRANCH  25  26
ENDBRANCH  20  25
ENDBRANCH  11  16
ENDBRANCH   8  10
ENDBRANCH   6   8
ENDBRANCH   5   6
ENDBRANCH   4   5
ENDBRANCH   3   4
ENDBRANCH   2   3
ENDBRANCH   1   2
BRANCH   1  28
ATOM     28  C   UNL A   1      40.472  21.912  26.677  1.00  0.00     0.188 C 
BRANCH  28  29
ATOM     29  O   UNL A   1      40.511  20.916  27.678  1.00  0.00    -0.376 OA
BRANCH  29  30
ATOM     30  C   UNL A   1      41.308  19.782  27.396  1.00  0.00     0.202 C 
BRANCH  30  31
ATOM     31  C   UNL A   1      41.712  19.608  25.924  1.00  0.00     0.261 C 
BRANCH  31  32
ATOM     32  O   UNL A   1      43.056  19.136  25.691  1.00  0.00    -0.460 OA
BRANCH  32  33
ATOM     33  C   UNL A   1      43.826  19.904  24.890  1.00  0.00     0.338 C 
ATOM     34  O   UNL A   1      44.259  19.581  23.792  1.00  0.00    -0.246 OA
BRANCH  33  35
ATOM     35  C   UNL A   1      43.899  21.278  25.428  1.00  0.00     0.060 A 
ATOM     36  C   UNL A   1      43.630  22.357  24.573  1.00  0.00     0.016 A 
ATOM     37  C   UNL A   1      44.264  21.508  26.755  1.00  0.00     0.016 A 
ATOM     38  C   UNL A   1      43.757  23.668  25.036  1.00  0.00     0.010 A 
ATOM     39  C   UNL A   1      44.408  22.824  27.211  1.00  0.00     0.010 A 
ATOM     40  C   UNL A   1      44.189  23.912  26.347  1.00  0.00    -0.014 A 
BRANCH  40  41
ATOM     41  C   UNL A   1      44.544  25.296  26.757  1.00  0.00     0.031 A 
ATOM     42  C   UNL A   1      45.949  25.791  26.534  1.00  0.00     0.074 A 
ATOM     43  C   UNL A   1      43.626  26.115  27.303  1.00  0.00     0.049 A 
ATOM     44  N   UNL A   1      46.467  26.964  26.794  1.00  0.00    -0.248 NA
ATOM     45  C   UNL A   1      46.897  24.835  25.938  1.00  0.00     0.031 C 
ATOM     46  C   UNL A   1      42.235  25.762  27.581  1.00  0.00     0.029 A 
ATOM     47  N   UNL A   1      43.737  27.413  27.739  1.00  0.00    -0.354 N 
ATOM     48  C   UNL A   1      47.804  26.881  26.421  1.00  0.00     0.074 A 
ATOM     49  C   UNL A   1      48.021  25.536  25.930  1.00  0.00     0.031 C 
ATOM     50  C   UNL A   1      41.626  26.812  28.158  1.00  0.00     0.029 A 
ATOM     51  C   UNL A   1      42.587  27.903  28.311  1.00  0.00     0.049 A 
ATOM     52  H   UNL A   1      44.563  27.943  27.651  1.00  0.00     0.167 HD
ATOM     53  C   UNL A   1      48.762  27.838  26.466  1.00  0.00     0.034 A 
ATOM     54  C   UNL A   1      42.342  29.089  28.906  1.00  0.00     0.034 A 
ATOM     55  C   UNL A   1      48.548  29.178  26.946  1.00  0.00     0.049 A 
ATOM     56  C   UNL A   1      43.429  30.131  28.957  1.00  0.00     0.074 A 
ATOM     57  C   UNL A   1      49.447  30.231  26.987  1.00  0.00     0.029 A 
ATOM     58  N   UNL A   1      47.361  29.648  27.484  1.00  0.00    -0.354 N 
ATOM     59  N   UNL A   1      44.652  30.077  28.488  1.00  0.00    -0.248 NA
ATOM     60  C   UNL A   1      43.086  31.415  29.586  1.00  0.00     0.031 C 
ATOM     61  C   UNL A   1      48.813  31.325  27.586  1.00  0.00     0.029 A 
ATOM     62  C   UNL A   1      47.505  30.970  27.874  1.00  0.00     0.049 A 
ATOM     63  H   UNL A   1      46.535  29.120  27.577  1.00  0.00     0.167 HD
ATOM     64  C   UNL A   1      45.211  31.327  28.731  1.00  0.00     0.074 A 
ATOM     65  C   UNL A   1      44.182  32.127  29.362  1.00  0.00     0.031 C 
ATOM     66  C   UNL A   1      46.466  31.772  28.467  1.00  0.00     0.034 A 
BRANCH  53  67
ATOM     67  C   UNL A   1      50.137  27.472  25.969  1.00  0.00     0.023 A 
ATOM     68  C   UNL A   1      51.100  26.969  26.869  1.00  0.00     0.012 A 
ATOM     69  C   UNL A   1      50.461  27.574  24.602  1.00  0.00     0.148 A 
ATOM     70  C   UNL A   1      52.371  26.608  26.423  1.00  0.00     0.002 A 
ATOM     71  C   UNL A   1      51.712  27.167  24.156  1.00  0.00     0.091 A 
ATOM     72  F   UNL A   1      49.541  28.075  23.764  1.00  0.00    -0.205 F 
ATOM     73  C   UNL A   1      52.672  26.696  25.067  1.00  0.00     0.022 A 
BRANCH  71  74
ATOM     74  S   UNL A   1      52.170  27.164  22.420  1.00  0.00     0.127 S 
ATOM     75  O   UNL A   1      52.545  28.562  22.212  1.00  0.00    -0.237 OA
ATOM     76  O   UNL A   1      53.292  26.223  22.401  1.00  0.00    -0.237 OA
ATOM     77  O   UNL A   1      50.991  26.720  21.692  1.00  0.00    -0.744 OA
ENDBRANCH  71  74
ENDBRANCH  53  67
BRANCH  54  78
ATOM     78  C   UNL A   1      40.994  29.374  29.477  1.00  0.00     0.023 A 
ATOM     79  C   UNL A   1      39.972  29.868  28.643  1.00  0.00     0.012 A 
ATOM     80  C   UNL A   1      40.724  29.159  30.842  1.00  0.00     0.148 A 
ATOM     81  C   UNL A   1      38.715  30.179  29.167  1.00  0.00     0.002 A 
ATOM     82  C   UNL A   1      39.454  29.415  31.345  1.00  0.00     0.091 A 
ATOM     83  F   UNL A   1      41.716  28.706  31.621  1.00  0.00    -0.205 F 
ATOM     84  C   UNL A   1      38.454  29.943  30.514  1.00  0.00     0.022 A 
BRANCH  82  85
ATOM     85  S   UNL A   1      38.990  29.026  33.035  1.00  0.00     0.127 S 
ATOM     86  O   UNL A   1      39.021  30.343  33.665  1.00  0.00    -0.237 OA
ATOM     87  O   UNL A   1      37.652  28.461  32.855  1.00  0.00    -0.237 OA
ATOM     88  O   UNL A   1      39.987  28.077  33.509  1.00  0.00    -0.744 OA
ENDBRANCH  82  85
ENDBRANCH  54  78
BRANCH  66  89
ATOM     89  C   UNL A   1      46.786  33.205  28.821  1.00  0.00     0.023 A 
ATOM     90  C   UNL A   1      47.166  33.543  30.136  1.00  0.00     0.012 A 
ATOM     91  C   UNL A   1      46.737  34.216  27.839  1.00  0.00     0.148 A 
ATOM     92  C   UNL A   1      47.433  34.868  30.482  1.00  0.00     0.002 A 
ATOM     93  C   UNL A   1      47.059  35.526  28.179  1.00  0.00     0.091 A 
ATOM     94  F   UNL A   1      46.361  33.884  26.596  1.00  0.00    -0.205 F 
ATOM     95  C   UNL A   1      47.388  35.857  29.502  1.00  0.00     0.022 A 
BRANCH  93  96
ATOM     96  S   UNL A   1      47.125  36.844  26.960  1.00  0.00     0.127 S 
ATOM     97  O   UNL A   1      47.555  37.980  27.773  1.00  0.00    -0.237 OA
ATOM     98  O   UNL A   1      48.132  36.352  26.020  1.00  0.00    -0.237 OA
ATOM     99  O   UNL A   1      45.780  36.942  26.406  1.00  0.00    -0.744 OA
ENDBRANCH  93  96
ENDBRANCH  66  89
ENDBRANCH  40  41
ENDBRANCH  33  35
ENDBRANCH  32  33
ENDBRANCH  31  32
ENDBRANCH  30  31
ENDBRANCH  29  30
ENDBRANCH  28  29
ENDBRANCH   1  28
TORSDOF 26
ENDMDL
MODEL 2
REMARK VINA RESULT:      -9.1      2.077      2.334
REMARK SMILES CCOc1cc(OCC)cc(-c2ccc([C@@H](C)C(=O)OCCOCCOCCOC(=O)c3ccc(-c4c5nc(c(-c6cccc(S(=O)(=O)[O-])c6F)c6ccc([nH]6)c(-c6cccc(S(=O)(=O)[O-])c6F)c6nc(c(-c7cccc(S(=O)(=O)[O-])c7F)c7ccc4[nH]7)C=C6)C=C5)cc3)cc2)c1
REMARK SMILES IDX 24 1 23 2 22 3 21 4 20 5 18 6 19 7 16 8 17 9 15 10 12 11
REMARK SMILES IDX 13 12 96 13 14 14 95 15 11 16 4 17 5 18 97 19 6 20 10 21
REMARK SMILES IDX 3 22 2 23 1 24 7 25 8 26 9 27 25 28 26 29 27 30 28 31 29 32
REMARK SMILES IDX 30 33 31 34 32 35 33 36 94 37 34 38 93 39 35 40 36 41 37 42
REMARK SMILES IDX 87 43 38 44 92 45 86 46 88 47 39 48 91 49 85 50 84 51 40 53
REMARK SMILES IDX 72 54 52 55 71 56 53 57 56 58 70 59 89 60 54 61 55 62 69 64
REMARK SMILES IDX 90 65 57 66 41 67 42 68 50 69 43 70 45 71 51 72 44 73 46 74
REMARK SMILES IDX 47 75 48 76 49 77 73 78 74 79 82 80 75 81 77 82 83 83 76 84
REMARK SMILES IDX 78 85 79 86 80 87 81 88 58 89 59 90 67 91 60 92 62 93 68 94
REMARK SMILES IDX 61 95 63 96 64 97 65 98 66 99
REMARK H PARENT 88 52 56 63
REMARK Flexibility Score: inf
ROOT
ATOM      1  C   UNL A   1      38.896  22.074  26.029  1.00  0.00     0.188 C 
ENDROOT
BRANCH   1   2
ATOM      2  O   UNL A   1      38.251  20.847  25.708  1.00  0.00    -0.376 OA
BRANCH   2   3
ATOM      3  C   UNL A   1      37.157  20.857  24.802  1.00  0.00     0.202 C 
BRANCH   3   4
ATOM      4  C   UNL A   1      35.879  21.617  25.195  1.00  0.00     0.261 C 
BRANCH   4   5
ATOM      5  O   UNL A   1      34.838  20.814  25.796  1.00  0.00    -0.463 OA
BRANCH   5   6
ATOM      6  C   UNL A   1      34.111  20.037  24.952  1.00  0.00     0.313 C 
ATOM      7  O   UNL A   1      34.535  18.984  24.480  1.00  0.00    -0.252 OA
BRANCH   6   8
ATOM      8  C   UNL A   1      32.700  20.533  24.614  1.00  0.00     0.126 C 
ATOM      9  C   UNL A   1      32.247  19.844  23.326  1.00  0.00     0.025 C 
BRANCH   8  10
ATOM     10  C   UNL A   1      32.378  22.025  24.539  1.00  0.00    -0.034 A 
ATOM     11  C   UNL A   1      31.847  24.826  24.308  1.00  0.00    -0.018 A 
ATOM     12  C   UNL A   1      31.285  24.049  25.339  1.00  0.00     0.009 A 
ATOM     13  C   UNL A   1      32.681  24.177  23.391  1.00  0.00     0.009 A 
ATOM     14  C   UNL A   1      31.557  22.677  25.466  1.00  0.00     0.005 A 
ATOM     15  C   UNL A   1      32.946  22.804  23.508  1.00  0.00     0.005 A 
BRANCH  11  16
ATOM     16  C   UNL A   1      31.634  26.286  24.265  1.00  0.00    -0.011 A 
ATOM     17  C   UNL A   1      30.338  28.276  23.729  1.00  0.00     0.123 A 
ATOM     18  C   UNL A   1      31.348  29.088  24.246  1.00  0.00     0.092 A 
ATOM     19  C   UNL A   1      30.483  26.882  23.727  1.00  0.00     0.055 A 
ATOM     20  C   UNL A   1      32.513  28.520  24.756  1.00  0.00     0.123 A 
ATOM     21  C   UNL A   1      32.645  27.130  24.754  1.00  0.00     0.055 A 
BRANCH  17  22
ATOM     22  O   UNL A   1      29.309  28.905  23.081  1.00  0.00    -0.494 OA
BRANCH  22  23
ATOM     23  C   UNL A   1      29.150  30.292  23.394  1.00  0.00     0.226 C 
ATOM     24  C   UNL A   1      27.710  30.737  23.249  1.00  0.00     0.049 C 
ENDBRANCH  22  23
ENDBRANCH  17  22
BRANCH  20  25
ATOM     25  O   UNL A   1      33.448  29.398  25.234  1.00  0.00    -0.494 OA
BRANCH  25  26
ATOM     26  C   UNL A   1      33.968  29.155  26.545  1.00  0.00     0.226 C 
ATOM     27  C   UNL A   1      33.924  30.411  27.402  1.00  0.00     0.049 C 
ENDBRANCH  25  26
ENDBRANCH  20  25
ENDBRANCH  11  16
ENDBRANCH   8  10
ENDBRANCH   6   8
ENDBRANCH   5   6
ENDBRANCH   4   5
ENDBRANCH   3   4
ENDBRANCH   2   3
ENDBRANCH   1   2
BRANCH   1  28
ATOM     28  C   UNL A   1      40.209  22.039  26.827  1.00  0.00     0.188 C 
BRANCH  28  29
ATOM     29  O   UNL A   1      40.365  20.918  27.673  1.00  0.00    -0.376 OA
BRANCH  29  30
ATOM     30  C   UNL A   1      41.348  19.978  27.284  1.00  0.00     0.202 C 
BRANCH  30  31
ATOM     31  C   UNL A   1      41.875  20.129  25.849  1.00  0.00     0.261 C 
BRANCH  31  32
ATOM     32  O   UNL A   1      43.160  19.527  25.583  1.00  0.00    -0.460 OA
BRANCH  32  33
ATOM     33  C   UNL A   1      44.075  20.317  24.983  1.00  0.00     0.338 C 
ATOM     34  O   UNL A   1      44.732  20.024  23.992  1.00  0.00    -0.246 OA
BRANCH  33  35
ATOM     35  C   UNL A   1      44.024  21.676  25.560  1.00  0.00     0.060 A 
ATOM     36  C   UNL A   1      43.655  22.750  24.736  1.00  0.00     0.016 A 
ATOM     37  C   UNL A   1      44.371  21.901  26.893  1.00  0.00     0.016 A 
ATOM     38  C   UNL A   1      43.663  24.053  25.236  1.00  0.00     0.010 A 
ATOM     39  C   UNL A   1      44.395  23.211  27.386  1.00  0.00     0.010 A 
ATOM     40  C   UNL A   1      44.075  24.298  26.553  1.00  0.00    -0.014 A 
BRANCH  40  41
ATOM     41  C   UNL A   1      44.303  25.696  27.002  1.00  0.00     0.031 A 
ATOM     42  C   UNL A   1      45.688  26.283  26.907  1.00  0.00     0.074 A 
ATOM     43  C   UNL A   1      43.291  26.449  27.472  1.00  0.00     0.049 A 
ATOM     44  N   UNL A   1      46.104  27.482  27.220  1.00  0.00    -0.248 NA
ATOM     45  C   UNL A   1      46.743  25.396  26.390  1.00  0.00     0.031 C 
ATOM     46  C   UNL A   1      41.907  26.005  27.624  1.00  0.00     0.029 A 
ATOM     47  N   UNL A   1      43.280  27.746  27.925  1.00  0.00    -0.354 N 
ATOM     48  C   UNL A   1      47.471  27.489  26.965  1.00  0.00     0.074 A 
ATOM     49  C   UNL A   1      47.816  26.168  26.485  1.00  0.00     0.031 C 
ATOM     50  C   UNL A   1      41.183  27.007  28.153  1.00  0.00     0.029 A 
ATOM     51  C   UNL A   1      42.055  28.154  28.397  1.00  0.00     0.049 A 
ATOM     52  H   UNL A   1      44.074  28.328  27.914  1.00  0.00     0.167 HD
ATOM     53  C   UNL A   1      48.359  28.505  27.100  1.00  0.00     0.034 A 
ATOM     54  C   UNL A   1      41.683  29.314  28.977  1.00  0.00     0.034 A 
ATOM     55  C   UNL A   1      48.017  29.823  27.568  1.00  0.00     0.049 A 
ATOM     56  C   UNL A   1      42.693  30.423  29.131  1.00  0.00     0.074 A 
ATOM     57  C   UNL A   1      48.840  30.929  27.696  1.00  0.00     0.029 A 
ATOM     58  N   UNL A   1      46.760  30.210  28.004  1.00  0.00    -0.354 N 
ATOM     59  N   UNL A   1      43.953  30.452  28.770  1.00  0.00    -0.248 NA
ATOM     60  C   UNL A   1      42.214  31.675  29.736  1.00  0.00     0.031 C 
ATOM     61  C   UNL A   1      48.087  31.974  28.245  1.00  0.00     0.029 A 
ATOM     62  C   UNL A   1      46.785  31.532  28.415  1.00  0.00     0.049 A 
ATOM     63  H   UNL A   1      45.965  29.629  28.021  1.00  0.00     0.167 HD
ATOM     64  C   UNL A   1      44.407  31.733  29.069  1.00  0.00     0.074 A 
ATOM     65  C   UNL A   1      43.277  32.458  29.614  1.00  0.00     0.031 C 
ATOM     66  C   UNL A   1      45.649  32.260  28.920  1.00  0.00     0.034 A 
BRANCH  53  67
ATOM     67  C   UNL A   1      49.792  28.233  26.723  1.00  0.00     0.023 A 
ATOM     68  C   UNL A   1      50.205  28.373  25.382  1.00  0.00     0.012 A 
ATOM     69  C   UNL A   1      50.744  27.894  27.704  1.00  0.00     0.148 A 
ATOM     70  C   UNL A   1      51.532  28.145  25.018  1.00  0.00     0.002 A 
ATOM     71  C   UNL A   1      52.075  27.715  27.343  1.00  0.00     0.091 A 
ATOM     72  F   UNL A   1      50.330  27.744  28.971  1.00  0.00    -0.205 F 
ATOM     73  C   UNL A   1      52.467  27.827  25.999  1.00  0.00     0.022 A 
BRANCH  71  74
ATOM     74  S   UNL A   1      53.369  27.384  28.542  1.00  0.00     0.127 S 
ATOM     75  O   UNL A   1      53.495  28.681  29.206  1.00  0.00    -0.237 OA
ATOM     76  O   UNL A   1      52.764  26.335  29.365  1.00  0.00    -0.237 OA
ATOM     77  O   UNL A   1      54.532  26.961  27.775  1.00  0.00    -0.744 OA
ENDBRANCH  71  74
ENDBRANCH  53  67
BRANCH  54  78
ATOM     78  C   UNL A   1      40.275  29.506  29.429  1.00  0.00     0.023 A 
ATOM     79  C   UNL A   1      39.303  29.960  28.517  1.00  0.00     0.012 A 
ATOM     80  C   UNL A   1      39.898  29.243  30.761  1.00  0.00     0.148 A 
ATOM     81  C   UNL A   1      37.988  30.183  28.931  1.00  0.00     0.002 A 
ATOM     82  C   UNL A   1      38.576  29.412  31.152  1.00  0.00     0.091 A 
ATOM     83  F   UNL A   1      40.843  28.830  31.617  1.00  0.00    -0.205 F 
ATOM     84  C   UNL A   1      37.623  29.900  30.244  1.00  0.00     0.022 A 
BRANCH  82  85
ATOM     85  S   UNL A   1      37.988  28.956  32.786  1.00  0.00     0.127 S 
ATOM     86  O   UNL A   1      36.603  29.416  32.746  1.00  0.00    -0.237 OA
ATOM     87  O   UNL A   1      38.155  27.502  32.768  1.00  0.00    -0.237 OA
ATOM     88  O   UNL A   1      38.857  29.651  33.725  1.00  0.00    -0.744 OA
ENDBRANCH  82  85
ENDBRANCH  54  78
BRANCH  66  89
ATOM     89  C   UNL A   1      45.844  33.706  29.310  1.00  0.00     0.023 A 
ATOM     90  C   UNL A   1      45.803  34.717  28.328  1.00  0.00     0.012 A 
ATOM     91  C   UNL A   1      46.043  34.066  30.659  1.00  0.00     0.148 A 
ATOM     92  C   UNL A   1      46.014  36.053  28.673  1.00  0.00     0.002 A 
ATOM     93  C   UNL A   1      46.196  35.404  31.002  1.00  0.00     0.091 A 
ATOM     94  F   UNL A   1      46.095  33.093  31.580  1.00  0.00    -0.205 F 
ATOM     95  C   UNL A   1      46.202  36.397  30.010  1.00  0.00     0.022 A 
BRANCH  93  96
ATOM     96  S   UNL A   1      46.343  35.947  32.708  1.00  0.00     0.127 S 
ATOM     97  O   UNL A   1      47.741  35.636  33.001  1.00  0.00    -0.237 OA
ATOM     98  O   UNL A   1      46.045  37.376  32.609  1.00  0.00    -0.237 OA
ATOM     99  O   UNL A   1      45.359  35.177  33.458  1.00  0.00    -0.744 OA
ENDBRANCH  93  96
ENDBRANCH  66  89
ENDBRANCH  40  41
ENDBRANCH  33  35
ENDBRANCH  32  33
ENDBRANCH  31  32
ENDBRANCH  30  31
ENDBRANCH  29  30
ENDBRANCH  28  29
ENDBRANCH   1  28
TORSDOF 26
ENDMDL
MODEL 3
REMARK VINA RESULT:      -8.7      3.224      4.783
REMARK SMILES CCOc1cc(OCC)cc(-c2ccc([C@@H](C)C(=O)OCCOCCOCCOC(=O)c3ccc(-c4c5nc(c(-c6cccc(S(=O)(=O)[O-])c6F)c6ccc([nH]6)c(-c6cccc(S(=O)(=O)[O-])c6F)c6nc(c(-c7cccc(S(=O)(=O)[O-])c7F)c7ccc4[nH]7)C=C6)C=C5)cc3)cc2)c1
REMARK SMILES IDX 24 1 23 2 22 3 21 4 20 5 18 6 19 7 16 8 17 9 15 10 12 11
REMARK SMILES IDX 13 12 96 13 14 14 95 15 11 16 4 17 5 18 97 19 6 20 10 21
REMARK SMILES IDX 3 22 2 23 1 24 7 25 8 26 9 27 25 28 26 29 27 30 28 31 29 32
REMARK SMILES IDX 30 33 31 34 32 35 33 36 94 37 34 38 93 39 35 40 36 41 37 42
REMARK SMILES IDX 87 43 38 44 92 45 86 46 88 47 39 48 91 49 85 50 84 51 40 53
REMARK SMILES IDX 72 54 52 55 71 56 53 57 56 58 70 59 89 60 54 61 55 62 69 64
REMARK SMILES IDX 90 65 57 66 41 67 42 68 50 69 43 70 45 71 51 72 44 73 46 74
REMARK SMILES IDX 47 75 48 76 49 77 73 78 74 79 82 80 75 81 77 82 83 83 76 84
REMARK SMILES IDX 78 85 79 86 80 87 81 88 58 89 59 90 67 91 60 92 62 93 68 94
REMARK SMILES IDX 61 95 63 96 64 97 65 98 66 99
REMARK H PARENT 88 52 56 63
REMARK Flexibility Score: inf
ROOT
ATOM      1  C   UNL A   1      39.147  21.970  26.081  1.00  0.00     0.188 C 
ENDROOT
BRANCH   1   2
ATOM      2  O   UNL A   1      38.676  20.670  25.745  1.00  0.00    -0.376 OA
BRANCH   2   3
ATOM      3  C   UNL A   1      37.588  20.540  24.841  1.00  0.00     0.202 C 
BRANCH   3   4
ATOM      4  C   UNL A   1      36.389  21.492  24.986  1.00  0.00     0.261 C 
BRANCH   4   5
ATOM      5  O   UNL A   1      35.231  20.937  25.649  1.00  0.00    -0.463 OA
BRANCH   5   6
ATOM      6  C   UNL A   1      34.458  20.097  24.914  1.00  0.00     0.313 C 
ATOM      7  O   UNL A   1      34.854  19.005  24.510  1.00  0.00    -0.252 OA
BRANCH   6   8
ATOM      8  C   UNL A   1      33.033  20.572  24.608  1.00  0.00     0.126 C 
ATOM      9  C   UNL A   1      32.496  19.753  23.434  1.00  0.00     0.025 C 
BRANCH   8  10
ATOM     10  C   UNL A   1      32.717  22.051  24.391  1.00  0.00    -0.034 A 
ATOM     11  C   UNL A   1      32.196  24.819  23.890  1.00  0.00    -0.018 A 
ATOM     12  C   UNL A   1      31.647  24.152  25.002  1.00  0.00     0.009 A 
ATOM     13  C   UNL A   1      33.013  24.077  23.030  1.00  0.00     0.009 A 
ATOM     14  C   UNL A   1      31.913  22.797  25.261  1.00  0.00     0.005 A 
ATOM     15  C   UNL A   1      33.273  22.720  23.279  1.00  0.00     0.005 A 
BRANCH  11  16
ATOM     16  C   UNL A   1      31.990  26.269  23.706  1.00  0.00    -0.011 A 
ATOM     17  C   UNL A   1      32.504  28.607  24.145  1.00  0.00     0.123 A 
ATOM     18  C   UNL A   1      31.499  29.007  23.263  1.00  0.00     0.092 A 
ATOM     19  C   UNL A   1      32.742  27.246  24.376  1.00  0.00     0.055 A 
ATOM     20  C   UNL A   1      30.718  28.055  22.611  1.00  0.00     0.123 A 
ATOM     21  C   UNL A   1      30.968  26.701  22.844  1.00  0.00     0.055 A 
BRANCH  17  22
ATOM     22  O   UNL A   1      33.103  29.590  24.886  1.00  0.00    -0.494 OA
BRANCH  22  23
ATOM     23  C   UNL A   1      33.170  29.336  26.293  1.00  0.00     0.226 C 
ATOM     24  C   UNL A   1      32.869  30.582  27.101  1.00  0.00     0.049 C 
ENDBRANCH  22  23
ENDBRANCH  17  22
BRANCH  20  25
ATOM     25  O   UNL A   1      29.755  28.544  21.771  1.00  0.00    -0.494 OA
BRANCH  25  26
ATOM     26  C   UNL A   1      28.813  29.470  22.320  1.00  0.00     0.226 C 
ATOM     27  C   UNL A   1      28.921  30.834  21.654  1.00  0.00     0.049 C 
ENDBRANCH  25  26
ENDBRANCH  20  25
ENDBRANCH  11  16
ENDBRANCH   8  10
ENDBRANCH   6   8
ENDBRANCH   5   6
ENDBRANCH   4   5
ENDBRANCH   3   4
ENDBRANCH   2   3
ENDBRANCH   1   2
BRANCH   1  28
ATOM     28  C   UNL A   1      40.601  22.137  26.550  1.00  0.00     0.188 C 
BRANCH  28  29
ATOM     29  O   UNL A   1      41.528  21.254  25.952  1.00  0.00    -0.376 OA
BRANCH  29  30
ATOM     30  C   UNL A   1      42.767  21.820  25.569  1.00  0.00     0.202 C 
BRANCH  30  31
ATOM     31  C   UNL A   1      42.755  23.338  25.331  1.00  0.00     0.261 C 
BRANCH  31  32
ATOM     32  O   UNL A   1      43.852  23.862  24.555  1.00  0.00    -0.460 OA
BRANCH  32  33
ATOM     33  C   UNL A   1      44.940  24.255  25.252  1.00  0.00     0.338 C 
ATOM     34  O   UNL A   1      46.061  23.773  25.159  1.00  0.00    -0.246 OA
BRANCH  33  35
ATOM     35  C   UNL A   1      44.642  25.498  25.994  1.00  0.00     0.060 A 
ATOM     36  C   UNL A   1      44.097  26.589  25.300  1.00  0.00     0.016 A 
ATOM     37  C   UNL A   1      44.928  25.605  27.355  1.00  0.00     0.016 A 
ATOM     38  C   UNL A   1      43.868  27.797  25.960  1.00  0.00     0.010 A 
ATOM     39  C   UNL A   1      44.713  26.823  28.011  1.00  0.00     0.010 A 
ATOM     40  C   UNL A   1      44.215  27.936  27.311  1.00  0.00    -0.014 A 
BRANCH  40  41
ATOM     41  C   UNL A   1      44.186  29.283  27.940  1.00  0.00     0.031 A 
ATOM     42  C   UNL A   1      45.380  30.189  27.792  1.00  0.00     0.074 A 
ATOM     43  C   UNL A   1      43.105  29.708  28.620  1.00  0.00     0.049 A 
ATOM     44  N   UNL A   1      45.558  31.406  28.238  1.00  0.00    -0.248 NA
ATOM     45  C   UNL A   1      46.526  29.651  27.041  1.00  0.00     0.031 C 
ATOM     46  C   UNL A   1      41.888  28.932  28.846  1.00  0.00     0.029 A 
ATOM     47  N   UNL A   1      42.868  30.899  29.263  1.00  0.00    -0.354 N 
ATOM     48  C   UNL A   1      46.842  31.770  27.847  1.00  0.00     0.074 A 
ATOM     49  C   UNL A   1      47.403  30.638  27.140  1.00  0.00     0.031 C 
ATOM     50  C   UNL A   1      41.038  29.659  29.592  1.00  0.00     0.029 A 
ATOM     51  C   UNL A   1      41.659  30.942  29.916  1.00  0.00     0.049 A 
ATOM     52  H   UNL A   1      43.504  31.651  29.258  1.00  0.00     0.167 HD
ATOM     53  C   UNL A   1      47.492  32.943  28.043  1.00  0.00     0.034 A 
ATOM     54  C   UNL A   1      41.121  31.900  30.699  1.00  0.00     0.034 A 
ATOM     55  C   UNL A   1      46.934  34.074  28.737  1.00  0.00     0.049 A 
ATOM     56  C   UNL A   1      41.871  33.190  30.914  1.00  0.00     0.074 A 
ATOM     57  C   UNL A   1      47.500  35.320  28.945  1.00  0.00     0.029 A 
ATOM     58  N   UNL A   1      45.693  34.093  29.354  1.00  0.00    -0.354 N 
ATOM     59  N   UNL A   1      43.033  33.563  30.434  1.00  0.00    -0.248 NA
ATOM     60  C   UNL A   1      41.213  34.207  31.747  1.00  0.00     0.031 C 
ATOM     61  C   UNL A   1      46.616  36.079  29.720  1.00  0.00     0.029 A 
ATOM     62  C   UNL A   1      45.480  35.323  29.955  1.00  0.00     0.049 A 
ATOM     63  H   UNL A   1      45.057  33.342  29.364  1.00  0.00     0.167 HD
ATOM     64  C   UNL A   1      43.228  34.868  30.874  1.00  0.00     0.074 A 
ATOM     65  C   UNL A   1      42.050  35.230  31.636  1.00  0.00     0.031 C 
ATOM     66  C   UNL A   1      44.290  35.690  30.679  1.00  0.00     0.034 A 
BRANCH  53  67
ATOM     67  C   UNL A   1      48.886  33.070  27.482  1.00  0.00     0.023 A 
ATOM     68  C   UNL A   1      49.077  33.574  26.179  1.00  0.00     0.012 A 
ATOM     69  C   UNL A   1      50.010  32.743  28.266  1.00  0.00     0.148 A 
ATOM     70  C   UNL A   1      50.360  33.716  25.652  1.00  0.00     0.002 A 
ATOM     71  C   UNL A   1      51.288  32.933  27.752  1.00  0.00     0.091 A 
ATOM     72  F   UNL A   1      49.810  32.246  29.495  1.00  0.00    -0.205 F 
ATOM     73  C   UNL A   1      51.464  33.407  26.441  1.00  0.00     0.022 A 
BRANCH  71  74
ATOM     74  S   UNL A   1      52.774  32.642  28.717  1.00  0.00     0.127 S 
ATOM     75  O   UNL A   1      52.753  31.187  28.860  1.00  0.00    -0.237 OA
ATOM     76  O   UNL A   1      53.820  33.152  27.828  1.00  0.00    -0.237 OA
ATOM     77  O   UNL A   1      52.607  33.392  29.953  1.00  0.00    -0.744 OA
ENDBRANCH  71  74
ENDBRANCH  53  67
BRANCH  54  78
ATOM     78  C   UNL A   1      39.780  31.694  31.318  1.00  0.00     0.023 A 
ATOM     79  C   UNL A   1      39.685  31.162  32.619  1.00  0.00     0.012 A 
ATOM     80  C   UNL A   1      38.601  32.020  30.622  1.00  0.00     0.148 A 
ATOM     81  C   UNL A   1      38.438  30.924  33.200  1.00  0.00     0.002 A 
ATOM     82  C   UNL A   1      37.364  31.836  31.229  1.00  0.00     0.091 A 
ATOM     83  F   UNL A   1      38.713  32.508  29.378  1.00  0.00    -0.205 F 
ATOM     84  C   UNL A   1      37.280  31.271  32.510  1.00  0.00     0.022 A 
BRANCH  82  85
ATOM     85  S   UNL A   1      35.828  32.366  30.467  1.00  0.00     0.127 S 
ATOM     86  O   UNL A   1      36.121  33.759  30.138  1.00  0.00    -0.237 OA
ATOM     87  O   UNL A   1      35.739  31.467  29.316  1.00  0.00    -0.237 OA
ATOM     88  O   UNL A   1      34.797  32.160  31.475  1.00  0.00    -0.744 OA
ENDBRANCH  82  85
ENDBRANCH  54  78
BRANCH  66  89
ATOM     89  C   UNL A   1      44.210  37.082  31.261  1.00  0.00     0.023 A 
ATOM     90  C   UNL A   1      44.601  37.315  32.595  1.00  0.00     0.012 A 
ATOM     91  C   UNL A   1      43.773  38.166  30.474  1.00  0.00     0.148 A 
ATOM     92  C   UNL A   1      44.502  38.590  33.154  1.00  0.00     0.002 A 
ATOM     93  C   UNL A   1      43.730  39.444  31.021  1.00  0.00     0.091 A 
ATOM     94  F   UNL A   1      43.390  37.929  29.211  1.00  0.00    -0.205 F 
ATOM     95  C   UNL A   1      44.075  39.655  32.364  1.00  0.00     0.022 A 
BRANCH  93  96
ATOM     96  S   UNL A   1      43.288  40.889  30.049  1.00  0.00     0.127 S 
ATOM     97  O   UNL A   1      43.278  41.940  31.064  1.00  0.00    -0.237 OA
ATOM     98  O   UNL A   1      44.394  40.975  29.095  1.00  0.00    -0.237 OA
ATOM     99  O   UNL A   1      41.996  40.586  29.447  1.00  0.00    -0.744 OA
ENDBRANCH  93  96
ENDBRANCH  66  89
ENDBRANCH  40  41
ENDBRANCH  33  35
ENDBRANCH  32  33
ENDBRANCH  31  32
ENDBRANCH  30  31
ENDBRANCH  29  30
ENDBRANCH  28  29
ENDBRANCH   1  28
TORSDOF 26
ENDMDL
