MODEL 1
REMARK VINA RESULT:     -11.1      0.000      0.000
REMARK SMILES Cc1ccc(C(=O)OCCOCCOCCOC(=O)c2ccc(-c3c4nc(c(-c5cccc(S(=O)(=O)[O-])c5F)c5ccc([nH]5)c(-c5cccc(S(=O)(=O)[O-])c5F)c5nc(c(-c6cccc(S(=O)(=O)[O-])c6F)c6ccc3[nH]6)C=C5)C=C4)cc2)cc1NC(=O)C[C@@H]1SC(=O)N(c2ccccc2)C1=O
REMARK SMILES IDX 12 1 11 2 10 3 9 4 8 5 6 6 7 7 5 8 1 9 2 10 3 11 84 12 4 13
REMARK SMILES IDX 83 14 85 15 86 16 87 18 88 19 89 20 90 21 100 22 91 23 93 24
REMARK SMILES IDX 101 25 92 26 94 27 95 28 99 29 96 30 98 31 97 32 13 33 14 34
REMARK SMILES IDX 15 35 16 36 17 37 18 38 19 39 20 40 21 41 82 42 22 43 81 44
REMARK SMILES IDX 23 45 24 46 25 47 75 48 26 49 80 50 74 51 76 52 27 53 79 54
REMARK SMILES IDX 73 55 72 56 28 58 60 59 40 60 59 61 41 62 44 63 58 64 77 65
REMARK SMILES IDX 42 66 43 67 57 69 78 70 45 71 29 72 30 73 38 74 31 75 33 76
REMARK SMILES IDX 39 77 32 78 34 79 35 80 36 81 37 82 61 83 62 84 70 85 63 86
REMARK SMILES IDX 65 87 71 88 64 89 66 90 67 91 68 92 69 93 46 94 47 95 55 96
REMARK SMILES IDX 48 97 50 98 56 99 49 100 51 101 52 102 53 103 54 104
REMARK H PARENT 85 17 76 57 44 68
REMARK Flexibility Score: inf
ROOT
ATOM      1  C   UNL A   1      35.908  30.018  27.747  1.00  0.00     0.188 C 
ENDROOT
BRANCH   1   2
ATOM      2  O   UNL A   1      34.565  29.458  27.544  1.00  0.00    -0.376 OA
BRANCH   2   3
ATOM      3  C   UNL A   1      33.741  29.621  26.338  1.00  0.00     0.202 C 
BRANCH   3   4
ATOM      4  C   UNL A   1      32.087  29.268  26.077  1.00  0.00     0.261 C 
BRANCH   4   5
ATOM      5  O   UNL A   1      31.304  27.955  25.593  1.00  0.00    -0.460 OA
BRANCH   5   6
ATOM      6  C   UNL A   1      31.389  26.845  26.397  1.00  0.00     0.338 C 
ATOM      7  O   UNL A   1      30.957  27.266  27.475  1.00  0.00    -0.246 OA
BRANCH   6   8
ATOM      8  C   UNL A   1      32.126  25.066  26.212  1.00  0.00     0.062 A 
ATOM      9  C   UNL A   1      32.511  21.168  24.240  1.00  0.00     0.046 C 
ATOM     10  C   UNL A   1      32.650  22.374  25.129  1.00  0.00    -0.027 A 
ATOM     11  C   UNL A   1      31.733  22.432  26.120  1.00  0.00     0.006 A 
ATOM     12  C   UNL A   1      33.476  23.529  24.961  1.00  0.00     0.044 A 
ATOM     13  C   UNL A   1      31.500  23.698  26.612  1.00  0.00     0.016 A 
ATOM     14  C   UNL A   1      33.322  24.763  25.670  1.00  0.00     0.042 A 
BRANCH  12  15
ATOM     15  N   UNL A   1      34.436  23.504  23.964  1.00  0.00    -0.326 N 
ATOM     16  C   UNL A   1      35.709  23.032  24.042  1.00  0.00     0.226 C 
ATOM     17  H   UNL A   1      34.163  23.873  23.093  1.00  0.00     0.169 HD
ATOM     18  O   UNL A   1      36.360  22.982  22.993  1.00  0.00    -0.275 OA
BRANCH  16  19
ATOM     19  C   UNL A   1      36.370  22.627  25.364  1.00  0.00     0.125 C 
BRANCH  19  20
ATOM     20  C   UNL A   1      37.890  22.485  25.310  1.00  0.00     0.156 C 
ATOM     21  S   UNL A   1      38.563  20.217  25.213  1.00  0.00    -0.050 SA
ATOM     22  C   UNL A   1      39.275  23.528  26.367  1.00  0.00     0.248 C 
ATOM     23  C   UNL A   1      40.495  20.566  26.351  1.00  0.00     0.293 C 
ATOM     24  N   UNL A   1      40.781  22.246  26.839  1.00  0.00    -0.240 N 
ATOM     25  O   UNL A   1      39.013  24.740  26.385  1.00  0.00    -0.273 OA
ATOM     26  O   UNL A   1      40.991  19.507  26.620  1.00  0.00    -0.261 OA
BRANCH  24  27
ATOM     27  C   UNL A   1      42.299  22.427  27.639  1.00  0.00     0.053 A 
ATOM     28  C   UNL A   1      42.398  22.923  28.962  1.00  0.00     0.027 A 
ATOM     29  C   UNL A   1      43.429  22.846  26.910  1.00  0.00     0.027 A 
ATOM     30  C   UNL A   1      43.017  24.164  29.286  1.00  0.00     0.002 A 
ATOM     31  C   UNL A   1      44.198  23.999  27.281  1.00  0.00     0.002 A 
ATOM     32  C   UNL A   1      43.903  24.737  28.418  1.00  0.00     0.000 A 
ENDBRANCH  24  27
ENDBRANCH  19  20
ENDBRANCH  16  19
ENDBRANCH  12  15
ENDBRANCH   6   8
ENDBRANCH   5   6
ENDBRANCH   4   5
ENDBRANCH   3   4
ENDBRANCH   2   3
ENDBRANCH   1   2
BRANCH   1  33
ATOM     33  C   UNL A   1      36.299  31.036  28.940  1.00  0.00     0.188 C 
BRANCH  33  34
ATOM     34  O   UNL A   1      37.289  32.090  28.732  1.00  0.00    -0.376 OA
BRANCH  34  35
ATOM     35  C   UNL A   1      36.895  33.449  28.994  1.00  0.00     0.202 C 
BRANCH  35  36
ATOM     36  C   UNL A   1      35.332  33.536  29.136  1.00  0.00     0.261 C 
BRANCH  36  37
ATOM     37  O   UNL A   1      34.881  34.649  29.995  1.00  0.00    -0.460 OA
BRANCH  37  38
ATOM     38  C   UNL A   1      34.004  34.625  31.079  1.00  0.00     0.338 C 
ATOM     39  O   UNL A   1      32.835  34.949  31.027  1.00  0.00    -0.246 OA
BRANCH  38  40
ATOM     40  C   UNL A   1      34.844  34.249  32.372  1.00  0.00     0.060 A 
ATOM     41  C   UNL A   1      36.263  35.067  33.028  1.00  0.00     0.016 A 
ATOM     42  C   UNL A   1      35.023  32.582  32.282  1.00  0.00     0.016 A 
ATOM     43  C   UNL A   1      37.894  34.264  33.349  1.00  0.00     0.010 A 
ATOM     44  C   UNL A   1      36.811  31.705  32.623  1.00  0.00     0.010 A 
ATOM     45  C   UNL A   1      38.353  32.635  32.871  1.00  0.00    -0.014 A 
BRANCH  45  46
ATOM     46  C   UNL A   1      40.057  31.949  32.273  1.00  0.00     0.031 A 
ATOM     47  C   UNL A   1      41.251  32.737  30.961  1.00  0.00     0.074 A 
ATOM     48  C   UNL A   1      40.913  31.096  32.971  1.00  0.00     0.049 A 
ATOM     49  N   UNL A   1      42.256  32.221  30.257  1.00  0.00    -0.248 NA
ATOM     50  C   UNL A   1      41.177  34.182  30.232  1.00  0.00     0.031 C 
ATOM     51  C   UNL A   1      42.352  31.436  32.939  1.00  0.00     0.029 A 
ATOM     52  N   UNL A   1      40.929  30.037  33.917  1.00  0.00    -0.354 N 
ATOM     53  C   UNL A   1      42.820  33.353  29.529  1.00  0.00     0.074 A 
ATOM     54  C   UNL A   1      41.762  34.131  29.053  1.00  0.00     0.031 C 
ATOM     55  C   UNL A   1      43.069  30.702  33.772  1.00  0.00     0.029 A 
ATOM     56  C   UNL A   1      42.253  29.610  34.182  1.00  0.00     0.049 A 
ATOM     57  H   UNL A   1      40.125  29.650  34.333  1.00  0.00     0.167 HD
ATOM     58  C   UNL A   1      44.017  33.971  29.842  1.00  0.00     0.034 A 
ATOM     59  C   UNL A   1      42.855  28.404  34.376  1.00  0.00     0.034 A 
ATOM     60  C   UNL A   1      44.885  33.003  30.449  1.00  0.00     0.049 A 
ATOM     61  C   UNL A   1      43.729  28.083  33.168  1.00  0.00     0.074 A 
ATOM     62  C   UNL A   1      45.669  32.883  31.571  1.00  0.00     0.029 A 
ATOM     63  N   UNL A   1      44.835  31.751  29.876  1.00  0.00    -0.354 N 
ATOM     64  N   UNL A   1      44.521  28.944  32.578  1.00  0.00    -0.248 NA
ATOM     65  C   UNL A   1      43.686  26.816  32.435  1.00  0.00     0.031 C 
ATOM     66  C   UNL A   1      45.923  31.479  31.743  1.00  0.00     0.029 A 
ATOM     67  C   UNL A   1      45.346  30.778  30.693  1.00  0.00     0.049 A 
ATOM     68  H   UNL A   1      44.472  31.576  28.978  1.00  0.00     0.167 HD
ATOM     69  C   UNL A   1      44.739  28.527  31.280  1.00  0.00     0.074 A 
ATOM     70  C   UNL A   1      44.329  27.137  31.297  1.00  0.00     0.031 C 
ATOM     71  C   UNL A   1      45.109  29.390  30.276  1.00  0.00     0.034 A 
BRANCH  58  72
ATOM     72  C   UNL A   1      44.363  35.509  29.655  1.00  0.00     0.023 A 
ATOM     73  C   UNL A   1      43.875  36.379  30.648  1.00  0.00     0.012 A 
ATOM     74  C   UNL A   1      45.065  36.184  28.585  1.00  0.00     0.148 A 
ATOM     75  C   UNL A   1      44.079  37.777  30.611  1.00  0.00     0.002 A 
ATOM     76  C   UNL A   1      45.318  37.572  28.577  1.00  0.00     0.091 A 
ATOM     77  F   UNL A   1      45.473  35.518  27.506  1.00  0.00    -0.205 F 
ATOM     78  C   UNL A   1      44.811  38.374  29.593  1.00  0.00     0.022 A 
BRANCH  76  79
ATOM     79  S   UNL A   1      46.301  38.419  27.297  1.00  0.00     0.127 S 
ATOM     80  O   UNL A   1      45.543  39.653  27.081  1.00  0.00    -0.237 OA
ATOM     81  O   UNL A   1      47.587  38.612  27.968  1.00  0.00    -0.237 OA
ATOM     82  O   UNL A   1      46.343  37.523  26.147  1.00  0.00    -0.744 OA
ENDBRANCH  76  79
ENDBRANCH  58  72
BRANCH  59  83
ATOM     83  C   UNL A   1      42.265  27.502  35.372  1.00  0.00     0.023 A 
ATOM     84  C   UNL A   1      41.515  26.409  34.872  1.00  0.00     0.012 A 
ATOM     85  C   UNL A   1      42.820  27.408  36.630  1.00  0.00     0.148 A 
ATOM     86  C   UNL A   1      41.525  25.169  35.518  1.00  0.00     0.002 A 
ATOM     87  C   UNL A   1      42.928  26.148  37.207  1.00  0.00     0.091 A 
ATOM     88  F   UNL A   1      43.463  28.470  37.139  1.00  0.00    -0.205 F 
ATOM     89  C   UNL A   1      42.311  25.014  36.652  1.00  0.00     0.022 A 
BRANCH  87  90
ATOM     90  S   UNL A   1      44.400  25.965  38.189  1.00  0.00     0.127 S 
ATOM     91  O   UNL A   1      44.045  26.613  39.448  1.00  0.00    -0.237 OA
ATOM     92  O   UNL A   1      44.480  24.507  38.187  1.00  0.00    -0.237 OA
ATOM     93  O   UNL A   1      45.439  26.643  37.426  1.00  0.00    -0.744 OA
ENDBRANCH  87  90
ENDBRANCH  59  83
BRANCH  71  94
ATOM     94  C   UNL A   1      45.119  29.070  28.761  1.00  0.00     0.023 A 
ATOM     95  C   UNL A   1      46.249  28.579  28.079  1.00  0.00     0.012 A 
ATOM     96  C   UNL A   1      43.902  29.064  28.012  1.00  0.00     0.148 A 
ATOM     97  C   UNL A   1      46.190  28.172  26.732  1.00  0.00     0.002 A 
ATOM     98  C   UNL A   1      43.819  28.504  26.737  1.00  0.00     0.091 A 
ATOM     99  F   UNL A   1      42.788  29.591  28.544  1.00  0.00    -0.205 F 
ATOM    100  C   UNL A   1      44.970  28.104  26.069  1.00  0.00     0.022 A 
BRANCH  98 101
ATOM    101  S   UNL A   1      42.209  28.082  26.038  1.00  0.00     0.127 S 
ATOM    102  O   UNL A   1      41.398  29.242  26.397  1.00  0.00    -0.237 OA
ATOM    103  O   UNL A   1      42.496  27.959  24.607  1.00  0.00    -0.237 OA
ATOM    104  O   UNL A   1      41.867  26.820  26.684  1.00  0.00    -0.744 OA
ENDBRANCH  98 101
ENDBRANCH  71  94
ENDBRANCH  45  46
ENDBRANCH  38  40
ENDBRANCH  37  38
ENDBRANCH  36  37
ENDBRANCH  35  36
ENDBRANCH  34  35
ENDBRANCH  33  34
ENDBRANCH   1  33
TORSDOF 24
ENDMDL
MODEL 2
REMARK VINA RESULT:     -10.8      5.212     12.973
REMARK SMILES Cc1ccc(C(=O)OCCOCCOCCOC(=O)c2ccc(-c3c4nc(c(-c5cccc(S(=O)(=O)[O-])c5F)c5ccc([nH]5)c(-c5cccc(S(=O)(=O)[O-])c5F)c5nc(c(-c6cccc(S(=O)(=O)[O-])c6F)c6ccc3[nH]6)C=C5)C=C4)cc2)cc1NC(=O)C[C@@H]1SC(=O)N(c2ccccc2)C1=O
REMARK SMILES IDX 12 1 11 2 10 3 9 4 8 5 6 6 7 7 5 8 1 9 2 10 3 11 84 12 4 13
REMARK SMILES IDX 83 14 85 15 86 16 87 18 88 19 89 20 90 21 100 22 91 23 93 24
REMARK SMILES IDX 101 25 92 26 94 27 95 28 99 29 96 30 98 31 97 32 13 33 14 34
REMARK SMILES IDX 15 35 16 36 17 37 18 38 19 39 20 40 21 41 82 42 22 43 81 44
REMARK SMILES IDX 23 45 24 46 25 47 75 48 26 49 80 50 74 51 76 52 27 53 79 54
REMARK SMILES IDX 73 55 72 56 28 58 60 59 40 60 59 61 41 62 44 63 58 64 77 65
REMARK SMILES IDX 42 66 43 67 57 69 78 70 45 71 29 72 30 73 38 74 31 75 33 76
REMARK SMILES IDX 39 77 32 78 34 79 35 80 36 81 37 82 61 83 62 84 70 85 63 86
REMARK SMILES IDX 65 87 71 88 64 89 66 90 67 91 68 92 69 93 46 94 47 95 55 96
REMARK SMILES IDX 48 97 50 98 56 99 49 100 51 101 52 102 53 103 54 104
REMARK H PARENT 85 17 76 57 44 68
REMARK Flexibility Score: inf
ROOT
ATOM      1  C   UNL A   1      49.339  32.612  27.084  1.00  0.00     0.188 C 
ENDROOT
BRANCH   1   2
ATOM      2  O   UNL A   1      49.174  34.041  26.788  1.00  0.00    -0.376 OA
BRANCH   2   3
ATOM      3  C   UNL A   1      47.896  34.768  26.754  1.00  0.00     0.202 C 
BRANCH   3   4
ATOM      4  C   UNL A   1      46.762  34.945  25.485  1.00  0.00     0.261 C 
BRANCH   4   5
ATOM      5  O   UNL A   1      45.462  34.114  25.046  1.00  0.00    -0.460 OA
BRANCH   5   6
ATOM      6  C   UNL A   1      44.260  34.508  25.579  1.00  0.00     0.338 C 
ATOM      7  O   UNL A   1      43.464  34.220  24.679  1.00  0.00    -0.246 OA
BRANCH   6   8
ATOM      8  C   UNL A   1      43.707  35.459  27.171  1.00  0.00     0.062 A 
ATOM      9  C   UNL A   1      43.814  36.292  31.475  1.00  0.00     0.046 C 
ATOM     10  C   UNL A   1      43.549  36.295  29.993  1.00  0.00    -0.027 A 
ATOM     11  C   UNL A   1      42.618  35.398  29.601  1.00  0.00     0.006 A 
ATOM     12  C   UNL A   1      44.260  36.967  28.951  1.00  0.00     0.044 A 
ATOM     13  C   UNL A   1      42.708  35.017  28.280  1.00  0.00     0.016 A 
ATOM     14  C   UNL A   1      44.149  36.673  27.554  1.00  0.00     0.042 A 
BRANCH  12  15
ATOM     15  N   UNL A   1      45.214  37.903  29.311  1.00  0.00    -0.326 N 
ATOM     16  C   UNL A   1      45.013  39.174  29.750  1.00  0.00     0.226 C 
ATOM     17  H   UNL A   1      46.152  37.613  29.241  1.00  0.00     0.169 HD
ATOM     18  O   UNL A   1      46.002  39.800  30.147  1.00  0.00    -0.275 OA
BRANCH  16  19
ATOM     19  C   UNL A   1      43.644  39.863  29.714  1.00  0.00     0.125 C 
BRANCH  19  20
ATOM     20  C   UNL A   1      43.536  41.033  28.739  1.00  0.00     0.156 C 
ATOM     21  S   UNL A   1      42.398  40.426  26.752  1.00  0.00    -0.050 SA
ATOM     22  C   UNL A   1      44.962  42.403  28.276  1.00  0.00     0.248 C 
ATOM     23  C   UNL A   1      43.576  41.856  25.441  1.00  0.00     0.293 C 
ATOM     24  N   UNL A   1      44.789  42.825  26.295  1.00  0.00    -0.240 N 
ATOM     25  O   UNL A   1      45.539  42.816  29.292  1.00  0.00    -0.273 OA
ATOM     26  O   UNL A   1      43.323  41.632  24.289  1.00  0.00    -0.261 OA
BRANCH  24  27
ATOM     27  C   UNL A   1      45.587  43.926  25.232  1.00  0.00     0.053 A 
ATOM     28  C   UNL A   1      44.984  45.136  24.810  1.00  0.00     0.027 A 
ATOM     29  C   UNL A   1      46.394  43.431  24.190  1.00  0.00     0.027 A 
ATOM     30  C   UNL A   1      44.614  45.394  23.459  1.00  0.00     0.002 A 
ATOM     31  C   UNL A   1      46.176  43.784  22.816  1.00  0.00     0.002 A 
ATOM     32  C   UNL A   1      45.187  44.682  22.442  1.00  0.00     0.000 A 
ENDBRANCH  24  27
ENDBRANCH  19  20
ENDBRANCH  16  19
ENDBRANCH  12  15
ENDBRANCH   6   8
ENDBRANCH   5   6
ENDBRANCH   4   5
ENDBRANCH   3   4
ENDBRANCH   2   3
ENDBRANCH   1   2
BRANCH   1  33
ATOM     33  C   UNL A   1      48.114  31.575  27.276  1.00  0.00     0.188 C 
BRANCH  33  34
ATOM     34  O   UNL A   1      47.134  31.368  26.212  1.00  0.00    -0.376 OA
BRANCH  34  35
ATOM     35  C   UNL A   1      45.938  30.633  26.529  1.00  0.00     0.202 C 
BRANCH  35  36
ATOM     36  C   UNL A   1      46.148  29.106  26.213  1.00  0.00     0.261 C 
BRANCH  36  37
ATOM     37  O   UNL A   1      45.083  28.529  25.369  1.00  0.00    -0.460 OA
BRANCH  37  38
ATOM     38  C   UNL A   1      44.652  27.207  25.278  1.00  0.00     0.338 C 
ATOM     39  O   UNL A   1      45.328  26.288  24.859  1.00  0.00    -0.246 OA
BRANCH  38  40
ATOM     40  C   UNL A   1      43.115  27.171  25.672  1.00  0.00     0.060 A 
ATOM     41  C   UNL A   1      41.958  28.502  25.677  1.00  0.00     0.016 A 
ATOM     42  C   UNL A   1      43.067  26.246  27.073  1.00  0.00     0.016 A 
ATOM     43  C   UNL A   1      40.963  29.036  27.138  1.00  0.00     0.010 A 
ATOM     44  C   UNL A   1      41.986  26.835  28.675  1.00  0.00     0.010 A 
ATOM     45  C   UNL A   1      41.152  28.447  28.784  1.00  0.00    -0.014 A 
BRANCH  45  46
ATOM     46  C   UNL A   1      40.966  29.380  30.466  1.00  0.00     0.031 A 
ATOM     47  C   UNL A   1      40.043  31.056  30.789  1.00  0.00     0.074 A 
ATOM     48  C   UNL A   1      41.024  28.827  31.745  1.00  0.00     0.049 A 
ATOM     49  N   UNL A   1      40.116  31.927  31.794  1.00  0.00    -0.248 NA
ATOM     50  C   UNL A   1      39.104  31.928  29.797  1.00  0.00     0.031 C 
ATOM     51  C   UNL A   1      40.000  29.287  32.708  1.00  0.00     0.029 A 
ATOM     52  N   UNL A   1      41.626  27.786  32.501  1.00  0.00    -0.354 N 
ATOM     53  C   UNL A   1      39.094  32.924  31.496  1.00  0.00     0.074 A 
ATOM     54  C   UNL A   1      39.146  33.201  30.127  1.00  0.00     0.031 C 
ATOM     55  C   UNL A   1      39.999  28.584  33.828  1.00  0.00     0.029 A 
ATOM     56  C   UNL A   1      41.205  27.828  33.853  1.00  0.00     0.049 A 
ATOM     57  H   UNL A   1      42.253  27.122  32.134  1.00  0.00     0.167 HD
ATOM     58  C   UNL A   1      37.882  33.029  32.154  1.00  0.00     0.034 A 
ATOM     59  C   UNL A   1      41.813  27.641  35.057  1.00  0.00     0.034 A 
ATOM     60  C   UNL A   1      38.050  32.550  33.497  1.00  0.00     0.049 A 
ATOM     61  C   UNL A   1      41.929  28.984  35.771  1.00  0.00     0.074 A 
ATOM     62  C   UNL A   1      37.441  31.673  34.362  1.00  0.00     0.029 A 
ATOM     63  N   UNL A   1      39.239  32.915  34.090  1.00  0.00    -0.354 N 
ATOM     64  N   UNL A   1      40.970  29.875  35.832  1.00  0.00    -0.248 NA
ATOM     65  C   UNL A   1      43.168  29.501  36.354  1.00  0.00     0.031 C 
ATOM     66  C   UNL A   1      38.399  31.387  35.394  1.00  0.00     0.029 A 
ATOM     67  C   UNL A   1      39.544  32.140  35.177  1.00  0.00     0.049 A 
ATOM     68  H   UNL A   1      39.807  33.651  33.766  1.00  0.00     0.167 HD
ATOM     69  C   UNL A   1      41.532  31.115  36.059  1.00  0.00     0.074 A 
ATOM     70  C   UNL A   1      42.868  30.802  36.526  1.00  0.00     0.031 C 
ATOM     71  C   UNL A   1      40.901  32.288  35.719  1.00  0.00     0.034 A 
BRANCH  58  72
ATOM     72  C   UNL A   1      36.505  33.507  31.527  1.00  0.00     0.023 A 
ATOM     73  C   UNL A   1      36.093  32.842  30.357  1.00  0.00     0.012 A 
ATOM     74  C   UNL A   1      35.612  34.569  31.937  1.00  0.00     0.148 A 
ATOM     75  C   UNL A   1      34.904  33.168  29.667  1.00  0.00     0.002 A 
ATOM     76  C   UNL A   1      34.395  34.856  31.281  1.00  0.00     0.091 A 
ATOM     77  F   UNL A   1      35.926  35.377  32.948  1.00  0.00    -0.205 F 
ATOM     78  C   UNL A   1      34.046  34.157  30.132  1.00  0.00     0.022 A 
BRANCH  76  79
ATOM     79  S   UNL A   1      33.204  36.111  31.854  1.00  0.00     0.127 S 
ATOM     80  O   UNL A   1      33.001  36.925  30.655  1.00  0.00    -0.237 OA
ATOM     81  O   UNL A   1      32.049  35.296  32.231  1.00  0.00    -0.237 OA
ATOM     82  O   UNL A   1      33.841  36.811  32.963  1.00  0.00    -0.744 OA
ENDBRANCH  76  79
ENDBRANCH  58  72
BRANCH  59  83
ATOM     83  C   UNL A   1      42.593  26.411  35.241  1.00  0.00     0.023 A 
ATOM     84  C   UNL A   1      41.897  25.293  35.762  1.00  0.00     0.012 A 
ATOM     85  C   UNL A   1      43.730  26.199  34.493  1.00  0.00     0.148 A 
ATOM     86  C   UNL A   1      42.201  23.993  35.343  1.00  0.00     0.002 A 
ATOM     87  C   UNL A   1      43.952  24.924  33.985  1.00  0.00     0.091 A 
ATOM     88  F   UNL A   1      44.435  27.257  34.064  1.00  0.00    -0.205 F 
ATOM     89  C   UNL A   1      43.182  23.816  34.377  1.00  0.00     0.022 A 
BRANCH  87  90
ATOM     90  S   UNL A   1      44.719  24.946  32.380  1.00  0.00     0.127 S 
ATOM     91  O   UNL A   1      44.091  26.091  31.725  1.00  0.00    -0.237 OA
ATOM     92  O   UNL A   1      46.107  25.100  32.807  1.00  0.00    -0.237 OA
ATOM     93  O   UNL A   1      44.390  23.654  31.795  1.00  0.00    -0.744 OA
ENDBRANCH  87  90
ENDBRANCH  59  83
BRANCH  71  94
ATOM     94  C   UNL A   1      41.551  33.694  35.691  1.00  0.00     0.023 A 
ATOM     95  C   UNL A   1      41.656  34.477  34.526  1.00  0.00     0.012 A 
ATOM     96  C   UNL A   1      41.896  34.358  36.908  1.00  0.00     0.148 A 
ATOM     97  C   UNL A   1      42.130  35.802  34.557  1.00  0.00     0.002 A 
ATOM     98  C   UNL A   1      42.204  35.718  36.948  1.00  0.00     0.091 A 
ATOM     99  F   UNL A   1      41.911  33.672  38.062  1.00  0.00    -0.205 F 
ATOM    100  C   UNL A   1      42.375  36.435  35.770  1.00  0.00     0.022 A 
BRANCH  98 101
ATOM    101  S   UNL A   1      42.156  36.609  38.518  1.00  0.00     0.127 S 
ATOM    102  O   UNL A   1      42.804  37.873  38.181  1.00  0.00    -0.237 OA
ATOM    103  O   UNL A   1      40.721  36.714  38.790  1.00  0.00    -0.237 OA
ATOM    104  O   UNL A   1      42.871  35.733  39.439  1.00  0.00    -0.744 OA
ENDBRANCH  98 101
ENDBRANCH  71  94
ENDBRANCH  45  46
ENDBRANCH  38  40
ENDBRANCH  37  38
ENDBRANCH  36  37
ENDBRANCH  35  36
ENDBRANCH  34  35
ENDBRANCH  33  34
ENDBRANCH   1  33
TORSDOF 24
ENDMDL
MODEL 3
REMARK VINA RESULT:     -10.7      4.159      6.091
REMARK SMILES Cc1ccc(C(=O)OCCOCCOCCOC(=O)c2ccc(-c3c4nc(c(-c5cccc(S(=O)(=O)[O-])c5F)c5ccc([nH]5)c(-c5cccc(S(=O)(=O)[O-])c5F)c5nc(c(-c6cccc(S(=O)(=O)[O-])c6F)c6ccc3[nH]6)C=C5)C=C4)cc2)cc1NC(=O)C[C@@H]1SC(=O)N(c2ccccc2)C1=O
REMARK SMILES IDX 12 1 11 2 10 3 9 4 8 5 6 6 7 7 5 8 1 9 2 10 3 11 84 12 4 13
REMARK SMILES IDX 83 14 85 15 86 16 87 18 88 19 89 20 90 21 100 22 91 23 93 24
REMARK SMILES IDX 101 25 92 26 94 27 95 28 99 29 96 30 98 31 97 32 13 33 14 34
REMARK SMILES IDX 15 35 16 36 17 37 18 38 19 39 20 40 21 41 82 42 22 43 81 44
REMARK SMILES IDX 23 45 24 46 25 47 75 48 26 49 80 50 74 51 76 52 27 53 79 54
REMARK SMILES IDX 73 55 72 56 28 58 60 59 40 60 59 61 41 62 44 63 58 64 77 65
REMARK SMILES IDX 42 66 43 67 57 69 78 70 45 71 29 72 30 73 38 74 31 75 33 76
REMARK SMILES IDX 39 77 32 78 34 79 35 80 36 81 37 82 61 83 62 84 70 85 63 86
REMARK SMILES IDX 65 87 71 88 64 89 66 90 67 91 68 92 69 93 46 94 47 95 55 96
REMARK SMILES IDX 48 97 50 98 56 99 49 100 51 101 52 102 53 103 54 104
REMARK H PARENT 85 17 76 57 44 68
REMARK Flexibility Score: inf
ROOT
ATOM      1  C   UNL A   1      36.303  30.152  27.655  1.00  0.00     0.188 C 
ENDROOT
BRANCH   1   2
ATOM      2  O   UNL A   1      35.100  29.332  27.850  1.00  0.00    -0.376 OA
BRANCH   2   3
ATOM      3  C   UNL A   1      34.380  28.603  26.797  1.00  0.00     0.202 C 
BRANCH   3   4
ATOM      4  C   UNL A   1      32.983  29.041  25.911  1.00  0.00     0.261 C 
BRANCH   4   5
ATOM      5  O   UNL A   1      31.578  28.317  25.641  1.00  0.00    -0.460 OA
BRANCH   5   6
ATOM      6  C   UNL A   1      31.449  27.021  26.076  1.00  0.00     0.338 C 
ATOM      7  O   UNL A   1      30.979  27.168  27.209  1.00  0.00    -0.246 OA
BRANCH   6   8
ATOM      8  C   UNL A   1      31.970  25.286  25.398  1.00  0.00     0.062 A 
ATOM      9  C   UNL A   1      32.564  22.343  22.202  1.00  0.00     0.046 C 
ATOM     10  C   UNL A   1      32.513  23.090  23.506  1.00  0.00    -0.027 A 
ATOM     11  C   UNL A   1      31.309  23.045  24.118  1.00  0.00     0.006 A 
ATOM     12  C   UNL A   1      33.482  23.972  24.080  1.00  0.00     0.044 A 
ATOM     13  C   UNL A   1      31.072  24.079  24.996  1.00  0.00     0.016 A 
ATOM     14  C   UNL A   1      33.233  24.883  25.156  1.00  0.00     0.042 A 
BRANCH  12  15
ATOM     15  N   UNL A   1      34.733  24.038  23.490  1.00  0.00    -0.326 N 
ATOM     16  C   UNL A   1      35.691  23.074  23.455  1.00  0.00     0.226 C 
ATOM     17  H   UNL A   1      34.954  24.886  23.042  1.00  0.00     0.169 HD
ATOM     18  O   UNL A   1      36.688  23.292  22.758  1.00  0.00    -0.275 OA
BRANCH  16  19
ATOM     19  C   UNL A   1      35.609  21.784  24.278  1.00  0.00     0.125 C 
BRANCH  19  20
ATOM     20  C   UNL A   1      36.668  21.645  25.370  1.00  0.00     0.156 C 
ATOM     21  S   UNL A   1      37.374  23.751  26.190  1.00  0.00    -0.050 SA
ATOM     22  C   UNL A   1      38.248  20.369  25.414  1.00  0.00     0.248 C 
ATOM     23  C   UNL A   1      39.488  23.057  26.638  1.00  0.00     0.293 C 
ATOM     24  N   UNL A   1      39.810  21.355  26.264  1.00  0.00    -0.240 N 
ATOM     25  O   UNL A   1      37.917  19.226  25.067  1.00  0.00    -0.273 OA
ATOM     26  O   UNL A   1      40.164  24.009  26.918  1.00  0.00    -0.261 OA
BRANCH  24  27
ATOM     27  C   UNL A   1      41.418  20.902  26.695  1.00  0.00     0.053 A 
ATOM     28  C   UNL A   1      42.476  21.842  26.753  1.00  0.00     0.027 A 
ATOM     29  C   UNL A   1      41.934  19.663  26.270  1.00  0.00     0.027 A 
ATOM     30  C   UNL A   1      43.591  21.817  25.868  1.00  0.00     0.002 A 
ATOM     31  C   UNL A   1      43.147  19.554  25.512  1.00  0.00     0.002 A 
ATOM     32  C   UNL A   1      43.915  20.667  25.203  1.00  0.00     0.000 A 
ENDBRANCH  24  27
ENDBRANCH  19  20
ENDBRANCH  16  19
ENDBRANCH  12  15
ENDBRANCH   6   8
ENDBRANCH   5   6
ENDBRANCH   4   5
ENDBRANCH   3   4
ENDBRANCH   2   3
ENDBRANCH   1   2
BRANCH   1  33
ATOM     33  C   UNL A   1      36.827  31.262  28.706  1.00  0.00     0.188 C 
BRANCH  33  34
ATOM     34  O   UNL A   1      37.465  32.492  28.242  1.00  0.00    -0.376 OA
BRANCH  34  35
ATOM     35  C   UNL A   1      37.005  33.741  28.790  1.00  0.00     0.202 C 
BRANCH  35  36
ATOM     36  C   UNL A   1      35.560  34.061  28.258  1.00  0.00     0.261 C 
BRANCH  36  37
ATOM     37  O   UNL A   1      34.796  34.965  29.140  1.00  0.00    -0.460 OA
BRANCH  37  38
ATOM     38  C   UNL A   1      33.530  34.791  29.695  1.00  0.00     0.338 C 
ATOM     39  O   UNL A   1      32.486  35.009  29.113  1.00  0.00    -0.246 OA
BRANCH  38  40
ATOM     40  C   UNL A   1      33.720  34.410  31.224  1.00  0.00     0.060 A 
ATOM     41  C   UNL A   1      34.191  35.462  32.560  1.00  0.00     0.016 A 
ATOM     42  C   UNL A   1      34.570  32.962  31.189  1.00  0.00     0.016 A 
ATOM     43  C   UNL A   1      35.635  35.177  33.674  1.00  0.00     0.010 A 
ATOM     44  C   UNL A   1      36.157  32.655  32.401  1.00  0.00     0.010 A 
ATOM     45  C   UNL A   1      36.873  33.946  33.461  1.00  0.00    -0.014 A 
BRANCH  45  46
ATOM     46  C   UNL A   1      38.767  34.011  33.840  1.00  0.00     0.031 A 
ATOM     47  C   UNL A   1      40.226  33.572  32.639  1.00  0.00     0.074 A 
ATOM     48  C   UNL A   1      39.406  34.795  34.802  1.00  0.00     0.049 A 
ATOM     49  N   UNL A   1      41.504  33.279  32.869  1.00  0.00    -0.248 NA
ATOM     50  C   UNL A   1      40.196  33.238  31.054  1.00  0.00     0.031 C 
ATOM     51  C   UNL A   1      40.650  35.473  34.377  1.00  0.00     0.029 A 
ATOM     52  N   UNL A   1      39.228  35.381  36.083  1.00  0.00    -0.354 N 
ATOM     53  C   UNL A   1      42.101  33.152  31.544  1.00  0.00     0.074 A 
ATOM     54  C   UNL A   1      41.204  32.455  30.731  1.00  0.00     0.031 C 
ATOM     55  C   UNL A   1      41.089  36.342  35.272  1.00  0.00     0.029 A 
ATOM     56  C   UNL A   1      40.386  36.091  36.484  1.00  0.00     0.049 A 
ATOM     57  H   UNL A   1      38.408  35.304  36.622  1.00  0.00     0.167 HD
ATOM     58  C   UNL A   1      42.940  34.088  30.967  1.00  0.00     0.034 A 
ATOM     59  C   UNL A   1      41.064  36.245  37.655  1.00  0.00     0.034 A 
ATOM     60  C   UNL A   1      43.648  34.772  32.012  1.00  0.00     0.049 A 
ATOM     61  C   UNL A   1      42.393  35.501  37.564  1.00  0.00     0.074 A 
ATOM     62  C   UNL A   1      43.921  36.062  32.397  1.00  0.00     0.029 A 
ATOM     63  N   UNL A   1      44.057  33.964  33.050  1.00  0.00    -0.354 N 
ATOM     64  N   UNL A   1      43.187  35.531  36.523  1.00  0.00    -0.248 NA
ATOM     65  C   UNL A   1      42.875  34.552  38.570  1.00  0.00     0.031 C 
ATOM     66  C   UNL A   1      44.330  35.999  33.773  1.00  0.00     0.029 A 
ATOM     67  C   UNL A   1      44.360  34.673  34.181  1.00  0.00     0.049 A 
ATOM     68  H   UNL A   1      44.123  32.984  32.985  1.00  0.00     0.167 HD
ATOM     69  C   UNL A   1      43.980  34.401  36.539  1.00  0.00     0.074 A 
ATOM     70  C   UNL A   1      43.853  33.916  37.900  1.00  0.00     0.031 C 
ATOM     71  C   UNL A   1      44.563  33.887  35.405  1.00  0.00     0.034 A 
BRANCH  58  72
ATOM     72  C   UNL A   1      43.052  34.430  29.421  1.00  0.00     0.023 A 
ATOM     73  C   UNL A   1      42.305  35.537  28.976  1.00  0.00     0.012 A 
ATOM     74  C   UNL A   1      43.765  33.748  28.364  1.00  0.00     0.148 A 
ATOM     75  C   UNL A   1      42.281  35.954  27.626  1.00  0.00     0.002 A 
ATOM     76  C   UNL A   1      43.787  34.198  27.026  1.00  0.00     0.091 A 
ATOM     77  F   UNL A   1      44.412  32.607  28.599  1.00  0.00    -0.205 F 
ATOM     78  C   UNL A   1      43.030  35.303  26.655  1.00  0.00     0.022 A 
BRANCH  76  79
ATOM     79  S   UNL A   1      44.775  33.419  25.708  1.00  0.00     0.127 S 
ATOM     80  O   UNL A   1      46.140  33.544  26.219  1.00  0.00    -0.237 OA
ATOM     81  O   UNL A   1      44.259  32.050  25.698  1.00  0.00    -0.237 OA
ATOM     82  O   UNL A   1      44.510  34.176  24.489  1.00  0.00    -0.744 OA
ENDBRANCH  76  79
ENDBRANCH  58  72
BRANCH  59  83
ATOM     83  C   UNL A   1      40.294  36.647  38.839  1.00  0.00     0.023 A 
ATOM     84  C   UNL A   1      39.325  35.726  39.306  1.00  0.00     0.012 A 
ATOM     85  C   UNL A   1      40.817  37.568  39.720  1.00  0.00     0.148 A 
ATOM     86  C   UNL A   1      39.066  35.579  40.673  1.00  0.00     0.002 A 
ATOM     87  C   UNL A   1      40.650  37.340  41.081  1.00  0.00     0.091 A 
ATOM     88  F   UNL A   1      41.676  38.492  39.263  1.00  0.00    -0.205 F 
ATOM     89  C   UNL A   1      39.802  36.336  41.575  1.00  0.00     0.022 A 
BRANCH  87  90
ATOM     90  S   UNL A   1      42.050  37.871  42.044  1.00  0.00     0.127 S 
ATOM     91  O   UNL A   1      41.818  37.247  43.343  1.00  0.00    -0.237 OA
ATOM     92  O   UNL A   1      43.109  37.309  41.212  1.00  0.00    -0.237 OA
ATOM     93  O   UNL A   1      41.968  39.325  42.043  1.00  0.00    -0.744 OA
ENDBRANCH  87  90
ENDBRANCH  59  83
BRANCH  71  94
ATOM     94  C   UNL A   1      45.239  32.499  35.280  1.00  0.00     0.023 A 
ATOM     95  C   UNL A   1      46.633  32.309  35.323  1.00  0.00     0.012 A 
ATOM     96  C   UNL A   1      44.457  31.305  35.319  1.00  0.00     0.148 A 
ATOM     97  C   UNL A   1      47.211  31.025  35.340  1.00  0.00     0.002 A 
ATOM     98  C   UNL A   1      45.033  30.047  35.505  1.00  0.00     0.091 A 
ATOM     99  F   UNL A   1      43.122  31.376  35.197  1.00  0.00    -0.205 F 
ATOM    100  C   UNL A   1      46.413  29.894  35.463  1.00  0.00     0.022 A 
BRANCH  98 101
ATOM    101  S   UNL A   1      44.012  28.654  36.028  1.00  0.00     0.127 S 
ATOM    102  O   UNL A   1      45.009  27.642  36.362  1.00  0.00    -0.237 OA
ATOM    103  O   UNL A   1      43.284  29.195  37.178  1.00  0.00    -0.237 OA
ATOM    104  O   UNL A   1      43.169  28.383  34.868  1.00  0.00    -0.744 OA
ENDBRANCH  98 101
ENDBRANCH  71  94
ENDBRANCH  45  46
ENDBRANCH  38  40
ENDBRANCH  37  38
ENDBRANCH  36  37
ENDBRANCH  35  36
ENDBRANCH  34  35
ENDBRANCH  33  34
ENDBRANCH   1  33
TORSDOF 24
ENDMDL
