MODEL 1
REMARK VINA RESULT:      -9.8      0.000      0.000
REMARK SMILES COc1ccc(-n2c(SCc3cn(-c4ccc(C(=O)OCCOCCOCCOC(=O)c5ccc(-c6c7nc(c(-c8cccc(S(=O)(=O)[O-])c8F)c8ccc([nH]8)c(-c8cccc(S(=O)(=O)[O-])c8F)c8nc(c(-c9cccc(S(=O)(=O)[O-])c9F)c9ccc6[nH]9)C=C8)C=C7)cc5)cc4)nn3)nc3ccccc3c2=O)cc1
REMARK SMILES IDX 23 1 22 2 21 3 20 4 18 5 19 6 17 7 14 8 15 9 96 10 16 11
REMARK SMILES IDX 95 12 13 13 11 14 12 15 98 16 97 17 10 18 9 19 8 20 7 21
REMARK SMILES IDX 106 22 99 23 105 24 107 25 100 26 104 27 101 28 103 29
REMARK SMILES IDX 102 30 6 31 3 32 4 33 109 34 5 35 108 36 2 37 1 38 24 39
REMARK SMILES IDX 25 40 26 41 27 42 28 43 29 44 30 45 31 46 32 47 33 48 94 49
REMARK SMILES IDX 34 50 93 51 35 52 36 53 37 54 87 55 38 56 92 57 86 58 88 59
REMARK SMILES IDX 39 60 91 61 85 62 84 63 40 65 72 66 52 67 71 68 53 69 56 70
REMARK SMILES IDX 70 71 89 72 54 73 55 74 69 76 90 77 57 78 41 79 42 80 50 81
REMARK SMILES IDX 43 82 45 83 51 84 44 85 46 86 47 87 48 88 49 89 73 90 74 91
REMARK SMILES IDX 82 92 75 93 77 94 83 95 76 96 78 97 79 98 80 99 81 100
REMARK SMILES IDX 58 101 59 102 67 103 60 104 62 105 68 106 61 107 63 108
REMARK SMILES IDX 64 109 65 110 66 111
REMARK H PARENT 88 64 56 75
REMARK Flexibility Score: inf
ROOT
ATOM      1  O   UNL A   1      33.084  25.056  25.010  1.00  0.00    -0.376 OA
ENDROOT
BRANCH   1   2
ATOM      2  C   UNL A   1      31.834  24.435  24.773  1.00  0.00     0.202 C 
BRANCH   2   3
ATOM      3  C   UNL A   1      31.614  22.946  24.434  1.00  0.00     0.261 C 
BRANCH   3   4
ATOM      4  O   UNL A   1      31.646  22.021  25.519  1.00  0.00    -0.460 OA
BRANCH   4   5
ATOM      5  C   UNL A   1      32.370  20.890  25.310  1.00  0.00     0.338 C 
ATOM      6  O   UNL A   1      31.987  19.830  24.895  1.00  0.00    -0.246 OA
BRANCH   5   7
ATOM      7  C   UNL A   1      33.799  21.241  25.479  1.00  0.00     0.060 A 
ATOM      8  C   UNL A   1      36.441  21.881  25.951  1.00  0.00     0.066 A 
ATOM      9  C   UNL A   1      35.482  22.274  26.883  1.00  0.00     0.029 A 
ATOM     10  C   UNL A   1      36.104  21.140  24.808  1.00  0.00     0.029 A 
ATOM     11  C   UNL A   1      34.149  21.979  26.623  1.00  0.00     0.018 A 
ATOM     12  C   UNL A   1      34.775  20.791  24.586  1.00  0.00     0.018 A 
BRANCH   8  13
ATOM     13  N   UNL A   1      37.693  22.501  26.007  1.00  0.00    -0.220 N 
ATOM     14  C   UNL A   1      39.161  23.999  26.585  1.00  0.00     0.093 A 
ATOM     15  C   UNL A   1      37.827  23.824  26.321  1.00  0.00     0.141 A 
ATOM     16  N   UNL A   1      39.793  22.794  26.414  1.00  0.00    -0.134 NA
ATOM     17  N   UNL A   1      38.871  21.872  26.155  1.00  0.00    -0.062 NA
BRANCH  14  18
ATOM     18  C   UNL A   1      39.908  25.192  27.013  1.00  0.00     0.138 C 
BRANCH  18  19
ATOM     19  S   UNL A   1      41.372  25.578  26.066  1.00  0.00    -0.081 SA
BRANCH  19  20
ATOM     20  C   UNL A   1      42.290  26.814  26.950  1.00  0.00     0.176 A 
ATOM     21  N   UNL A   1      42.763  26.449  28.204  1.00  0.00    -0.255 N 
ATOM     22  C   UNL A   1      42.225  27.103  29.304  1.00  0.00     0.266 A 
ATOM     23  N   UNL A   1      41.882  28.025  26.714  1.00  0.00    -0.223 NA
ATOM     24  C   UNL A   1      41.004  27.883  28.977  1.00  0.00     0.066 A 
ATOM     25  O   UNL A   1      42.631  27.057  30.459  1.00  0.00    -0.268 OA
ATOM     26  C   UNL A   1      40.949  28.428  27.687  1.00  0.00     0.079 A 
ATOM     27  C   UNL A   1      39.876  27.868  29.793  1.00  0.00     0.016 A 
ATOM     28  C   UNL A   1      39.792  29.072  27.255  1.00  0.00     0.029 A 
ATOM     29  C   UNL A   1      38.686  28.415  29.306  1.00  0.00     0.001 A 
ATOM     30  C   UNL A   1      38.651  29.042  28.056  1.00  0.00     0.002 A 
BRANCH  21  31
ATOM     31  C   UNL A   1      44.006  25.770  28.297  1.00  0.00     0.052 A 
ATOM     32  C   UNL A   1      46.382  24.535  27.529  1.00  0.00     0.119 A 
ATOM     33  C   UNL A   1      46.411  25.853  27.977  1.00  0.00     0.048 A 
ATOM     34  C   UNL A   1      45.215  23.783  27.654  1.00  0.00     0.048 A 
ATOM     35  C   UNL A   1      45.214  26.484  28.344  1.00  0.00     0.030 A 
ATOM     36  C   UNL A   1      44.029  24.396  28.061  1.00  0.00     0.030 A 
BRANCH  32  37
ATOM     37  O   UNL A   1      47.519  23.999  26.991  1.00  0.00    -0.497 OA
ATOM     38  C   UNL A   1      48.632  24.903  27.093  1.00  0.00     0.278 C 
ENDBRANCH  32  37
ENDBRANCH  21  31
ENDBRANCH  19  20
ENDBRANCH  18  19
ENDBRANCH  14  18
ENDBRANCH   8  13
ENDBRANCH   5   7
ENDBRANCH   4   5
ENDBRANCH   3   4
ENDBRANCH   2   3
ENDBRANCH   1   2
BRANCH   1  39
ATOM     39  C   UNL A   1      33.315  26.409  24.687  1.00  0.00     0.188 C 
BRANCH  39  40
ATOM     40  C   UNL A   1      32.902  27.516  25.676  1.00  0.00     0.188 C 
BRANCH  40  41
ATOM     41  O   UNL A   1      33.842  28.025  26.598  1.00  0.00    -0.376 OA
BRANCH  41  42
ATOM     42  C   UNL A   1      33.563  29.106  27.470  1.00  0.00     0.202 C 
BRANCH  42  43
ATOM     43  C   UNL A   1      33.486  30.583  27.087  1.00  0.00     0.261 C 
BRANCH  43  44
ATOM     44  O   UNL A   1      34.582  31.385  27.457  1.00  0.00    -0.460 OA
BRANCH  44  45
ATOM     45  C   UNL A   1      34.245  32.367  28.318  1.00  0.00     0.338 C 
ATOM     46  O   UNL A   1      33.519  33.322  28.096  1.00  0.00    -0.246 OA
BRANCH  45  47
ATOM     47  C   UNL A   1      34.987  32.177  29.560  1.00  0.00     0.060 A 
ATOM     48  C   UNL A   1      34.956  33.242  30.458  1.00  0.00     0.016 A 
ATOM     49  C   UNL A   1      35.955  31.163  29.613  1.00  0.00     0.016 A 
ATOM     50  C   UNL A   1      36.057  33.432  31.254  1.00  0.00     0.010 A 
ATOM     51  C   UNL A   1      37.063  31.365  30.394  1.00  0.00     0.010 A 
ATOM     52  C   UNL A   1      37.134  32.545  31.124  1.00  0.00    -0.014 A 
BRANCH  52  53
ATOM     53  C   UNL A   1      38.334  32.863  31.853  1.00  0.00     0.031 A 
ATOM     54  C   UNL A   1      39.352  33.491  30.997  1.00  0.00     0.074 A 
ATOM     55  C   UNL A   1      38.474  32.633  33.169  1.00  0.00     0.049 A 
ATOM     56  N   UNL A   1      40.397  32.922  30.500  1.00  0.00    -0.248 NA
ATOM     57  C   UNL A   1      39.058  34.821  30.449  1.00  0.00     0.031 C 
ATOM     58  C   UNL A   1      37.439  32.282  34.143  1.00  0.00     0.029 A 
ATOM     59  N   UNL A   1      39.583  32.800  33.936  1.00  0.00    -0.354 N 
ATOM     60  C   UNL A   1      41.039  33.928  29.791  1.00  0.00     0.074 A 
ATOM     61  C   UNL A   1      40.062  34.963  29.584  1.00  0.00     0.031 C 
ATOM     62  C   UNL A   1      37.918  32.512  35.389  1.00  0.00     0.029 A 
ATOM     63  C   UNL A   1      39.318  32.892  35.295  1.00  0.00     0.049 A 
ATOM     64  H   UNL A   1      40.492  32.852  33.561  1.00  0.00     0.167 HD
ATOM     65  C   UNL A   1      42.396  33.958  29.722  1.00  0.00     0.034 A 
ATOM     66  C   UNL A   1      40.177  33.347  36.239  1.00  0.00     0.034 A 
ATOM     67  C   UNL A   1      42.971  32.690  30.103  1.00  0.00     0.049 A 
ATOM     68  C   UNL A   1      41.547  33.240  35.679  1.00  0.00     0.074 A 
ATOM     69  C   UNL A   1      42.838  31.384  29.674  1.00  0.00     0.029 A 
ATOM     70  N   UNL A   1      43.549  32.625  31.349  1.00  0.00    -0.354 N 
ATOM     71  N   UNL A   1      42.143  32.105  35.445  1.00  0.00    -0.248 NA
ATOM     72  C   UNL A   1      42.100  34.390  34.982  1.00  0.00     0.031 C 
ATOM     73  C   UNL A   1      42.928  30.593  30.857  1.00  0.00     0.029 A 
ATOM     74  C   UNL A   1      43.166  31.449  31.934  1.00  0.00     0.049 A 
ATOM     75  H   UNL A   1      44.135  33.306  31.750  1.00  0.00     0.167 HD
ATOM     76  C   UNL A   1      42.810  32.309  34.244  1.00  0.00     0.074 A 
ATOM     77  C   UNL A   1      42.851  33.759  34.077  1.00  0.00     0.031 C 
ATOM     78  C   UNL A   1      42.996  31.283  33.361  1.00  0.00     0.034 A 
BRANCH  65  79
ATOM     79  C   UNL A   1      43.217  35.228  29.737  1.00  0.00     0.023 A 
ATOM     80  C   UNL A   1      43.437  35.823  30.999  1.00  0.00     0.012 A 
ATOM     81  C   UNL A   1      43.523  36.011  28.598  1.00  0.00     0.148 A 
ATOM     82  C   UNL A   1      43.859  37.150  31.119  1.00  0.00     0.002 A 
ATOM     83  C   UNL A   1      44.023  37.300  28.724  1.00  0.00     0.091 A 
ATOM     84  F   UNL A   1      43.208  35.584  27.375  1.00  0.00    -0.205 F 
ATOM     85  C   UNL A   1      44.155  37.889  29.981  1.00  0.00     0.022 A 
BRANCH  83  86
ATOM     86  S   UNL A   1      44.469  38.279  27.283  1.00  0.00     0.127 S 
ATOM     87  O   UNL A   1      45.124  39.426  27.903  1.00  0.00    -0.237 OA
ATOM     88  O   UNL A   1      45.359  37.363  26.569  1.00  0.00    -0.237 OA
ATOM     89  O   UNL A   1      43.216  38.552  26.589  1.00  0.00    -0.744 OA
ENDBRANCH  83  86
ENDBRANCH  65  79
BRANCH  66  90
ATOM     90  C   UNL A   1      39.902  34.110  37.477  1.00  0.00     0.023 A 
ATOM     91  C   UNL A   1      40.100  35.506  37.487  1.00  0.00     0.012 A 
ATOM     92  C   UNL A   1      39.179  33.533  38.545  1.00  0.00     0.148 A 
ATOM     93  C   UNL A   1      39.560  36.305  38.500  1.00  0.00     0.002 A 
ATOM     94  C   UNL A   1      38.651  34.331  39.556  1.00  0.00     0.091 A 
ATOM     95  F   UNL A   1      38.926  32.219  38.519  1.00  0.00    -0.205 F 
ATOM     96  C   UNL A   1      38.828  35.719  39.529  1.00  0.00     0.022 A 
BRANCH  94  97
ATOM     97  S   UNL A   1      37.675  33.647  40.902  1.00  0.00     0.127 S 
ATOM     98  O   UNL A   1      36.588  32.984  40.181  1.00  0.00    -0.237 OA
ATOM     99  O   UNL A   1      38.628  32.743  41.539  1.00  0.00    -0.237 OA
ATOM    100  O   UNL A   1      37.250  34.787  41.706  1.00  0.00    -0.744 OA
ENDBRANCH  94  97
ENDBRANCH  66  90
BRANCH  78 101
ATOM    101  C   UNL A   1      42.755  29.876  33.845  1.00  0.00     0.023 A 
ATOM    102  C   UNL A   1      41.461  29.359  34.068  1.00  0.00     0.012 A 
ATOM    103  C   UNL A   1      43.857  29.007  33.922  1.00  0.00     0.148 A 
ATOM    104  C   UNL A   1      41.277  28.011  34.391  1.00  0.00     0.002 A 
ATOM    105  C   UNL A   1      43.665  27.658  34.194  1.00  0.00     0.091 A 
ATOM    106  F   UNL A   1      45.080  29.513  33.707  1.00  0.00    -0.205 F 
ATOM    107  C   UNL A   1      42.377  27.158  34.440  1.00  0.00     0.022 A 
BRANCH 105 108
ATOM    108  S   UNL A   1      45.029  26.495  34.142  1.00  0.00     0.127 S 
ATOM    109  O   UNL A   1      44.344  25.231  33.886  1.00  0.00    -0.237 OA
ATOM    110  O   UNL A   1      45.830  26.996  33.024  1.00  0.00    -0.237 OA
ATOM    111  O   UNL A   1      45.691  26.602  35.438  1.00  0.00    -0.744 OA
ENDBRANCH 105 108
ENDBRANCH  78 101
ENDBRANCH  52  53
ENDBRANCH  45  47
ENDBRANCH  44  45
ENDBRANCH  43  44
ENDBRANCH  42  43
ENDBRANCH  41  42
ENDBRANCH  40  41
ENDBRANCH  39  40
ENDBRANCH   1  39
TORSDOF 26
ENDMDL
MODEL 2
REMARK VINA RESULT:      -9.7      2.343      6.999
REMARK SMILES COc1ccc(-n2c(SCc3cn(-c4ccc(C(=O)OCCOCCOCCOC(=O)c5ccc(-c6c7nc(c(-c8cccc(S(=O)(=O)[O-])c8F)c8ccc([nH]8)c(-c8cccc(S(=O)(=O)[O-])c8F)c8nc(c(-c9cccc(S(=O)(=O)[O-])c9F)c9ccc6[nH]9)C=C8)C=C7)cc5)cc4)nn3)nc3ccccc3c2=O)cc1
REMARK SMILES IDX 23 1 22 2 21 3 20 4 18 5 19 6 17 7 14 8 15 9 96 10 16 11
REMARK SMILES IDX 95 12 13 13 11 14 12 15 98 16 97 17 10 18 9 19 8 20 7 21
REMARK SMILES IDX 106 22 99 23 105 24 107 25 100 26 104 27 101 28 103 29
REMARK SMILES IDX 102 30 6 31 3 32 4 33 109 34 5 35 108 36 2 37 1 38 24 39
REMARK SMILES IDX 25 40 26 41 27 42 28 43 29 44 30 45 31 46 32 47 33 48 94 49
REMARK SMILES IDX 34 50 93 51 35 52 36 53 37 54 87 55 38 56 92 57 86 58 88 59
REMARK SMILES IDX 39 60 91 61 85 62 84 63 40 65 72 66 52 67 71 68 53 69 56 70
REMARK SMILES IDX 70 71 89 72 54 73 55 74 69 76 90 77 57 78 41 79 42 80 50 81
REMARK SMILES IDX 43 82 45 83 51 84 44 85 46 86 47 87 48 88 49 89 73 90 74 91
REMARK SMILES IDX 82 92 75 93 77 94 83 95 76 96 78 97 79 98 80 99 81 100
REMARK SMILES IDX 58 101 59 102 67 103 60 104 62 105 68 106 61 107 63 108
REMARK SMILES IDX 64 109 65 110 66 111
REMARK H PARENT 88 64 56 75
REMARK Flexibility Score: inf
ROOT
ATOM      1  O   UNL A   1      33.120  24.716  24.388  1.00  0.00    -0.376 OA
ENDROOT
BRANCH   1   2
ATOM      2  C   UNL A   1      32.073  24.022  23.736  1.00  0.00     0.202 C 
BRANCH   2   3
ATOM      3  C   UNL A   1      31.889  22.490  23.698  1.00  0.00     0.261 C 
BRANCH   3   4
ATOM      4  O   UNL A   1      31.851  21.810  24.951  1.00  0.00    -0.460 OA
BRANCH   4   5
ATOM      5  C   UNL A   1      32.560  20.652  25.015  1.00  0.00     0.338 C 
ATOM      6  O   UNL A   1      32.187  19.539  24.758  1.00  0.00    -0.246 OA
BRANCH   5   7
ATOM      7  C   UNL A   1      33.976  21.011  25.257  1.00  0.00     0.060 A 
ATOM      8  C   UNL A   1      36.576  21.713  25.858  1.00  0.00     0.066 A 
ATOM      9  C   UNL A   1      35.538  22.377  26.509  1.00  0.00     0.029 A 
ATOM     10  C   UNL A   1      36.335  20.679  24.941  1.00  0.00     0.029 A 
ATOM     11  C   UNL A   1      34.230  22.042  26.176  1.00  0.00     0.018 A 
ATOM     12  C   UNL A   1      35.024  20.304  24.661  1.00  0.00     0.018 A 
BRANCH   8  13
ATOM     13  N   UNL A   1      37.844  22.300  25.893  1.00  0.00    -0.220 N 
ATOM     14  C   UNL A   1      39.365  23.748  26.461  1.00  0.00     0.093 A 
ATOM     15  C   UNL A   1      38.021  23.613  26.229  1.00  0.00     0.141 A 
ATOM     16  N   UNL A   1      39.961  22.532  26.249  1.00  0.00    -0.134 NA
ATOM     17  N   UNL A   1      39.010  21.639  25.996  1.00  0.00    -0.062 NA
BRANCH  14  18
ATOM     18  C   UNL A   1      40.154  24.914  26.892  1.00  0.00     0.138 C 
BRANCH  18  19
ATOM     19  S   UNL A   1      41.901  24.632  27.124  1.00  0.00    -0.081 SA
BRANCH  19  20
ATOM     20  C   UNL A   1      42.740  25.120  25.638  1.00  0.00     0.176 A 
ATOM     21  N   UNL A   1      44.124  24.997  25.644  1.00  0.00    -0.255 N 
ATOM     22  C   UNL A   1      44.870  26.166  25.584  1.00  0.00     0.266 A 
ATOM     23  N   UNL A   1      42.158  26.102  25.017  1.00  0.00    -0.223 NA
ATOM     24  C   UNL A   1      44.058  27.386  25.825  1.00  0.00     0.066 A 
ATOM     25  O   UNL A   1      46.077  26.261  25.397  1.00  0.00    -0.268 OA
ATOM     26  C   UNL A   1      42.724  27.331  25.402  1.00  0.00     0.079 A 
ATOM     27  C   UNL A   1      44.504  28.421  26.642  1.00  0.00     0.016 A 
ATOM     28  C   UNL A   1      41.859  28.384  25.695  1.00  0.00     0.029 A 
ATOM     29  C   UNL A   1      43.599  29.414  27.026  1.00  0.00     0.001 A 
ATOM     30  C   UNL A   1      42.291  29.413  26.530  1.00  0.00     0.002 A 
BRANCH  21  31
ATOM     31  C   UNL A   1      44.703  23.746  25.302  1.00  0.00     0.052 A 
ATOM     32  C   UNL A   1      44.929  21.022  24.767  1.00  0.00     0.119 A 
ATOM     33  C   UNL A   1      44.832  21.920  23.708  1.00  0.00     0.048 A 
ATOM     34  C   UNL A   1      45.113  21.494  26.065  1.00  0.00     0.048 A 
ATOM     35  C   UNL A   1      44.697  23.289  23.975  1.00  0.00     0.030 A 
ATOM     36  C   UNL A   1      45.023  22.861  26.331  1.00  0.00     0.030 A 
BRANCH  32  37
ATOM     37  O   UNL A   1      44.862  19.682  24.500  1.00  0.00    -0.497 OA
ATOM     38  C   UNL A   1      45.777  18.932  25.316  1.00  0.00     0.278 C 
ENDBRANCH  32  37
ENDBRANCH  21  31
ENDBRANCH  19  20
ENDBRANCH  18  19
ENDBRANCH  14  18
ENDBRANCH   8  13
ENDBRANCH   5   7
ENDBRANCH   4   5
ENDBRANCH   3   4
ENDBRANCH   2   3
ENDBRANCH   1   2
BRANCH   1  39
ATOM     39  C   UNL A   1      33.455  26.044  24.052  1.00  0.00     0.188 C 
BRANCH  39  40
ATOM     40  C   UNL A   1      32.838  27.215  24.841  1.00  0.00     0.188 C 
BRANCH  40  41
ATOM     41  O   UNL A   1      33.633  27.954  25.742  1.00  0.00    -0.376 OA
BRANCH  41  42
ATOM     42  C   UNL A   1      33.088  28.783  26.754  1.00  0.00     0.202 C 
BRANCH  42  43
ATOM     43  C   UNL A   1      33.068  30.311  26.761  1.00  0.00     0.261 C 
BRANCH  43  44
ATOM     44  O   UNL A   1      34.282  30.953  27.070  1.00  0.00    -0.460 OA
BRANCH  44  45
ATOM     45  C   UNL A   1      34.195  31.740  28.162  1.00  0.00     0.338 C 
ATOM     46  O   UNL A   1      33.476  32.714  28.310  1.00  0.00    -0.246 OA
BRANCH  45  47
ATOM     47  C   UNL A   1      35.199  31.311  29.130  1.00  0.00     0.060 A 
ATOM     48  C   UNL A   1      35.432  32.182  30.193  1.00  0.00     0.016 A 
ATOM     49  C   UNL A   1      36.101  30.303  28.758  1.00  0.00     0.016 A 
ATOM     50  C   UNL A   1      36.698  32.211  30.721  1.00  0.00     0.010 A 
ATOM     51  C   UNL A   1      37.370  30.348  29.273  1.00  0.00     0.010 A 
ATOM     52  C   UNL A   1      37.669  31.363  30.172  1.00  0.00    -0.014 A 
BRANCH  52  53
ATOM     53  C   UNL A   1      39.022  31.532  30.637  1.00  0.00     0.031 A 
ATOM     54  C   UNL A   1      39.554  30.304  31.247  1.00  0.00     0.074 A 
ATOM     55  C   UNL A   1      39.708  32.677  30.490  1.00  0.00     0.049 A 
ATOM     56  N   UNL A   1      39.678  30.063  32.508  1.00  0.00    -0.248 NA
ATOM     57  C   UNL A   1      39.756  29.140  30.377  1.00  0.00     0.031 C 
ATOM     58  C   UNL A   1      39.372  33.836  29.661  1.00  0.00     0.029 A 
ATOM     59  N   UNL A   1      40.943  32.981  30.969  1.00  0.00    -0.354 N 
ATOM     60  C   UNL A   1      40.240  28.795  32.569  1.00  0.00     0.074 A 
ATOM     61  C   UNL A   1      40.022  28.196  31.279  1.00  0.00     0.031 C 
ATOM     62  C   UNL A   1      40.484  34.593  29.499  1.00  0.00     0.029 A 
ATOM     63  C   UNL A   1      41.553  34.042  30.315  1.00  0.00     0.049 A 
ATOM     64  H   UNL A   1      41.365  32.493  31.712  1.00  0.00     0.167 HD
ATOM     65  C   UNL A   1      41.113  28.480  33.561  1.00  0.00     0.034 A 
ATOM     66  C   UNL A   1      42.869  34.360  30.382  1.00  0.00     0.034 A 
ATOM     67  C   UNL A   1      41.039  29.427  34.648  1.00  0.00     0.049 A 
ATOM     68  C   UNL A   1      43.413  33.738  31.614  1.00  0.00     0.074 A 
ATOM     69  C   UNL A   1      40.039  29.887  35.482  1.00  0.00     0.029 A 
ATOM     70  N   UNL A   1      42.062  30.340  34.740  1.00  0.00    -0.354 N 
ATOM     71  N   UNL A   1      43.088  34.118  32.818  1.00  0.00    -0.248 NA
ATOM     72  C   UNL A   1      43.998  32.410  31.517  1.00  0.00     0.031 C 
ATOM     73  C   UNL A   1      40.329  31.268  35.684  1.00  0.00     0.029 A 
ATOM     74  C   UNL A   1      41.516  31.565  35.011  1.00  0.00     0.049 A 
ATOM     75  H   UNL A   1      43.021  30.147  34.630  1.00  0.00     0.167 HD
ATOM     76  C   UNL A   1      42.983  32.934  33.535  1.00  0.00     0.074 A 
ATOM     77  C   UNL A   1      43.673  31.937  32.723  1.00  0.00     0.031 C 
ATOM     78  C   UNL A   1      42.092  32.814  34.564  1.00  0.00     0.034 A 
BRANCH  65  79
ATOM     79  C   UNL A   1      42.323  27.592  33.374  1.00  0.00     0.023 A 
ATOM     80  C   UNL A   1      42.567  26.636  34.384  1.00  0.00     0.012 A 
ATOM     81  C   UNL A   1      43.369  27.830  32.451  1.00  0.00     0.148 A 
ATOM     82  C   UNL A   1      43.812  26.013  34.518  1.00  0.00     0.002 A 
ATOM     83  C   UNL A   1      44.574  27.145  32.537  1.00  0.00     0.091 A 
ATOM     84  F   UNL A   1      43.278  28.817  31.559  1.00  0.00    -0.205 F 
ATOM     85  C   UNL A   1      44.816  26.266  33.591  1.00  0.00     0.022 A 
BRANCH  83  86
ATOM     86  S   UNL A   1      45.885  27.400  31.334  1.00  0.00     0.127 S 
ATOM     87  O   UNL A   1      46.674  26.183  31.501  1.00  0.00    -0.237 OA
ATOM     88  O   UNL A   1      45.127  27.484  30.085  1.00  0.00    -0.237 OA
ATOM     89  O   UNL A   1      46.539  28.645  31.719  1.00  0.00    -0.744 OA
ENDBRANCH  83  86
ENDBRANCH  65  79
BRANCH  66  90
ATOM     90  C   UNL A   1      43.757  34.930  29.343  1.00  0.00     0.023 A 
ATOM     91  C   UNL A   1      44.723  35.889  29.712  1.00  0.00     0.012 A 
ATOM     92  C   UNL A   1      43.860  34.338  28.065  1.00  0.00     0.148 A 
ATOM     93  C   UNL A   1      45.781  36.214  28.856  1.00  0.00     0.002 A 
ATOM     94  C   UNL A   1      44.910  34.671  27.213  1.00  0.00     0.091 A 
ATOM     95  F   UNL A   1      42.991  33.380  27.724  1.00  0.00    -0.205 F 
ATOM     96  C   UNL A   1      45.879  35.599  27.611  1.00  0.00     0.022 A 
BRANCH  94  97
ATOM     97  S   UNL A   1      45.115  33.899  25.602  1.00  0.00     0.127 S 
ATOM     98  O   UNL A   1      45.400  32.511  25.966  1.00  0.00    -0.237 OA
ATOM     99  O   UNL A   1      43.806  34.117  24.993  1.00  0.00    -0.237 OA
ATOM    100  O   UNL A   1      46.231  34.592  24.968  1.00  0.00    -0.744 OA
ENDBRANCH  94  97
ENDBRANCH  66  90
BRANCH  78 101
ATOM    101  C   UNL A   1      41.464  34.071  35.111  1.00  0.00     0.023 A 
ATOM    102  C   UNL A   1      40.266  34.611  34.595  1.00  0.00     0.012 A 
ATOM    103  C   UNL A   1      42.013  34.630  36.277  1.00  0.00     0.148 A 
ATOM    104  C   UNL A   1      39.650  35.702  35.213  1.00  0.00     0.002 A 
ATOM    105  C   UNL A   1      41.371  35.682  36.918  1.00  0.00     0.091 A 
ATOM    106  F   UNL A   1      43.152  34.106  36.756  1.00  0.00    -0.205 F 
ATOM    107  C   UNL A   1      40.194  36.229  36.383  1.00  0.00     0.022 A 
BRANCH 105 108
ATOM    108  S   UNL A   1      41.958  36.312  38.491  1.00  0.00     0.127 S 
ATOM    109  O   UNL A   1      40.893  37.240  38.866  1.00  0.00    -0.237 OA
ATOM    110  O   UNL A   1      42.031  35.101  39.310  1.00  0.00    -0.237 OA
ATOM    111  O   UNL A   1      43.255  36.919  38.216  1.00  0.00    -0.744 OA
ENDBRANCH 105 108
ENDBRANCH  78 101
ENDBRANCH  52  53
ENDBRANCH  45  47
ENDBRANCH  44  45
ENDBRANCH  43  44
ENDBRANCH  42  43
ENDBRANCH  41  42
ENDBRANCH  40  41
ENDBRANCH  39  40
ENDBRANCH   1  39
TORSDOF 26
ENDMDL
MODEL 3
REMARK VINA RESULT:      -9.7      3.977      9.802
REMARK SMILES COc1ccc(-n2c(SCc3cn(-c4ccc(C(=O)OCCOCCOCCOC(=O)c5ccc(-c6c7nc(c(-c8cccc(S(=O)(=O)[O-])c8F)c8ccc([nH]8)c(-c8cccc(S(=O)(=O)[O-])c8F)c8nc(c(-c9cccc(S(=O)(=O)[O-])c9F)c9ccc6[nH]9)C=C8)C=C7)cc5)cc4)nn3)nc3ccccc3c2=O)cc1
REMARK SMILES IDX 23 1 22 2 21 3 20 4 18 5 19 6 17 7 14 8 15 9 96 10 16 11
REMARK SMILES IDX 95 12 13 13 11 14 12 15 98 16 97 17 10 18 9 19 8 20 7 21
REMARK SMILES IDX 106 22 99 23 105 24 107 25 100 26 104 27 101 28 103 29
REMARK SMILES IDX 102 30 6 31 3 32 4 33 109 34 5 35 108 36 2 37 1 38 24 39
REMARK SMILES IDX 25 40 26 41 27 42 28 43 29 44 30 45 31 46 32 47 33 48 94 49
REMARK SMILES IDX 34 50 93 51 35 52 36 53 37 54 87 55 38 56 92 57 86 58 88 59
REMARK SMILES IDX 39 60 91 61 85 62 84 63 40 65 72 66 52 67 71 68 53 69 56 70
REMARK SMILES IDX 70 71 89 72 54 73 55 74 69 76 90 77 57 78 41 79 42 80 50 81
REMARK SMILES IDX 43 82 45 83 51 84 44 85 46 86 47 87 48 88 49 89 73 90 74 91
REMARK SMILES IDX 82 92 75 93 77 94 83 95 76 96 78 97 79 98 80 99 81 100
REMARK SMILES IDX 58 101 59 102 67 103 60 104 62 105 68 106 61 107 63 108
REMARK SMILES IDX 64 109 65 110 66 111
REMARK H PARENT 88 64 56 75
REMARK Flexibility Score: inf
ROOT
ATOM      1  O   UNL A   1      34.286  22.293  24.469  1.00  0.00    -0.376 OA
ENDROOT
BRANCH   1   2
ATOM      2  C   UNL A   1      33.642  23.452  24.964  1.00  0.00     0.202 C 
BRANCH   2   3
ATOM      3  C   UNL A   1      32.118  23.690  25.011  1.00  0.00     0.261 C 
BRANCH   3   4
ATOM      4  O   UNL A   1      31.543  24.424  23.932  1.00  0.00    -0.460 OA
BRANCH   4   5
ATOM      5  C   UNL A   1      30.858  25.545  24.280  1.00  0.00     0.338 C 
ATOM      6  O   UNL A   1      29.668  25.711  24.300  1.00  0.00    -0.246 OA
BRANCH   5   7
ATOM      7  C   UNL A   1      31.833  26.501  24.853  1.00  0.00     0.060 A 
ATOM      8  C   UNL A   1      33.639  28.202  26.060  1.00  0.00     0.066 A 
ATOM      9  C   UNL A   1      32.606  27.671  26.829  1.00  0.00     0.029 A 
ATOM     10  C   UNL A   1      33.805  27.866  24.708  1.00  0.00     0.029 A 
ATOM     11  C   UNL A   1      31.680  26.841  26.207  1.00  0.00     0.018 A 
ATOM     12  C   UNL A   1      32.913  26.984  24.107  1.00  0.00     0.018 A 
BRANCH   8  13
ATOM     13  N   UNL A   1      34.319  29.314  26.566  1.00  0.00    -0.220 N 
ATOM     14  C   UNL A   1      34.586  31.153  27.698  1.00  0.00     0.093 A 
ATOM     15  C   UNL A   1      33.655  30.427  27.002  1.00  0.00     0.141 A 
ATOM     16  N   UNL A   1      35.777  30.475  27.656  1.00  0.00    -0.134 NA
ATOM     17  N   UNL A   1      35.575  29.312  27.044  1.00  0.00    -0.062 NA
BRANCH  14  18
ATOM     18  C   UNL A   1      34.463  32.423  28.432  1.00  0.00     0.138 C 
BRANCH  18  19
ATOM     19  S   UNL A   1      34.646  32.322  30.205  1.00  0.00    -0.081 SA
BRANCH  19  20
ATOM     20  C   UNL A   1      36.320  32.745  30.612  1.00  0.00     0.176 A 
ATOM     21  N   UNL A   1      37.058  31.770  31.271  1.00  0.00    -0.255 N 
ATOM     22  C   UNL A   1      37.442  32.035  32.579  1.00  0.00     0.266 A 
ATOM     23  N   UNL A   1      36.482  34.005  30.884  1.00  0.00    -0.223 NA
ATOM     24  C   UNL A   1      36.739  33.204  33.165  1.00  0.00     0.066 A 
ATOM     25  O   UNL A   1      38.237  31.395  33.257  1.00  0.00    -0.268 OA
ATOM     26  C   UNL A   1      36.389  34.225  32.270  1.00  0.00     0.079 A 
ATOM     27  C   UNL A   1      36.229  33.188  34.461  1.00  0.00     0.016 A 
ATOM     28  C   UNL A   1      35.624  35.302  32.711  1.00  0.00     0.029 A 
ATOM     29  C   UNL A   1      35.369  34.214  34.859  1.00  0.00     0.001 A 
ATOM     30  C   UNL A   1      35.092  35.283  33.999  1.00  0.00     0.002 A 
BRANCH  21  31
ATOM     31  C   UNL A   1      37.724  30.777  30.505  1.00  0.00     0.052 A 
ATOM     32  C   UNL A   1      39.523  28.763  29.823  1.00  0.00     0.119 A 
ATOM     33  C   UNL A   1      38.228  28.422  30.204  1.00  0.00     0.048 A 
ATOM     34  C   UNL A   1      39.852  30.097  29.591  1.00  0.00     0.048 A 
ATOM     35  C   UNL A   1      37.328  29.432  30.569  1.00  0.00     0.030 A 
ATOM     36  C   UNL A   1      38.942  31.106  29.912  1.00  0.00     0.030 A 
BRANCH  32  37
ATOM     37  O   UNL A   1      40.444  27.765  29.661  1.00  0.00    -0.497 OA
ATOM     38  C   UNL A   1      39.876  26.619  29.005  1.00  0.00     0.278 C 
ENDBRANCH  32  37
ENDBRANCH  21  31
ENDBRANCH  19  20
ENDBRANCH  18  19
ENDBRANCH  14  18
ENDBRANCH   8  13
ENDBRANCH   5   7
ENDBRANCH   4   5
ENDBRANCH   3   4
ENDBRANCH   2   3
ENDBRANCH   1   2
BRANCH   1  39
ATOM     39  C   UNL A   1      35.686  22.228  24.316  1.00  0.00     0.188 C 
BRANCH  39  40
ATOM     40  C   UNL A   1      36.606  22.573  25.503  1.00  0.00     0.188 C 
BRANCH  40  41
ATOM     41  O   UNL A   1      37.510  21.609  25.998  1.00  0.00    -0.376 OA
BRANCH  41  42
ATOM     42  C   UNL A   1      38.859  21.524  25.573  1.00  0.00     0.202 C 
BRANCH  42  43
ATOM     43  C   UNL A   1      40.012  20.880  26.341  1.00  0.00     0.261 C 
BRANCH  43  44
ATOM     44  O   UNL A   1      40.908  21.757  26.981  1.00  0.00    -0.460 OA
BRANCH  44  45
ATOM     45  C   UNL A   1      41.836  22.262  26.142  1.00  0.00     0.338 C 
ATOM     46  O   UNL A   1      42.498  21.647  25.323  1.00  0.00    -0.246 OA
BRANCH  45  47
ATOM     47  C   UNL A   1      42.019  23.678  26.444  1.00  0.00     0.060 A 
ATOM     48  C   UNL A   1      42.282  24.504  25.353  1.00  0.00     0.016 A 
ATOM     49  C   UNL A   1      42.296  24.051  27.768  1.00  0.00     0.016 A 
ATOM     50  C   UNL A   1      43.070  25.606  25.569  1.00  0.00     0.010 A 
ATOM     51  C   UNL A   1      43.101  25.140  27.978  1.00  0.00     0.010 A 
ATOM     52  C   UNL A   1      43.551  25.838  26.865  1.00  0.00    -0.014 A 
BRANCH  52  53
ATOM     53  C   UNL A   1      44.503  26.906  27.027  1.00  0.00     0.031 A 
ATOM     54  C   UNL A   1      45.873  26.480  26.704  1.00  0.00     0.074 A 
ATOM     55  C   UNL A   1      44.153  28.148  27.401  1.00  0.00     0.049 A 
ATOM     56  N   UNL A   1      46.806  26.187  27.545  1.00  0.00    -0.248 NA
ATOM     57  C   UNL A   1      46.168  26.123  25.311  1.00  0.00     0.031 C 
ATOM     58  C   UNL A   1      42.812  28.730  27.469  1.00  0.00     0.029 A 
ATOM     59  N   UNL A   1      44.966  29.200  27.679  1.00  0.00    -0.354 N 
ATOM     60  C   UNL A   1      47.902  25.868  26.755  1.00  0.00     0.074 A 
ATOM     61  C   UNL A   1      47.386  25.598  25.440  1.00  0.00     0.031 C 
ATOM     62  C   UNL A   1      42.924  30.079  27.517  1.00  0.00     0.029 A 
ATOM     63  C   UNL A   1      44.331  30.432  27.619  1.00  0.00     0.049 A 
ATOM     64  H   UNL A   1      45.919  29.097  27.902  1.00  0.00     0.167 HD
ATOM     65  C   UNL A   1      49.159  26.171  27.173  1.00  0.00     0.034 A 
ATOM     66  C   UNL A   1      44.947  31.637  27.558  1.00  0.00     0.034 A 
ATOM     67  C   UNL A   1      49.188  26.457  28.588  1.00  0.00     0.049 A 
ATOM     68  C   UNL A   1      46.328  31.454  28.068  1.00  0.00     0.074 A 
ATOM     69  C   UNL A   1      48.819  25.780  29.733  1.00  0.00     0.029 A 
ATOM     70  N   UNL A   1      49.305  27.779  28.947  1.00  0.00    -0.354 N 
ATOM     71  N   UNL A   1      46.608  31.187  29.313  1.00  0.00    -0.248 NA
ATOM     72  C   UNL A   1      47.383  31.150  27.113  1.00  0.00     0.031 C 
ATOM     73  C   UNL A   1      48.301  26.781  30.607  1.00  0.00     0.029 A 
ATOM     74  C   UNL A   1      48.433  28.019  29.973  1.00  0.00     0.049 A 
ATOM     75  H   UNL A   1      49.910  28.438  28.537  1.00  0.00     0.167 HD
ATOM     76  C   UNL A   1      47.644  30.265  29.241  1.00  0.00     0.074 A 
ATOM     77  C   UNL A   1      48.159  30.379  27.879  1.00  0.00     0.031 C 
ATOM     78  C   UNL A   1      47.786  29.294  30.192  1.00  0.00     0.034 A 
BRANCH  65  79
ATOM     79  C   UNL A   1      50.269  26.633  26.256  1.00  0.00     0.023 A 
ATOM     80  C   UNL A   1      49.926  27.606  25.291  1.00  0.00     0.012 A 
ATOM     81  C   UNL A   1      51.512  25.977  26.090  1.00  0.00     0.148 A 
ATOM     82  C   UNL A   1      50.737  27.852  24.179  1.00  0.00     0.002 A 
ATOM     83  C   UNL A   1      52.353  26.287  25.030  1.00  0.00     0.091 A 
ATOM     84  F   UNL A   1      51.846  24.947  26.868  1.00  0.00    -0.205 F 
ATOM     85  C   UNL A   1      51.954  27.194  24.050  1.00  0.00     0.022 A 
BRANCH  83  86
ATOM     86  S   UNL A   1      53.959  25.500  24.846  1.00  0.00     0.127 S 
ATOM     87  O   UNL A   1      54.509  26.223  23.704  1.00  0.00    -0.237 OA
ATOM     88  O   UNL A   1      54.584  25.800  26.134  1.00  0.00    -0.237 OA
ATOM     89  O   UNL A   1      53.683  24.084  24.635  1.00  0.00    -0.744 OA
ENDBRANCH  83  86
ENDBRANCH  65  79
BRANCH  66  90
ATOM     90  C   UNL A   1      44.537  32.874  26.854  1.00  0.00     0.023 A 
ATOM     91  C   UNL A   1      44.287  32.828  25.468  1.00  0.00     0.012 A 
ATOM     92  C   UNL A   1      44.112  34.014  27.571  1.00  0.00     0.148 A 
ATOM     93  C   UNL A   1      43.598  33.862  24.824  1.00  0.00     0.002 A 
ATOM     94  C   UNL A   1      43.434  35.045  26.925  1.00  0.00     0.091 A 
ATOM     95  F   UNL A   1      44.283  34.046  28.898  1.00  0.00    -0.205 F 
ATOM     96  C   UNL A   1      43.163  34.965  25.554  1.00  0.00     0.022 A 
BRANCH  94  97
ATOM     97  S   UNL A   1      42.822  36.487  27.806  1.00  0.00     0.127 S 
ATOM     98  O   UNL A   1      43.896  36.732  28.769  1.00  0.00    -0.237 OA
ATOM     99  O   UNL A   1      42.720  37.476  26.736  1.00  0.00    -0.237 OA
ATOM    100  O   UNL A   1      41.560  36.078  28.411  1.00  0.00    -0.744 OA
ENDBRANCH  94  97
ENDBRANCH  66  90
BRANCH  78 101
ATOM    101  C   UNL A   1      47.005  29.435  31.474  1.00  0.00     0.023 A 
ATOM    102  C   UNL A   1      47.493  30.150  32.589  1.00  0.00     0.012 A 
ATOM    103  C   UNL A   1      45.679  28.969  31.494  1.00  0.00     0.148 A 
ATOM    104  C   UNL A   1      46.685  30.366  33.708  1.00  0.00     0.002 A 
ATOM    105  C   UNL A   1      44.863  29.230  32.587  1.00  0.00     0.091 A 
ATOM    106  F   UNL A   1      45.229  28.292  30.426  1.00  0.00    -0.205 F 
ATOM    107  C   UNL A   1      45.365  29.918  33.702  1.00  0.00     0.022 A 
BRANCH 105 108
ATOM    108  S   UNL A   1      43.125  28.789  32.577  1.00  0.00     0.127 S 
ATOM    109  O   UNL A   1      42.512  29.976  31.985  1.00  0.00    -0.237 OA
ATOM    110  O   UNL A   1      43.104  27.599  31.724  1.00  0.00    -0.237 OA
ATOM    111  O   UNL A   1      42.774  28.526  33.968  1.00  0.00    -0.744 OA
ENDBRANCH 105 108
ENDBRANCH  78 101
ENDBRANCH  52  53
ENDBRANCH  45  47
ENDBRANCH  44  45
ENDBRANCH  43  44
ENDBRANCH  42  43
ENDBRANCH  41  42
ENDBRANCH  40  41
ENDBRANCH  39  40
ENDBRANCH   1  39
TORSDOF 26
ENDMDL
