MODEL 1
REMARK VINA RESULT:     -10.7      0.000      0.000
REMARK SMILES Cc1c(C(=O)Nc2ccc(C(=O)Nc3ccccc3C(=O)OCCOCCOCCOC(=O)c3ccc(-c4c5nc(c(-c6cccc(S(=O)(=O)[O-])c6F)c6ccc([nH]6)c(-c6cccc(S(=O)(=O)[O-])c6F)c6nc(c(-c7cccc(S(=O)(=O)[O-])c7F)c7ccc4[nH]7)C=C6)C=C5)cc3)cc2)cccc1[N+](=O)[O-]
REMARK SMILES IDX 26 1 25 2 24 3 23 4 22 5 20 6 21 7 19 8 14 9 15 10 16 11
REMARK SMILES IDX 18 12 17 13 13 14 11 15 12 16 10 18 7 19 8 20 98 21 9 22
REMARK SMILES IDX 97 23 6 24 4 25 5 26 3 28 1 29 2 30 102 31 99 32 101 33
REMARK SMILES IDX 100 34 103 35 104 36 105 37 27 38 28 39 29 40 30 41 31 42
REMARK SMILES IDX 32 43 33 44 34 45 35 46 96 47 36 48 95 49 37 50 38 51 39 52
REMARK SMILES IDX 89 53 40 54 94 55 88 56 90 57 41 58 93 59 87 60 86 61 42 63
REMARK SMILES IDX 74 64 54 65 73 66 55 67 58 68 72 69 91 70 56 71 57 72 71 74
REMARK SMILES IDX 92 75 59 76 43 77 44 78 52 79 45 80 47 81 53 82 46 83 48 84
REMARK SMILES IDX 49 85 50 86 51 87 75 88 76 89 84 90 77 91 79 92 85 93 78 94
REMARK SMILES IDX 80 95 81 96 82 97 83 98 60 99 61 100 69 101 62 102 64 103
REMARK SMILES IDX 70 104 63 105 65 106 66 107 67 108 68 109
REMARK H PARENT 13 17 6 27 90 62 58 73
REMARK Flexibility Score: inf
ROOT
ATOM      1  C   UNL A   1      47.167  43.513  26.195  1.00  0.00     0.188 C 
ENDROOT
BRANCH   1   2
ATOM      2  O   UNL A   1      46.606  43.742  24.842  1.00  0.00    -0.376 OA
BRANCH   2   3
ATOM      3  C   UNL A   1      45.230  43.850  24.236  1.00  0.00     0.202 C 
BRANCH   3   4
ATOM      4  C   UNL A   1      43.493  43.107  24.342  1.00  0.00     0.261 C 
BRANCH   4   5
ATOM      5  O   UNL A   1      42.485  41.581  24.750  1.00  0.00    -0.460 OA
BRANCH   5   6
ATOM      6  C   UNL A   1      41.567  40.922  26.041  1.00  0.00     0.340 C 
ATOM      7  O   UNL A   1      40.350  41.057  26.227  1.00  0.00    -0.246 OA
BRANCH   6   8
ATOM      8  C   UNL A   1      42.024  40.084  27.279  1.00  0.00     0.083 A 
ATOM      9  C   UNL A   1      42.456  40.324  28.733  1.00  0.00     0.056 A 
ATOM     10  C   UNL A   1      42.921  39.091  29.279  1.00  0.00     0.027 A 
ATOM     11  C   UNL A   1      42.861  37.816  28.633  1.00  0.00     0.002 A 
ATOM     12  C   UNL A   1      42.033  38.782  26.661  1.00  0.00     0.018 A 
ATOM     13  C   UNL A   1      42.402  37.653  27.341  1.00  0.00     0.001 A 
BRANCH   9  14
ATOM     14  N   UNL A   1      42.463  41.434  29.988  1.00  0.00    -0.321 N 
ATOM     15  C   UNL A   1      43.181  42.556  30.906  1.00  0.00     0.255 C 
ATOM     16  O   UNL A   1      42.468  43.125  31.745  1.00  0.00    -0.269 OA
ATOM     17  H   UNL A   1      41.555  41.370  30.362  1.00  0.00     0.170 HD
BRANCH  15  18
ATOM     18  C   UNL A   1      44.709  43.151  30.790  1.00  0.00     0.040 A 
ATOM     19  C   UNL A   1      47.452  43.708  33.470  1.00  0.00     0.041 A 
ATOM     20  C   UNL A   1      45.954  44.249  33.552  1.00  0.00     0.027 A 
ATOM     21  C   UNL A   1      47.770  43.052  31.918  1.00  0.00     0.027 A 
ATOM     22  C   UNL A   1      44.538  43.889  32.129  1.00  0.00     0.016 A 
ATOM     23  C   UNL A   1      46.459  42.748  30.512  1.00  0.00     0.016 A 
BRANCH  19  24
ATOM     24  N   UNL A   1      48.196  43.200  34.578  1.00  0.00    -0.322 N 
ATOM     25  C   UNL A   1      48.019  42.281  35.635  1.00  0.00     0.256 C 
ATOM     26  O   UNL A   1      49.055  42.026  36.272  1.00  0.00    -0.269 OA
ATOM     27  H   UNL A   1      49.091  43.608  34.614  1.00  0.00     0.170 HD
BRANCH  25  28
ATOM     28  C   UNL A   1      46.803  41.510  36.126  1.00  0.00     0.049 A 
ATOM     29  C   UNL A   1      46.065  43.126  37.895  1.00  0.00     0.053 C 
ATOM     30  C   UNL A   1      46.003  41.794  37.249  1.00  0.00     0.039 A 
ATOM     31  C   UNL A   1      44.946  40.914  37.634  1.00  0.00     0.273 A 
ATOM     32  C   UNL A   1      46.185  40.657  35.189  1.00  0.00     0.014 A 
ATOM     33  C   UNL A   1      44.437  39.992  36.733  1.00  0.00     0.086 A 
ATOM     34  C   UNL A   1      44.999  39.945  35.468  1.00  0.00     0.008 A 
BRANCH  31  35
ATOM     35  N   UNL A   1      44.379  40.876  39.002  1.00  0.00     0.063 N 
ATOM     36  O   UNL A   1      45.172  40.628  39.923  1.00  0.00    -0.258 OA
ATOM     37  O   UNL A   1      43.166  41.061  39.154  1.00  0.00    -0.258 OA
ENDBRANCH  31  35
ENDBRANCH  25  28
ENDBRANCH  19  24
ENDBRANCH  15  18
ENDBRANCH   9  14
ENDBRANCH   6   8
ENDBRANCH   5   6
ENDBRANCH   4   5
ENDBRANCH   3   4
ENDBRANCH   2   3
ENDBRANCH   1   2
BRANCH   1  38
ATOM     38  C   UNL A   1      47.144  42.173  27.118  1.00  0.00     0.188 C 
BRANCH  38  39
ATOM     39  O   UNL A   1      45.890  41.480  27.258  1.00  0.00    -0.376 OA
BRANCH  39  40
ATOM     40  C   UNL A   1      45.610  40.212  26.563  1.00  0.00     0.202 C 
BRANCH  40  41
ATOM     41  C   UNL A   1      46.044  38.547  27.093  1.00  0.00     0.261 C 
BRANCH  41  42
ATOM     42  O   UNL A   1      45.839  36.953  26.279  1.00  0.00    -0.460 OA
BRANCH  42  43
ATOM     43  C   UNL A   1      46.424  35.397  26.346  1.00  0.00     0.338 C 
ATOM     44  O   UNL A   1      47.461  35.270  25.702  1.00  0.00    -0.246 OA
BRANCH  43  45
ATOM     45  C   UNL A   1      45.404  33.950  27.044  1.00  0.00     0.060 A 
ATOM     46  C   UNL A   1      44.938  32.354  26.354  1.00  0.00     0.016 A 
ATOM     47  C   UNL A   1      44.600  34.234  28.902  1.00  0.00     0.016 A 
ATOM     48  C   UNL A   1      43.847  31.354  27.450  1.00  0.00     0.010 A 
ATOM     49  C   UNL A   1      43.570  33.302  29.680  1.00  0.00     0.010 A 
ATOM     50  C   UNL A   1      43.024  32.012  29.039  1.00  0.00    -0.014 A 
BRANCH  50  51
ATOM     51  C   UNL A   1      41.721  31.593  30.237  1.00  0.00     0.031 A 
ATOM     52  C   UNL A   1      40.268  32.602  30.572  1.00  0.00     0.074 A 
ATOM     53  C   UNL A   1      41.744  30.354  30.835  1.00  0.00     0.049 A 
ATOM     54  N   UNL A   1      39.675  32.701  31.732  1.00  0.00    -0.248 NA
ATOM     55  C   UNL A   1      39.678  33.815  29.728  1.00  0.00     0.031 C 
ATOM     56  C   UNL A   1      40.541  29.623  31.230  1.00  0.00     0.029 A 
ATOM     57  N   UNL A   1      42.769  29.407  31.098  1.00  0.00    -0.354 N 
ATOM     58  C   UNL A   1      38.620  33.609  31.520  1.00  0.00     0.074 A 
ATOM     59  C   UNL A   1      39.058  34.578  30.608  1.00  0.00     0.031 C 
ATOM     60  C   UNL A   1      40.877  28.444  31.779  1.00  0.00     0.029 A 
ATOM     61  C   UNL A   1      42.310  28.448  32.020  1.00  0.00     0.049 A 
ATOM     62  H   UNL A   1      43.668  29.420  30.696  1.00  0.00     0.167 HD
ATOM     63  C   UNL A   1      37.344  33.139  31.593  1.00  0.00     0.034 A 
ATOM     64  C   UNL A   1      42.866  28.069  33.220  1.00  0.00     0.034 A 
ATOM     65  C   UNL A   1      37.386  31.917  32.404  1.00  0.00     0.049 A 
ATOM     66  C   UNL A   1      42.001  28.661  34.360  1.00  0.00     0.074 A 
ATOM     67  C   UNL A   1      37.190  30.573  32.165  1.00  0.00     0.029 A 
ATOM     68  N   UNL A   1      38.153  31.979  33.565  1.00  0.00    -0.354 N 
ATOM     69  N   UNL A   1      40.771  29.091  34.212  1.00  0.00    -0.248 NA
ATOM     70  C   UNL A   1      42.442  28.839  35.743  1.00  0.00     0.031 C 
ATOM     71  C   UNL A   1      37.884  29.842  33.193  1.00  0.00     0.029 A 
ATOM     72  C   UNL A   1      38.490  30.736  34.063  1.00  0.00     0.049 A 
ATOM     73  H   UNL A   1      38.427  32.824  33.989  1.00  0.00     0.167 HD
ATOM     74  C   UNL A   1      40.399  29.848  35.292  1.00  0.00     0.074 A 
ATOM     75  C   UNL A   1      41.429  29.546  36.270  1.00  0.00     0.031 C 
ATOM     76  C   UNL A   1      39.325  30.708  35.274  1.00  0.00     0.034 A 
BRANCH  63  77
ATOM     77  C   UNL A   1      36.150  33.637  30.727  1.00  0.00     0.023 A 
ATOM     78  C   UNL A   1      36.081  33.056  29.451  1.00  0.00     0.012 A 
ATOM     79  C   UNL A   1      35.136  34.633  30.986  1.00  0.00     0.148 A 
ATOM     80  C   UNL A   1      35.097  33.395  28.509  1.00  0.00     0.002 A 
ATOM     81  C   UNL A   1      34.114  34.929  30.065  1.00  0.00     0.091 A 
ATOM     82  F   UNL A   1      35.158  35.391  32.084  1.00  0.00    -0.205 F 
ATOM     83  C   UNL A   1      34.101  34.312  28.818  1.00  0.00     0.022 A 
BRANCH  81  84
ATOM     84  S   UNL A   1      32.767  36.107  30.387  1.00  0.00     0.127 S 
ATOM     85  O   UNL A   1      31.977  35.410  31.404  1.00  0.00    -0.237 OA
ATOM     86  O   UNL A   1      33.487  37.279  30.883  1.00  0.00    -0.237 OA
ATOM     87  O   UNL A   1      32.071  36.310  29.121  1.00  0.00    -0.744 OA
ENDBRANCH  81  84
ENDBRANCH  63  77
BRANCH  64  88
ATOM     88  C   UNL A   1      44.359  27.872  33.253  1.00  0.00     0.023 A 
ATOM     89  C   UNL A   1      44.927  26.952  32.339  1.00  0.00     0.012 A 
ATOM     90  C   UNL A   1      45.199  28.861  33.722  1.00  0.00     0.148 A 
ATOM     91  C   UNL A   1      46.102  27.272  31.646  1.00  0.00     0.002 A 
ATOM     92  C   UNL A   1      46.098  29.375  32.823  1.00  0.00     0.091 A 
ATOM     93  F   UNL A   1      45.001  29.501  34.876  1.00  0.00    -0.205 F 
ATOM     94  C   UNL A   1      46.616  28.555  31.803  1.00  0.00     0.022 A 
BRANCH  92  95
ATOM     95  S   UNL A   1      45.514  31.033  32.296  1.00  0.00     0.127 S 
ATOM     96  O   UNL A   1      46.594  31.907  32.737  1.00  0.00    -0.237 OA
ATOM     97  O   UNL A   1      45.412  30.757  30.866  1.00  0.00    -0.237 OA
ATOM     98  O   UNL A   1      44.235  31.223  32.960  1.00  0.00    -0.744 OA
ENDBRANCH  92  95
ENDBRANCH  64  88
BRANCH  76  99
ATOM     99  C   UNL A   1      38.953  31.668  36.416  1.00  0.00     0.023 A 
ATOM    100  C   UNL A   1      37.929  31.407  37.341  1.00  0.00     0.012 A 
ATOM    101  C   UNL A   1      39.680  32.873  36.638  1.00  0.00     0.148 A 
ATOM    102  C   UNL A   1      37.527  32.350  38.296  1.00  0.00     0.002 A 
ATOM    103  C   UNL A   1      39.407  33.708  37.713  1.00  0.00     0.091 A 
ATOM    104  F   UNL A   1      40.622  33.278  35.775  1.00  0.00    -0.205 F 
ATOM    105  C   UNL A   1      38.278  33.497  38.495  1.00  0.00     0.022 A 
BRANCH 103 106
ATOM    106  S   UNL A   1      40.560  34.999  38.198  1.00  0.00     0.127 S 
ATOM    107  O   UNL A   1      39.867  36.206  37.757  1.00  0.00    -0.237 OA
ATOM    108  O   UNL A   1      40.623  34.830  39.652  1.00  0.00    -0.237 OA
ATOM    109  O   UNL A   1      41.806  34.683  37.512  1.00  0.00    -0.744 OA
ENDBRANCH 103 106
ENDBRANCH  76  99
ENDBRANCH  50  51
ENDBRANCH  43  45
ENDBRANCH  42  43
ENDBRANCH  41  42
ENDBRANCH  40  41
ENDBRANCH  39  40
ENDBRANCH  38  39
ENDBRANCH   1  38
TORSDOF 25
ENDMDL
MODEL 2
REMARK VINA RESULT:     -10.4      1.760      2.148
REMARK SMILES Cc1c(C(=O)Nc2ccc(C(=O)Nc3ccccc3C(=O)OCCOCCOCCOC(=O)c3ccc(-c4c5nc(c(-c6cccc(S(=O)(=O)[O-])c6F)c6ccc([nH]6)c(-c6cccc(S(=O)(=O)[O-])c6F)c6nc(c(-c7cccc(S(=O)(=O)[O-])c7F)c7ccc4[nH]7)C=C6)C=C5)cc3)cc2)cccc1[N+](=O)[O-]
REMARK SMILES IDX 26 1 25 2 24 3 23 4 22 5 20 6 21 7 19 8 14 9 15 10 16 11
REMARK SMILES IDX 18 12 17 13 13 14 11 15 12 16 10 18 7 19 8 20 98 21 9 22
REMARK SMILES IDX 97 23 6 24 4 25 5 26 3 28 1 29 2 30 102 31 99 32 101 33
REMARK SMILES IDX 100 34 103 35 104 36 105 37 27 38 28 39 29 40 30 41 31 42
REMARK SMILES IDX 32 43 33 44 34 45 35 46 96 47 36 48 95 49 37 50 38 51 39 52
REMARK SMILES IDX 89 53 40 54 94 55 88 56 90 57 41 58 93 59 87 60 86 61 42 63
REMARK SMILES IDX 74 64 54 65 73 66 55 67 58 68 72 69 91 70 56 71 57 72 71 74
REMARK SMILES IDX 92 75 59 76 43 77 44 78 52 79 45 80 47 81 53 82 46 83 48 84
REMARK SMILES IDX 49 85 50 86 51 87 75 88 76 89 84 90 77 91 79 92 85 93 78 94
REMARK SMILES IDX 80 95 81 96 82 97 83 98 60 99 61 100 69 101 62 102 64 103
REMARK SMILES IDX 70 104 63 105 65 106 66 107 67 108 68 109
REMARK H PARENT 13 17 6 27 90 62 58 73
REMARK Flexibility Score: inf
ROOT
ATOM      1  C   UNL A   1      47.249  43.668  26.448  1.00  0.00     0.188 C 
ENDROOT
BRANCH   1   2
ATOM      2  O   UNL A   1      46.721  43.712  25.063  1.00  0.00    -0.376 OA
BRANCH   2   3
ATOM      3  C   UNL A   1      45.361  43.737  24.415  1.00  0.00     0.202 C 
BRANCH   3   4
ATOM      4  C   UNL A   1      43.652  42.929  24.505  1.00  0.00     0.261 C 
BRANCH   4   5
ATOM      5  O   UNL A   1      42.706  41.344  24.831  1.00  0.00    -0.460 OA
BRANCH   5   6
ATOM      6  C   UNL A   1      41.741  40.621  26.052  1.00  0.00     0.340 C 
ATOM      7  O   UNL A   1      40.512  40.707  26.171  1.00  0.00    -0.246 OA
BRANCH   6   8
ATOM      8  C   UNL A   1      42.158  39.768  27.294  1.00  0.00     0.083 A 
ATOM      9  C   UNL A   1      42.486  39.985  28.779  1.00  0.00     0.056 A 
ATOM     10  C   UNL A   1      42.973  38.760  29.321  1.00  0.00     0.027 A 
ATOM     11  C   UNL A   1      43.013  37.502  28.640  1.00  0.00     0.002 A 
ATOM     12  C   UNL A   1      42.267  38.487  26.644  1.00  0.00     0.018 A 
ATOM     13  C   UNL A   1      42.644  37.357  27.317  1.00  0.00     0.001 A 
BRANCH   9  14
ATOM     14  N   UNL A   1      42.363  41.057  30.060  1.00  0.00    -0.321 N 
ATOM     15  C   UNL A   1      42.996  42.096  31.128  1.00  0.00     0.255 C 
ATOM     16  O   UNL A   1      42.195  42.696  31.858  1.00  0.00    -0.269 OA
ATOM     17  H   UNL A   1      41.403  41.055  30.275  1.00  0.00     0.170 HD
BRANCH  15  18
ATOM     18  C   UNL A   1      44.561  42.572  31.290  1.00  0.00     0.040 A 
ATOM     19  C   UNL A   1      46.877  42.746  34.392  1.00  0.00     0.041 A 
ATOM     20  C   UNL A   1      45.427  43.400  34.282  1.00  0.00     0.027 A 
ATOM     21  C   UNL A   1      47.391  42.159  32.865  1.00  0.00     0.027 A 
ATOM     22  C   UNL A   1      44.233  43.240  32.636  1.00  0.00     0.016 A 
ATOM     23  C   UNL A   1      46.301  42.046  31.256  1.00  0.00     0.016 A 
BRANCH  19  24
ATOM     24  N   UNL A   1      47.399  42.115  35.562  1.00  0.00    -0.322 N 
ATOM     25  C   UNL A   1      47.449  40.823  36.130  1.00  0.00     0.256 C 
ATOM     26  O   UNL A   1      48.201  40.725  37.115  1.00  0.00    -0.269 OA
ATOM     27  H   UNL A   1      47.855  42.769  36.138  1.00  0.00     0.170 HD
BRANCH  25  28
ATOM     28  C   UNL A   1      46.785  39.510  35.744  1.00  0.00     0.049 A 
ATOM     29  C   UNL A   1      44.513  39.986  36.690  1.00  0.00     0.053 C 
ATOM     30  C   UNL A   1      45.512  39.048  36.126  1.00  0.00     0.039 A 
ATOM     31  C   UNL A   1      45.067  37.742  35.755  1.00  0.00     0.273 A 
ATOM     32  C   UNL A   1      47.313  38.853  34.614  1.00  0.00     0.014 A 
ATOM     33  C   UNL A   1      45.685  37.058  34.720  1.00  0.00     0.086 A 
ATOM     34  C   UNL A   1      46.749  37.674  34.082  1.00  0.00     0.008 A 
BRANCH  31  35
ATOM     35  N   UNL A   1      43.991  37.018  36.470  1.00  0.00     0.063 N 
ATOM     36  O   UNL A   1      44.298  36.503  37.556  1.00  0.00    -0.258 OA
ATOM     37  O   UNL A   1      42.873  36.938  35.949  1.00  0.00    -0.258 OA
ENDBRANCH  31  35
ENDBRANCH  25  28
ENDBRANCH  19  24
ENDBRANCH  15  18
ENDBRANCH   9  14
ENDBRANCH   6   8
ENDBRANCH   5   6
ENDBRANCH   4   5
ENDBRANCH   3   4
ENDBRANCH   2   3
ENDBRANCH   1   2
BRANCH   1  38
ATOM     38  C   UNL A   1      47.280  42.437  27.511  1.00  0.00     0.188 C 
BRANCH  38  39
ATOM     39  O   UNL A   1      46.073  41.669  27.679  1.00  0.00    -0.376 OA
BRANCH  39  40
ATOM     40  C   UNL A   1      45.864  40.376  27.005  1.00  0.00     0.202 C 
BRANCH  40  41
ATOM     41  C   UNL A   1      46.393  38.747  27.558  1.00  0.00     0.261 C 
BRANCH  41  42
ATOM     42  O   UNL A   1      46.427  37.159  26.708  1.00  0.00    -0.460 OA
BRANCH  42  43
ATOM     43  C   UNL A   1      46.964  35.600  26.930  1.00  0.00     0.338 C 
ATOM     44  O   UNL A   1      48.112  35.450  26.524  1.00  0.00    -0.246 OA
BRANCH  43  45
ATOM     45  C   UNL A   1      45.800  34.178  27.424  1.00  0.00     0.060 A 
ATOM     46  C   UNL A   1      45.183  32.748  26.521  1.00  0.00     0.016 A 
ATOM     47  C   UNL A   1      45.012  34.278  29.309  1.00  0.00     0.016 A 
ATOM     48  C   UNL A   1      43.990  31.718  27.472  1.00  0.00     0.010 A 
ATOM     49  C   UNL A   1      43.888  33.353  29.954  1.00  0.00     0.010 A 
ATOM     50  C   UNL A   1      43.224  32.226  29.142  1.00  0.00    -0.014 A 
BRANCH  50  51
ATOM     51  C   UNL A   1      41.875  31.774  30.277  1.00  0.00     0.031 A 
ATOM     52  C   UNL A   1      40.416  32.781  30.593  1.00  0.00     0.074 A 
ATOM     53  C   UNL A   1      41.870  30.516  30.833  1.00  0.00     0.049 A 
ATOM     54  N   UNL A   1      39.782  32.845  31.734  1.00  0.00    -0.248 NA
ATOM     55  C   UNL A   1      39.864  34.026  29.770  1.00  0.00     0.031 C 
ATOM     56  C   UNL A   1      40.650  29.780  31.159  1.00  0.00     0.029 A 
ATOM     57  N   UNL A   1      42.880  29.555  31.101  1.00  0.00    -0.354 N 
ATOM     58  C   UNL A   1      38.739  33.766  31.514  1.00  0.00     0.074 A 
ATOM     59  C   UNL A   1      39.215  34.762  30.652  1.00  0.00     0.031 C 
ATOM     60  C   UNL A   1      40.960  28.581  31.679  1.00  0.00     0.029 A 
ATOM     61  C   UNL A   1      42.383  28.567  31.972  1.00  0.00     0.049 A 
ATOM     62  H   UNL A   1      43.793  29.576  30.733  1.00  0.00     0.167 HD
ATOM     63  C   UNL A   1      37.459  33.301  31.524  1.00  0.00     0.034 A 
ATOM     64  C   UNL A   1      42.892  28.145  33.178  1.00  0.00     0.034 A 
ATOM     65  C   UNL A   1      37.466  32.053  32.294  1.00  0.00     0.049 A 
ATOM     66  C   UNL A   1      41.990  28.704  34.306  1.00  0.00     0.074 A 
ATOM     67  C   UNL A   1      37.272  30.719  32.003  1.00  0.00     0.029 A 
ATOM     68  N   UNL A   1      38.189  32.070  33.485  1.00  0.00    -0.354 N 
ATOM     69  N   UNL A   1      40.768  29.146  34.127  1.00  0.00    -0.248 NA
ATOM     70  C   UNL A   1      42.380  28.832  35.709  1.00  0.00     0.031 C 
ATOM     71  C   UNL A   1      37.924  29.949  33.030  1.00  0.00     0.029 A 
ATOM     72  C   UNL A   1      38.502  30.809  33.951  1.00  0.00     0.049 A 
ATOM     73  H   UNL A   1      38.452  32.899  33.947  1.00  0.00     0.167 HD
ATOM     74  C   UNL A   1      40.360  29.869  35.219  1.00  0.00     0.074 A 
ATOM     75  C   UNL A   1      41.353  29.527  36.223  1.00  0.00     0.031 C 
ATOM     76  C   UNL A   1      39.292  30.735  35.191  1.00  0.00     0.034 A 
BRANCH  63  77
ATOM     77  C   UNL A   1      36.301  33.836  30.633  1.00  0.00     0.023 A 
ATOM     78  C   UNL A   1      36.367  33.424  29.292  1.00  0.00     0.012 A 
ATOM     79  C   UNL A   1      35.202  34.726  30.931  1.00  0.00     0.148 A 
ATOM     80  C   UNL A   1      35.434  33.825  28.323  1.00  0.00     0.002 A 
ATOM     81  C   UNL A   1      34.232  35.078  29.974  1.00  0.00     0.091 A 
ATOM     82  F   UNL A   1      35.089  35.333  32.115  1.00  0.00    -0.205 F 
ATOM     83  C   UNL A   1      34.356  34.631  28.662  1.00  0.00     0.022 A 
BRANCH  81  84
ATOM     84  S   UNL A   1      32.786  36.120  30.330  1.00  0.00     0.127 S 
ATOM     85  O   UNL A   1      33.400  37.412  30.644  1.00  0.00    -0.237 OA
ATOM     86  O   UNL A   1      32.059  36.093  29.061  1.00  0.00    -0.237 OA
ATOM     87  O   UNL A   1      32.084  35.502  31.449  1.00  0.00    -0.744 OA
ENDBRANCH  81  84
ENDBRANCH  63  77
BRANCH  64  88
ATOM     88  C   UNL A   1      44.382  27.938  33.259  1.00  0.00     0.023 A 
ATOM     89  C   UNL A   1      45.162  28.958  33.856  1.00  0.00     0.012 A 
ATOM     90  C   UNL A   1      44.927  26.670  33.269  1.00  0.00     0.148 A 
ATOM     91  C   UNL A   1      46.188  28.634  34.754  1.00  0.00     0.002 A 
ATOM     92  C   UNL A   1      45.630  26.318  34.394  1.00  0.00     0.091 A 
ATOM     93  F   UNL A   1      44.585  25.720  32.397  1.00  0.00    -0.205 F 
ATOM     94  C   UNL A   1      46.332  27.299  35.118  1.00  0.00     0.022 A 
BRANCH  92  95
ATOM     95  S   UNL A   1      44.600  25.172  35.391  1.00  0.00     0.127 S 
ATOM     96  O   UNL A   1      43.248  25.491  34.949  1.00  0.00    -0.237 OA
ATOM     97  O   UNL A   1      45.188  23.922  34.918  1.00  0.00    -0.237 OA
ATOM     98  O   UNL A   1      44.903  25.486  36.778  1.00  0.00    -0.744 OA
ENDBRANCH  92  95
ENDBRANCH  64  88
BRANCH  76  99
ATOM     99  C   UNL A   1      38.884  31.659  36.350  1.00  0.00     0.023 A 
ATOM    100  C   UNL A   1      37.787  31.403  37.190  1.00  0.00     0.012 A 
ATOM    101  C   UNL A   1      39.645  32.817  36.679  1.00  0.00     0.148 A 
ATOM    102  C   UNL A   1      37.362  32.319  38.161  1.00  0.00     0.002 A 
ATOM    103  C   UNL A   1      39.334  33.614  37.772  1.00  0.00     0.091 A 
ATOM    104  F   UNL A   1      40.661  33.217  35.902  1.00  0.00    -0.205 F 
ATOM    105  C   UNL A   1      38.146  33.420  38.465  1.00  0.00     0.022 A 
BRANCH 103 106
ATOM    106  S   UNL A   1      40.505  34.826  38.396  1.00  0.00     0.127 S 
ATOM    107  O   UNL A   1      40.302  34.729  39.840  1.00  0.00    -0.237 OA
ATOM    108  O   UNL A   1      41.785  34.295  37.924  1.00  0.00    -0.237 OA
ATOM    109  O   UNL A   1      40.124  36.088  37.776  1.00  0.00    -0.744 OA
ENDBRANCH 103 106
ENDBRANCH  76  99
ENDBRANCH  50  51
ENDBRANCH  43  45
ENDBRANCH  42  43
ENDBRANCH  41  42
ENDBRANCH  40  41
ENDBRANCH  39  40
ENDBRANCH  38  39
ENDBRANCH   1  38
TORSDOF 25
ENDMDL
MODEL 3
REMARK VINA RESULT:     -10.1      5.750     12.680
REMARK SMILES Cc1c(C(=O)Nc2ccc(C(=O)Nc3ccccc3C(=O)OCCOCCOCCOC(=O)c3ccc(-c4c5nc(c(-c6cccc(S(=O)(=O)[O-])c6F)c6ccc([nH]6)c(-c6cccc(S(=O)(=O)[O-])c6F)c6nc(c(-c7cccc(S(=O)(=O)[O-])c7F)c7ccc4[nH]7)C=C6)C=C5)cc3)cc2)cccc1[N+](=O)[O-]
REMARK SMILES IDX 26 1 25 2 24 3 23 4 22 5 20 6 21 7 19 8 14 9 15 10 16 11
REMARK SMILES IDX 18 12 17 13 13 14 11 15 12 16 10 18 7 19 8 20 98 21 9 22
REMARK SMILES IDX 97 23 6 24 4 25 5 26 3 28 1 29 2 30 102 31 99 32 101 33
REMARK SMILES IDX 100 34 103 35 104 36 105 37 27 38 28 39 29 40 30 41 31 42
REMARK SMILES IDX 32 43 33 44 34 45 35 46 96 47 36 48 95 49 37 50 38 51 39 52
REMARK SMILES IDX 89 53 40 54 94 55 88 56 90 57 41 58 93 59 87 60 86 61 42 63
REMARK SMILES IDX 74 64 54 65 73 66 55 67 58 68 72 69 91 70 56 71 57 72 71 74
REMARK SMILES IDX 92 75 59 76 43 77 44 78 52 79 45 80 47 81 53 82 46 83 48 84
REMARK SMILES IDX 49 85 50 86 51 87 75 88 76 89 84 90 77 91 79 92 85 93 78 94
REMARK SMILES IDX 80 95 81 96 82 97 83 98 60 99 61 100 69 101 62 102 64 103
REMARK SMILES IDX 70 104 63 105 65 106 66 107 67 108 68 109
REMARK H PARENT 13 17 6 27 90 62 58 73
REMARK Flexibility Score: inf
ROOT
ATOM      1  C   UNL A   1      55.467  36.548  28.818  1.00  0.00     0.188 C 
ENDROOT
BRANCH   1   2
ATOM      2  O   UNL A   1      55.911  35.177  29.164  1.00  0.00    -0.376 OA
BRANCH   2   3
ATOM      3  C   UNL A   1      55.325  33.791  29.094  1.00  0.00     0.202 C 
BRANCH   3   4
ATOM      4  C   UNL A   1      54.130  32.631  29.996  1.00  0.00     0.261 C 
BRANCH   4   5
ATOM      5  O   UNL A   1      52.933  31.201  29.818  1.00  0.00    -0.460 OA
BRANCH   5   6
ATOM      6  C   UNL A   1      52.425  29.802  30.672  1.00  0.00     0.340 C 
ATOM      7  O   UNL A   1      52.852  29.408  31.765  1.00  0.00    -0.246 OA
BRANCH   6   8
ATOM      8  C   UNL A   1      51.396  28.695  30.273  1.00  0.00     0.083 A 
ATOM      9  C   UNL A   1      51.124  27.750  29.093  1.00  0.00     0.056 A 
ATOM     10  C   UNL A   1      49.876  27.095  29.313  1.00  0.00     0.027 A 
ATOM     11  C   UNL A   1      49.082  27.188  30.499  1.00  0.00     0.002 A 
ATOM     12  C   UNL A   1      50.531  28.787  31.422  1.00  0.00     0.018 A 
ATOM     13  C   UNL A   1      49.413  28.011  31.559  1.00  0.00     0.001 A 
BRANCH   9  14
ATOM     14  N   UNL A   1      51.781  27.071  27.710  1.00  0.00    -0.321 N 
ATOM     15  C   UNL A   1      51.656  26.361  26.261  1.00  0.00     0.255 C 
ATOM     16  O   UNL A   1      52.714  26.169  25.645  1.00  0.00    -0.269 OA
ATOM     17  H   UNL A   1      52.752  27.142  27.854  1.00  0.00     0.170 HD
BRANCH  15  18
ATOM     18  C   UNL A   1      50.296  25.978  25.422  1.00  0.00     0.040 A 
ATOM     19  C   UNL A   1      46.591  25.720  26.529  1.00  0.00     0.041 A 
ATOM     20  C   UNL A   1      47.819  24.983  27.228  1.00  0.00     0.027 A 
ATOM     21  C   UNL A   1      47.086  26.453  25.060  1.00  0.00     0.027 A 
ATOM     22  C   UNL A   1      49.757  25.189  26.629  1.00  0.00     0.016 A 
ATOM     23  C   UNL A   1      48.919  26.617  24.423  1.00  0.00     0.016 A 
BRANCH  19  24
ATOM     24  N   UNL A   1      45.482  26.293  27.222  1.00  0.00    -0.322 N 
ATOM     25  C   UNL A   1      44.143  25.964  27.525  1.00  0.00     0.256 C 
ATOM     26  O   UNL A   1      43.599  26.727  28.342  1.00  0.00    -0.269 OA
ATOM     27  H   UNL A   1      45.720  27.172  27.597  1.00  0.00     0.170 HD
BRANCH  25  28
ATOM     28  C   UNL A   1      43.242  24.827  27.068  1.00  0.00     0.049 A 
ATOM     29  C   UNL A   1      44.786  22.928  27.611  1.00  0.00     0.053 C 
ATOM     30  C   UNL A   1      43.573  23.464  26.949  1.00  0.00     0.039 A 
ATOM     31  C   UNL A   1      42.637  22.529  26.412  1.00  0.00     0.273 A 
ATOM     32  C   UNL A   1      41.854  25.072  27.118  1.00  0.00     0.014 A 
ATOM     33  C   UNL A   1      41.287  22.842  26.353  1.00  0.00     0.086 A 
ATOM     34  C   UNL A   1      40.892  24.087  26.812  1.00  0.00     0.008 A 
BRANCH  31  35
ATOM     35  N   UNL A   1      43.033  21.224  25.834  1.00  0.00     0.063 N 
ATOM     36  O   UNL A   1      43.780  21.262  24.844  1.00  0.00    -0.258 OA
ATOM     37  O   UNL A   1      42.588  20.185  26.335  1.00  0.00    -0.258 OA
ENDBRANCH  31  35
ENDBRANCH  25  28
ENDBRANCH  19  24
ENDBRANCH  15  18
ENDBRANCH   9  14
ENDBRANCH   6   8
ENDBRANCH   5   6
ENDBRANCH   4   5
ENDBRANCH   3   4
ENDBRANCH   2   3
ENDBRANCH   1   2
BRANCH   1  38
ATOM     38  C   UNL A   1      54.055  37.058  28.191  1.00  0.00     0.188 C 
BRANCH  38  39
ATOM     39  O   UNL A   1      53.487  36.291  27.113  1.00  0.00    -0.376 OA
BRANCH  39  40
ATOM     40  C   UNL A   1      52.366  35.358  27.318  1.00  0.00     0.202 C 
BRANCH  40  41
ATOM     41  C   UNL A   1      51.811  34.044  26.219  1.00  0.00     0.261 C 
BRANCH  41  42
ATOM     42  O   UNL A   1      52.307  32.316  26.091  1.00  0.00    -0.460 OA
BRANCH  42  43
ATOM     43  C   UNL A   1      51.901  30.821  26.695  1.00  0.00     0.338 C 
ATOM     44  O   UNL A   1      52.794  29.997  26.518  1.00  0.00    -0.246 OA
BRANCH  43  45
ATOM     45  C   UNL A   1      50.136  30.392  27.261  1.00  0.00     0.060 A 
ATOM     46  C   UNL A   1      48.854  29.348  26.544  1.00  0.00     0.016 A 
ATOM     47  C   UNL A   1      49.489  31.317  28.966  1.00  0.00     0.016 A 
ATOM     48  C   UNL A   1      47.269  29.358  27.482  1.00  0.00     0.010 A 
ATOM     49  C   UNL A   1      48.028  31.306  29.597  1.00  0.00     0.010 A 
ATOM     50  C   UNL A   1      46.871  30.557  28.909  1.00  0.00    -0.014 A 
BRANCH  50  51
ATOM     51  C   UNL A   1      45.471  31.162  29.901  1.00  0.00     0.031 A 
ATOM     52  C   UNL A   1      44.369  30.118  30.869  1.00  0.00     0.074 A 
ATOM     53  C   UNL A   1      45.311  32.519  30.062  1.00  0.00     0.049 A 
ATOM     54  N   UNL A   1      43.100  30.354  31.073  1.00  0.00    -0.248 NA
ATOM     55  C   UNL A   1      44.558  28.599  31.304  1.00  0.00     0.031 C 
ATOM     56  C   UNL A   1      44.751  33.130  31.267  1.00  0.00     0.029 A 
ATOM     57  N   UNL A   1      45.712  33.653  29.309  1.00  0.00    -0.354 N 
ATOM     58  C   UNL A   1      42.653  29.268  31.850  1.00  0.00     0.074 A 
ATOM     59  C   UNL A   1      43.334  28.120  31.425  1.00  0.00     0.031 C 
ATOM     60  C   UNL A   1      44.726  34.467  31.136  1.00  0.00     0.029 A 
ATOM     61  C   UNL A   1      45.012  34.793  29.749  1.00  0.00     0.049 A 
ATOM     62  H   UNL A   1      46.381  33.645  28.587  1.00  0.00     0.167 HD
ATOM     63  C   UNL A   1      42.279  29.511  33.137  1.00  0.00     0.034 A 
ATOM     64  C   UNL A   1      44.251  35.673  29.016  1.00  0.00     0.034 A 
ATOM     65  C   UNL A   1      41.930  30.933  33.217  1.00  0.00     0.049 A 
ATOM     66  C   UNL A   1      42.759  35.405  29.339  1.00  0.00     0.074 A 
ATOM     67  C   UNL A   1      42.467  32.042  33.837  1.00  0.00     0.029 A 
ATOM     68  N   UNL A   1      41.147  31.432  32.178  1.00  0.00    -0.354 N 
ATOM     69  N   UNL A   1      42.334  34.750  30.393  1.00  0.00    -0.248 NA
ATOM     70  C   UNL A   1      41.632  35.823  28.508  1.00  0.00     0.031 C 
ATOM     71  C   UNL A   1      42.010  33.205  33.121  1.00  0.00     0.029 A 
ATOM     72  C   UNL A   1      41.187  32.808  32.078  1.00  0.00     0.049 A 
ATOM     73  H   UNL A   1      40.618  30.860  31.576  1.00  0.00     0.167 HD
ATOM     74  C   UNL A   1      41.021  34.392  30.232  1.00  0.00     0.074 A 
ATOM     75  C   UNL A   1      40.601  35.201  29.101  1.00  0.00     0.031 C 
ATOM     76  C   UNL A   1      40.410  33.419  30.987  1.00  0.00     0.034 A 
BRANCH  63  77
ATOM     77  C   UNL A   1      42.485  28.536  34.333  1.00  0.00     0.023 A 
ATOM     78  C   UNL A   1      41.569  27.472  34.374  1.00  0.00     0.012 A 
ATOM     79  C   UNL A   1      43.416  28.566  35.437  1.00  0.00     0.148 A 
ATOM     80  C   UNL A   1      41.569  26.503  35.390  1.00  0.00     0.002 A 
ATOM     81  C   UNL A   1      43.454  27.562  36.422  1.00  0.00     0.091 A 
ATOM     82  F   UNL A   1      44.242  29.596  35.633  1.00  0.00    -0.205 F 
ATOM     83  C   UNL A   1      42.520  26.531  36.401  1.00  0.00     0.022 A 
BRANCH  81  84
ATOM     84  S   UNL A   1      44.667  27.513  37.776  1.00  0.00     0.127 S 
ATOM     85  O   UNL A   1      44.671  28.901  38.244  1.00  0.00    -0.237 OA
ATOM     86  O   UNL A   1      44.058  26.566  38.709  1.00  0.00    -0.237 OA
ATOM     87  O   UNL A   1      45.930  27.072  37.197  1.00  0.00    -0.744 OA
ENDBRANCH  81  84
ENDBRANCH  63  77
BRANCH  64  88
ATOM     88  C   UNL A   1      44.802  36.116  27.686  1.00  0.00     0.023 A 
ATOM     89  C   UNL A   1      46.114  36.648  27.656  1.00  0.00     0.012 A 
ATOM     90  C   UNL A   1      44.337  35.576  26.505  1.00  0.00     0.148 A 
ATOM     91  C   UNL A   1      47.011  36.270  26.648  1.00  0.00     0.002 A 
ATOM     92  C   UNL A   1      45.253  34.892  25.746  1.00  0.00     0.091 A 
ATOM     93  F   UNL A   1      43.040  35.456  26.216  1.00  0.00    -0.205 F 
ATOM     94  C   UNL A   1      46.605  35.281  25.759  1.00  0.00     0.022 A 
BRANCH  92  95
ATOM     95  S   UNL A   1      44.937  33.093  25.930  1.00  0.00     0.127 S 
ATOM     96  O   UNL A   1      44.442  32.719  24.611  1.00  0.00    -0.237 OA
ATOM     97  O   UNL A   1      46.297  32.692  26.279  1.00  0.00    -0.237 OA
ATOM     98  O   UNL A   1      43.982  32.977  27.020  1.00  0.00    -0.744 OA
ENDBRANCH  92  95
ENDBRANCH  64  88
BRANCH  76  99
ATOM     99  C   UNL A   1      38.982  32.897  30.753  1.00  0.00     0.023 A 
ATOM    100  C   UNL A   1      38.680  31.853  29.862  1.00  0.00     0.012 A 
ATOM    101  C   UNL A   1      37.874  33.413  31.484  1.00  0.00     0.148 A 
ATOM    102  C   UNL A   1      37.361  31.477  29.574  1.00  0.00     0.002 A 
ATOM    103  C   UNL A   1      36.594  32.896  31.340  1.00  0.00     0.091 A 
ATOM    104  F   UNL A   1      38.018  34.468  32.298  1.00  0.00    -0.205 F 
ATOM    105  C   UNL A   1      36.316  31.987  30.326  1.00  0.00     0.022 A 
BRANCH 103 106
ATOM    106  S   UNL A   1      35.301  33.283  32.526  1.00  0.00     0.127 S 
ATOM    107  O   UNL A   1      35.896  32.834  33.782  1.00  0.00    -0.237 OA
ATOM    108  O   UNL A   1      35.183  34.737  32.394  1.00  0.00    -0.237 OA
ATOM    109  O   UNL A   1      34.126  32.552  32.071  1.00  0.00    -0.744 OA
ENDBRANCH 103 106
ENDBRANCH  76  99
ENDBRANCH  50  51
ENDBRANCH  43  45
ENDBRANCH  42  43
ENDBRANCH  41  42
ENDBRANCH  40  41
ENDBRANCH  39  40
ENDBRANCH  38  39
ENDBRANCH   1  38
TORSDOF 25
ENDMDL
