MODEL 1
REMARK VINA RESULT:     -10.0      0.000      0.000
REMARK SMILES COc1ccc2c(c1)C=C(C(=O)OCCOCCOCCOC(=O)c1ccc(-c3c4nc(c(-c5cccc(S(=O)(=O)[O-])c5F)c5ccc([nH]5)c(-c5cccc(S(=O)(=O)[O-])c5F)c5nc(c(-c6cccc(S(=O)(=O)[O-])c6F)c6ccc3[nH]6)C=C5)C=C4)cc1)[C@H](C(F)(F)F)O2
REMARK SMILES IDX 18 1 17 2 16 3 15 4 14 5 13 6 11 7 12 8 10 9 3 10 4 11 8 12
REMARK SMILES IDX 5 13 7 14 6 15 9 16 93 17 88 18 2 19 1 20 89 21 90 22 91 23
REMARK SMILES IDX 92 24 19 25 20 26 21 27 22 28 23 29 24 30 25 31 26 32 87 33
REMARK SMILES IDX 27 34 86 35 28 36 29 37 30 38 80 39 31 40 85 41 79 42 81 43
REMARK SMILES IDX 32 44 84 45 78 46 77 47 33 49 65 50 45 51 64 52 46 53 49 54
REMARK SMILES IDX 63 55 82 56 47 57 48 58 62 60 83 61 50 62 34 63 35 64 43 65
REMARK SMILES IDX 36 66 38 67 44 68 37 69 39 70 40 71 41 72 42 73 66 74 67 75
REMARK SMILES IDX 75 76 68 77 70 78 76 79 69 80 71 81 72 82 73 83 74 84 51 85
REMARK SMILES IDX 52 86 60 87 53 88 55 89 61 90 54 91 56 92 57 93 58 94 59 95
REMARK H PARENT 81 48 49 59
REMARK Flexibility Score: inf
ROOT
ATOM      1  C   UNL A   1      41.164  20.372  27.650  1.00  0.00     0.188 C 
ENDROOT
BRANCH   1   2
ATOM      2  C   UNL A   1      40.735  21.550  26.752  1.00  0.00     0.188 C 
BRANCH   2   3
ATOM      3  O   UNL A   1      39.439  21.395  26.189  1.00  0.00    -0.376 OA
BRANCH   3   4
ATOM      4  C   UNL A   1      38.657  22.580  26.110  1.00  0.00     0.202 C 
BRANCH   4   5
ATOM      5  C   UNL A   1      37.354  22.360  25.342  1.00  0.00     0.261 C 
BRANCH   5   6
ATOM      6  O   UNL A   1      36.478  23.500  25.367  1.00  0.00    -0.460 OA
BRANCH   6   7
ATOM      7  C   UNL A   1      35.154  23.249  25.484  1.00  0.00     0.338 C 
ATOM      8  O   UNL A   1      34.657  22.255  25.980  1.00  0.00    -0.246 OA
BRANCH   7   9
ATOM      9  C   UNL A   1      34.389  24.407  24.984  1.00  0.00     0.087 C 
ATOM     10  C   UNL A   1      32.871  28.975  25.268  1.00  0.00     0.119 A 
ATOM     11  C   UNL A   1      32.466  28.914  23.933  1.00  0.00     0.050 A 
ATOM     12  C   UNL A   1      33.509  27.873  25.850  1.00  0.00     0.058 A 
ATOM     13  C   UNL A   1      32.662  27.743  23.195  1.00  0.00     0.051 A 
ATOM     14  C   UNL A   1      33.707  26.701  25.116  1.00  0.00     0.021 A 
ATOM     15  C   UNL A   1      33.258  26.638  23.792  1.00  0.00     0.128 A 
ATOM     16  C   UNL A   1      34.442  25.565  25.664  1.00  0.00     0.027 C 
ATOM     17  O   UNL A   1      33.439  25.527  23.012  1.00  0.00    -0.475 OA
ATOM     18  C   UNL A   1      33.514  24.276  23.755  1.00  0.00     0.316 C 
BRANCH  10  19
ATOM     19  O   UNL A   1      32.744  30.068  26.082  1.00  0.00    -0.497 OA
ATOM     20  C   UNL A   1      31.573  30.855  25.882  1.00  0.00     0.278 C 
ENDBRANCH  10  19
BRANCH  18  21
ATOM     21  C   UNL A   1      33.818  23.138  22.769  1.00  0.00     0.430 C 
ATOM     22  F   UNL A   1      33.232  21.986  23.169  1.00  0.00    -0.167 F 
ATOM     23  F   UNL A   1      33.295  23.425  21.550  1.00  0.00    -0.167 F 
ATOM     24  F   UNL A   1      35.139  22.929  22.604  1.00  0.00    -0.167 F 
ENDBRANCH  18  21
ENDBRANCH   7   9
ENDBRANCH   6   7
ENDBRANCH   5   6
ENDBRANCH   4   5
ENDBRANCH   3   4
ENDBRANCH   2   3
ENDBRANCH   1   2
BRANCH   1  25
ATOM     25  O   UNL A   1      42.088  19.397  27.179  1.00  0.00    -0.376 OA
BRANCH  25  26
ATOM     26  C   UNL A   1      42.302  19.259  25.783  1.00  0.00     0.202 C 
BRANCH  26  27
ATOM     27  C   UNL A   1      43.606  18.601  25.322  1.00  0.00     0.261 C 
BRANCH  27  28
ATOM     28  O   UNL A   1      44.153  19.157  24.117  1.00  0.00    -0.460 OA
BRANCH  28  29
ATOM     29  C   UNL A   1      45.347  19.783  24.261  1.00  0.00     0.338 C 
ATOM     30  O   UNL A   1      46.437  19.383  23.887  1.00  0.00    -0.246 OA
BRANCH  29  31
ATOM     31  C   UNL A   1      45.145  21.140  24.808  1.00  0.00     0.060 A 
ATOM     32  C   UNL A   1      44.784  22.157  23.915  1.00  0.00     0.016 A 
ATOM     33  C   UNL A   1      45.380  21.429  26.154  1.00  0.00     0.016 A 
ATOM     34  C   UNL A   1      44.690  23.477  24.358  1.00  0.00     0.010 A 
ATOM     35  C   UNL A   1      45.309  22.757  26.590  1.00  0.00     0.010 A 
ATOM     36  C   UNL A   1      44.994  23.789  25.689  1.00  0.00    -0.014 A 
BRANCH  36  37
ATOM     37  C   UNL A   1      45.150  25.208  26.093  1.00  0.00     0.031 A 
ATOM     38  C   UNL A   1      46.530  25.811  26.097  1.00  0.00     0.074 A 
ATOM     39  C   UNL A   1      44.087  25.950  26.451  1.00  0.00     0.049 A 
ATOM     40  N   UNL A   1      46.909  27.011  26.453  1.00  0.00    -0.248 NA
ATOM     41  C   UNL A   1      47.629  24.945  25.636  1.00  0.00     0.031 C 
ATOM     42  C   UNL A   1      42.701  25.488  26.475  1.00  0.00     0.029 A 
ATOM     43  N   UNL A   1      44.017  27.249  26.891  1.00  0.00    -0.354 N 
ATOM     44  C   UNL A   1      48.285  27.044  26.267  1.00  0.00     0.074 A 
ATOM     45  C   UNL A   1      48.680  25.738  25.784  1.00  0.00     0.031 C 
ATOM     46  C   UNL A   1      41.920  26.476  26.949  1.00  0.00     0.029 A 
ATOM     47  C   UNL A   1      42.754  27.633  27.275  1.00  0.00     0.049 A 
ATOM     48  H   UNL A   1      44.798  27.848  26.928  1.00  0.00     0.167 HD
ATOM     49  C   UNL A   1      49.143  28.073  26.461  1.00  0.00     0.034 A 
ATOM     50  C   UNL A   1      42.327  28.776  27.845  1.00  0.00     0.034 A 
ATOM     51  C   UNL A   1      48.756  29.371  26.939  1.00  0.00     0.049 A 
ATOM     52  C   UNL A   1      43.312  29.892  28.093  1.00  0.00     0.074 A 
ATOM     53  C   UNL A   1      49.555  30.478  27.168  1.00  0.00     0.029 A 
ATOM     54  N   UNL A   1      47.461  29.738  27.267  1.00  0.00    -0.354 N 
ATOM     55  N   UNL A   1      44.592  29.943  27.813  1.00  0.00    -0.248 NA
ATOM     56  C   UNL A   1      42.787  31.121  28.707  1.00  0.00     0.031 C 
ATOM     57  C   UNL A   1      48.742  31.512  27.642  1.00  0.00     0.029 A 
ATOM     58  C   UNL A   1      47.436  31.054  27.694  1.00  0.00     0.049 A 
ATOM     59  H   UNL A   1      46.674  29.148  27.205  1.00  0.00     0.167 HD
ATOM     60  C   UNL A   1      45.013  31.218  28.178  1.00  0.00     0.074 A 
ATOM     61  C   UNL A   1      43.849  31.915  28.681  1.00  0.00     0.031 C 
ATOM     62  C   UNL A   1      46.256  31.758  28.123  1.00  0.00     0.034 A 
BRANCH  49  63
ATOM     63  C   UNL A   1      50.588  27.851  26.105  1.00  0.00     0.023 A 
ATOM     64  C   UNL A   1      51.503  27.529  27.128  1.00  0.00     0.012 A 
ATOM     65  C   UNL A   1      51.029  27.892  24.769  1.00  0.00     0.148 A 
ATOM     66  C   UNL A   1      52.839  27.271  26.830  1.00  0.00     0.002 A 
ATOM     67  C   UNL A   1      52.356  27.598  24.474  1.00  0.00     0.091 A 
ATOM     68  F   UNL A   1      50.146  28.221  23.815  1.00  0.00    -0.205 F 
ATOM     69  C   UNL A   1      53.263  27.296  25.503  1.00  0.00     0.022 A 
BRANCH  67  70
ATOM     70  S   UNL A   1      52.987  27.540  22.794  1.00  0.00     0.127 S 
ATOM     71  O   UNL A   1      54.261  26.846  22.982  1.00  0.00    -0.237 OA
ATOM     72  O   UNL A   1      51.961  26.756  22.107  1.00  0.00    -0.237 OA
ATOM     73  O   UNL A   1      53.092  28.925  22.355  1.00  0.00    -0.744 OA
ENDBRANCH  67  70
ENDBRANCH  49  63
BRANCH  50  74
ATOM     74  C   UNL A   1      40.890  28.948  28.206  1.00  0.00     0.023 A 
ATOM     75  C   UNL A   1      39.948  29.231  27.197  1.00  0.00     0.012 A 
ATOM     76  C   UNL A   1      40.455  28.851  29.542  1.00  0.00     0.148 A 
ATOM     77  C   UNL A   1      38.609  29.454  27.518  1.00  0.00     0.002 A 
ATOM     78  C   UNL A   1      39.110  29.024  29.847  1.00  0.00     0.091 A 
ATOM     79  F   UNL A   1      41.367  28.609  30.495  1.00  0.00    -0.205 F 
ATOM     80  C   UNL A   1      38.187  29.341  28.839  1.00  0.00     0.022 A 
BRANCH  78  81
ATOM     81  S   UNL A   1      38.478  28.781  31.512  1.00  0.00     0.127 S 
ATOM     82  O   UNL A   1      37.041  28.956  31.316  1.00  0.00    -0.237 OA
ATOM     83  O   UNL A   1      38.896  27.410  31.806  1.00  0.00    -0.237 OA
ATOM     84  O   UNL A   1      39.143  29.792  32.323  1.00  0.00    -0.744 OA
ENDBRANCH  78  81
ENDBRANCH  50  74
BRANCH  62  85
ATOM     85  C   UNL A   1      46.425  33.184  28.577  1.00  0.00     0.023 A 
ATOM     86  C   UNL A   1      46.858  33.451  29.890  1.00  0.00     0.012 A 
ATOM     87  C   UNL A   1      46.239  34.254  27.678  1.00  0.00     0.148 A 
ATOM     88  C   UNL A   1      47.076  34.762  30.311  1.00  0.00     0.002 A 
ATOM     89  C   UNL A   1      46.502  35.555  28.092  1.00  0.00     0.091 A 
ATOM     90  F   UNL A   1      45.810  33.981  26.437  1.00  0.00    -0.205 F 
ATOM     91  C   UNL A   1      46.910  35.812  29.410  1.00  0.00     0.022 A 
BRANCH  89  92
ATOM     92  S   UNL A   1      46.402  36.958  26.973  1.00  0.00     0.127 S 
ATOM     93  O   UNL A   1      44.958  37.082  26.778  1.00  0.00    -0.237 OA
ATOM     94  O   UNL A   1      47.005  38.032  27.763  1.00  0.00    -0.237 OA
ATOM     95  O   UNL A   1      47.165  36.580  25.791  1.00  0.00    -0.744 OA
ENDBRANCH  89  92
ENDBRANCH  62  85
ENDBRANCH  36  37
ENDBRANCH  29  31
ENDBRANCH  28  29
ENDBRANCH  27  28
ENDBRANCH  26  27
ENDBRANCH  25  26
ENDBRANCH   1  25
TORSDOF 22
ENDMDL
MODEL 2
REMARK VINA RESULT:      -9.9      6.163     11.806
REMARK SMILES COc1ccc2c(c1)C=C(C(=O)OCCOCCOCCOC(=O)c1ccc(-c3c4nc(c(-c5cccc(S(=O)(=O)[O-])c5F)c5ccc([nH]5)c(-c5cccc(S(=O)(=O)[O-])c5F)c5nc(c(-c6cccc(S(=O)(=O)[O-])c6F)c6ccc3[nH]6)C=C5)C=C4)cc1)[C@H](C(F)(F)F)O2
REMARK SMILES IDX 18 1 17 2 16 3 15 4 14 5 13 6 11 7 12 8 10 9 3 10 4 11 8 12
REMARK SMILES IDX 5 13 7 14 6 15 9 16 93 17 88 18 2 19 1 20 89 21 90 22 91 23
REMARK SMILES IDX 92 24 19 25 20 26 21 27 22 28 23 29 24 30 25 31 26 32 87 33
REMARK SMILES IDX 27 34 86 35 28 36 29 37 30 38 80 39 31 40 85 41 79 42 81 43
REMARK SMILES IDX 32 44 84 45 78 46 77 47 33 49 65 50 45 51 64 52 46 53 49 54
REMARK SMILES IDX 63 55 82 56 47 57 48 58 62 60 83 61 50 62 34 63 35 64 43 65
REMARK SMILES IDX 36 66 38 67 44 68 37 69 39 70 40 71 41 72 42 73 66 74 67 75
REMARK SMILES IDX 75 76 68 77 70 78 76 79 69 80 71 81 72 82 73 83 74 84 51 85
REMARK SMILES IDX 52 86 60 87 53 88 55 89 61 90 54 91 56 92 57 93 58 94 59 95
REMARK H PARENT 81 48 49 59
REMARK Flexibility Score: inf
ROOT
ATOM      1  C   UNL A   1      33.143  29.637  27.262  1.00  0.00     0.188 C 
ENDROOT
BRANCH   1   2
ATOM      2  C   UNL A   1      33.106  28.425  26.311  1.00  0.00     0.188 C 
BRANCH   2   3
ATOM      3  O   UNL A   1      33.497  28.732  24.978  1.00  0.00    -0.376 OA
BRANCH   3   4
ATOM      4  C   UNL A   1      32.434  28.916  24.053  1.00  0.00     0.202 C 
BRANCH   4   5
ATOM      5  C   UNL A   1      32.616  28.071  22.792  1.00  0.00     0.261 C 
BRANCH   5   6
ATOM      6  O   UNL A   1      33.571  27.007  22.952  1.00  0.00    -0.460 OA
BRANCH   6   7
ATOM      7  C   UNL A   1      33.478  25.970  22.089  1.00  0.00     0.338 C 
ATOM      8  O   UNL A   1      33.356  26.055  20.881  1.00  0.00    -0.246 OA
BRANCH   7   9
ATOM      9  C   UNL A   1      33.623  24.701  22.828  1.00  0.00     0.087 C 
ATOM     10  C   UNL A   1      36.255  21.137  24.730  1.00  0.00     0.119 A 
ATOM     11  C   UNL A   1      35.150  20.734  25.481  1.00  0.00     0.050 A 
ATOM     12  C   UNL A   1      36.163  22.273  23.916  1.00  0.00     0.058 A 
ATOM     13  C   UNL A   1      33.946  21.439  25.391  1.00  0.00     0.051 A 
ATOM     14  C   UNL A   1      34.962  22.980  23.822  1.00  0.00     0.021 A 
ATOM     15  C   UNL A   1      33.850  22.540  24.547  1.00  0.00     0.128 A 
ATOM     16  C   UNL A   1      34.856  24.215  23.050  1.00  0.00     0.027 C 
ATOM     17  O   UNL A   1      32.650  23.201  24.516  1.00  0.00    -0.475 OA
ATOM     18  C   UNL A   1      32.399  23.932  23.281  1.00  0.00     0.316 C 
BRANCH  10  19
ATOM     19  O   UNL A   1      37.484  20.535  24.749  1.00  0.00    -0.497 OA
ATOM     20  C   UNL A   1      38.425  21.076  25.671  1.00  0.00     0.278 C 
ENDBRANCH  10  19
BRANCH  18  21
ATOM     21  C   UNL A   1      31.076  24.700  23.427  1.00  0.00     0.430 C 
ATOM     22  F   UNL A   1      30.080  23.871  23.818  1.00  0.00    -0.167 F 
ATOM     23  F   UNL A   1      31.188  25.640  24.398  1.00  0.00    -0.167 F 
ATOM     24  F   UNL A   1      30.709  25.329  22.294  1.00  0.00    -0.167 F 
ENDBRANCH  18  21
ENDBRANCH   7   9
ENDBRANCH   6   7
ENDBRANCH   5   6
ENDBRANCH   4   5
ENDBRANCH   3   4
ENDBRANCH   2   3
ENDBRANCH   1   2
BRANCH   1  25
ATOM     25  O   UNL A   1      32.116  30.622  27.226  1.00  0.00    -0.376 OA
BRANCH  25  26
ATOM     26  C   UNL A   1      32.347  31.842  26.538  1.00  0.00     0.202 C 
BRANCH  26  27
ATOM     27  C   UNL A   1      31.895  33.139  27.215  1.00  0.00     0.261 C 
BRANCH  27  28
ATOM     28  O   UNL A   1      32.580  33.434  28.442  1.00  0.00    -0.460 OA
BRANCH  28  29
ATOM     29  C   UNL A   1      33.716  34.162  28.306  1.00  0.00     0.338 C 
ATOM     30  O   UNL A   1      33.801  35.361  28.099  1.00  0.00    -0.246 OA
BRANCH  29  31
ATOM     31  C   UNL A   1      34.894  33.324  28.611  1.00  0.00     0.060 A 
ATOM     32  C   UNL A   1      34.681  32.121  29.296  1.00  0.00     0.016 A 
ATOM     33  C   UNL A   1      36.190  33.742  28.303  1.00  0.00     0.016 A 
ATOM     34  C   UNL A   1      35.766  31.347  29.707  1.00  0.00     0.010 A 
ATOM     35  C   UNL A   1      37.278  32.977  28.737  1.00  0.00     0.010 A 
ATOM     36  C   UNL A   1      37.072  31.793  29.467  1.00  0.00    -0.014 A 
BRANCH  36  37
ATOM     37  C   UNL A   1      38.213  31.113  30.127  1.00  0.00     0.031 A 
ATOM     38  C   UNL A   1      38.570  31.504  31.536  1.00  0.00     0.074 A 
ATOM     39  C   UNL A   1      38.921  30.165  29.488  1.00  0.00     0.049 A 
ATOM     40  N   UNL A   1      39.550  31.078  32.292  1.00  0.00    -0.248 NA
ATOM     41  C   UNL A   1      37.707  32.508  32.181  1.00  0.00     0.031 C 
ATOM     42  C   UNL A   1      38.667  29.689  28.130  1.00  0.00     0.029 A 
ATOM     43  N   UNL A   1      40.022  29.453  29.894  1.00  0.00    -0.354 N 
ATOM     44  C   UNL A   1      39.427  31.764  33.493  1.00  0.00     0.074 A 
ATOM     45  C   UNL A   1      38.289  32.649  33.363  1.00  0.00     0.031 C 
ATOM     46  C   UNL A   1      39.613  28.791  27.799  1.00  0.00     0.029 A 
ATOM     47  C   UNL A   1      40.546  28.642  28.915  1.00  0.00     0.049 A 
ATOM     48  H   UNL A   1      40.400  29.516  30.802  1.00  0.00     0.167 HD
ATOM     49  C   UNL A   1      40.179  31.654  34.614  1.00  0.00     0.034 A 
ATOM     50  C   UNL A   1      41.663  27.888  28.913  1.00  0.00     0.034 A 
ATOM     51  C   UNL A   1      41.309  30.777  34.748  1.00  0.00     0.049 A 
ATOM     52  C   UNL A   1      42.510  27.819  30.160  1.00  0.00     0.074 A 
ATOM     53  C   UNL A   1      42.133  30.597  35.845  1.00  0.00     0.029 A 
ATOM     54  N   UNL A   1      41.777  29.934  33.753  1.00  0.00    -0.354 N 
ATOM     55  N   UNL A   1      42.319  28.393  31.324  1.00  0.00    -0.248 NA
ATOM     56  C   UNL A   1      43.710  26.970  30.104  1.00  0.00     0.031 C 
ATOM     57  C   UNL A   1      43.106  29.650  35.509  1.00  0.00     0.029 A 
ATOM     58  C   UNL A   1      42.877  29.229  34.209  1.00  0.00     0.049 A 
ATOM     59  H   UNL A   1      41.384  29.849  32.853  1.00  0.00     0.167 HD
ATOM     60  C   UNL A   1      43.349  27.945  32.145  1.00  0.00     0.074 A 
ATOM     61  C   UNL A   1      44.150  27.036  31.354  1.00  0.00     0.031 C 
ATOM     62  C   UNL A   1      43.621  28.272  33.433  1.00  0.00     0.034 A 
BRANCH  49  63
ATOM     63  C   UNL A   1      39.772  32.473  35.808  1.00  0.00     0.023 A 
ATOM     64  C   UNL A   1      40.300  33.771  35.961  1.00  0.00     0.012 A 
ATOM     65  C   UNL A   1      38.827  31.996  36.736  1.00  0.00     0.148 A 
ATOM     66  C   UNL A   1      39.910  34.575  37.029  1.00  0.00     0.002 A 
ATOM     67  C   UNL A   1      38.415  32.817  37.780  1.00  0.00     0.091 A 
ATOM     68  F   UNL A   1      38.354  30.751  36.584  1.00  0.00    -0.205 F 
ATOM     69  C   UNL A   1      38.961  34.102  37.933  1.00  0.00     0.022 A 
BRANCH  67  70
ATOM     70  S   UNL A   1      37.152  32.328  38.960  1.00  0.00     0.127 S 
ATOM     71  O   UNL A   1      37.387  30.889  39.065  1.00  0.00    -0.237 OA
ATOM     72  O   UNL A   1      37.528  33.095  40.148  1.00  0.00    -0.237 OA
ATOM     73  O   UNL A   1      35.878  32.709  38.367  1.00  0.00    -0.744 OA
ENDBRANCH  67  70
ENDBRANCH  49  63
BRANCH  50  74
ATOM     74  C   UNL A   1      42.045  27.111  27.699  1.00  0.00     0.023 A 
ATOM     75  C   UNL A   1      42.604  27.779  26.593  1.00  0.00     0.012 A 
ATOM     76  C   UNL A   1      41.840  25.719  27.629  1.00  0.00     0.148 A 
ATOM     77  C   UNL A   1      42.914  27.082  25.424  1.00  0.00     0.002 A 
ATOM     78  C   UNL A   1      42.199  25.024  26.480  1.00  0.00     0.091 A 
ATOM     79  F   UNL A   1      41.281  25.102  28.680  1.00  0.00    -0.205 F 
ATOM     80  C   UNL A   1      42.722  25.704  25.370  1.00  0.00     0.022 A 
BRANCH  78  81
ATOM     81  S   UNL A   1      42.084  23.233  26.383  1.00  0.00     0.127 S 
ATOM     82  O   UNL A   1      42.939  22.817  27.492  1.00  0.00    -0.237 OA
ATOM     83  O   UNL A   1      40.654  23.001  26.588  1.00  0.00    -0.237 OA
ATOM     84  O   UNL A   1      42.556  22.893  25.047  1.00  0.00    -0.744 OA
ENDBRANCH  78  81
ENDBRANCH  50  74
BRANCH  62  85
ATOM     85  C   UNL A   1      44.808  27.618  34.090  1.00  0.00     0.023 A 
ATOM     86  C   UNL A   1      46.062  28.258  34.060  1.00  0.00     0.012 A 
ATOM     87  C   UNL A   1      44.661  26.414  34.809  1.00  0.00     0.148 A 
ATOM     88  C   UNL A   1      47.159  27.697  34.713  1.00  0.00     0.002 A 
ATOM     89  C   UNL A   1      45.749  25.884  35.494  1.00  0.00     0.091 A 
ATOM     90  F   UNL A   1      43.464  25.811  34.811  1.00  0.00    -0.205 F 
ATOM     91  C   UNL A   1      47.000  26.518  35.438  1.00  0.00     0.022 A 
BRANCH  89  92
ATOM     92  S   UNL A   1      45.612  24.420  36.527  1.00  0.00     0.127 S 
ATOM     93  O   UNL A   1      46.989  24.251  36.989  1.00  0.00    -0.237 OA
ATOM     94  O   UNL A   1      44.672  24.854  37.561  1.00  0.00    -0.237 OA
ATOM     95  O   UNL A   1      45.106  23.365  35.659  1.00  0.00    -0.744 OA
ENDBRANCH  89  92
ENDBRANCH  62  85
ENDBRANCH  36  37
ENDBRANCH  29  31
ENDBRANCH  28  29
ENDBRANCH  27  28
ENDBRANCH  26  27
ENDBRANCH  25  26
ENDBRANCH   1  25
TORSDOF 22
ENDMDL
MODEL 3
REMARK VINA RESULT:      -9.8      6.857     12.991
REMARK SMILES COc1ccc2c(c1)C=C(C(=O)OCCOCCOCCOC(=O)c1ccc(-c3c4nc(c(-c5cccc(S(=O)(=O)[O-])c5F)c5ccc([nH]5)c(-c5cccc(S(=O)(=O)[O-])c5F)c5nc(c(-c6cccc(S(=O)(=O)[O-])c6F)c6ccc3[nH]6)C=C5)C=C4)cc1)[C@H](C(F)(F)F)O2
REMARK SMILES IDX 18 1 17 2 16 3 15 4 14 5 13 6 11 7 12 8 10 9 3 10 4 11 8 12
REMARK SMILES IDX 5 13 7 14 6 15 9 16 93 17 88 18 2 19 1 20 89 21 90 22 91 23
REMARK SMILES IDX 92 24 19 25 20 26 21 27 22 28 23 29 24 30 25 31 26 32 87 33
REMARK SMILES IDX 27 34 86 35 28 36 29 37 30 38 80 39 31 40 85 41 79 42 81 43
REMARK SMILES IDX 32 44 84 45 78 46 77 47 33 49 65 50 45 51 64 52 46 53 49 54
REMARK SMILES IDX 63 55 82 56 47 57 48 58 62 60 83 61 50 62 34 63 35 64 43 65
REMARK SMILES IDX 36 66 38 67 44 68 37 69 39 70 40 71 41 72 42 73 66 74 67 75
REMARK SMILES IDX 75 76 68 77 70 78 76 79 69 80 71 81 72 82 73 83 74 84 51 85
REMARK SMILES IDX 52 86 60 87 53 88 55 89 61 90 54 91 56 92 57 93 58 94 59 95
REMARK H PARENT 81 48 49 59
REMARK Flexibility Score: inf
ROOT
ATOM      1  C   UNL A   1      35.127  33.101  28.331  1.00  0.00     0.188 C 
ENDROOT
BRANCH   1   2
ATOM      2  C   UNL A   1      34.145  31.948  28.041  1.00  0.00     0.188 C 
BRANCH   2   3
ATOM      3  O   UNL A   1      34.721  30.881  27.298  1.00  0.00    -0.376 OA
BRANCH   3   4
ATOM      4  C   UNL A   1      33.956  29.684  27.250  1.00  0.00     0.202 C 
BRANCH   4   5
ATOM      5  C   UNL A   1      32.492  29.950  26.900  1.00  0.00     0.261 C 
BRANCH   5   6
ATOM      6  O   UNL A   1      31.905  28.920  26.085  1.00  0.00    -0.460 OA
BRANCH   6   7
ATOM      7  C   UNL A   1      31.734  27.709  26.663  1.00  0.00     0.338 C 
ATOM      8  O   UNL A   1      31.142  27.492  27.704  1.00  0.00    -0.246 OA
BRANCH   7   9
ATOM      9  C   UNL A   1      32.313  26.666  25.796  1.00  0.00     0.087 C 
ATOM     10  C   UNL A   1      35.826  23.606  24.552  1.00  0.00     0.119 A 
ATOM     11  C   UNL A   1      34.931  22.931  23.719  1.00  0.00     0.050 A 
ATOM     12  C   UNL A   1      35.376  24.680  25.327  1.00  0.00     0.058 A 
ATOM     13  C   UNL A   1      33.601  23.353  23.631  1.00  0.00     0.051 A 
ATOM     14  C   UNL A   1      34.048  25.106  25.243  1.00  0.00     0.021 A 
ATOM     15  C   UNL A   1      33.172  24.449  24.373  1.00  0.00     0.128 A 
ATOM     16  C   UNL A   1      33.525  26.168  26.098  1.00  0.00     0.027 C 
ATOM     17  O   UNL A   1      31.853  24.803  24.259  1.00  0.00    -0.475 OA
ATOM     18  C   UNL A   1      31.579  26.203  24.555  1.00  0.00     0.316 C 
BRANCH  10  19
ATOM     19  O   UNL A   1      37.142  23.274  24.727  1.00  0.00    -0.497 OA
ATOM     20  C   UNL A   1      37.746  23.753  25.925  1.00  0.00     0.278 C 
ENDBRANCH  10  19
BRANCH  18  21
ATOM     21  C   UNL A   1      30.061  26.429  24.488  1.00  0.00     0.430 C 
ATOM     22  F   UNL A   1      29.507  25.683  23.504  1.00  0.00    -0.167 F 
ATOM     23  F   UNL A   1      29.478  26.024  25.644  1.00  0.00    -0.167 F 
ATOM     24  F   UNL A   1      29.733  27.722  24.300  1.00  0.00    -0.167 F 
ENDBRANCH  18  21
ENDBRANCH   7   9
ENDBRANCH   6   7
ENDBRANCH   5   6
ENDBRANCH   4   5
ENDBRANCH   3   4
ENDBRANCH   2   3
ENDBRANCH   1   2
BRANCH   1  25
ATOM     25  O   UNL A   1      34.649  34.412  28.610  1.00  0.00    -0.376 OA
BRANCH  25  26
ATOM     26  C   UNL A   1      33.263  34.613  28.840  1.00  0.00     0.202 C 
BRANCH  26  27
ATOM     27  C   UNL A   1      32.824  35.961  29.418  1.00  0.00     0.261 C 
BRANCH  27  28
ATOM     28  O   UNL A   1      33.428  36.288  30.678  1.00  0.00    -0.460 OA
BRANCH  28  29
ATOM     29  C   UNL A   1      32.987  35.560  31.735  1.00  0.00     0.338 C 
ATOM     30  O   UNL A   1      31.829  35.335  32.040  1.00  0.00    -0.246 OA
BRANCH  29  31
ATOM     31  C   UNL A   1      34.127  34.910  32.413  1.00  0.00     0.060 A 
ATOM     32  C   UNL A   1      35.411  35.413  32.162  1.00  0.00     0.016 A 
ATOM     33  C   UNL A   1      33.954  33.782  33.217  1.00  0.00     0.016 A 
ATOM     34  C   UNL A   1      36.530  34.769  32.687  1.00  0.00     0.010 A 
ATOM     35  C   UNL A   1      35.080  33.123  33.723  1.00  0.00     0.010 A 
ATOM     36  C   UNL A   1      36.373  33.594  33.435  1.00  0.00    -0.014 A 
BRANCH  36  37
ATOM     37  C   UNL A   1      37.560  32.770  33.768  1.00  0.00     0.031 A 
ATOM     38  C   UNL A   1      38.377  33.135  34.978  1.00  0.00     0.074 A 
ATOM     39  C   UNL A   1      37.909  31.715  33.010  1.00  0.00     0.049 A 
ATOM     40  N   UNL A   1      39.474  32.587  35.434  1.00  0.00    -0.248 NA
ATOM     41  C   UNL A   1      37.892  34.268  35.785  1.00  0.00     0.031 C 
ATOM     42  C   UNL A   1      37.193  31.252  31.822  1.00  0.00     0.029 A 
ATOM     43  N   UNL A   1      38.977  30.859  33.115  1.00  0.00    -0.354 N 
ATOM     44  C   UNL A   1      39.814  33.310  36.571  1.00  0.00     0.074 A 
ATOM     45  C   UNL A   1      38.818  34.348  36.728  1.00  0.00     0.031 C 
ATOM     46  C   UNL A   1      37.866  30.219  31.284  1.00  0.00     0.029 A 
ATOM     47  C   UNL A   1      39.066  29.960  32.078  1.00  0.00     0.049 A 
ATOM     48  H   UNL A   1      39.617  30.886  33.863  1.00  0.00     0.167 HD
ATOM     49  C   UNL A   1      40.850  33.115  37.421  1.00  0.00     0.034 A 
ATOM     50  C   UNL A   1      40.020  29.051  31.793  1.00  0.00     0.034 A 
ATOM     51  C   UNL A   1      41.840  32.086  37.270  1.00  0.00     0.049 A 
ATOM     52  C   UNL A   1      41.188  28.886  32.733  1.00  0.00     0.074 A 
ATOM     53  C   UNL A   1      42.927  31.811  38.080  1.00  0.00     0.029 A 
ATOM     54  N   UNL A   1      41.868  31.163  36.237  1.00  0.00    -0.354 N 
ATOM     55  N   UNL A   1      41.438  29.507  33.862  1.00  0.00    -0.248 NA
ATOM     56  C   UNL A   1      42.192  27.871  32.378  1.00  0.00     0.031 C 
ATOM     57  C   UNL A   1      43.618  30.725  37.532  1.00  0.00     0.029 A 
ATOM     58  C   UNL A   1      42.951  30.315  36.390  1.00  0.00     0.049 A 
ATOM     59  H   UNL A   1      41.212  31.116  35.503  1.00  0.00     0.167 HD
ATOM     60  C   UNL A   1      42.599  28.931  34.366  1.00  0.00     0.074 A 
ATOM     61  C   UNL A   1      42.995  27.899  33.433  1.00  0.00     0.031 C 
ATOM     62  C   UNL A   1      43.291  29.243  35.490  1.00  0.00     0.034 A 
BRANCH  49  63
ATOM     63  C   UNL A   1      40.937  34.011  38.627  1.00  0.00     0.023 A 
ATOM     64  C   UNL A   1      41.825  35.104  38.605  1.00  0.00     0.012 A 
ATOM     65  C   UNL A   1      40.104  33.816  39.746  1.00  0.00     0.148 A 
ATOM     66  C   UNL A   1      41.899  35.981  39.685  1.00  0.00     0.002 A 
ATOM     67  C   UNL A   1      40.157  34.716  40.805  1.00  0.00     0.091 A 
ATOM     68  F   UNL A   1      39.282  32.757  39.754  1.00  0.00    -0.205 F 
ATOM     69  C   UNL A   1      41.058  35.792  40.780  1.00  0.00     0.022 A 
BRANCH  67  70
ATOM     70  S   UNL A   1      39.073  34.599  42.232  1.00  0.00     0.127 S 
ATOM     71  O   UNL A   1      39.973  34.985  43.318  1.00  0.00    -0.237 OA
ATOM     72  O   UNL A   1      38.041  35.588  41.916  1.00  0.00    -0.237 OA
ATOM     73  O   UNL A   1      38.604  33.221  42.271  1.00  0.00    -0.744 OA
ENDBRANCH  67  70
ENDBRANCH  49  63
BRANCH  50  74
ATOM     74  C   UNL A   1      39.909  28.200  30.573  1.00  0.00     0.023 A 
ATOM     75  C   UNL A   1      39.050  27.085  30.579  1.00  0.00     0.012 A 
ATOM     76  C   UNL A   1      40.663  28.479  29.417  1.00  0.00     0.148 A 
ATOM     77  C   UNL A   1      38.974  26.240  29.472  1.00  0.00     0.002 A 
ATOM     78  C   UNL A   1      40.544  27.662  28.299  1.00  0.00     0.091 A 
ATOM     79  F   UNL A   1      41.498  29.528  29.437  1.00  0.00    -0.205 F 
ATOM     80  C   UNL A   1      39.712  26.532  28.328  1.00  0.00     0.022 A 
BRANCH  78  81
ATOM     81  S   UNL A   1      41.379  28.044  26.754  1.00  0.00     0.127 S 
ATOM     82  O   UNL A   1      42.749  28.275  27.203  1.00  0.00    -0.237 OA
ATOM     83  O   UNL A   1      41.184  26.816  25.983  1.00  0.00    -0.237 OA
ATOM     84  O   UNL A   1      40.676  29.201  26.218  1.00  0.00    -0.744 OA
ENDBRANCH  78  81
ENDBRANCH  50  74
BRANCH  62  85
ATOM     85  C   UNL A   1      44.523  28.437  35.806  1.00  0.00     0.023 A 
ATOM     86  C   UNL A   1      45.776  28.863  35.324  1.00  0.00     0.012 A 
ATOM     87  C   UNL A   1      44.452  27.310  36.649  1.00  0.00     0.148 A 
ATOM     88  C   UNL A   1      46.937  28.163  35.653  1.00  0.00     0.002 A 
ATOM     89  C   UNL A   1      45.618  26.643  37.008  1.00  0.00     0.091 A 
ATOM     90  F   UNL A   1      43.248  26.910  37.083  1.00  0.00    -0.205 F 
ATOM     91  C   UNL A   1      46.859  27.062  36.504  1.00  0.00     0.022 A 
BRANCH  89  92
ATOM     92  S   UNL A   1      45.621  25.273  38.171  1.00  0.00     0.127 S 
ATOM     93  O   UNL A   1      44.240  24.803  38.082  1.00  0.00    -0.237 OA
ATOM     94  O   UNL A   1      46.612  24.369  37.585  1.00  0.00    -0.237 OA
ATOM     95  O   UNL A   1      46.011  25.840  39.455  1.00  0.00    -0.744 OA
ENDBRANCH  89  92
ENDBRANCH  62  85
ENDBRANCH  36  37
ENDBRANCH  29  31
ENDBRANCH  28  29
ENDBRANCH  27  28
ENDBRANCH  26  27
ENDBRANCH  25  26
ENDBRANCH   1  25
TORSDOF 22
ENDMDL
