MODEL 1
REMARK VINA RESULT:      -8.6      0.000      0.000
REMARK SMILES CC[NH+]1CCN(c2ccc(NS(=O)(=O)c3cccc(F)c3)cc2C(=O)OCCOCCOCCOC(=O)c2ccc(-c3c4nc(c(-c5cccc(S(=O)(=O)[O-])c5F)c5ccc([nH]5)c(-c5cccc(S(=O)(=O)[O-])c5F)c5nc(c(-c6cccc(S(=O)(=O)[O-])c6F)c6ccc3[nH]6)C=C5)C=C4)cc2)CC1
REMARK SMILES IDX 30 1 29 2 28 3 27 4 26 5 24 6 25 7 23 8 7 9 8 10 9 11 22 12
REMARK SMILES IDX 10 13 6 14 3 15 4 16 102 17 5 19 101 20 2 21 1 22 11 23
REMARK SMILES IDX 12 25 13 26 14 27 15 28 16 29 21 30 17 31 19 32 18 33 20 34
REMARK SMILES IDX 31 35 32 36 33 37 34 38 35 39 36 40 37 41 38 42 39 43 100 44
REMARK SMILES IDX 40 45 99 46 41 47 42 48 43 49 93 50 44 51 98 52 92 53 94 54
REMARK SMILES IDX 45 55 97 56 91 57 90 58 46 60 78 61 58 62 77 63 59 64 62 65
REMARK SMILES IDX 76 66 95 67 60 68 61 69 75 71 96 72 63 73 47 74 48 75 56 76
REMARK SMILES IDX 49 77 51 78 57 79 50 80 52 81 53 82 54 83 55 84 79 85 80 86
REMARK SMILES IDX 88 87 81 88 83 89 89 90 82 91 84 92 85 93 86 94 87 95 64 96
REMARK SMILES IDX 65 97 73 98 66 99 68 100 74 101 67 102 69 103 70 104 71 105
REMARK SMILES IDX 72 106
REMARK H PARENT 3 18 11 24 94 59 62 70
REMARK Flexibility Score: inf
ROOT
ATOM      1  C   UNL A   1      37.958  31.945  29.250  1.00  0.00     0.188 C 
ENDROOT
BRANCH   1   2
ATOM      2  O   UNL A   1      37.079  31.060  28.554  1.00  0.00    -0.376 OA
BRANCH   2   3
ATOM      3  C   UNL A   1      37.620  29.832  28.061  1.00  0.00     0.202 C 
BRANCH   3   4
ATOM      4  C   UNL A   1      36.623  28.884  27.390  1.00  0.00     0.261 C 
BRANCH   4   5
ATOM      5  O   UNL A   1      35.419  29.607  27.084  1.00  0.00    -0.460 OA
BRANCH   5   6
ATOM      6  C   UNL A   1      34.365  28.877  26.649  1.00  0.00     0.340 C 
ATOM      7  O   UNL A   1      34.326  27.675  26.518  1.00  0.00    -0.246 OA
BRANCH   6   8
ATOM      8  C   UNL A   1      33.183  29.773  26.527  1.00  0.00     0.085 A 
ATOM      9  C   UNL A   1      32.064  29.557  25.675  1.00  0.00     0.052 A 
ATOM     10  C   UNL A   1      31.137  30.623  25.640  1.00  0.00     0.029 A 
ATOM     11  C   UNL A   1      31.336  31.838  26.298  1.00  0.00     0.029 A 
ATOM     12  C   UNL A   1      33.341  30.978  27.267  1.00  0.00     0.044 A 
ATOM     13  C   UNL A   1      32.430  32.016  27.126  1.00  0.00     0.050 A 
BRANCH   9  14
ATOM     14  N   UNL A   1      31.830  28.454  24.861  1.00  0.00    -0.360 N 
ATOM     15  N   UNL A   1      30.512  26.569  22.960  1.00  0.00    -0.332 N 
ATOM     16  C   UNL A   1      30.091  26.689  24.373  1.00  0.00     0.283 C 
ATOM     17  C   UNL A   1      31.136  27.855  22.568  1.00  0.00     0.283 C 
ATOM     18  H   UNL A   1      29.713  26.405  22.347  1.00  0.00     0.348 HD
ATOM     19  C   UNL A   1      31.147  27.238  25.370  1.00  0.00     0.178 C 
ATOM     20  C   UNL A   1      32.305  28.306  23.477  1.00  0.00     0.178 C 
BRANCH  15  21
ATOM     21  C   UNL A   1      31.368  25.397  22.756  1.00  0.00     0.258 C 
ATOM     22  C   UNL A   1      30.768  24.118  23.328  1.00  0.00     0.071 C 
ENDBRANCH  15  21
ENDBRANCH   9  14
BRANCH  13  23
ATOM     23  N   UNL A   1      32.594  33.277  27.784  1.00  0.00    -0.280 N 
ATOM     24  H   UNL A   1      31.879  33.953  27.757  1.00  0.00     0.180 HD
BRANCH  23  25
ATOM     25  S   UNL A   1      34.052  33.590  28.617  1.00  0.00     0.261 S 
ATOM     26  O   UNL A   1      34.294  32.461  29.489  1.00  0.00    -0.201 OA
ATOM     27  O   UNL A   1      35.025  33.978  27.619  1.00  0.00    -0.201 OA
BRANCH  25  28
ATOM     28  C   UNL A   1      33.752  35.003  29.651  1.00  0.00     0.090 A 
ATOM     29  C   UNL A   1      33.736  34.872  31.045  1.00  0.00     0.022 A 
ATOM     30  C   UNL A   1      33.504  36.240  29.047  1.00  0.00     0.061 A 
ATOM     31  C   UNL A   1      33.521  36.000  31.840  1.00  0.00     0.004 A 
ATOM     32  C   UNL A   1      33.310  37.352  29.852  1.00  0.00     0.124 A 
ATOM     33  C   UNL A   1      33.319  37.246  31.240  1.00  0.00     0.039 A 
ATOM     34  F   UNL A   1      33.122  38.550  29.286  1.00  0.00    -0.207 F 
ENDBRANCH  25  28
ENDBRANCH  23  25
ENDBRANCH  13  23
ENDBRANCH   6   8
ENDBRANCH   5   6
ENDBRANCH   4   5
ENDBRANCH   3   4
ENDBRANCH   2   3
ENDBRANCH   1   2
BRANCH   1  35
ATOM     35  C   UNL A   1      38.000  31.827  30.787  1.00  0.00     0.188 C 
BRANCH  35  36
ATOM     36  O   UNL A   1      37.356  30.671  31.270  1.00  0.00    -0.376 OA
BRANCH  36  37
ATOM     37  C   UNL A   1      37.220  30.448  32.658  1.00  0.00     0.202 C 
BRANCH  37  38
ATOM     38  C   UNL A   1      37.869  29.272  33.406  1.00  0.00     0.261 C 
BRANCH  38  39
ATOM     39  O   UNL A   1      38.771  28.436  32.685  1.00  0.00    -0.460 OA
BRANCH  39  40
ATOM     40  C   UNL A   1      40.029  28.314  33.164  1.00  0.00     0.338 C 
ATOM     41  O   UNL A   1      40.441  27.482  33.952  1.00  0.00    -0.246 OA
BRANCH  40  42
ATOM     42  C   UNL A   1      40.871  29.253  32.391  1.00  0.00     0.060 A 
ATOM     43  C   UNL A   1      40.725  29.311  30.999  1.00  0.00     0.016 A 
ATOM     44  C   UNL A   1      41.763  30.105  33.050  1.00  0.00     0.016 A 
ATOM     45  C   UNL A   1      41.499  30.205  30.257  1.00  0.00     0.010 A 
ATOM     46  C   UNL A   1      42.547  30.984  32.306  1.00  0.00     0.010 A 
ATOM     47  C   UNL A   1      42.440  31.015  30.906  1.00  0.00    -0.014 A 
BRANCH  47  48
ATOM     48  C   UNL A   1      43.470  31.737  30.127  1.00  0.00     0.031 A 
ATOM     49  C   UNL A   1      44.759  31.018  29.838  1.00  0.00     0.074 A 
ATOM     50  C   UNL A   1      43.292  33.012  29.738  1.00  0.00     0.049 A 
ATOM     51  N   UNL A   1      45.842  31.457  29.256  1.00  0.00    -0.248 NA
ATOM     52  C   UNL A   1      44.836  29.612  30.275  1.00  0.00     0.031 C 
ATOM     53  C   UNL A   1      42.088  33.808  29.968  1.00  0.00     0.029 A 
ATOM     54  N   UNL A   1      44.148  33.870  29.094  1.00  0.00    -0.354 N 
ATOM     55  C   UNL A   1      46.735  30.394  29.275  1.00  0.00     0.074 A 
ATOM     56  C   UNL A   1      46.075  29.289  29.934  1.00  0.00     0.031 C 
ATOM     57  C   UNL A   1      42.295  35.052  29.501  1.00  0.00     0.029 A 
ATOM     58  C   UNL A   1      43.650  35.145  28.960  1.00  0.00     0.049 A 
ATOM     59  H   UNL A   1      45.033  33.599  28.760  1.00  0.00     0.167 HD
ATOM     60  C   UNL A   1      47.990  30.335  28.774  1.00  0.00     0.034 A 
ATOM     61  C   UNL A   1      44.237  36.258  28.475  1.00  0.00     0.034 A 
ATOM     62  C   UNL A   1      48.642  31.431  28.118  1.00  0.00     0.049 A 
ATOM     63  C   UNL A   1      45.648  36.173  27.947  1.00  0.00     0.074 A 
ATOM     64  C   UNL A   1      49.906  31.471  27.557  1.00  0.00     0.029 A 
ATOM     65  N   UNL A   1      48.083  32.688  27.941  1.00  0.00    -0.354 N 
ATOM     66  N   UNL A   1      46.439  35.130  27.866  1.00  0.00    -0.248 NA
ATOM     67  C   UNL A   1      46.238  37.412  27.418  1.00  0.00     0.031 C 
ATOM     68  C   UNL A   1      50.114  32.757  27.049  1.00  0.00     0.029 A 
ATOM     69  C   UNL A   1      48.975  33.512  27.280  1.00  0.00     0.049 A 
ATOM     70  H   UNL A   1      47.184  32.953  28.241  1.00  0.00     0.167 HD
ATOM     71  C   UNL A   1      47.598  35.575  27.238  1.00  0.00     0.074 A 
ATOM     72  C   UNL A   1      47.403  36.981  26.952  1.00  0.00     0.031 C 
ATOM     73  C   UNL A   1      48.729  34.888  26.938  1.00  0.00     0.034 A 
BRANCH  60  74
ATOM     74  C   UNL A   1      48.720  29.026  28.890  1.00  0.00     0.023 A 
ATOM     75  C   UNL A   1      49.551  28.797  30.006  1.00  0.00     0.012 A 
ATOM     76  C   UNL A   1      48.562  28.016  27.923  1.00  0.00     0.148 A 
ATOM     77  C   UNL A   1      50.234  27.590  30.146  1.00  0.00     0.002 A 
ATOM     78  C   UNL A   1      49.218  26.801  28.088  1.00  0.00     0.091 A 
ATOM     79  F   UNL A   1      47.794  28.266  26.854  1.00  0.00    -0.205 F 
ATOM     80  C   UNL A   1      50.060  26.590  29.193  1.00  0.00     0.022 A 
BRANCH  78  81
ATOM     81  S   UNL A   1      49.007  25.428  26.950  1.00  0.00     0.127 S 
ATOM     82  O   UNL A   1      49.624  25.956  25.734  1.00  0.00    -0.237 OA
ATOM     83  O   UNL A   1      49.766  24.363  27.605  1.00  0.00    -0.237 OA
ATOM     84  O   UNL A   1      47.572  25.190  26.872  1.00  0.00    -0.744 OA
ENDBRANCH  78  81
ENDBRANCH  60  74
BRANCH  61  85
ATOM     85  C   UNL A   1      43.482  37.542  28.420  1.00  0.00     0.023 A 
ATOM     86  C   UNL A   1      42.616  37.786  27.337  1.00  0.00     0.012 A 
ATOM     87  C   UNL A   1      43.610  38.517  29.428  1.00  0.00     0.148 A 
ATOM     88  C   UNL A   1      41.915  38.989  27.240  1.00  0.00     0.002 A 
ATOM     89  C   UNL A   1      42.871  39.694  29.352  1.00  0.00     0.091 A 
ATOM     90  F   UNL A   1      44.455  38.279  30.441  1.00  0.00    -0.205 F 
ATOM     91  C   UNL A   1      42.036  39.938  28.251  1.00  0.00     0.022 A 
BRANCH  89  92
ATOM     92  S   UNL A   1      42.879  40.918  30.667  1.00  0.00     0.127 S 
ATOM     93  O   UNL A   1      42.629  40.095  31.845  1.00  0.00    -0.237 OA
ATOM     94  O   UNL A   1      44.234  41.462  30.570  1.00  0.00    -0.237 OA
ATOM     95  O   UNL A   1      41.829  41.867  30.318  1.00  0.00    -0.744 OA
ENDBRANCH  89  92
ENDBRANCH  61  85
BRANCH  73  96
ATOM     96  C   UNL A   1      49.830  35.621  26.220  1.00  0.00     0.023 A 
ATOM     97  C   UNL A   1      49.920  35.545  24.816  1.00  0.00     0.012 A 
ATOM     98  C   UNL A   1      50.703  36.473  26.926  1.00  0.00     0.148 A 
ATOM     99  C   UNL A   1      50.877  36.289  24.129  1.00  0.00     0.002 A 
ATOM    100  C   UNL A   1      51.625  37.245  26.231  1.00  0.00     0.091 A 
ATOM    101  F   UNL A   1      50.611  36.516  28.264  1.00  0.00    -0.205 F 
ATOM    102  C   UNL A   1      51.719  37.149  24.833  1.00  0.00     0.022 A 
BRANCH 100 103
ATOM    103  S   UNL A   1      52.678  38.449  27.046  1.00  0.00     0.127 S 
ATOM    104  O   UNL A   1      53.489  37.597  27.914  1.00  0.00    -0.237 OA
ATOM    105  O   UNL A   1      53.405  39.042  25.923  1.00  0.00    -0.237 OA
ATOM    106  O   UNL A   1      51.779  39.368  27.734  1.00  0.00    -0.744 OA
ENDBRANCH 100 103
ENDBRANCH  73  96
ENDBRANCH  47  48
ENDBRANCH  40  42
ENDBRANCH  39  40
ENDBRANCH  38  39
ENDBRANCH  37  38
ENDBRANCH  36  37
ENDBRANCH  35  36
ENDBRANCH   1  35
TORSDOF 25
ENDMDL
MODEL 2
REMARK VINA RESULT:      -8.3      5.756     11.714
REMARK SMILES CC[NH+]1CCN(c2ccc(NS(=O)(=O)c3cccc(F)c3)cc2C(=O)OCCOCCOCCOC(=O)c2ccc(-c3c4nc(c(-c5cccc(S(=O)(=O)[O-])c5F)c5ccc([nH]5)c(-c5cccc(S(=O)(=O)[O-])c5F)c5nc(c(-c6cccc(S(=O)(=O)[O-])c6F)c6ccc3[nH]6)C=C5)C=C4)cc2)CC1
REMARK SMILES IDX 30 1 29 2 28 3 27 4 26 5 24 6 25 7 23 8 7 9 8 10 9 11 22 12
REMARK SMILES IDX 10 13 6 14 3 15 4 16 102 17 5 19 101 20 2 21 1 22 11 23
REMARK SMILES IDX 12 25 13 26 14 27 15 28 16 29 21 30 17 31 19 32 18 33 20 34
REMARK SMILES IDX 31 35 32 36 33 37 34 38 35 39 36 40 37 41 38 42 39 43 100 44
REMARK SMILES IDX 40 45 99 46 41 47 42 48 43 49 93 50 44 51 98 52 92 53 94 54
REMARK SMILES IDX 45 55 97 56 91 57 90 58 46 60 78 61 58 62 77 63 59 64 62 65
REMARK SMILES IDX 76 66 95 67 60 68 61 69 75 71 96 72 63 73 47 74 48 75 56 76
REMARK SMILES IDX 49 77 51 78 57 79 50 80 52 81 53 82 54 83 55 84 79 85 80 86
REMARK SMILES IDX 88 87 81 88 83 89 89 90 82 91 84 92 85 93 86 94 87 95 64 96
REMARK SMILES IDX 65 97 73 98 66 99 68 100 74 101 67 102 69 103 70 104 71 105
REMARK SMILES IDX 72 106
REMARK H PARENT 3 18 11 24 94 59 62 70
REMARK Flexibility Score: inf
ROOT
ATOM      1  C   UNL A   1      47.353  30.490  29.532  1.00  0.00     0.188 C 
ENDROOT
BRANCH   1   2
ATOM      2  O   UNL A   1      47.045  29.111  29.319  1.00  0.00    -0.376 OA
BRANCH   2   3
ATOM      3  C   UNL A   1      47.751  28.420  28.287  1.00  0.00     0.202 C 
BRANCH   3   4
ATOM      4  C   UNL A   1      47.052  27.188  27.708  1.00  0.00     0.261 C 
BRANCH   4   5
ATOM      5  O   UNL A   1      45.630  27.350  27.837  1.00  0.00    -0.460 OA
BRANCH   5   6
ATOM      6  C   UNL A   1      44.949  26.322  28.397  1.00  0.00     0.340 C 
ATOM      7  O   UNL A   1      45.384  25.513  29.183  1.00  0.00    -0.246 OA
BRANCH   6   8
ATOM      8  C   UNL A   1      43.510  26.449  28.034  1.00  0.00     0.085 A 
ATOM      9  C   UNL A   1      42.817  25.630  27.101  1.00  0.00     0.052 A 
ATOM     10  C   UNL A   1      41.492  26.041  26.829  1.00  0.00     0.029 A 
ATOM     11  C   UNL A   1      40.928  27.210  27.343  1.00  0.00     0.029 A 
ATOM     12  C   UNL A   1      42.904  27.593  28.625  1.00  0.00     0.044 A 
ATOM     13  C   UNL A   1      41.625  27.983  28.254  1.00  0.00     0.050 A 
BRANCH   9  14
ATOM     14  N   UNL A   1      43.318  24.529  26.416  1.00  0.00    -0.360 N 
ATOM     15  N   UNL A   1      45.219  22.544  25.255  1.00  0.00    -0.332 N 
ATOM     16  C   UNL A   1      45.038  23.894  24.679  1.00  0.00     0.283 C 
ATOM     17  C   UNL A   1      44.856  22.616  26.690  1.00  0.00     0.283 C 
ATOM     18  H   UNL A   1      46.191  22.240  25.189  1.00  0.00     0.348 HD
ATOM     19  C   UNL A   1      43.691  24.604  24.980  1.00  0.00     0.178 C 
ATOM     20  C   UNL A   1      43.437  23.170  26.966  1.00  0.00     0.178 C 
BRANCH  15  21
ATOM     21  C   UNL A   1      44.475  21.536  24.495  1.00  0.00     0.258 C 
ATOM     22  C   UNL A   1      44.184  20.278  25.306  1.00  0.00     0.071 C 
ENDBRANCH  15  21
ENDBRANCH   9  14
BRANCH  13  23
ATOM     23  N   UNL A   1      41.008  29.173  28.758  1.00  0.00    -0.280 N 
ATOM     24  H   UNL A   1      41.401  30.057  28.575  1.00  0.00     0.180 HD
BRANCH  23  25
ATOM     25  S   UNL A   1      39.578  29.035  29.682  1.00  0.00     0.261 S 
ATOM     26  O   UNL A   1      38.573  29.849  29.033  1.00  0.00    -0.201 OA
ATOM     27  O   UNL A   1      39.360  27.622  29.900  1.00  0.00    -0.201 OA
BRANCH  25  28
ATOM     28  C   UNL A   1      39.921  29.774  31.260  1.00  0.00     0.090 A 
ATOM     29  C   UNL A   1      41.202  30.260  31.553  1.00  0.00     0.022 A 
ATOM     30  C   UNL A   1      38.900  29.835  32.213  1.00  0.00     0.061 A 
ATOM     31  C   UNL A   1      41.444  30.858  32.793  1.00  0.00     0.004 A 
ATOM     32  C   UNL A   1      39.154  30.447  33.430  1.00  0.00     0.124 A 
ATOM     33  C   UNL A   1      40.412  30.961  33.729  1.00  0.00     0.039 A 
ATOM     34  F   UNL A   1      38.169  30.556  34.331  1.00  0.00    -0.207 F 
ENDBRANCH  25  28
ENDBRANCH  23  25
ENDBRANCH  13  23
ENDBRANCH   6   8
ENDBRANCH   5   6
ENDBRANCH   4   5
ENDBRANCH   3   4
ENDBRANCH   2   3
ENDBRANCH   1   2
BRANCH   1  35
ATOM     35  C   UNL A   1      48.211  31.191  28.460  1.00  0.00     0.188 C 
BRANCH  35  36
ATOM     36  O   UNL A   1      48.160  32.597  28.545  1.00  0.00    -0.376 OA
BRANCH  36  37
ATOM     37  C   UNL A   1      48.423  33.398  27.413  1.00  0.00     0.202 C 
BRANCH  37  38
ATOM     38  C   UNL A   1      47.382  33.724  26.329  1.00  0.00     0.261 C 
BRANCH  38  39
ATOM     39  O   UNL A   1      46.379  32.750  26.052  1.00  0.00    -0.460 OA
BRANCH  39  40
ATOM     40  C   UNL A   1      45.161  33.199  25.672  1.00  0.00     0.338 C 
ATOM     41  O   UNL A   1      44.724  33.276  24.539  1.00  0.00    -0.246 OA
BRANCH  40  42
ATOM     42  C   UNL A   1      44.372  33.384  26.909  1.00  0.00     0.060 A 
ATOM     43  C   UNL A   1      43.849  34.652  27.200  1.00  0.00     0.016 A 
ATOM     44  C   UNL A   1      44.110  32.296  27.747  1.00  0.00     0.016 A 
ATOM     45  C   UNL A   1      43.087  34.838  28.355  1.00  0.00     0.010 A 
ATOM     46  C   UNL A   1      43.363  32.488  28.907  1.00  0.00     0.010 A 
ATOM     47  C   UNL A   1      42.877  33.765  29.231  1.00  0.00    -0.014 A 
BRANCH  47  48
ATOM     48  C   UNL A   1      42.342  34.002  30.590  1.00  0.00     0.031 A 
ATOM     49  C   UNL A   1      43.331  34.208  31.703  1.00  0.00     0.074 A 
ATOM     50  C   UNL A   1      41.021  33.977  30.840  1.00  0.00     0.049 A 
ATOM     51  N   UNL A   1      43.122  34.347  32.985  1.00  0.00    -0.248 NA
ATOM     52  C   UNL A   1      44.753  34.257  31.316  1.00  0.00     0.031 C 
ATOM     53  C   UNL A   1      39.973  33.779  29.841  1.00  0.00     0.029 A 
ATOM     54  N   UNL A   1      40.342  34.085  32.028  1.00  0.00    -0.354 N 
ATOM     55  C   UNL A   1      44.381  34.476  33.558  1.00  0.00     0.074 A 
ATOM     56  C   UNL A   1      45.351  34.391  32.490  1.00  0.00     0.031 C 
ATOM     57  C   UNL A   1      38.781  33.747  30.464  1.00  0.00     0.029 A 
ATOM     58  C   UNL A   1      38.985  33.899  31.904  1.00  0.00     0.049 A 
ATOM     59  H   UNL A   1      40.783  34.277  32.886  1.00  0.00     0.167 HD
ATOM     60  C   UNL A   1      44.701  34.666  34.859  1.00  0.00     0.034 A 
ATOM     61  C   UNL A   1      38.027  33.839  32.852  1.00  0.00     0.034 A 
ATOM     62  C   UNL A   1      43.737  34.753  35.916  1.00  0.00     0.049 A 
ATOM     63  C   UNL A   1      38.414  34.026  34.298  1.00  0.00     0.074 A 
ATOM     64  C   UNL A   1      43.956  34.963  37.266  1.00  0.00     0.029 A 
ATOM     65  N   UNL A   1      42.367  34.627  35.745  1.00  0.00    -0.354 N 
ATOM     66  N   UNL A   1      39.597  34.265  34.814  1.00  0.00    -0.248 NA
ATOM     67  C   UNL A   1      37.332  33.965  35.292  1.00  0.00     0.031 C 
ATOM     68  C   UNL A   1      42.715  34.953  37.912  1.00  0.00     0.029 A 
ATOM     69  C   UNL A   1      41.726  34.754  36.963  1.00  0.00     0.049 A 
ATOM     70  H   UNL A   1      41.918  34.472  34.883  1.00  0.00     0.167 HD
ATOM     71  C   UNL A   1      39.395  34.425  36.181  1.00  0.00     0.074 A 
ATOM     72  C   UNL A   1      37.974  34.267  36.412  1.00  0.00     0.031 C 
ATOM     73  C   UNL A   1      40.302  34.667  37.159  1.00  0.00     0.034 A 
BRANCH  60  74
ATOM     74  C   UNL A   1      46.158  34.825  35.195  1.00  0.00     0.023 A 
ATOM     75  C   UNL A   1      46.920  33.683  35.516  1.00  0.00     0.012 A 
ATOM     76  C   UNL A   1      46.780  36.088  35.161  1.00  0.00     0.148 A 
ATOM     77  C   UNL A   1      48.275  33.798  35.825  1.00  0.00     0.002 A 
ATOM     78  C   UNL A   1      48.139  36.190  35.432  1.00  0.00     0.091 A 
ATOM     79  F   UNL A   1      46.030  37.163  34.884  1.00  0.00    -0.205 F 
ATOM     80  C   UNL A   1      48.885  35.049  35.773  1.00  0.00     0.022 A 
BRANCH  78  81
ATOM     81  S   UNL A   1      49.030  37.745  35.329  1.00  0.00     0.127 S 
ATOM     82  O   UNL A   1      50.109  37.532  36.292  1.00  0.00    -0.237 OA
ATOM     83  O   UNL A   1      49.457  37.765  33.930  1.00  0.00    -0.237 OA
ATOM     84  O   UNL A   1      48.068  38.780  35.684  1.00  0.00    -0.744 OA
ENDBRANCH  78  81
ENDBRANCH  60  74
BRANCH  61  85
ATOM     85  C   UNL A   1      36.601  33.638  32.467  1.00  0.00     0.023 A 
ATOM     86  C   UNL A   1      36.174  32.362  32.053  1.00  0.00     0.012 A 
ATOM     87  C   UNL A   1      35.668  34.692  32.511  1.00  0.00     0.148 A 
ATOM     88  C   UNL A   1      34.852  32.144  31.660  1.00  0.00     0.002 A 
ATOM     89  C   UNL A   1      34.342  34.459  32.165  1.00  0.00     0.091 A 
ATOM     90  F   UNL A   1      36.098  35.906  32.886  1.00  0.00    -0.205 F 
ATOM     91  C   UNL A   1      33.935  33.190  31.725  1.00  0.00     0.022 A 
BRANCH  89  92
ATOM     92  S   UNL A   1      33.072  35.718  32.329  1.00  0.00     0.127 S 
ATOM     93  O   UNL A   1      33.536  36.464  33.495  1.00  0.00    -0.237 OA
ATOM     94  O   UNL A   1      33.182  36.432  31.057  1.00  0.00    -0.237 OA
ATOM     95  O   UNL A   1      31.822  34.988  32.497  1.00  0.00    -0.744 OA
ENDBRANCH  89  92
ENDBRANCH  61  85
BRANCH  73  96
ATOM     96  C   UNL A   1      39.795  34.829  38.567  1.00  0.00     0.023 A 
ATOM     97  C   UNL A   1      39.442  36.107  39.040  1.00  0.00     0.012 A 
ATOM     98  C   UNL A   1      39.565  33.700  39.379  1.00  0.00     0.148 A 
ATOM     99  C   UNL A   1      38.886  36.262  40.309  1.00  0.00     0.002 A 
ATOM    100  C   UNL A   1      38.971  33.857  40.625  1.00  0.00     0.091 A 
ATOM    101  F   UNL A   1      39.927  32.494  38.916  1.00  0.00    -0.205 F 
ATOM    102  C   UNL A   1      38.638  35.138  41.095  1.00  0.00     0.022 A 
BRANCH 100 103
ATOM    103  S   UNL A   1      38.525  32.458  41.659  1.00  0.00     0.127 S 
ATOM    104  O   UNL A   1      38.215  33.113  42.929  1.00  0.00    -0.237 OA
ATOM    105  O   UNL A   1      37.364  31.908  40.958  1.00  0.00    -0.237 OA
ATOM    106  O   UNL A   1      39.690  31.583  41.673  1.00  0.00    -0.744 OA
ENDBRANCH 100 103
ENDBRANCH  73  96
ENDBRANCH  47  48
ENDBRANCH  40  42
ENDBRANCH  39  40
ENDBRANCH  38  39
ENDBRANCH  37  38
ENDBRANCH  36  37
ENDBRANCH  35  36
ENDBRANCH   1  35
TORSDOF 25
ENDMDL
MODEL 3
REMARK VINA RESULT:      -8.1      6.996     12.264
REMARK SMILES CC[NH+]1CCN(c2ccc(NS(=O)(=O)c3cccc(F)c3)cc2C(=O)OCCOCCOCCOC(=O)c2ccc(-c3c4nc(c(-c5cccc(S(=O)(=O)[O-])c5F)c5ccc([nH]5)c(-c5cccc(S(=O)(=O)[O-])c5F)c5nc(c(-c6cccc(S(=O)(=O)[O-])c6F)c6ccc3[nH]6)C=C5)C=C4)cc2)CC1
REMARK SMILES IDX 30 1 29 2 28 3 27 4 26 5 24 6 25 7 23 8 7 9 8 10 9 11 22 12
REMARK SMILES IDX 10 13 6 14 3 15 4 16 102 17 5 19 101 20 2 21 1 22 11 23
REMARK SMILES IDX 12 25 13 26 14 27 15 28 16 29 21 30 17 31 19 32 18 33 20 34
REMARK SMILES IDX 31 35 32 36 33 37 34 38 35 39 36 40 37 41 38 42 39 43 100 44
REMARK SMILES IDX 40 45 99 46 41 47 42 48 43 49 93 50 44 51 98 52 92 53 94 54
REMARK SMILES IDX 45 55 97 56 91 57 90 58 46 60 78 61 58 62 77 63 59 64 62 65
REMARK SMILES IDX 76 66 95 67 60 68 61 69 75 71 96 72 63 73 47 74 48 75 56 76
REMARK SMILES IDX 49 77 51 78 57 79 50 80 52 81 53 82 54 83 55 84 79 85 80 86
REMARK SMILES IDX 88 87 81 88 83 89 89 90 82 91 84 92 85 93 86 94 87 95 64 96
REMARK SMILES IDX 65 97 73 98 66 99 68 100 74 101 67 102 69 103 70 104 71 105
REMARK SMILES IDX 72 106
REMARK H PARENT 3 18 11 24 94 59 62 70
REMARK Flexibility Score: inf
ROOT
ATOM      1  C   UNL A   1      38.987  33.511  33.643  1.00  0.00     0.188 C 
ENDROOT
BRANCH   1   2
ATOM      2  O   UNL A   1      38.189  32.326  33.675  1.00  0.00    -0.376 OA
BRANCH   2   3
ATOM      3  C   UNL A   1      38.856  31.068  33.548  1.00  0.00     0.202 C 
BRANCH   3   4
ATOM      4  C   UNL A   1      38.599  30.304  32.247  1.00  0.00     0.261 C 
BRANCH   4   5
ATOM      5  O   UNL A   1      39.274  29.036  32.306  1.00  0.00    -0.460 OA
BRANCH   5   6
ATOM      6  C   UNL A   1      39.916  28.636  31.182  1.00  0.00     0.340 C 
ATOM      7  O   UNL A   1      39.487  28.683  30.052  1.00  0.00    -0.246 OA
BRANCH   6   8
ATOM      8  C   UNL A   1      41.322  28.296  31.532  1.00  0.00     0.085 A 
ATOM      9  C   UNL A   1      42.278  27.718  30.651  1.00  0.00     0.052 A 
ATOM     10  C   UNL A   1      43.501  27.363  31.262  1.00  0.00     0.029 A 
ATOM     11  C   UNL A   1      43.735  27.467  32.635  1.00  0.00     0.029 A 
ATOM     12  C   UNL A   1      41.594  28.483  32.916  1.00  0.00     0.044 A 
ATOM     13  C   UNL A   1      42.790  28.040  33.465  1.00  0.00     0.050 A 
BRANCH   9  14
ATOM     14  N   UNL A   1      42.109  27.432  29.301  1.00  0.00    -0.360 N 
ATOM     15  N   UNL A   1      40.877  27.173  26.596  1.00  0.00    -0.332 N 
ATOM     16  C   UNL A   1      40.538  26.258  27.708  1.00  0.00     0.283 C 
ATOM     17  C   UNL A   1      41.334  28.452  27.189  1.00  0.00     0.283 C 
ATOM     18  H   UNL A   1      40.061  27.368  26.014  1.00  0.00     0.348 HD
ATOM     19  C   UNL A   1      41.593  26.118  28.838  1.00  0.00     0.178 C 
ATOM     20  C   UNL A   1      42.505  28.312  28.192  1.00  0.00     0.178 C 
BRANCH  15  21
ATOM     21  C   UNL A   1      41.837  26.560  25.674  1.00  0.00     0.258 C 
ATOM     22  C   UNL A   1      42.715  27.585  24.964  1.00  0.00     0.071 C 
ENDBRANCH  15  21
ENDBRANCH   9  14
BRANCH  13  23
ATOM     23  N   UNL A   1      43.071  28.129  34.867  1.00  0.00    -0.280 N 
ATOM     24  H   UNL A   1      43.622  28.863  35.221  1.00  0.00     0.180 HD
BRANCH  23  25
ATOM     25  S   UNL A   1      42.433  26.940  35.914  1.00  0.00     0.261 S 
ATOM     26  O   UNL A   1      42.739  27.356  37.266  1.00  0.00    -0.201 OA
ATOM     27  O   UNL A   1      41.065  26.713  35.501  1.00  0.00    -0.201 OA
BRANCH  25  28
ATOM     28  C   UNL A   1      43.342  25.447  35.600  1.00  0.00     0.090 A 
ATOM     29  C   UNL A   1      42.695  24.318  35.082  1.00  0.00     0.022 A 
ATOM     30  C   UNL A   1      44.706  25.410  35.907  1.00  0.00     0.061 A 
ATOM     31  C   UNL A   1      43.433  23.160  34.821  1.00  0.00     0.004 A 
ATOM     32  C   UNL A   1      45.425  24.259  35.625  1.00  0.00     0.124 A 
ATOM     33  C   UNL A   1      44.805  23.137  35.083  1.00  0.00     0.039 A 
ATOM     34  F   UNL A   1      46.742  24.230  35.868  1.00  0.00    -0.207 F 
ENDBRANCH  25  28
ENDBRANCH  23  25
ENDBRANCH  13  23
ENDBRANCH   6   8
ENDBRANCH   5   6
ENDBRANCH   4   5
ENDBRANCH   3   4
ENDBRANCH   2   3
ENDBRANCH   1   2
BRANCH   1  35
ATOM     35  C   UNL A   1      38.490  34.715  34.467  1.00  0.00     0.188 C 
BRANCH  35  36
ATOM     36  O   UNL A   1      39.259  34.946  35.625  1.00  0.00    -0.376 OA
BRANCH  36  37
ATOM     37  C   UNL A   1      40.120  36.062  35.708  1.00  0.00     0.202 C 
BRANCH  37  38
ATOM     38  C   UNL A   1      41.507  36.128  35.048  1.00  0.00     0.261 C 
BRANCH  38  39
ATOM     39  O   UNL A   1      41.768  35.256  33.950  1.00  0.00    -0.460 OA
BRANCH  39  40
ATOM     40  C   UNL A   1      42.849  35.523  33.183  1.00  0.00     0.338 C 
ATOM     41  O   UNL A   1      43.242  36.616  32.819  1.00  0.00    -0.246 OA
BRANCH  40  42
ATOM     42  C   UNL A   1      43.593  34.253  33.040  1.00  0.00     0.060 A 
ATOM     43  C   UNL A   1      42.901  33.041  33.161  1.00  0.00     0.016 A 
ATOM     44  C   UNL A   1      44.959  34.268  32.738  1.00  0.00     0.016 A 
ATOM     45  C   UNL A   1      43.586  31.834  33.011  1.00  0.00     0.010 A 
ATOM     46  C   UNL A   1      45.644  33.062  32.605  1.00  0.00     0.010 A 
ATOM     47  C   UNL A   1      44.967  31.842  32.772  1.00  0.00    -0.014 A 
BRANCH  47  48
ATOM     48  C   UNL A   1      45.759  30.600  32.910  1.00  0.00     0.031 A 
ATOM     49  C   UNL A   1      46.179  30.191  34.295  1.00  0.00     0.074 A 
ATOM     50  C   UNL A   1      46.142  29.887  31.837  1.00  0.00     0.049 A 
ATOM     51  N   UNL A   1      46.943  29.202  34.672  1.00  0.00    -0.248 NA
ATOM     52  C   UNL A   1      45.673  31.019  35.404  1.00  0.00     0.031 C 
ATOM     53  C   UNL A   1      45.799  30.193  30.450  1.00  0.00     0.029 A 
ATOM     54  N   UNL A   1      46.940  28.774  31.751  1.00  0.00    -0.354 N 
ATOM     55  C   UNL A   1      47.028  29.300  36.055  1.00  0.00     0.074 A 
ATOM     56  C   UNL A   1      46.247  30.450  36.453  1.00  0.00     0.031 C 
ATOM     57  C   UNL A   1      46.411  29.305  29.645  1.00  0.00     0.029 A 
ATOM     58  C   UNL A   1      47.205  28.385  30.459  1.00  0.00     0.049 A 
ATOM     59  H   UNL A   1      47.289  28.298  32.539  1.00  0.00     0.167 HD
ATOM     60  C   UNL A   1      47.686  28.495  36.921  1.00  0.00     0.034 A 
ATOM     61  C   UNL A   1      48.013  27.411  29.995  1.00  0.00     0.034 A 
ATOM     62  C   UNL A   1      48.458  27.353  36.524  1.00  0.00     0.049 A 
ATOM     63  C   UNL A   1      48.757  26.544  30.980  1.00  0.00     0.074 A 
ATOM     64  C   UNL A   1      49.148  26.460  37.323  1.00  0.00     0.029 A 
ATOM     65  N   UNL A   1      48.649  26.951  35.211  1.00  0.00    -0.354 N 
ATOM     66  N   UNL A   1      48.735  26.575  32.291  1.00  0.00    -0.248 NA
ATOM     67  C   UNL A   1      49.616  25.487  30.423  1.00  0.00     0.031 C 
ATOM     68  C   UNL A   1      49.766  25.521  36.490  1.00  0.00     0.029 A 
ATOM     69  C   UNL A   1      49.447  25.822  35.176  1.00  0.00     0.049 A 
ATOM     70  H   UNL A   1      48.272  27.401  34.421  1.00  0.00     0.167 HD
ATOM     71  C   UNL A   1      49.538  25.521  32.715  1.00  0.00     0.074 A 
ATOM     72  C   UNL A   1      50.024  24.862  31.520  1.00  0.00     0.031 C 
ATOM     73  C   UNL A   1      49.857  25.139  33.976  1.00  0.00     0.034 A 
BRANCH  60  74
ATOM     74  C   UNL A   1      47.563  28.809  38.385  1.00  0.00     0.023 A 
ATOM     75  C   UNL A   1      48.502  29.673  38.986  1.00  0.00     0.012 A 
ATOM     76  C   UNL A   1      46.511  28.283  39.158  1.00  0.00     0.148 A 
ATOM     77  C   UNL A   1      48.410  29.990  40.340  1.00  0.00     0.002 A 
ATOM     78  C   UNL A   1      46.403  28.633  40.500  1.00  0.00     0.091 A 
ATOM     79  F   UNL A   1      45.649  27.439  38.576  1.00  0.00    -0.205 F 
ATOM     80  C   UNL A   1      47.356  29.479  41.093  1.00  0.00     0.022 A 
BRANCH  78  81
ATOM     81  S   UNL A   1      45.047  28.078  41.536  1.00  0.00     0.127 S 
ATOM     82  O   UNL A   1      45.725  27.852  42.812  1.00  0.00    -0.237 OA
ATOM     83  O   UNL A   1      44.150  29.234  41.519  1.00  0.00    -0.237 OA
ATOM     84  O   UNL A   1      44.513  26.887  40.891  1.00  0.00    -0.744 OA
ENDBRANCH  78  81
ENDBRANCH  60  74
BRANCH  61  85
ATOM     85  C   UNL A   1      48.131  27.167  28.529  1.00  0.00     0.023 A 
ATOM     86  C   UNL A   1      49.104  27.868  27.790  1.00  0.00     0.012 A 
ATOM     87  C   UNL A   1      47.294  26.250  27.863  1.00  0.00     0.148 A 
ATOM     88  C   UNL A   1      49.223  27.684  26.412  1.00  0.00     0.002 A 
ATOM     89  C   UNL A   1      47.449  26.035  26.498  1.00  0.00     0.091 A 
ATOM     90  F   UNL A   1      46.358  25.609  28.577  1.00  0.00    -0.205 F 
ATOM     91  C   UNL A   1      48.402  26.762  25.768  1.00  0.00     0.022 A 
BRANCH  89  92
ATOM     92  S   UNL A   1      46.514  24.783  25.611  1.00  0.00     0.127 S 
ATOM     93  O   UNL A   1      47.012  24.945  24.249  1.00  0.00    -0.237 OA
ATOM     94  O   UNL A   1      46.937  23.553  26.281  1.00  0.00    -0.237 OA
ATOM     95  O   UNL A   1      45.114  25.126  25.822  1.00  0.00    -0.744 OA
ENDBRANCH  89  92
ENDBRANCH  61  85
BRANCH  73  96
ATOM     96  C   UNL A   1      50.732  23.926  34.147  1.00  0.00     0.023 A 
ATOM     97  C   UNL A   1      52.126  24.081  34.266  1.00  0.00     0.012 A 
ATOM     98  C   UNL A   1      50.160  22.647  34.300  1.00  0.00     0.148 A 
ATOM     99  C   UNL A   1      52.941  22.977  34.515  1.00  0.00     0.002 A 
ATOM    100  C   UNL A   1      50.973  21.559  34.591  1.00  0.00     0.091 A 
ATOM    101  F   UNL A   1      48.831  22.520  34.164  1.00  0.00    -0.205 F 
ATOM    102  C   UNL A   1      52.364  21.720  34.691  1.00  0.00     0.022 A 
BRANCH 100 103
ATOM    103  S   UNL A   1      50.307  19.926  34.931  1.00  0.00     0.127 S 
ATOM    104  O   UNL A   1      49.565  20.158  36.169  1.00  0.00    -0.237 OA
ATOM    105  O   UNL A   1      49.469  19.679  33.757  1.00  0.00    -0.237 OA
ATOM    106  O   UNL A   1      51.457  19.039  35.046  1.00  0.00    -0.744 OA
ENDBRANCH 100 103
ENDBRANCH  73  96
ENDBRANCH  47  48
ENDBRANCH  40  42
ENDBRANCH  39  40
ENDBRANCH  38  39
ENDBRANCH  37  38
ENDBRANCH  36  37
ENDBRANCH  35  36
ENDBRANCH   1  35
TORSDOF 25
ENDMDL
