MODEL 1
REMARK VINA RESULT:      -7.9      0.000      0.000
REMARK SMILES N#Cc1cccnc1N1CC[NH+]([C@@H](C(=O)OCCOCCOCCOC(=O)c2ccc(-c3c4nc(c(-c5cccc(S(=O)(=O)[O-])c5F)c5ccc([nH]5)c(-c5cccc(S(=O)(=O)[O-])c5F)c5nc(c(-c6cccc(S(=O)(=O)[O-])c6F)c6ccc3[nH]6)C=C5)C=C4)cc2)c2c[nH]c3cc(CO)ccc23)CC1
REMARK SMILES IDX 20 1 19 2 18 3 17 4 16 5 14 6 15 7 13 8 12 9 9 10 10 11
REMARK SMILES IDX 103 12 11 13 102 14 8 16 3 17 4 18 5 19 7 20 6 21 2 22 1 23
REMARK SMILES IDX 91 24 92 25 101 26 93 27 94 28 100 29 95 31 99 32 96 33
REMARK SMILES IDX 97 34 98 35 21 37 22 38 23 39 24 40 25 41 26 42 27 43 28 44
REMARK SMILES IDX 29 45 90 46 30 47 89 48 31 49 32 50 33 51 83 52 34 53 88 54
REMARK SMILES IDX 82 55 84 56 35 57 87 58 81 59 80 60 36 62 68 63 48 64 67 65
REMARK SMILES IDX 49 66 52 67 66 68 85 69 50 70 51 71 65 73 86 74 53 75 37 76
REMARK SMILES IDX 38 77 46 78 39 79 41 80 47 81 40 82 42 83 43 84 44 85 45 86
REMARK SMILES IDX 69 87 70 88 78 89 71 90 73 91 79 92 72 93 74 94 75 95 76 96
REMARK SMILES IDX 77 97 54 98 55 99 63 100 56 101 58 102 64 103 57 104 59 105
REMARK SMILES IDX 60 106 61 107 62 108
REMARK H PARENT 12 15 93 30 98 36 84 61 52 72
REMARK Flexibility Score: inf
ROOT
ATOM      1  C   UNL A   1      52.541  43.047  29.053  1.00  0.00     0.188 C 
ENDROOT
BRANCH   1   2
ATOM      2  O   UNL A   1      51.261  43.131  29.644  1.00  0.00    -0.376 OA
BRANCH   2   3
ATOM      3  C   UNL A   1      50.215  43.597  28.798  1.00  0.00     0.202 C 
BRANCH   3   4
ATOM      4  C   UNL A   1      49.282  42.547  28.155  1.00  0.00     0.261 C 
BRANCH   4   5
ATOM      5  O   UNL A   1      47.893  42.609  28.584  1.00  0.00    -0.459 OA
BRANCH   5   6
ATOM      6  C   UNL A   1      47.071  43.535  28.012  1.00  0.00     0.370 C 
ATOM      7  O   UNL A   1      46.995  44.693  28.419  1.00  0.00    -0.245 OA
BRANCH   6   8
ATOM      8  C   UNL A   1      46.235  42.998  26.806  1.00  0.00     0.328 C 
BRANCH   8   9
ATOM      9  N   UNL A   1      46.798  43.219  25.396  1.00  0.00    -0.316 N 
ATOM     10  N   UNL A   1      45.203  43.432  22.874  1.00  0.00    -0.344 N 
ATOM     11  C   UNL A   1      45.384  42.187  23.616  1.00  0.00     0.179 C 
ATOM     12  C   UNL A   1      45.348  44.633  23.733  1.00  0.00     0.179 C 
ATOM     13  C   UNL A   1      46.758  42.265  24.284  1.00  0.00     0.285 C 
ATOM     14  C   UNL A   1      46.557  44.533  24.749  1.00  0.00     0.285 C 
ATOM     15  H   UNL A   1      47.702  43.073  25.845  1.00  0.00     0.349 HD
BRANCH  10  16
ATOM     16  C   UNL A   1      44.126  43.394  21.985  1.00  0.00     0.146 A 
ATOM     17  C   UNL A   1      44.313  43.441  20.605  1.00  0.00     0.095 A 
ATOM     18  C   UNL A   1      43.196  43.447  19.750  1.00  0.00     0.025 A 
ATOM     19  C   UNL A   1      41.920  43.342  20.275  1.00  0.00     0.022 A 
ATOM     20  N   UNL A   1      42.878  43.245  22.480  1.00  0.00    -0.238 NA
ATOM     21  C   UNL A   1      41.822  43.196  21.634  1.00  0.00     0.113 A 
BRANCH  17  22
ATOM     22  C   UNL A   1      45.620  43.381  20.032  1.00  0.00     0.103 C 
ATOM     23  N   UNL A   1      46.655  43.285  19.514  1.00  0.00    -0.192 NA
ENDBRANCH  17  22
ENDBRANCH  10  16
ENDBRANCH   8   9
BRANCH   8  24
ATOM     24  C   UNL A   1      44.664  42.565  27.176  1.00  0.00     0.046 A 
ATOM     25  C   UNL A   1      44.404  42.375  28.534  1.00  0.00     0.094 A 
ATOM     26  C   UNL A   1      43.827  41.433  26.798  1.00  0.00     0.009 A 
ATOM     27  N   UNL A   1      45.007  41.106  28.719  1.00  0.00    -0.361 N 
ATOM     28  C   UNL A   1      44.779  40.264  27.517  1.00  0.00     0.046 A 
ATOM     29  C   UNL A   1      42.138  40.929  26.323  1.00  0.00     0.011 A 
ATOM     30  H   UNL A   1      45.502  40.825  29.522  1.00  0.00     0.166 HD
ATOM     31  C   UNL A   1      44.454  38.517  27.500  1.00  0.00     0.032 A 
ATOM     32  C   UNL A   1      41.665  38.957  26.396  1.00  0.00     0.007 A 
ATOM     33  C   UNL A   1      42.922  37.827  26.966  1.00  0.00    -0.021 A 
BRANCH  33  34
ATOM     34  C   UNL A   1      42.752  36.352  26.813  1.00  0.00     0.191 C 
BRANCH  34  35
ATOM     35  O   UNL A   1      43.791  35.818  26.003  1.00  0.00    -0.392 OA
ATOM     36  H   UNL A   1      44.350  35.234  26.540  1.00  0.00     0.211 HD
ENDBRANCH  34  35
ENDBRANCH  33  34
ENDBRANCH   8  24
ENDBRANCH   6   8
ENDBRANCH   5   6
ENDBRANCH   4   5
ENDBRANCH   3   4
ENDBRANCH   2   3
ENDBRANCH   1   2
BRANCH   1  37
ATOM     37  C   UNL A   1      53.138  41.649  28.951  1.00  0.00     0.188 C 
BRANCH  37  38
ATOM     38  O   UNL A   1      52.384  40.596  28.371  1.00  0.00    -0.376 OA
BRANCH  38  39
ATOM     39  C   UNL A   1      53.044  39.357  28.141  1.00  0.00     0.202 C 
BRANCH  39  40
ATOM     40  C   UNL A   1      52.186  38.094  28.042  1.00  0.00     0.261 C 
BRANCH  40  41
ATOM     41  O   UNL A   1      51.758  37.867  26.699  1.00  0.00    -0.460 OA
BRANCH  41  42
ATOM     42  C   UNL A   1      51.770  36.771  25.930  1.00  0.00     0.338 C 
ATOM     43  O   UNL A   1      52.654  36.457  25.163  1.00  0.00    -0.246 OA
BRANCH  42  44
ATOM     44  C   UNL A   1      50.297  36.245  26.112  1.00  0.00     0.060 A 
ATOM     45  C   UNL A   1      48.358  36.753  25.786  1.00  0.00     0.016 A 
ATOM     46  C   UNL A   1      50.521  34.865  27.315  1.00  0.00     0.016 A 
ATOM     47  C   UNL A   1      47.057  35.907  26.585  1.00  0.00     0.010 A 
ATOM     48  C   UNL A   1      49.109  34.140  28.064  1.00  0.00     0.010 A 
ATOM     49  C   UNL A   1      47.481  34.690  27.708  1.00  0.00    -0.014 A 
BRANCH  49  50
ATOM     50  C   UNL A   1      46.321  34.311  28.487  1.00  0.00     0.031 A 
ATOM     51  C   UNL A   1      45.882  35.199  29.613  1.00  0.00     0.074 A 
ATOM     52  C   UNL A   1      45.590  33.337  27.937  1.00  0.00     0.049 A 
ATOM     53  N   UNL A   1      44.857  35.069  30.402  1.00  0.00    -0.248 NA
ATOM     54  C   UNL A   1      46.652  36.434  29.871  1.00  0.00     0.031 C 
ATOM     55  C   UNL A   1      45.923  32.629  26.695  1.00  0.00     0.029 A 
ATOM     56  N   UNL A   1      44.430  32.770  28.349  1.00  0.00    -0.354 N 
ATOM     57  C   UNL A   1      44.896  36.163  31.262  1.00  0.00     0.074 A 
ATOM     58  C   UNL A   1      46.005  36.988  30.881  1.00  0.00     0.031 C 
ATOM     59  C   UNL A   1      45.037  31.645  26.503  1.00  0.00     0.029 A 
ATOM     60  C   UNL A   1      44.128  31.639  27.635  1.00  0.00     0.049 A 
ATOM     61  H   UNL A   1      43.868  33.130  29.073  1.00  0.00     0.167 HD
ATOM     62  C   UNL A   1      44.072  36.417  32.299  1.00  0.00     0.034 A 
ATOM     63  C   UNL A   1      43.271  30.662  27.957  1.00  0.00     0.034 A 
ATOM     64  C   UNL A   1      43.009  35.516  32.626  1.00  0.00     0.049 A 
ATOM     65  C   UNL A   1      42.463  30.888  29.199  1.00  0.00     0.074 A 
ATOM     66  C   UNL A   1      42.108  35.575  33.667  1.00  0.00     0.029 A 
ATOM     67  N   UNL A   1      42.741  34.357  31.908  1.00  0.00    -0.354 N 
ATOM     68  N   UNL A   1      42.515  31.903  30.034  1.00  0.00    -0.248 NA
ATOM     69  C   UNL A   1      41.460  29.878  29.528  1.00  0.00     0.031 C 
ATOM     70  C   UNL A   1      41.341  34.409  33.615  1.00  0.00     0.029 A 
ATOM     71  C   UNL A   1      41.706  33.671  32.494  1.00  0.00     0.049 A 
ATOM     72  H   UNL A   1      43.223  34.070  31.099  1.00  0.00     0.167 HD
ATOM     73  C   UNL A   1      41.506  31.690  30.955  1.00  0.00     0.074 A 
ATOM     74  C   UNL A   1      40.871  30.439  30.576  1.00  0.00     0.031 C 
ATOM     75  C   UNL A   1      41.119  32.448  32.009  1.00  0.00     0.034 A 
BRANCH  62  76
ATOM     76  C   UNL A   1      44.362  37.600  33.181  1.00  0.00     0.023 A 
ATOM     77  C   UNL A   1      45.143  37.477  34.348  1.00  0.00     0.012 A 
ATOM     78  C   UNL A   1      43.861  38.866  32.819  1.00  0.00     0.148 A 
ATOM     79  C   UNL A   1      45.412  38.595  35.142  1.00  0.00     0.002 A 
ATOM     80  C   UNL A   1      44.173  39.981  33.586  1.00  0.00     0.091 A 
ATOM     81  F   UNL A   1      43.083  38.954  31.731  1.00  0.00    -0.205 F 
ATOM     82  C   UNL A   1      44.938  39.847  34.755  1.00  0.00     0.022 A 
BRANCH  80  83
ATOM     83  S   UNL A   1      43.663  41.641  33.129  1.00  0.00     0.127 S 
ATOM     84  O   UNL A   1      42.219  41.583  33.356  1.00  0.00    -0.237 OA
ATOM     85  O   UNL A   1      44.400  42.457  34.092  1.00  0.00    -0.237 OA
ATOM     86  O   UNL A   1      44.056  41.819  31.738  1.00  0.00    -0.744 OA
ENDBRANCH  80  83
ENDBRANCH  62  76
BRANCH  63  87
ATOM     87  C   UNL A   1      43.208  29.423  27.145  1.00  0.00     0.023 A 
ATOM     88  C   UNL A   1      42.232  29.287  26.143  1.00  0.00     0.012 A 
ATOM     89  C   UNL A   1      44.140  28.382  27.345  1.00  0.00     0.148 A 
ATOM     90  C   UNL A   1      42.150  28.113  25.393  1.00  0.00     0.002 A 
ATOM     91  C   UNL A   1      44.082  27.236  26.564  1.00  0.00     0.091 A 
ATOM     92  F   UNL A   1      45.074  28.536  28.296  1.00  0.00    -0.205 F 
ATOM     93  C   UNL A   1      43.075  27.092  25.600  1.00  0.00     0.022 A 
BRANCH  91  94
ATOM     94  S   UNL A   1      45.297  25.919  26.693  1.00  0.00     0.127 S 
ATOM     95  O   UNL A   1      45.141  25.510  28.086  1.00  0.00    -0.237 OA
ATOM     96  O   UNL A   1      44.805  24.954  25.709  1.00  0.00    -0.237 OA
ATOM     97  O   UNL A   1      46.576  26.526  26.350  1.00  0.00    -0.744 OA
ENDBRANCH  91  94
ENDBRANCH  63  87
BRANCH  75  98
ATOM     98  C   UNL A   1      39.902  31.992  32.741  1.00  0.00     0.023 A 
ATOM     99  C   UNL A   1      40.015  31.119  33.836  1.00  0.00     0.012 A 
ATOM    100  C   UNL A   1      38.659  32.554  32.400  1.00  0.00     0.148 A 
ATOM    101  C   UNL A   1      38.886  30.789  34.574  1.00  0.00     0.002 A 
ATOM    102  C   UNL A   1      37.556  32.280  33.184  1.00  0.00     0.091 A 
ATOM    103  F   UNL A   1      38.596  33.371  31.337  1.00  0.00    -0.205 F 
ATOM    104  C   UNL A   1      37.663  31.384  34.261  1.00  0.00     0.022 A 
BRANCH 102 105
ATOM    105  S   UNL A   1      35.987  33.106  32.935  1.00  0.00     0.127 S 
ATOM    106  O   UNL A   1      36.418  34.459  32.588  1.00  0.00    -0.237 OA
ATOM    107  O   UNL A   1      35.412  32.341  31.830  1.00  0.00    -0.237 OA
ATOM    108  O   UNL A   1      35.261  32.993  34.194  1.00  0.00    -0.744 OA
ENDBRANCH 102 105
ENDBRANCH  75  98
ENDBRANCH  49  50
ENDBRANCH  42  44
ENDBRANCH  41  42
ENDBRANCH  40  41
ENDBRANCH  39  40
ENDBRANCH  38  39
ENDBRANCH  37  38
ENDBRANCH   1  37
TORSDOF 26
ENDMDL
MODEL 2
REMARK VINA RESULT:      -6.9      4.218      7.482
REMARK SMILES N#Cc1cccnc1N1CC[NH+]([C@@H](C(=O)OCCOCCOCCOC(=O)c2ccc(-c3c4nc(c(-c5cccc(S(=O)(=O)[O-])c5F)c5ccc([nH]5)c(-c5cccc(S(=O)(=O)[O-])c5F)c5nc(c(-c6cccc(S(=O)(=O)[O-])c6F)c6ccc3[nH]6)C=C5)C=C4)cc2)c2c[nH]c3cc(CO)ccc23)CC1
REMARK SMILES IDX 20 1 19 2 18 3 17 4 16 5 14 6 15 7 13 8 12 9 9 10 10 11
REMARK SMILES IDX 103 12 11 13 102 14 8 16 3 17 4 18 5 19 7 20 6 21 2 22 1 23
REMARK SMILES IDX 91 24 92 25 101 26 93 27 94 28 100 29 95 31 99 32 96 33
REMARK SMILES IDX 97 34 98 35 21 37 22 38 23 39 24 40 25 41 26 42 27 43 28 44
REMARK SMILES IDX 29 45 90 46 30 47 89 48 31 49 32 50 33 51 83 52 34 53 88 54
REMARK SMILES IDX 82 55 84 56 35 57 87 58 81 59 80 60 36 62 68 63 48 64 67 65
REMARK SMILES IDX 49 66 52 67 66 68 85 69 50 70 51 71 65 73 86 74 53 75 37 76
REMARK SMILES IDX 38 77 46 78 39 79 41 80 47 81 40 82 42 83 43 84 44 85 45 86
REMARK SMILES IDX 69 87 70 88 78 89 71 90 73 91 79 92 72 93 74 94 75 95 76 96
REMARK SMILES IDX 77 97 54 98 55 99 63 100 56 101 58 102 64 103 57 104 59 105
REMARK SMILES IDX 60 106 61 107 62 108
REMARK H PARENT 12 15 93 30 98 36 84 61 52 72
REMARK Flexibility Score: inf
ROOT
ATOM      1  C   UNL A   1      42.076  42.436  30.974  1.00  0.00     0.188 C 
ENDROOT
BRANCH   1   2
ATOM      2  O   UNL A   1      43.401  42.299  31.444  1.00  0.00    -0.376 OA
BRANCH   2   3
ATOM      3  C   UNL A   1      44.107  43.512  31.679  1.00  0.00     0.202 C 
BRANCH   3   4
ATOM      4  C   UNL A   1      44.827  44.173  30.483  1.00  0.00     0.261 C 
BRANCH   4   5
ATOM      5  O   UNL A   1      45.725  43.300  29.743  1.00  0.00    -0.459 OA
BRANCH   5   6
ATOM      6  C   UNL A   1      45.303  42.782  28.554  1.00  0.00     0.370 C 
ATOM      7  O   UNL A   1      44.114  42.626  28.286  1.00  0.00    -0.245 OA
BRANCH   6   8
ATOM      8  C   UNL A   1      46.457  42.400  27.572  1.00  0.00     0.328 C 
BRANCH   8   9
ATOM      9  N   UNL A   1      46.734  43.348  26.397  1.00  0.00    -0.316 N 
ATOM     10  N   UNL A   1      45.117  43.564  23.889  1.00  0.00    -0.344 N 
ATOM     11  C   UNL A   1      45.971  42.422  24.207  1.00  0.00     0.179 C 
ATOM     12  C   UNL A   1      44.659  44.287  25.100  1.00  0.00     0.179 C 
ATOM     13  C   UNL A   1      47.135  42.959  25.042  1.00  0.00     0.285 C 
ATOM     14  C   UNL A   1      45.798  44.479  26.182  1.00  0.00     0.285 C 
ATOM     15  H   UNL A   1      47.604  43.542  26.891  1.00  0.00     0.349 HD
BRANCH  10  16
ATOM     16  C   UNL A   1      44.170  43.287  22.900  1.00  0.00     0.146 A 
ATOM     17  C   UNL A   1      43.093  42.434  23.135  1.00  0.00     0.095 A 
ATOM     18  C   UNL A   1      42.190  42.150  22.095  1.00  0.00     0.025 A 
ATOM     19  C   UNL A   1      42.335  42.762  20.863  1.00  0.00     0.022 A 
ATOM     20  N   UNL A   1      44.272  43.913  21.707  1.00  0.00    -0.238 NA
ATOM     21  C   UNL A   1      43.357  43.666  20.739  1.00  0.00     0.113 A 
BRANCH  17  22
ATOM     22  C   UNL A   1      42.824  41.922  24.440  1.00  0.00     0.103 C 
ATOM     23  N   UNL A   1      42.571  41.569  25.517  1.00  0.00    -0.192 NA
ENDBRANCH  17  22
ENDBRANCH  10  16
ENDBRANCH   8   9
BRANCH   8  24
ATOM     24  C   UNL A   1      47.014  40.831  27.716  1.00  0.00     0.046 A 
ATOM     25  C   UNL A   1      46.941  40.289  29.000  1.00  0.00     0.094 A 
ATOM     26  C   UNL A   1      48.305  40.204  27.462  1.00  0.00     0.009 A 
ATOM     27  N   UNL A   1      48.044  40.946  29.601  1.00  0.00    -0.361 N 
ATOM     28  C   UNL A   1      49.149  41.070  28.616  1.00  0.00     0.046 A 
ATOM     29  C   UNL A   1      49.129  38.717  26.797  1.00  0.00     0.011 A 
ATOM     30  H   UNL A   1      48.073  41.270  30.530  1.00  0.00     0.166 HD
ATOM     31  C   UNL A   1      50.886  40.913  28.955  1.00  0.00     0.032 A 
ATOM     32  C   UNL A   1      51.085  38.417  27.247  1.00  0.00     0.007 A 
ATOM     33  C   UNL A   1      51.880  39.609  28.311  1.00  0.00    -0.021 A 
BRANCH  33  34
ATOM     34  C   UNL A   1      53.362  39.610  28.486  1.00  0.00     0.191 C 
BRANCH  34  35
ATOM     35  O   UNL A   1      53.698  39.409  29.852  1.00  0.00    -0.392 OA
ATOM     36  H   UNL A   1      54.042  40.235  30.225  1.00  0.00     0.211 HD
ENDBRANCH  34  35
ENDBRANCH  33  34
ENDBRANCH   8  24
ENDBRANCH   6   8
ENDBRANCH   5   6
ENDBRANCH   4   5
ENDBRANCH   3   4
ENDBRANCH   2   3
ENDBRANCH   1   2
BRANCH   1  37
ATOM     37  C   UNL A   1      41.337  41.137  30.675  1.00  0.00     0.188 C 
BRANCH  37  38
ATOM     38  O   UNL A   1      41.052  40.775  29.333  1.00  0.00    -0.376 OA
BRANCH  38  39
ATOM     39  C   UNL A   1      42.081  40.136  28.587  1.00  0.00     0.202 C 
BRANCH  39  40
ATOM     40  C   UNL A   1      41.948  38.635  28.320  1.00  0.00     0.261 C 
BRANCH  40  41
ATOM     41  O   UNL A   1      42.692  38.250  27.164  1.00  0.00    -0.460 OA
BRANCH  41  42
ATOM     42  C   UNL A   1      44.006  38.106  26.954  1.00  0.00     0.338 C 
ATOM     43  O   UNL A   1      44.747  38.958  26.511  1.00  0.00    -0.246 OA
BRANCH  42  44
ATOM     44  C   UNL A   1      44.191  36.557  27.169  1.00  0.00     0.060 A 
ATOM     45  C   UNL A   1      43.510  34.755  26.528  1.00  0.00     0.016 A 
ATOM     46  C   UNL A   1      45.104  36.492  28.770  1.00  0.00     0.016 A 
ATOM     47  C   UNL A   1      43.812  33.299  27.442  1.00  0.00     0.010 A 
ATOM     48  C   UNL A   1      45.292  34.950  29.588  1.00  0.00     0.010 A 
ATOM     49  C   UNL A   1      44.633  33.461  28.932  1.00  0.00    -0.014 A 
BRANCH  49  50
ATOM     50  C   UNL A   1      44.532  32.231  29.689  1.00  0.00     0.031 A 
ATOM     51  C   UNL A   1      43.288  31.969  30.485  1.00  0.00     0.074 A 
ATOM     52  C   UNL A   1      45.458  31.321  29.373  1.00  0.00     0.049 A 
ATOM     53  N   UNL A   1      42.979  30.923  31.193  1.00  0.00    -0.248 NA
ATOM     54  C   UNL A   1      42.211  32.980  30.452  1.00  0.00     0.031 C 
ATOM     55  C   UNL A   1      46.545  31.520  28.408  1.00  0.00     0.029 A 
ATOM     56  N   UNL A   1      45.638  30.057  29.830  1.00  0.00    -0.354 N 
ATOM     57  C   UNL A   1      41.713  31.178  31.715  1.00  0.00     0.074 A 
ATOM     58  C   UNL A   1      41.272  32.446  31.212  1.00  0.00     0.031 C 
ATOM     59  C   UNL A   1      47.345  30.447  28.425  1.00  0.00     0.029 A 
ATOM     60  C   UNL A   1      46.844  29.535  29.436  1.00  0.00     0.049 A 
ATOM     61  H   UNL A   1      44.981  29.570  30.378  1.00  0.00     0.167 HD
ATOM     62  C   UNL A   1      41.012  30.406  32.570  1.00  0.00     0.034 A 
ATOM     63  C   UNL A   1      47.494  28.481  29.945  1.00  0.00     0.034 A 
ATOM     64  C   UNL A   1      41.550  29.168  33.047  1.00  0.00     0.049 A 
ATOM     65  C   UNL A   1      46.764  27.715  31.005  1.00  0.00     0.074 A 
ATOM     66  C   UNL A   1      41.015  28.279  33.953  1.00  0.00     0.029 A 
ATOM     67  N   UNL A   1      42.789  28.673  32.659  1.00  0.00    -0.354 N 
ATOM     68  N   UNL A   1      45.583  27.965  31.528  1.00  0.00    -0.248 NA
ATOM     69  C   UNL A   1      47.415  26.512  31.519  1.00  0.00     0.031 C 
ATOM     70  C   UNL A   1      41.968  27.281  34.165  1.00  0.00     0.029 A 
ATOM     71  C   UNL A   1      43.056  27.503  33.326  1.00  0.00     0.049 A 
ATOM     72  H   UNL A   1      43.388  29.099  32.004  1.00  0.00     0.167 HD
ATOM     73  C   UNL A   1      45.315  26.915  32.385  1.00  0.00     0.074 A 
ATOM     74  C   UNL A   1      46.470  26.035  32.318  1.00  0.00     0.031 C 
ATOM     75  C   UNL A   1      44.224  26.678  33.153  1.00  0.00     0.034 A 
BRANCH  62  76
ATOM     76  C   UNL A   1      39.708  30.924  33.110  1.00  0.00     0.023 A 
ATOM     77  C   UNL A   1      38.494  30.725  32.422  1.00  0.00     0.012 A 
ATOM     78  C   UNL A   1      39.695  31.602  34.345  1.00  0.00     0.148 A 
ATOM     79  C   UNL A   1      37.292  31.201  32.953  1.00  0.00     0.002 A 
ATOM     80  C   UNL A   1      38.492  32.029  34.890  1.00  0.00     0.091 A 
ATOM     81  F   UNL A   1      40.866  31.820  34.960  1.00  0.00    -0.205 F 
ATOM     82  C   UNL A   1      37.289  31.841  34.191  1.00  0.00     0.022 A 
BRANCH  80  83
ATOM     83  S   UNL A   1      38.385  32.801  36.508  1.00  0.00     0.127 S 
ATOM     84  O   UNL A   1      36.944  33.014  36.643  1.00  0.00    -0.237 OA
ATOM     85  O   UNL A   1      38.932  31.759  37.375  1.00  0.00    -0.237 OA
ATOM     86  O   UNL A   1      39.178  34.020  36.430  1.00  0.00    -0.744 OA
ENDBRANCH  80  83
ENDBRANCH  62  76
BRANCH  63  87
ATOM     87  C   UNL A   1      48.876  28.172  29.506  1.00  0.00     0.023 A 
ATOM     88  C   UNL A   1      49.965  28.855  30.072  1.00  0.00     0.012 A 
ATOM     89  C   UNL A   1      49.118  27.170  28.540  1.00  0.00     0.148 A 
ATOM     90  C   UNL A   1      51.266  28.588  29.645  1.00  0.00     0.002 A 
ATOM     91  C   UNL A   1      50.418  26.876  28.154  1.00  0.00     0.091 A 
ATOM     92  F   UNL A   1      48.067  26.517  28.022  1.00  0.00    -0.205 F 
ATOM     93  C   UNL A   1      51.493  27.599  28.691  1.00  0.00     0.022 A 
BRANCH  91  94
ATOM     94  S   UNL A   1      50.806  25.546  27.009  1.00  0.00     0.127 S 
ATOM     95  O   UNL A   1      52.265  25.540  27.047  1.00  0.00    -0.237 OA
ATOM     96  O   UNL A   1      50.168  24.396  27.653  1.00  0.00    -0.237 OA
ATOM     97  O   UNL A   1      50.206  25.931  25.740  1.00  0.00    -0.744 OA
ENDBRANCH  91  94
ENDBRANCH  63  87
BRANCH  75  98
ATOM     98  C   UNL A   1      44.198  25.376  33.881  1.00  0.00     0.023 A 
ATOM     99  C   UNL A   1      43.812  24.198  33.219  1.00  0.00     0.012 A 
ATOM    100  C   UNL A   1      44.690  25.329  35.197  1.00  0.00     0.148 A 
ATOM    101  C   UNL A   1      43.897  22.978  33.878  1.00  0.00     0.002 A 
ATOM    102  C   UNL A   1      44.841  24.105  35.818  1.00  0.00     0.091 A 
ATOM    103  F   UNL A   1      45.032  26.481  35.794  1.00  0.00    -0.205 F 
ATOM    104  C   UNL A   1      44.428  22.929  35.167  1.00  0.00     0.022 A 
BRANCH 102 105
ATOM    105  S   UNL A   1      45.641  23.942  37.412  1.00  0.00     0.127 S 
ATOM    106  O   UNL A   1      45.707  22.489  37.561  1.00  0.00    -0.237 OA
ATOM    107  O   UNL A   1      46.927  24.594  37.175  1.00  0.00    -0.237 OA
ATOM    108  O   UNL A   1      44.782  24.623  38.372  1.00  0.00    -0.744 OA
ENDBRANCH 102 105
ENDBRANCH  75  98
ENDBRANCH  49  50
ENDBRANCH  42  44
ENDBRANCH  41  42
ENDBRANCH  40  41
ENDBRANCH  39  40
ENDBRANCH  38  39
ENDBRANCH  37  38
ENDBRANCH   1  37
TORSDOF 26
ENDMDL
MODEL 3
REMARK VINA RESULT:      -6.9      6.873     14.452
REMARK SMILES N#Cc1cccnc1N1CC[NH+]([C@@H](C(=O)OCCOCCOCCOC(=O)c2ccc(-c3c4nc(c(-c5cccc(S(=O)(=O)[O-])c5F)c5ccc([nH]5)c(-c5cccc(S(=O)(=O)[O-])c5F)c5nc(c(-c6cccc(S(=O)(=O)[O-])c6F)c6ccc3[nH]6)C=C5)C=C4)cc2)c2c[nH]c3cc(CO)ccc23)CC1
REMARK SMILES IDX 20 1 19 2 18 3 17 4 16 5 14 6 15 7 13 8 12 9 9 10 10 11
REMARK SMILES IDX 103 12 11 13 102 14 8 16 3 17 4 18 5 19 7 20 6 21 2 22 1 23
REMARK SMILES IDX 91 24 92 25 101 26 93 27 94 28 100 29 95 31 99 32 96 33
REMARK SMILES IDX 97 34 98 35 21 37 22 38 23 39 24 40 25 41 26 42 27 43 28 44
REMARK SMILES IDX 29 45 90 46 30 47 89 48 31 49 32 50 33 51 83 52 34 53 88 54
REMARK SMILES IDX 82 55 84 56 35 57 87 58 81 59 80 60 36 62 68 63 48 64 67 65
REMARK SMILES IDX 49 66 52 67 66 68 85 69 50 70 51 71 65 73 86 74 53 75 37 76
REMARK SMILES IDX 38 77 46 78 39 79 41 80 47 81 40 82 42 83 43 84 44 85 45 86
REMARK SMILES IDX 69 87 70 88 78 89 71 90 73 91 79 92 72 93 74 94 75 95 76 96
REMARK SMILES IDX 77 97 54 98 55 99 63 100 56 101 58 102 64 103 57 104 59 105
REMARK SMILES IDX 60 106 61 107 62 108
REMARK H PARENT 12 15 93 30 98 36 84 61 52 72
REMARK Flexibility Score: inf
ROOT
ATOM      1  C   UNL A   1      42.722  30.309  29.568  1.00  0.00     0.188 C 
ENDROOT
BRANCH   1   2
ATOM      2  O   UNL A   1      43.158  30.918  28.370  1.00  0.00    -0.376 OA
BRANCH   2   3
ATOM      3  C   UNL A   1      43.086  30.112  27.200  1.00  0.00     0.202 C 
BRANCH   3   4
ATOM      4  C   UNL A   1      44.210  29.079  26.961  1.00  0.00     0.261 C 
BRANCH   4   5
ATOM      5  O   UNL A   1      43.816  27.900  26.205  1.00  0.00    -0.459 OA
BRANCH   5   6
ATOM      6  C   UNL A   1      43.358  26.809  26.883  1.00  0.00     0.370 C 
ATOM      7  O   UNL A   1      42.251  26.780  27.419  1.00  0.00    -0.245 OA
BRANCH   6   8
ATOM      8  C   UNL A   1      44.358  25.609  26.924  1.00  0.00     0.328 C 
BRANCH   8   9
ATOM      9  N   UNL A   1      45.394  25.585  28.055  1.00  0.00    -0.316 N 
ATOM     10  N   UNL A   1      48.360  25.812  27.734  1.00  0.00    -0.344 N 
ATOM     11  C   UNL A   1      47.589  24.636  27.338  1.00  0.00     0.179 C 
ATOM     12  C   UNL A   1      47.544  27.051  27.744  1.00  0.00     0.179 C 
ATOM     13  C   UNL A   1      46.398  24.545  28.294  1.00  0.00     0.285 C 
ATOM     14  C   UNL A   1      46.106  26.848  28.372  1.00  0.00     0.285 C 
ATOM     15  H   UNL A   1      44.599  25.332  28.641  1.00  0.00     0.349 HD
BRANCH  10  16
ATOM     16  C   UNL A   1      49.624  25.870  27.142  1.00  0.00     0.146 A 
ATOM     17  C   UNL A   1      49.782  25.953  25.760  1.00  0.00     0.095 A 
ATOM     18  C   UNL A   1      51.075  25.963  25.206  1.00  0.00     0.025 A 
ATOM     19  C   UNL A   1      52.184  25.954  26.033  1.00  0.00     0.022 A 
ATOM     20  N   UNL A   1      50.715  25.909  27.938  1.00  0.00    -0.238 NA
ATOM     21  C   UNL A   1      51.948  25.976  27.383  1.00  0.00     0.113 A 
BRANCH  17  22
ATOM     22  C   UNL A   1      48.660  26.133  24.895  1.00  0.00     0.103 C 
ATOM     23  N   UNL A   1      47.719  26.324  24.243  1.00  0.00    -0.192 NA
ENDBRANCH  17  22
ENDBRANCH  10  16
ENDBRANCH   8   9
BRANCH   8  24
ATOM     24  C   UNL A   1      44.407  24.686  25.532  1.00  0.00     0.046 A 
ATOM     25  C   UNL A   1      43.230  24.676  24.782  1.00  0.00     0.094 A 
ATOM     26  C   UNL A   1      44.647  23.270  25.283  1.00  0.00     0.009 A 
ATOM     27  N   UNL A   1      42.449  23.797  25.574  1.00  0.00    -0.361 N 
ATOM     28  C   UNL A   1      43.311  22.717  26.120  1.00  0.00     0.046 A 
ATOM     29  C   UNL A   1      45.459  22.075  24.167  1.00  0.00     0.011 A 
ATOM     30  H   UNL A   1      41.483  23.888  25.737  1.00  0.00     0.166 HD
ATOM     31  C   UNL A   1      42.859  21.012  26.329  1.00  0.00     0.032 A 
ATOM     32  C   UNL A   1      44.902  20.127  24.272  1.00  0.00     0.007 A 
ATOM     33  C   UNL A   1      43.609  19.698  25.425  1.00  0.00    -0.021 A 
BRANCH  33  34
ATOM     34  C   UNL A   1      43.316  18.272  25.750  1.00  0.00     0.191 C 
BRANCH  34  35
ATOM     35  O   UNL A   1      44.132  17.834  26.828  1.00  0.00    -0.392 OA
ATOM     36  H   UNL A   1      45.046  18.120  26.678  1.00  0.00     0.211 HD
ENDBRANCH  34  35
ENDBRANCH  33  34
ENDBRANCH   8  24
ENDBRANCH   6   8
ENDBRANCH   5   6
ENDBRANCH   4   5
ENDBRANCH   3   4
ENDBRANCH   2   3
ENDBRANCH   1   2
BRANCH   1  37
ATOM     37  C   UNL A   1      41.221  30.344  29.825  1.00  0.00     0.188 C 
BRANCH  37  38
ATOM     38  O   UNL A   1      40.330  29.709  28.921  1.00  0.00    -0.376 OA
BRANCH  38  39
ATOM     39  C   UNL A   1      40.036  28.334  29.135  1.00  0.00     0.202 C 
BRANCH  39  40
ATOM     40  C   UNL A   1      39.124  27.969  30.308  1.00  0.00     0.261 C 
BRANCH  40  41
ATOM     41  O   UNL A   1      37.854  28.611  30.192  1.00  0.00    -0.460 OA
BRANCH  41  42
ATOM     42  C   UNL A   1      37.109  29.284  31.077  1.00  0.00     0.338 C 
ATOM     43  O   UNL A   1      35.905  29.418  31.028  1.00  0.00    -0.246 OA
BRANCH  42  44
ATOM     44  C   UNL A   1      38.215  30.004  31.936  1.00  0.00     0.060 A 
ATOM     45  C   UNL A   1      39.705  29.640  33.267  1.00  0.00     0.016 A 
ATOM     46  C   UNL A   1      37.665  31.764  31.885  1.00  0.00     0.016 A 
ATOM     47  C   UNL A   1      40.384  30.924  34.235  1.00  0.00     0.010 A 
ATOM     48  C   UNL A   1      38.424  32.932  32.951  1.00  0.00     0.010 A 
ATOM     49  C   UNL A   1      39.694  32.479  34.075  1.00  0.00    -0.014 A 
BRANCH  49  50
ATOM     50  C   UNL A   1      40.158  33.337  35.146  1.00  0.00     0.031 A 
ATOM     51  C   UNL A   1      41.153  34.415  34.832  1.00  0.00     0.074 A 
ATOM     52  C   UNL A   1      39.432  33.253  36.264  1.00  0.00     0.049 A 
ATOM     53  N   UNL A   1      41.663  35.310  35.626  1.00  0.00    -0.248 NA
ATOM     54  C   UNL A   1      41.609  34.560  33.434  1.00  0.00     0.031 C 
ATOM     55  C   UNL A   1      38.301  32.340  36.471  1.00  0.00     0.029 A 
ATOM     56  N   UNL A   1      39.536  33.932  37.432  1.00  0.00    -0.354 N 
ATOM     57  C   UNL A   1      42.520  36.073  34.838  1.00  0.00     0.074 A 
ATOM     58  C   UNL A   1      42.436  35.589  33.491  1.00  0.00     0.031 C 
ATOM     59  C   UNL A   1      37.883  32.445  37.738  1.00  0.00     0.029 A 
ATOM     60  C   UNL A   1      38.755  33.385  38.418  1.00  0.00     0.049 A 
ATOM     61  H   UNL A   1      40.104  34.727  37.559  1.00  0.00     0.167 HD
ATOM     62  C   UNL A   1      43.325  37.077  35.243  1.00  0.00     0.034 A 
ATOM     63  C   UNL A   1      38.843  33.570  39.741  1.00  0.00     0.034 A 
ATOM     64  C   UNL A   1      43.367  37.470  36.619  1.00  0.00     0.049 A 
ATOM     65  C   UNL A   1      39.849  34.585  40.191  1.00  0.00     0.074 A 
ATOM     66  C   UNL A   1      44.154  38.424  37.227  1.00  0.00     0.029 A 
ATOM     67  N   UNL A   1      42.589  36.879  37.607  1.00  0.00    -0.354 N 
ATOM     68  N   UNL A   1      40.685  35.288  39.458  1.00  0.00    -0.248 NA
ATOM     69  C   UNL A   1      39.908  34.868  41.623  1.00  0.00     0.031 C 
ATOM     70  C   UNL A   1      43.899  38.356  38.598  1.00  0.00     0.029 A 
ATOM     71  C   UNL A   1      42.893  37.424  38.831  1.00  0.00     0.049 A 
ATOM     72  H   UNL A   1      41.921  36.173  37.453  1.00  0.00     0.167 HD
ATOM     73  C   UNL A   1      41.325  36.148  40.330  1.00  0.00     0.074 A 
ATOM     74  C   UNL A   1      40.785  35.862  41.649  1.00  0.00     0.031 C 
ATOM     75  C   UNL A   1      42.262  37.096  40.083  1.00  0.00     0.034 A 
BRANCH  62  76
ATOM     76  C   UNL A   1      44.267  37.696  34.248  1.00  0.00     0.023 A 
ATOM     77  C   UNL A   1      45.543  37.151  34.003  1.00  0.00     0.012 A 
ATOM     78  C   UNL A   1      43.854  38.833  33.526  1.00  0.00     0.148 A 
ATOM     79  C   UNL A   1      46.395  37.736  33.061  1.00  0.00     0.002 A 
ATOM     80  C   UNL A   1      44.684  39.379  32.557  1.00  0.00     0.091 A 
ATOM     81  F   UNL A   1      42.655  39.362  33.807  1.00  0.00    -0.205 F 
ATOM     82  C   UNL A   1      45.961  38.841  32.330  1.00  0.00     0.022 A 
BRANCH  80  83
ATOM     83  S   UNL A   1      44.184  40.759  31.522  1.00  0.00     0.127 S 
ATOM     84  O   UNL A   1      45.366  40.944  30.679  1.00  0.00    -0.237 OA
ATOM     85  O   UNL A   1      43.020  40.208  30.829  1.00  0.00    -0.237 OA
ATOM     86  O   UNL A   1      43.900  41.864  32.426  1.00  0.00    -0.744 OA
ENDBRANCH  80  83
ENDBRANCH  62  76
BRANCH  63  87
ATOM     87  C   UNL A   1      38.023  32.752  40.667  1.00  0.00     0.023 A 
ATOM     88  C   UNL A   1      38.492  31.502  41.105  1.00  0.00     0.012 A 
ATOM     89  C   UNL A   1      36.781  33.227  41.142  1.00  0.00     0.148 A 
ATOM     90  C   UNL A   1      37.714  30.715  41.955  1.00  0.00     0.002 A 
ATOM     91  C   UNL A   1      36.034  32.460  42.025  1.00  0.00     0.091 A 
ATOM     92  F   UNL A   1      36.357  34.430  40.725  1.00  0.00    -0.205 F 
ATOM     93  C   UNL A   1      36.491  31.194  42.417  1.00  0.00     0.022 A 
BRANCH  91  94
ATOM     94  S   UNL A   1      34.498  33.046  42.749  1.00  0.00     0.127 S 
ATOM     95  O   UNL A   1      34.938  34.258  43.435  1.00  0.00    -0.237 OA
ATOM     96  O   UNL A   1      33.671  33.276  41.563  1.00  0.00    -0.237 OA
ATOM     97  O   UNL A   1      34.029  31.967  43.607  1.00  0.00    -0.744 OA
ENDBRANCH  91  94
ENDBRANCH  63  87
BRANCH  75  98
ATOM     98  C   UNL A   1      42.665  37.946  41.241  1.00  0.00     0.023 A 
ATOM     99  C   UNL A   1      43.761  37.585  42.042  1.00  0.00     0.012 A 
ATOM    100  C   UNL A   1      42.012  39.176  41.434  1.00  0.00     0.148 A 
ATOM    101  C   UNL A   1      44.191  38.440  43.048  1.00  0.00     0.002 A 
ATOM    102  C   UNL A   1      42.492  40.053  42.387  1.00  0.00     0.091 A 
ATOM    103  F   UNL A   1      40.959  39.471  40.656  1.00  0.00    -0.205 F 
ATOM    104  C   UNL A   1      43.571  39.680  43.207  1.00  0.00     0.022 A 
BRANCH 102 105
ATOM    105  S   UNL A   1      41.843  41.713  42.561  1.00  0.00     0.127 S 
ATOM    106  O   UNL A   1      42.109  42.274  41.238  1.00  0.00    -0.237 OA
ATOM    107  O   UNL A   1      40.432  41.459  42.848  1.00  0.00    -0.237 OA
ATOM    108  O   UNL A   1      42.584  42.329  43.655  1.00  0.00    -0.744 OA
ENDBRANCH 102 105
ENDBRANCH  75  98
ENDBRANCH  49  50
ENDBRANCH  42  44
ENDBRANCH  41  42
ENDBRANCH  40  41
ENDBRANCH  39  40
ENDBRANCH  38  39
ENDBRANCH  37  38
ENDBRANCH   1  37
TORSDOF 26
ENDMDL
