MODEL 1
REMARK VINA RESULT:     -11.2      0.000      0.000
REMARK SMILES Cc1cc(F)c([C@@](C)(C(=O)OCCOCCOCCOC(=O)c2ccc(-c3c4nc(c(-c5cccc(S(=O)(=O)[O-])c5F)c5ccc([nH]5)c(-c5cccc(S(=O)(=O)[O-])c5F)c5nc(c(-c6cccc(S(=O)(=O)[O-])c6F)c6ccc3[nH]6)C=C5)C=C4)cc2)[NH+]2CC[NH2+]CC2)cc1F
REMARK SMILES IDX 16 1 15 2 14 3 13 4 12 5 11 6 9 7 10 8 7 9 8 10 6 11 1 12
REMARK SMILES IDX 2 13 3 14 93 15 4 16 92 17 94 18 5 19 86 20 87 21 91 22
REMARK SMILES IDX 88 24 90 25 89 26 17 29 18 30 19 31 20 32 21 33 22 34 23 35
REMARK SMILES IDX 24 36 85 37 25 38 84 39 26 40 27 41 28 42 78 43 29 44 83 45
REMARK SMILES IDX 77 46 79 47 30 48 82 49 76 50 75 51 31 53 63 54 43 55 62 56
REMARK SMILES IDX 44 57 47 58 61 59 80 60 45 61 46 62 60 64 81 65 48 66 32 67
REMARK SMILES IDX 33 68 41 69 34 70 36 71 42 72 35 73 37 74 38 75 39 76 40 77
REMARK SMILES IDX 64 78 65 79 73 80 66 81 68 82 74 83 67 84 69 85 70 86 71 87
REMARK SMILES IDX 72 88 49 89 50 90 58 91 51 92 53 93 59 94 52 95 54 96 55 97
REMARK SMILES IDX 56 98 57 99
REMARK H PARENT 86 23 89 27 89 28 79 52 47 63
REMARK Flexibility Score: inf
ROOT
ATOM      1  C   UNL A   1      34.120  22.423  26.799  1.00  0.00     0.188 C 
ENDROOT
BRANCH   1   2
ATOM      2  C   UNL A   1      32.933  22.276  27.761  1.00  0.00     0.188 C 
BRANCH   2   3
ATOM      3  O   UNL A   1      31.751  23.016  27.491  1.00  0.00    -0.376 OA
BRANCH   3   4
ATOM      4  C   UNL A   1      31.034  22.760  26.287  1.00  0.00     0.202 C 
BRANCH   4   5
ATOM      5  C   UNL A   1      31.379  23.559  25.021  1.00  0.00     0.261 C 
BRANCH   5   6
ATOM      6  O   UNL A   1      31.134  24.984  25.096  1.00  0.00    -0.458 OA
BRANCH   6   7
ATOM      7  C   UNL A   1      32.211  25.762  25.422  1.00  0.00     0.372 C 
ATOM      8  O   UNL A   1      32.772  25.676  26.514  1.00  0.00    -0.244 OA
BRANCH   7   9
ATOM      9  C   UNL A   1      32.610  26.837  24.337  1.00  0.00     0.221 C 
ATOM     10  C   UNL A   1      33.659  27.675  25.128  1.00  0.00     0.098 C 
BRANCH   9  11
ATOM     11  C   UNL A   1      31.479  27.781  23.827  1.00  0.00     0.062 A 
ATOM     12  C   UNL A   1      28.290  29.784  21.625  1.00  0.00     0.047 C 
ATOM     13  C   UNL A   1      29.372  29.208  22.484  1.00  0.00    -0.012 A 
ATOM     14  C   UNL A   1      30.703  29.620  22.381  1.00  0.00     0.046 A 
ATOM     15  C   UNL A   1      29.094  28.162  23.346  1.00  0.00     0.126 A 
ATOM     16  C   UNL A   1      31.726  28.928  23.054  1.00  0.00     0.133 A 
ATOM     17  C   UNL A   1      30.115  27.490  24.017  1.00  0.00     0.053 A 
ATOM     18  F   UNL A   1      27.832  27.738  23.505  1.00  0.00    -0.207 F 
ATOM     19  F   UNL A   1      32.975  29.383  22.887  1.00  0.00    -0.206 F 
ENDBRANCH   9  11
BRANCH   9  20
ATOM     20  N   UNL A   1      33.344  26.128  23.233  1.00  0.00    -0.308 N 
ATOM     21  C   UNL A   1      34.241  25.006  23.504  1.00  0.00     0.325 C 
ATOM     22  C   UNL A   1      32.875  26.125  21.858  1.00  0.00     0.325 C 
ATOM     23  H   UNL A   1      33.906  26.976  23.310  1.00  0.00     0.349 HD
ATOM     24  C   UNL A   1      33.932  23.665  22.761  1.00  0.00     0.322 C 
ATOM     25  C   UNL A   1      32.152  24.829  21.482  1.00  0.00     0.322 C 
ATOM     26  N   UNL A   1      32.903  23.596  21.717  1.00  0.00    -0.337 N 
ATOM     27  H   UNL A   1      32.237  22.870  21.979  1.00  0.00     0.346 HD
ATOM     28  H   UNL A   1      33.403  23.407  20.847  1.00  0.00     0.346 HD
ENDBRANCH   9  20
ENDBRANCH   7   9
ENDBRANCH   6   7
ENDBRANCH   5   6
ENDBRANCH   4   5
ENDBRANCH   3   4
ENDBRANCH   2   3
ENDBRANCH   1   2
BRANCH   1  29
ATOM     29  O   UNL A   1      34.623  21.231  26.258  1.00  0.00    -0.376 OA
BRANCH  29  30
ATOM     30  C   UNL A   1      35.564  21.260  25.206  1.00  0.00     0.202 C 
BRANCH  30  31
ATOM     31  C   UNL A   1      37.047  20.852  25.321  1.00  0.00     0.261 C 
BRANCH  31  32
ATOM     32  O   UNL A   1      38.033  21.883  25.428  1.00  0.00    -0.460 OA
BRANCH  32  33
ATOM     33  C   UNL A   1      39.158  21.579  26.126  1.00  0.00     0.338 C 
ATOM     34  O   UNL A   1      39.744  20.514  26.143  1.00  0.00    -0.246 OA
BRANCH  33  35
ATOM     35  C   UNL A   1      39.676  22.844  26.694  1.00  0.00     0.060 A 
ATOM     36  C   UNL A   1      40.724  22.838  27.615  1.00  0.00     0.016 A 
ATOM     37  C   UNL A   1      39.081  24.052  26.311  1.00  0.00     0.016 A 
ATOM     38  C   UNL A   1      41.177  24.050  28.147  1.00  0.00     0.010 A 
ATOM     39  C   UNL A   1      39.520  25.257  26.860  1.00  0.00     0.010 A 
ATOM     40  C   UNL A   1      40.581  25.271  27.773  1.00  0.00    -0.014 A 
BRANCH  40  41
ATOM     41  C   UNL A   1      41.203  26.562  28.160  1.00  0.00     0.031 A 
ATOM     42  C   UNL A   1      42.648  26.879  27.914  1.00  0.00     0.074 A 
ATOM     43  C   UNL A   1      40.436  27.441  28.832  1.00  0.00     0.049 A 
ATOM     44  N   UNL A   1      43.270  28.019  28.085  1.00  0.00    -0.248 NA
ATOM     45  C   UNL A   1      43.513  25.789  27.445  1.00  0.00     0.031 C 
ATOM     46  C   UNL A   1      39.059  27.189  29.264  1.00  0.00     0.029 A 
ATOM     47  N   UNL A   1      40.701  28.710  29.280  1.00  0.00    -0.354 N 
ATOM     48  C   UNL A   1      44.598  27.789  27.747  1.00  0.00     0.074 A 
ATOM     49  C   UNL A   1      44.698  26.389  27.390  1.00  0.00     0.031 C 
ATOM     50  C   UNL A   1      38.589  28.279  29.885  1.00  0.00     0.029 A 
ATOM     51  C   UNL A   1      39.627  29.307  29.894  1.00  0.00     0.049 A 
ATOM     52  H   UNL A   1      41.575  29.150  29.171  1.00  0.00     0.167 HD
ATOM     53  C   UNL A   1      45.624  28.674  27.713  1.00  0.00     0.034 A 
ATOM     54  C   UNL A   1      39.474  30.552  30.383  1.00  0.00     0.034 A 
ATOM     55  C   UNL A   1      45.506  30.069  28.055  1.00  0.00     0.049 A 
ATOM     56  C   UNL A   1      40.595  31.539  30.254  1.00  0.00     0.074 A 
ATOM     57  C   UNL A   1      46.459  31.067  27.930  1.00  0.00     0.029 A 
ATOM     58  N   UNL A   1      44.382  30.662  28.606  1.00  0.00    -0.354 N 
ATOM     59  N   UNL A   1      41.783  31.364  29.731  1.00  0.00    -0.248 NA
ATOM     60  C   UNL A   1      40.346  32.902  30.745  1.00  0.00     0.031 C 
ATOM     61  C   UNL A   1      45.918  32.256  28.427  1.00  0.00     0.029 A 
ATOM     62  C   UNL A   1      44.620  32.005  28.841  1.00  0.00     0.049 A 
ATOM     63  H   UNL A   1      43.537  30.195  28.802  1.00  0.00     0.167 HD
ATOM     64  C   UNL A   1      42.419  32.596  29.811  1.00  0.00     0.074 A 
ATOM     65  C   UNL A   1      41.480  33.515  30.423  1.00  0.00     0.031 C 
ATOM     66  C   UNL A   1      43.675  32.925  29.420  1.00  0.00     0.034 A 
BRANCH  53  67
ATOM     67  C   UNL A   1      46.962  28.199  27.207  1.00  0.00     0.023 A 
ATOM     68  C   UNL A   1      47.955  27.844  28.142  1.00  0.00     0.012 A 
ATOM     69  C   UNL A   1      47.190  27.971  25.835  1.00  0.00     0.148 A 
ATOM     70  C   UNL A   1      49.160  27.282  27.721  1.00  0.00     0.002 A 
ATOM     71  C   UNL A   1      48.383  27.384  25.425  1.00  0.00     0.091 A 
ATOM     72  F   UNL A   1      46.234  28.318  24.962  1.00  0.00    -0.205 F 
ATOM     73  C   UNL A   1      49.369  27.044  26.366  1.00  0.00     0.022 A 
BRANCH  71  74
ATOM     74  S   UNL A   1      48.734  26.978  23.710  1.00  0.00     0.127 S 
ATOM     75  O   UNL A   1      47.848  25.835  23.490  1.00  0.00    -0.237 OA
ATOM     76  O   UNL A   1      48.332  28.201  23.016  1.00  0.00    -0.237 OA
ATOM     77  O   UNL A   1      50.157  26.678  23.648  1.00  0.00    -0.744 OA
ENDBRANCH  71  74
ENDBRANCH  53  67
BRANCH  54  78
ATOM     78  C   UNL A   1      38.145  30.942  30.919  1.00  0.00     0.023 A 
ATOM     79  C   UNL A   1      37.874  30.736  32.285  1.00  0.00     0.012 A 
ATOM     80  C   UNL A   1      37.213  31.630  30.120  1.00  0.00     0.148 A 
ATOM     81  C   UNL A   1      36.692  31.213  32.850  1.00  0.00     0.002 A 
ATOM     82  C   UNL A   1      36.054  32.134  30.697  1.00  0.00     0.091 A 
ATOM     83  F   UNL A   1      37.508  31.821  28.827  1.00  0.00    -0.205 F 
ATOM     84  C   UNL A   1      35.789  31.920  32.060  1.00  0.00     0.022 A 
BRANCH  82  85
ATOM     85  S   UNL A   1      34.881  33.148  29.794  1.00  0.00     0.127 S 
ATOM     86  O   UNL A   1      34.281  32.172  28.886  1.00  0.00    -0.237 OA
ATOM     87  O   UNL A   1      34.003  33.613  30.867  1.00  0.00    -0.237 OA
ATOM     88  O   UNL A   1      35.667  34.191  29.151  1.00  0.00    -0.744 OA
ENDBRANCH  82  85
ENDBRANCH  54  78
BRANCH  66  89
ATOM     89  C   UNL A   1      44.134  34.342  29.630  1.00  0.00     0.023 A 
ATOM     90  C   UNL A   1      44.842  34.672  30.802  1.00  0.00     0.012 A 
ATOM     91  C   UNL A   1      43.977  35.308  28.616  1.00  0.00     0.148 A 
ATOM     92  C   UNL A   1      45.385  35.946  30.963  1.00  0.00     0.002 A 
ATOM     93  C   UNL A   1      44.550  36.565  28.770  1.00  0.00     0.091 A 
ATOM     94  F   UNL A   1      43.292  34.970  27.514  1.00  0.00    -0.205 F 
ATOM     95  C   UNL A   1      45.251  36.887  29.944  1.00  0.00     0.022 A 
BRANCH  93  96
ATOM     96  S   UNL A   1      44.492  37.822  27.487  1.00  0.00     0.127 S 
ATOM     97  O   UNL A   1      45.628  37.441  26.646  1.00  0.00    -0.237 OA
ATOM     98  O   UNL A   1      43.181  37.586  26.884  1.00  0.00    -0.237 OA
ATOM     99  O   UNL A   1      44.631  39.103  28.167  1.00  0.00    -0.744 OA
ENDBRANCH  93  96
ENDBRANCH  66  89
ENDBRANCH  40  41
ENDBRANCH  33  35
ENDBRANCH  32  33
ENDBRANCH  31  32
ENDBRANCH  30  31
ENDBRANCH  29  30
ENDBRANCH   1  29
TORSDOF 22
ENDMDL
MODEL 2
REMARK VINA RESULT:     -11.2      1.562      2.755
REMARK SMILES Cc1cc(F)c([C@@](C)(C(=O)OCCOCCOCCOC(=O)c2ccc(-c3c4nc(c(-c5cccc(S(=O)(=O)[O-])c5F)c5ccc([nH]5)c(-c5cccc(S(=O)(=O)[O-])c5F)c5nc(c(-c6cccc(S(=O)(=O)[O-])c6F)c6ccc3[nH]6)C=C5)C=C4)cc2)[NH+]2CC[NH2+]CC2)cc1F
REMARK SMILES IDX 16 1 15 2 14 3 13 4 12 5 11 6 9 7 10 8 7 9 8 10 6 11 1 12
REMARK SMILES IDX 2 13 3 14 93 15 4 16 92 17 94 18 5 19 86 20 87 21 91 22
REMARK SMILES IDX 88 24 90 25 89 26 17 29 18 30 19 31 20 32 21 33 22 34 23 35
REMARK SMILES IDX 24 36 85 37 25 38 84 39 26 40 27 41 28 42 78 43 29 44 83 45
REMARK SMILES IDX 77 46 79 47 30 48 82 49 76 50 75 51 31 53 63 54 43 55 62 56
REMARK SMILES IDX 44 57 47 58 61 59 80 60 45 61 46 62 60 64 81 65 48 66 32 67
REMARK SMILES IDX 33 68 41 69 34 70 36 71 42 72 35 73 37 74 38 75 39 76 40 77
REMARK SMILES IDX 64 78 65 79 73 80 66 81 68 82 74 83 67 84 69 85 70 86 71 87
REMARK SMILES IDX 72 88 49 89 50 90 58 91 51 92 53 93 59 94 52 95 54 96 55 97
REMARK SMILES IDX 56 98 57 99
REMARK H PARENT 86 23 89 27 89 28 79 52 47 63
REMARK Flexibility Score: inf
ROOT
ATOM      1  C   UNL A   1      33.430  19.540  24.879  1.00  0.00     0.188 C 
ENDROOT
BRANCH   1   2
ATOM      2  C   UNL A   1      32.494  20.278  23.911  1.00  0.00     0.188 C 
BRANCH   2   3
ATOM      3  O   UNL A   1      32.388  21.690  24.021  1.00  0.00    -0.376 OA
BRANCH   3   4
ATOM      4  C   UNL A   1      32.141  22.458  22.849  1.00  0.00     0.202 C 
BRANCH   4   5
ATOM      5  C   UNL A   1      33.328  22.966  22.015  1.00  0.00     0.261 C 
BRANCH   5   6
ATOM      6  O   UNL A   1      34.202  23.908  22.682  1.00  0.00    -0.458 OA
BRANCH   6   7
ATOM      7  C   UNL A   1      33.636  25.099  23.045  1.00  0.00     0.372 C 
ATOM      8  O   UNL A   1      33.172  25.881  22.216  1.00  0.00    -0.244 OA
BRANCH   7   9
ATOM      9  C   UNL A   1      33.714  25.432  24.587  1.00  0.00     0.221 C 
ATOM     10  C   UNL A   1      35.041  24.714  24.975  1.00  0.00     0.098 C 
BRANCH   9  11
ATOM     11  C   UNL A   1      32.559  24.893  25.485  1.00  0.00     0.062 A 
ATOM     12  C   UNL A   1      29.345  22.614  27.357  1.00  0.00     0.047 C 
ATOM     13  C   UNL A   1      30.423  23.503  26.820  1.00  0.00    -0.012 A 
ATOM     14  C   UNL A   1      30.158  24.528  25.910  1.00  0.00     0.046 A 
ATOM     15  C   UNL A   1      31.747  23.261  27.141  1.00  0.00     0.126 A 
ATOM     16  C   UNL A   1      31.208  25.216  25.274  1.00  0.00     0.133 A 
ATOM     17  C   UNL A   1      32.779  23.957  26.512  1.00  0.00     0.053 A 
ATOM     18  F   UNL A   1      32.062  22.306  28.028  1.00  0.00    -0.207 F 
ATOM     19  F   UNL A   1      30.863  26.175  24.404  1.00  0.00    -0.206 F 
ENDBRANCH   9  11
BRANCH   9  20
ATOM     20  N   UNL A   1      33.946  26.910  24.728  1.00  0.00    -0.308 N 
ATOM     21  C   UNL A   1      33.646  27.842  23.643  1.00  0.00     0.325 C 
ATOM     22  C   UNL A   1      33.982  27.576  26.019  1.00  0.00     0.325 C 
ATOM     23  H   UNL A   1      34.903  26.588  24.580  1.00  0.00     0.349 HD
ATOM     24  C   UNL A   1      32.660  29.010  23.973  1.00  0.00     0.322 C 
ATOM     25  C   UNL A   1      32.671  28.295  26.350  1.00  0.00     0.322 C 
ATOM     26  N   UNL A   1      32.205  29.252  25.348  1.00  0.00    -0.337 N 
ATOM     27  H   UNL A   1      31.185  29.234  25.349  1.00  0.00     0.346 HD
ATOM     28  H   UNL A   1      32.605  30.151  25.618  1.00  0.00     0.346 HD
ENDBRANCH   9  20
ENDBRANCH   7   9
ENDBRANCH   6   7
ENDBRANCH   5   6
ENDBRANCH   4   5
ENDBRANCH   3   4
ENDBRANCH   2   3
ENDBRANCH   1   2
BRANCH   1  29
ATOM     29  O   UNL A   1      34.803  19.656  24.613  1.00  0.00    -0.376 OA
BRANCH  29  30
ATOM     30  C   UNL A   1      35.521  20.798  25.029  1.00  0.00     0.202 C 
BRANCH  30  31
ATOM     31  C   UNL A   1      37.052  20.967  24.954  1.00  0.00     0.261 C 
BRANCH  31  32
ATOM     32  O   UNL A   1      37.693  21.820  25.907  1.00  0.00    -0.460 OA
BRANCH  32  33
ATOM     33  C   UNL A   1      39.003  21.568  26.166  1.00  0.00     0.338 C 
ATOM     34  O   UNL A   1      39.639  20.588  25.832  1.00  0.00    -0.246 OA
BRANCH  33  35
ATOM     35  C   UNL A   1      39.582  22.805  26.737  1.00  0.00     0.060 A 
ATOM     36  C   UNL A   1      40.664  22.748  27.614  1.00  0.00     0.016 A 
ATOM     37  C   UNL A   1      39.009  24.038  26.402  1.00  0.00     0.016 A 
ATOM     38  C   UNL A   1      41.176  23.935  28.151  1.00  0.00     0.010 A 
ATOM     39  C   UNL A   1      39.507  25.217  26.957  1.00  0.00     0.010 A 
ATOM     40  C   UNL A   1      40.603  25.180  27.826  1.00  0.00    -0.014 A 
BRANCH  40  41
ATOM     41  C   UNL A   1      41.280  26.444  28.213  1.00  0.00     0.031 A 
ATOM     42  C   UNL A   1      42.699  26.757  27.845  1.00  0.00     0.074 A 
ATOM     43  C   UNL A   1      40.594  27.298  28.997  1.00  0.00     0.049 A 
ATOM     44  N   UNL A   1      43.353  27.879  28.009  1.00  0.00    -0.248 NA
ATOM     45  C   UNL A   1      43.499  25.680  27.243  1.00  0.00     0.031 C 
ATOM     46  C   UNL A   1      39.260  27.040  29.545  1.00  0.00     0.029 A 
ATOM     47  N   UNL A   1      40.921  28.540  29.477  1.00  0.00    -0.354 N 
ATOM     48  C   UNL A   1      44.639  27.651  27.536  1.00  0.00     0.074 A 
ATOM     49  C   UNL A   1      44.682  26.269  27.104  1.00  0.00     0.031 C 
ATOM     50  C   UNL A   1      38.869  28.104  30.260  1.00  0.00     0.029 A 
ATOM     51  C   UNL A   1      39.919  29.118  30.218  1.00  0.00     0.049 A 
ATOM     52  H   UNL A   1      41.787  28.975  29.305  1.00  0.00     0.167 HD
ATOM     53  C   UNL A   1      45.671  28.525  27.446  1.00  0.00     0.034 A 
ATOM     54  C   UNL A   1      39.834  30.340  30.778  1.00  0.00     0.034 A 
ATOM     55  C   UNL A   1      45.608  29.902  27.864  1.00  0.00     0.049 A 
ATOM     56  C   UNL A   1      40.953  31.319  30.591  1.00  0.00     0.074 A 
ATOM     57  C   UNL A   1      46.561  30.894  27.696  1.00  0.00     0.029 A 
ATOM     58  N   UNL A   1      44.551  30.480  28.548  1.00  0.00    -0.354 N 
ATOM     59  N   UNL A   1      42.083  31.156  29.949  1.00  0.00    -0.248 NA
ATOM     60  C   UNL A   1      40.773  32.659  31.168  1.00  0.00     0.031 C 
ATOM     61  C   UNL A   1      46.088  32.064  28.299  1.00  0.00     0.029 A 
ATOM     62  C   UNL A   1      44.832  31.808  28.822  1.00  0.00     0.049 A 
ATOM     63  H   UNL A   1      43.721  30.015  28.801  1.00  0.00     0.167 HD
ATOM     64  C   UNL A   1      42.743  32.375  30.026  1.00  0.00     0.074 A 
ATOM     65  C   UNL A   1      41.882  33.273  30.768  1.00  0.00     0.031 C 
ATOM     66  C   UNL A   1      43.961  32.709  29.533  1.00  0.00     0.034 A 
BRANCH  53  67
ATOM     67  C   UNL A   1      46.947  28.060  26.792  1.00  0.00     0.023 A 
ATOM     68  C   UNL A   1      47.939  27.456  27.591  1.00  0.00     0.012 A 
ATOM     69  C   UNL A   1      47.109  28.089  25.393  1.00  0.00     0.148 A 
ATOM     70  C   UNL A   1      49.078  26.900  27.010  1.00  0.00     0.002 A 
ATOM     71  C   UNL A   1      48.234  27.506  24.818  1.00  0.00     0.091 A 
ATOM     72  F   UNL A   1      46.155  28.669  24.651  1.00  0.00    -0.205 F 
ATOM     73  C   UNL A   1      49.220  26.916  25.626  1.00  0.00     0.022 A 
BRANCH  71  74
ATOM     74  S   UNL A   1      48.491  27.418  23.042  1.00  0.00     0.127 S 
ATOM     75  O   UNL A   1      48.342  25.984  22.793  1.00  0.00    -0.237 OA
ATOM     76  O   UNL A   1      47.394  28.241  22.532  1.00  0.00    -0.237 OA
ATOM     77  O   UNL A   1      49.823  27.953  22.798  1.00  0.00    -0.744 OA
ENDBRANCH  71  74
ENDBRANCH  53  67
BRANCH  54  78
ATOM     78  C   UNL A   1      38.568  30.717  31.458  1.00  0.00     0.023 A 
ATOM     79  C   UNL A   1      38.477  30.582  32.856  1.00  0.00     0.012 A 
ATOM     80  C   UNL A   1      37.517  31.329  30.748  1.00  0.00     0.148 A 
ATOM     81  C   UNL A   1      37.358  31.052  33.540  1.00  0.00     0.002 A 
ATOM     82  C   UNL A   1      36.422  31.829  31.440  1.00  0.00     0.091 A 
ATOM     83  F   UNL A   1      37.642  31.455  29.420  1.00  0.00    -0.205 F 
ATOM     84  C   UNL A   1      36.337  31.685  32.835  1.00  0.00     0.022 A 
BRANCH  82  85
ATOM     85  S   UNL A   1      35.107  32.752  30.640  1.00  0.00     0.127 S 
ATOM     86  O   UNL A   1      35.773  34.017  30.337  1.00  0.00    -0.237 OA
ATOM     87  O   UNL A   1      34.821  31.913  29.477  1.00  0.00    -0.237 OA
ATOM     88  O   UNL A   1      34.028  32.835  31.613  1.00  0.00    -0.744 OA
ENDBRANCH  82  85
ENDBRANCH  54  78
BRANCH  66  89
ATOM     89  C   UNL A   1      44.461  34.109  29.765  1.00  0.00     0.023 A 
ATOM     90  C   UNL A   1      45.460  34.334  30.732  1.00  0.00     0.012 A 
ATOM     91  C   UNL A   1      44.036  35.171  28.944  1.00  0.00     0.148 A 
ATOM     92  C   UNL A   1      46.027  35.599  30.879  1.00  0.00     0.002 A 
ATOM     93  C   UNL A   1      44.629  36.422  29.074  1.00  0.00     0.091 A 
ATOM     94  F   UNL A   1      43.077  34.932  28.037  1.00  0.00    -0.205 F 
ATOM     95  C   UNL A   1      45.623  36.638  30.044  1.00  0.00     0.022 A 
BRANCH  93  96
ATOM     96  S   UNL A   1      44.226  37.804  28.001  1.00  0.00     0.127 S 
ATOM     97  O   UNL A   1      43.139  38.448  28.740  1.00  0.00    -0.237 OA
ATOM     98  O   UNL A   1      45.480  38.557  27.983  1.00  0.00    -0.237 OA
ATOM     99  O   UNL A   1      43.843  37.226  26.719  1.00  0.00    -0.744 OA
ENDBRANCH  93  96
ENDBRANCH  66  89
ENDBRANCH  40  41
ENDBRANCH  33  35
ENDBRANCH  32  33
ENDBRANCH  31  32
ENDBRANCH  30  31
ENDBRANCH  29  30
ENDBRANCH   1  29
TORSDOF 22
ENDMDL
MODEL 3
REMARK VINA RESULT:     -11.2      1.872      2.609
REMARK SMILES Cc1cc(F)c([C@@](C)(C(=O)OCCOCCOCCOC(=O)c2ccc(-c3c4nc(c(-c5cccc(S(=O)(=O)[O-])c5F)c5ccc([nH]5)c(-c5cccc(S(=O)(=O)[O-])c5F)c5nc(c(-c6cccc(S(=O)(=O)[O-])c6F)c6ccc3[nH]6)C=C5)C=C4)cc2)[NH+]2CC[NH2+]CC2)cc1F
REMARK SMILES IDX 16 1 15 2 14 3 13 4 12 5 11 6 9 7 10 8 7 9 8 10 6 11 1 12
REMARK SMILES IDX 2 13 3 14 93 15 4 16 92 17 94 18 5 19 86 20 87 21 91 22
REMARK SMILES IDX 88 24 90 25 89 26 17 29 18 30 19 31 20 32 21 33 22 34 23 35
REMARK SMILES IDX 24 36 85 37 25 38 84 39 26 40 27 41 28 42 78 43 29 44 83 45
REMARK SMILES IDX 77 46 79 47 30 48 82 49 76 50 75 51 31 53 63 54 43 55 62 56
REMARK SMILES IDX 44 57 47 58 61 59 80 60 45 61 46 62 60 64 81 65 48 66 32 67
REMARK SMILES IDX 33 68 41 69 34 70 36 71 42 72 35 73 37 74 38 75 39 76 40 77
REMARK SMILES IDX 64 78 65 79 73 80 66 81 68 82 74 83 67 84 69 85 70 86 71 87
REMARK SMILES IDX 72 88 49 89 50 90 58 91 51 92 53 93 59 94 52 95 54 96 55 97
REMARK SMILES IDX 56 98 57 99
REMARK H PARENT 86 23 89 27 89 28 79 52 47 63
REMARK Flexibility Score: inf
ROOT
ATOM      1  C   UNL A   1      32.656  19.705  24.294  1.00  0.00     0.188 C 
ENDROOT
BRANCH   1   2
ATOM      2  C   UNL A   1      32.244  20.720  23.219  1.00  0.00     0.188 C 
BRANCH   2   3
ATOM      3  O   UNL A   1      31.780  21.995  23.637  1.00  0.00    -0.376 OA
BRANCH   3   4
ATOM      4  C   UNL A   1      32.345  23.163  23.053  1.00  0.00     0.202 C 
BRANCH   4   5
ATOM      5  C   UNL A   1      33.644  23.744  23.633  1.00  0.00     0.261 C 
BRANCH   5   6
ATOM      6  O   UNL A   1      33.478  24.857  24.544  1.00  0.00    -0.458 OA
BRANCH   6   7
ATOM      7  C   UNL A   1      33.090  26.041  23.980  1.00  0.00     0.372 C 
ATOM      8  O   UNL A   1      33.559  26.443  22.915  1.00  0.00    -0.244 OA
BRANCH   7   9
ATOM      9  C   UNL A   1      32.076  26.890  24.843  1.00  0.00     0.221 C 
ATOM     10  C   UNL A   1      31.140  25.768  25.383  1.00  0.00     0.098 C 
BRANCH   9  11
ATOM     11  C   UNL A   1      31.221  27.952  24.087  1.00  0.00     0.062 A 
ATOM     12  C   UNL A   1      28.116  30.646  22.625  1.00  0.00     0.047 C 
ATOM     13  C   UNL A   1      29.270  29.776  23.015  1.00  0.00    -0.012 A 
ATOM     14  C   UNL A   1      29.503  28.536  22.418  1.00  0.00     0.046 A 
ATOM     15  C   UNL A   1      30.091  30.140  24.068  1.00  0.00     0.126 A 
ATOM     16  C   UNL A   1      30.470  27.655  22.937  1.00  0.00     0.133 A 
ATOM     17  C   UNL A   1      31.055  29.264  24.567  1.00  0.00     0.053 A 
ATOM     18  F   UNL A   1      29.932  31.330  24.666  1.00  0.00    -0.207 F 
ATOM     19  F   UNL A   1      30.617  26.480  22.310  1.00  0.00    -0.206 F 
ENDBRANCH   9  11
BRANCH   9  20
ATOM     20  N   UNL A   1      32.828  27.451  26.019  1.00  0.00    -0.308 N 
ATOM     21  C   UNL A   1      33.979  28.334  25.844  1.00  0.00     0.325 C 
ATOM     22  C   UNL A   1      32.227  27.599  27.333  1.00  0.00     0.325 C 
ATOM     23  H   UNL A   1      33.188  26.496  26.009  1.00  0.00     0.349 HD
ATOM     24  C   UNL A   1      33.903  29.732  26.540  1.00  0.00     0.322 C 
ATOM     25  C   UNL A   1      31.779  29.036  27.619  1.00  0.00     0.322 C 
ATOM     26  N   UNL A   1      32.810  30.061  27.463  1.00  0.00    -0.337 N 
ATOM     27  H   UNL A   1      32.357  30.910  27.124  1.00  0.00     0.346 HD
ATOM     28  H   UNL A   1      33.243  30.159  28.382  1.00  0.00     0.346 HD
ENDBRANCH   9  20
ENDBRANCH   7   9
ENDBRANCH   6   7
ENDBRANCH   5   6
ENDBRANCH   4   5
ENDBRANCH   3   4
ENDBRANCH   2   3
ENDBRANCH   1   2
BRANCH   1  29
ATOM     29  O   UNL A   1      33.536  20.178  25.279  1.00  0.00    -0.376 OA
BRANCH  29  30
ATOM     30  C   UNL A   1      34.909  20.343  24.996  1.00  0.00     0.202 C 
BRANCH  30  31
ATOM     31  C   UNL A   1      35.866  21.302  25.734  1.00  0.00     0.261 C 
BRANCH  31  32
ATOM     32  O   UNL A   1      37.084  21.684  25.089  1.00  0.00    -0.460 OA
BRANCH  32  33
ATOM     33  C   UNL A   1      38.237  21.238  25.652  1.00  0.00     0.338 C 
ATOM     34  O   UNL A   1      38.713  20.124  25.559  1.00  0.00    -0.246 OA
BRANCH  33  35
ATOM     35  C   UNL A   1      38.931  22.417  26.219  1.00  0.00     0.060 A 
ATOM     36  C   UNL A   1      40.054  22.261  27.032  1.00  0.00     0.016 A 
ATOM     37  C   UNL A   1      38.428  23.694  25.947  1.00  0.00     0.016 A 
ATOM     38  C   UNL A   1      40.674  23.395  27.568  1.00  0.00     0.010 A 
ATOM     39  C   UNL A   1      39.036  24.821  26.501  1.00  0.00     0.010 A 
ATOM     40  C   UNL A   1      40.173  24.686  27.306  1.00  0.00    -0.014 A 
BRANCH  40  41
ATOM     41  C   UNL A   1      40.956  25.889  27.684  1.00  0.00     0.031 A 
ATOM     42  C   UNL A   1      42.400  26.071  27.324  1.00  0.00     0.074 A 
ATOM     43  C   UNL A   1      40.343  26.809  28.453  1.00  0.00     0.049 A 
ATOM     44  N   UNL A   1      43.149  27.133  27.481  1.00  0.00    -0.248 NA
ATOM     45  C   UNL A   1      43.105  24.922  26.740  1.00  0.00     0.031 C 
ATOM     46  C   UNL A   1      38.988  26.676  28.994  1.00  0.00     0.029 A 
ATOM     47  N   UNL A   1      40.775  28.023  28.922  1.00  0.00    -0.354 N 
ATOM     48  C   UNL A   1      44.413  26.788  27.020  1.00  0.00     0.074 A 
ATOM     49  C   UNL A   1      44.337  25.402  26.603  1.00  0.00     0.031 C 
ATOM     50  C   UNL A   1      38.688  27.778  29.695  1.00  0.00     0.029 A 
ATOM     51  C   UNL A   1      39.823  28.695  29.650  1.00  0.00     0.049 A 
ATOM     52  H   UNL A   1      41.678  28.378  28.753  1.00  0.00     0.167 HD
ATOM     53  C   UNL A   1      45.519  27.566  26.928  1.00  0.00     0.034 A 
ATOM     54  C   UNL A   1      39.843  29.926  30.196  1.00  0.00     0.034 A 
ATOM     55  C   UNL A   1      45.575  28.948  27.331  1.00  0.00     0.049 A 
ATOM     56  C   UNL A   1      41.044  30.801  30.007  1.00  0.00     0.074 A 
ATOM     57  C   UNL A   1      46.613  29.850  27.159  1.00  0.00     0.029 A 
ATOM     58  N   UNL A   1      44.568  29.625  28.001  1.00  0.00    -0.354 N 
ATOM     59  N   UNL A   1      42.160  30.531  29.375  1.00  0.00    -0.248 NA
ATOM     60  C   UNL A   1      40.980  32.158  30.568  1.00  0.00     0.031 C 
ATOM     61  C   UNL A   1      46.241  31.064  27.746  1.00  0.00     0.029 A 
ATOM     62  C   UNL A   1      44.964  30.925  28.263  1.00  0.00     0.049 A 
ATOM     63  H   UNL A   1      43.699  29.237  28.252  1.00  0.00     0.167 HD
ATOM     64  C   UNL A   1      42.925  31.688  29.444  1.00  0.00     0.074 A 
ATOM     65  C   UNL A   1      42.141  32.668  30.170  1.00  0.00     0.031 C 
ATOM     66  C   UNL A   1      44.171  31.908  28.957  1.00  0.00     0.034 A 
BRANCH  53  67
ATOM     67  C   UNL A   1      46.753  26.983  26.289  1.00  0.00     0.023 A 
ATOM     68  C   UNL A   1      46.969  27.196  24.912  1.00  0.00     0.012 A 
ATOM     69  C   UNL A   1      47.754  26.357  27.058  1.00  0.00     0.148 A 
ATOM     70  C   UNL A   1      48.156  26.783  24.307  1.00  0.00     0.002 A 
ATOM     71  C   UNL A   1      48.947  25.974  26.453  1.00  0.00     0.091 A 
ATOM     72  F   UNL A   1      47.528  26.163  28.365  1.00  0.00    -0.205 F 
ATOM     73  C   UNL A   1      49.146  26.182  25.078  1.00  0.00     0.022 A 
BRANCH  71  74
ATOM     74  S   UNL A   1      50.315  25.246  27.363  1.00  0.00     0.127 S 
ATOM     75  O   UNL A   1      51.269  24.969  26.290  1.00  0.00    -0.237 OA
ATOM     76  O   UNL A   1      50.704  26.336  28.258  1.00  0.00    -0.237 OA
ATOM     77  O   UNL A   1      49.776  24.069  28.031  1.00  0.00    -0.744 OA
ENDBRANCH  71  74
ENDBRANCH  53  67
BRANCH  54  78
ATOM     78  C   UNL A   1      38.610  30.422  30.862  1.00  0.00     0.023 A 
ATOM     79  C   UNL A   1      38.468  30.246  32.251  1.00  0.00     0.012 A 
ATOM     80  C   UNL A   1      37.656  31.176  30.154  1.00  0.00     0.148 A 
ATOM     81  C   UNL A   1      37.392  30.817  32.929  1.00  0.00     0.002 A 
ATOM     82  C   UNL A   1      36.606  31.773  30.841  1.00  0.00     0.091 A 
ATOM     83  F   UNL A   1      37.829  31.335  28.835  1.00  0.00    -0.205 F 
ATOM     84  C   UNL A   1      36.468  31.589  32.227  1.00  0.00     0.022 A 
BRANCH  82  85
ATOM     85  S   UNL A   1      35.427  32.870  30.049  1.00  0.00     0.127 S 
ATOM     86  O   UNL A   1      34.610  31.928  29.286  1.00  0.00    -0.237 OA
ATOM     87  O   UNL A   1      34.760  33.470  31.203  1.00  0.00    -0.237 OA
ATOM     88  O   UNL A   1      36.217  33.795  29.250  1.00  0.00    -0.744 OA
ENDBRANCH  82  85
ENDBRANCH  54  78
BRANCH  66  89
ATOM     89  C   UNL A   1      44.791  33.261  29.178  1.00  0.00     0.023 A 
ATOM     90  C   UNL A   1      45.692  33.441  30.245  1.00  0.00     0.012 A 
ATOM     91  C   UNL A   1      44.580  34.309  28.260  1.00  0.00     0.148 A 
ATOM     92  C   UNL A   1      46.373  34.648  30.396  1.00  0.00     0.002 A 
ATOM     93  C   UNL A   1      45.287  35.497  28.398  1.00  0.00     0.091 A 
ATOM     94  F   UNL A   1      43.711  34.113  27.258  1.00  0.00    -0.205 F 
ATOM     95  C   UNL A   1      46.182  35.670  29.468  1.00  0.00     0.022 A 
BRANCH  93  96
ATOM     96  S   UNL A   1      45.163  36.845  27.217  1.00  0.00     0.127 S 
ATOM     97  O   UNL A   1      45.739  37.957  27.973  1.00  0.00    -0.237 OA
ATOM     98  O   UNL A   1      45.992  36.364  26.112  1.00  0.00    -0.237 OA
ATOM     99  O   UNL A   1      43.746  36.981  26.904  1.00  0.00    -0.744 OA
ENDBRANCH  93  96
ENDBRANCH  66  89
ENDBRANCH  40  41
ENDBRANCH  33  35
ENDBRANCH  32  33
ENDBRANCH  31  32
ENDBRANCH  30  31
ENDBRANCH  29  30
ENDBRANCH   1  29
TORSDOF 22
ENDMDL
