MODEL 1
REMARK VINA RESULT:     -11.0      0.000      0.000
REMARK SMILES C[C@@H]1[C@@H](C(=O)OCCOCCOCCOC(=O)c2ccc(-c3c4nc(c(-c5cccc(S(=O)(=O)[O-])c5F)c5ccc([nH]5)c(-c5cccc(S(=O)(=O)[O-])c5F)c5nc(c(-c6cccc(S(=O)(=O)[O-])c6F)c6ccc3[nH]6)C=C5)C=C4)cc2)CCN1c1nc2sccn2c1[N+](=O)[O-]
REMARK SMILES IDX 11 1 10 2 9 3 8 4 7 5 6 6 4 7 5 8 3 9 1 10 2 11 83 12 81 13
REMARK SMILES IDX 82 14 84 15 85 16 91 17 86 18 90 19 87 20 89 21 88 22 92 23
REMARK SMILES IDX 93 24 94 25 12 26 13 27 14 28 15 29 16 30 17 31 18 32 19 33
REMARK SMILES IDX 80 34 20 35 79 36 21 37 22 38 23 39 73 40 24 41 78 42 72 43
REMARK SMILES IDX 74 44 25 45 77 46 71 47 70 48 26 50 58 51 38 52 57 53 39 54
REMARK SMILES IDX 42 55 56 56 75 57 40 58 41 59 55 61 76 62 43 63 27 64 28 65
REMARK SMILES IDX 36 66 29 67 31 68 37 69 30 70 32 71 33 72 34 73 35 74 59 75
REMARK SMILES IDX 60 76 68 77 61 78 63 79 69 80 62 81 64 82 65 83 66 84 67 85
REMARK SMILES IDX 44 86 45 87 53 88 46 89 48 90 54 91 47 92 49 93 50 94 51 95
REMARK SMILES IDX 52 96
REMARK H PARENT 74 49 42 60
REMARK Flexibility Score: inf
ROOT
ATOM      1  C   UNL A   1      32.041  28.605  22.894  1.00  0.00     0.188 C 
ENDROOT
BRANCH   1   2
ATOM      2  C   UNL A   1      30.802  27.832  22.395  1.00  0.00     0.188 C 
BRANCH   2   3
ATOM      3  O   UNL A   1      29.958  27.336  23.406  1.00  0.00    -0.376 OA
BRANCH   3   4
ATOM      4  C   UNL A   1      30.219  26.089  24.025  1.00  0.00     0.202 C 
BRANCH   4   5
ATOM      5  C   UNL A   1      31.284  25.064  23.586  1.00  0.00     0.261 C 
BRANCH   5   6
ATOM      6  O   UNL A   1      32.603  25.209  24.117  1.00  0.00    -0.463 OA
BRANCH   6   7
ATOM      7  C   UNL A   1      33.596  24.665  23.360  1.00  0.00     0.311 C 
ATOM      8  O   UNL A   1      33.492  24.436  22.162  1.00  0.00    -0.252 OA
BRANCH   7   9
ATOM      9  C   UNL A   1      34.841  24.415  24.200  1.00  0.00     0.123 C 
ATOM     10  C   UNL A   1      36.827  22.815  24.231  1.00  0.00     0.032 C 
ATOM     11  C   UNL A   1      35.330  22.984  23.963  1.00  0.00     0.095 C 
ATOM     12  N   UNL A   1      34.530  22.201  24.930  1.00  0.00    -0.346 N 
ATOM     13  C   UNL A   1      34.533  24.442  25.683  1.00  0.00     0.039 C 
ATOM     14  C   UNL A   1      33.877  23.082  25.893  1.00  0.00     0.119 C 
BRANCH  12  15
ATOM     15  C   UNL A   1      34.106  20.967  24.553  1.00  0.00     0.229 A 
ATOM     16  N   UNL A   1      34.831  19.898  25.051  1.00  0.00    -0.173 NA
ATOM     17  C   UNL A   1      33.073  20.515  23.746  1.00  0.00     0.373 A 
ATOM     18  C   UNL A   1      34.270  18.857  24.518  1.00  0.00     0.286 A 
ATOM     19  N   UNL A   1      33.212  19.152  23.712  1.00  0.00    -0.166 N 
ATOM     20  S   UNL A   1      34.570  17.151  24.598  1.00  0.00    -0.078 S 
ATOM     21  C   UNL A   1      32.621  18.050  23.120  1.00  0.00     0.220 A 
ATOM     22  C   UNL A   1      33.222  16.903  23.483  1.00  0.00     0.114 A 
BRANCH  17  23
ATOM     23  N   UNL A   1      32.040  21.144  23.014  1.00  0.00    -0.023 N 
ATOM     24  O   UNL A   1      31.351  22.002  23.571  1.00  0.00    -0.358 OA
ATOM     25  O   UNL A   1      31.891  20.794  21.836  1.00  0.00    -0.358 OA
ENDBRANCH  17  23
ENDBRANCH  12  15
ENDBRANCH   7   9
ENDBRANCH   6   7
ENDBRANCH   5   6
ENDBRANCH   4   5
ENDBRANCH   3   4
ENDBRANCH   2   3
ENDBRANCH   1   2
BRANCH   1  26
ATOM     26  O   UNL A   1      32.488  28.439  24.224  1.00  0.00    -0.376 OA
BRANCH  26  27
ATOM     27  C   UNL A   1      32.948  29.585  24.928  1.00  0.00     0.202 C 
BRANCH  27  28
ATOM     28  C   UNL A   1      32.052  30.395  25.891  1.00  0.00     0.261 C 
BRANCH  28  29
ATOM     29  O   UNL A   1      32.545  30.615  27.222  1.00  0.00    -0.460 OA
BRANCH  29  30
ATOM     30  C   UNL A   1      33.298  31.730  27.397  1.00  0.00     0.338 C 
ATOM     31  O   UNL A   1      32.905  32.892  27.372  1.00  0.00    -0.246 OA
BRANCH  30  32
ATOM     32  C   UNL A   1      34.653  31.357  27.848  1.00  0.00     0.060 A 
ATOM     33  C   UNL A   1      34.921  30.016  28.169  1.00  0.00     0.016 A 
ATOM     34  C   UNL A   1      35.639  32.328  28.006  1.00  0.00     0.016 A 
ATOM     35  C   UNL A   1      36.173  29.643  28.658  1.00  0.00     0.010 A 
ATOM     36  C   UNL A   1      36.883  31.958  28.528  1.00  0.00     0.010 A 
ATOM     37  C   UNL A   1      37.147  30.621  28.883  1.00  0.00    -0.014 A 
BRANCH  37  38
ATOM     38  C   UNL A   1      38.371  30.294  29.657  1.00  0.00     0.031 A 
ATOM     39  C   UNL A   1      39.331  29.284  29.085  1.00  0.00     0.074 A 
ATOM     40  C   UNL A   1      38.619  30.857  30.852  1.00  0.00     0.049 A 
ATOM     41  N   UNL A   1      40.403  28.761  29.618  1.00  0.00    -0.248 NA
ATOM     42  C   UNL A   1      39.033  28.794  27.728  1.00  0.00     0.031 C 
ATOM     43  C   UNL A   1      37.789  31.869  31.502  1.00  0.00     0.029 A 
ATOM     44  N   UNL A   1      39.633  30.626  31.750  1.00  0.00    -0.354 N 
ATOM     45  C   UNL A   1      40.891  27.859  28.680  1.00  0.00     0.074 A 
ATOM     46  C   UNL A   1      39.992  27.898  27.547  1.00  0.00     0.031 C 
ATOM     47  C   UNL A   1      38.306  32.146  32.712  1.00  0.00     0.029 A 
ATOM     48  C   UNL A   1      39.483  31.306  32.936  1.00  0.00     0.049 A 
ATOM     49  H   UNL A   1      40.393  30.029  31.563  1.00  0.00     0.167 HD
ATOM     50  C   UNL A   1      41.994  27.077  28.748  1.00  0.00     0.034 A 
ATOM     51  C   UNL A   1      40.196  31.235  34.078  1.00  0.00     0.034 A 
ATOM     52  C   UNL A   1      42.892  27.046  29.870  1.00  0.00     0.049 A 
ATOM     53  C   UNL A   1      41.389  30.313  34.149  1.00  0.00     0.074 A 
ATOM     54  C   UNL A   1      44.052  26.307  30.022  1.00  0.00     0.029 A 
ATOM     55  N   UNL A   1      42.726  27.772  31.038  1.00  0.00    -0.354 N 
ATOM     56  N   UNL A   1      41.894  29.536  33.221  1.00  0.00    -0.248 NA
ATOM     57  C   UNL A   1      42.130  30.280  35.421  1.00  0.00     0.031 C 
ATOM     58  C   UNL A   1      44.570  26.562  31.296  1.00  0.00     0.029 A 
ATOM     59  C   UNL A   1      43.754  27.493  31.921  1.00  0.00     0.049 A 
ATOM     60  H   UNL A   1      41.985  28.396  31.215  1.00  0.00     0.167 HD
ATOM     61  C   UNL A   1      43.033  28.962  33.777  1.00  0.00     0.074 A 
ATOM     62  C   UNL A   1      43.153  29.492  35.119  1.00  0.00     0.031 C 
ATOM     63  C   UNL A   1      43.897  28.071  33.232  1.00  0.00     0.034 A 
BRANCH  50  64
ATOM     64  C   UNL A   1      42.302  26.199  27.564  1.00  0.00     0.023 A 
ATOM     65  C   UNL A   1      43.051  26.716  26.486  1.00  0.00     0.012 A 
ATOM     66  C   UNL A   1      41.902  24.849  27.541  1.00  0.00     0.148 A 
ATOM     67  C   UNL A   1      43.368  25.913  25.391  1.00  0.00     0.002 A 
ATOM     68  C   UNL A   1      42.262  24.042  26.468  1.00  0.00     0.091 A 
ATOM     69  F   UNL A   1      41.174  24.381  28.566  1.00  0.00    -0.205 F 
ATOM     70  C   UNL A   1      42.984  24.576  25.388  1.00  0.00     0.022 A 
BRANCH  68  71
ATOM     71  S   UNL A   1      41.884  22.287  26.403  1.00  0.00     0.127 S 
ATOM     72  O   UNL A   1      40.425  22.302  26.314  1.00  0.00    -0.237 OA
ATOM     73  O   UNL A   1      42.566  21.873  25.177  1.00  0.00    -0.237 OA
ATOM     74  O   UNL A   1      42.426  21.711  27.626  1.00  0.00    -0.744 OA
ENDBRANCH  68  71
ENDBRANCH  50  64
BRANCH  51  75
ATOM     75  C   UNL A   1      39.823  32.076  35.254  1.00  0.00     0.023 A 
ATOM     76  C   UNL A   1      40.408  33.349  35.407  1.00  0.00     0.012 A 
ATOM     77  C   UNL A   1      38.914  31.618  36.228  1.00  0.00     0.148 A 
ATOM     78  C   UNL A   1      40.128  34.132  36.529  1.00  0.00     0.002 A 
ATOM     79  C   UNL A   1      38.597  32.427  37.314  1.00  0.00     0.091 A 
ATOM     80  F   UNL A   1      38.382  30.398  36.077  1.00  0.00    -0.205 F 
ATOM     81  C   UNL A   1      39.217  33.674  37.477  1.00  0.00     0.022 A 
BRANCH  79  82
ATOM     82  S   UNL A   1      37.350  31.975  38.526  1.00  0.00     0.127 S 
ATOM     83  O   UNL A   1      37.983  32.391  39.775  1.00  0.00    -0.237 OA
ATOM     84  O   UNL A   1      36.213  32.797  38.109  1.00  0.00    -0.237 OA
ATOM     85  O   UNL A   1      37.146  30.541  38.368  1.00  0.00    -0.744 OA
ENDBRANCH  79  82
ENDBRANCH  51  75
BRANCH  63  86
ATOM     86  C   UNL A   1      45.091  27.647  34.054  1.00  0.00     0.023 A 
ATOM     87  C   UNL A   1      46.277  28.406  34.020  1.00  0.00     0.012 A 
ATOM     88  C   UNL A   1      45.003  26.540  34.922  1.00  0.00     0.148 A 
ATOM     89  C   UNL A   1      47.371  28.046  34.809  1.00  0.00     0.002 A 
ATOM     90  C   UNL A   1      46.077  26.220  35.743  1.00  0.00     0.091 A 
ATOM     91  F   UNL A   1      43.871  25.822  34.930  1.00  0.00    -0.205 F 
ATOM     92  C   UNL A   1      47.266  26.963  35.679  1.00  0.00     0.022 A 
BRANCH  90  93
ATOM     93  S   UNL A   1      46.001  24.905  36.966  1.00  0.00     0.127 S 
ATOM     94  O   UNL A   1      45.803  23.726  36.123  1.00  0.00    -0.237 OA
ATOM     95  O   UNL A   1      47.320  24.989  37.593  1.00  0.00    -0.237 OA
ATOM     96  O   UNL A   1      44.888  25.235  37.846  1.00  0.00    -0.744 OA
ENDBRANCH  90  93
ENDBRANCH  63  86
ENDBRANCH  37  38
ENDBRANCH  30  32
ENDBRANCH  29  30
ENDBRANCH  28  29
ENDBRANCH  27  28
ENDBRANCH  26  27
ENDBRANCH   1  26
TORSDOF 22
ENDMDL
MODEL 2
REMARK VINA RESULT:     -10.8      5.375      8.615
REMARK SMILES C[C@@H]1[C@@H](C(=O)OCCOCCOCCOC(=O)c2ccc(-c3c4nc(c(-c5cccc(S(=O)(=O)[O-])c5F)c5ccc([nH]5)c(-c5cccc(S(=O)(=O)[O-])c5F)c5nc(c(-c6cccc(S(=O)(=O)[O-])c6F)c6ccc3[nH]6)C=C5)C=C4)cc2)CCN1c1nc2sccn2c1[N+](=O)[O-]
REMARK SMILES IDX 11 1 10 2 9 3 8 4 7 5 6 6 4 7 5 8 3 9 1 10 2 11 83 12 81 13
REMARK SMILES IDX 82 14 84 15 85 16 91 17 86 18 90 19 87 20 89 21 88 22 92 23
REMARK SMILES IDX 93 24 94 25 12 26 13 27 14 28 15 29 16 30 17 31 18 32 19 33
REMARK SMILES IDX 80 34 20 35 79 36 21 37 22 38 23 39 73 40 24 41 78 42 72 43
REMARK SMILES IDX 74 44 25 45 77 46 71 47 70 48 26 50 58 51 38 52 57 53 39 54
REMARK SMILES IDX 42 55 56 56 75 57 40 58 41 59 55 61 76 62 43 63 27 64 28 65
REMARK SMILES IDX 36 66 29 67 31 68 37 69 30 70 32 71 33 72 34 73 35 74 59 75
REMARK SMILES IDX 60 76 68 77 61 78 63 79 69 80 62 81 64 82 65 83 66 84 67 85
REMARK SMILES IDX 44 86 45 87 53 88 46 89 48 90 54 91 47 92 49 93 50 94 51 95
REMARK SMILES IDX 52 96
REMARK H PARENT 74 49 42 60
REMARK Flexibility Score: inf
ROOT
ATOM      1  C   UNL A   1      36.000  20.463  24.757  1.00  0.00     0.188 C 
ENDROOT
BRANCH   1   2
ATOM      2  C   UNL A   1      35.999  21.731  25.636  1.00  0.00     0.188 C 
BRANCH   2   3
ATOM      3  O   UNL A   1      35.114  21.702  26.730  1.00  0.00    -0.376 OA
BRANCH   3   4
ATOM      4  C   UNL A   1      34.400  22.862  27.120  1.00  0.00     0.202 C 
BRANCH   4   5
ATOM      5  C   UNL A   1      32.894  22.933  27.444  1.00  0.00     0.261 C 
BRANCH   5   6
ATOM      6  O   UNL A   1      32.096  23.849  26.691  1.00  0.00    -0.463 OA
BRANCH   6   7
ATOM      7  C   UNL A   1      31.260  23.276  25.781  1.00  0.00     0.311 C 
ATOM      8  O   UNL A   1      30.197  22.745  26.072  1.00  0.00    -0.252 OA
BRANCH   7   9
ATOM      9  C   UNL A   1      31.818  23.416  24.371  1.00  0.00     0.123 C 
ATOM     10  C   UNL A   1      33.676  24.691  23.177  1.00  0.00     0.032 C 
ATOM     11  C   UNL A   1      32.604  24.725  24.268  1.00  0.00     0.095 C 
ATOM     12  N   UNL A   1      31.552  25.713  23.942  1.00  0.00    -0.346 N 
ATOM     13  C   UNL A   1      30.715  23.584  23.345  1.00  0.00     0.039 C 
ATOM     14  C   UNL A   1      30.318  25.042  23.546  1.00  0.00     0.119 C 
BRANCH  12  15
ATOM     15  C   UNL A   1      31.653  26.954  24.486  1.00  0.00     0.229 A 
ATOM     16  N   UNL A   1      32.449  27.058  25.614  1.00  0.00    -0.173 NA
ATOM     17  C   UNL A   1      31.115  28.189  24.160  1.00  0.00     0.373 A 
ATOM     18  C   UNL A   1      32.344  28.303  25.964  1.00  0.00     0.286 A 
ATOM     19  N   UNL A   1      31.549  29.042  25.141  1.00  0.00    -0.166 N 
ATOM     20  S   UNL A   1      32.994  29.250  27.262  1.00  0.00    -0.078 S 
ATOM     21  C   UNL A   1      31.412  30.365  25.519  1.00  0.00     0.220 A 
ATOM     22  C   UNL A   1      32.116  30.646  26.630  1.00  0.00     0.114 A 
BRANCH  17  23
ATOM     23  N   UNL A   1      30.271  28.661  23.128  1.00  0.00    -0.023 N 
ATOM     24  O   UNL A   1      30.388  28.185  21.997  1.00  0.00    -0.358 OA
ATOM     25  O   UNL A   1      29.447  29.533  23.430  1.00  0.00    -0.358 OA
ENDBRANCH  17  23
ENDBRANCH  12  15
ENDBRANCH   7   9
ENDBRANCH   6   7
ENDBRANCH   5   6
ENDBRANCH   4   5
ENDBRANCH   3   4
ENDBRANCH   2   3
ENDBRANCH   1   2
BRANCH   1  26
ATOM     26  O   UNL A   1      37.099  19.575  24.800  1.00  0.00    -0.376 OA
BRANCH  26  27
ATOM     27  C   UNL A   1      38.363  20.088  25.200  1.00  0.00     0.202 C 
BRANCH  27  28
ATOM     28  C   UNL A   1      39.475  19.204  25.807  1.00  0.00     0.261 C 
BRANCH  28  29
ATOM     29  O   UNL A   1      40.834  19.633  25.621  1.00  0.00    -0.460 OA
BRANCH  29  30
ATOM     30  C   UNL A   1      41.539  19.867  26.757  1.00  0.00     0.338 C 
ATOM     31  O   UNL A   1      42.220  19.057  27.377  1.00  0.00    -0.246 OA
BRANCH  30  32
ATOM     32  C   UNL A   1      41.563  21.315  27.045  1.00  0.00     0.060 A 
ATOM     33  C   UNL A   1      41.347  22.223  25.996  1.00  0.00     0.016 A 
ATOM     34  C   UNL A   1      41.850  21.776  28.328  1.00  0.00     0.016 A 
ATOM     35  C   UNL A   1      41.425  23.598  26.225  1.00  0.00     0.010 A 
ATOM     36  C   UNL A   1      41.962  23.153  28.547  1.00  0.00     0.010 A 
ATOM     37  C   UNL A   1      41.778  24.069  27.493  1.00  0.00    -0.014 A 
BRANCH  37  38
ATOM     38  C   UNL A   1      42.140  25.495  27.687  1.00  0.00     0.031 A 
ATOM     39  C   UNL A   1      43.497  25.959  27.225  1.00  0.00     0.074 A 
ATOM     40  C   UNL A   1      41.299  26.359  28.282  1.00  0.00     0.049 A 
ATOM     41  N   UNL A   1      44.074  27.121  27.380  1.00  0.00    -0.248 NA
ATOM     42  C   UNL A   1      44.311  24.973  26.495  1.00  0.00     0.031 C 
ATOM     43  C   UNL A   1      39.949  26.047  28.745  1.00  0.00     0.029 A 
ATOM     44  N   UNL A   1      41.476  27.677  28.628  1.00  0.00    -0.354 N 
ATOM     45  C   UNL A   1      45.331  26.999  26.797  1.00  0.00     0.074 A 
ATOM     46  C   UNL A   1      45.435  25.646  26.295  1.00  0.00     0.031 C 
ATOM     47  C   UNL A   1      39.433  27.132  29.350  1.00  0.00     0.029 A 
ATOM     48  C   UNL A   1      40.428  28.204  29.345  1.00  0.00     0.049 A 
ATOM     49  H   UNL A   1      42.279  28.195  28.386  1.00  0.00     0.167 HD
ATOM     50  C   UNL A   1      46.306  27.930  26.680  1.00  0.00     0.034 A 
ATOM     51  C   UNL A   1      40.301  29.401  29.953  1.00  0.00     0.034 A 
ATOM     52  C   UNL A   1      46.198  29.277  27.171  1.00  0.00     0.049 A 
ATOM     53  C   UNL A   1      41.427  30.402  29.856  1.00  0.00     0.074 A 
ATOM     54  C   UNL A   1      47.122  30.303  27.075  1.00  0.00     0.029 A 
ATOM     55  N   UNL A   1      45.110  29.783  27.863  1.00  0.00    -0.354 N 
ATOM     56  N   UNL A   1      42.570  30.307  29.221  1.00  0.00    -0.248 NA
ATOM     57  C   UNL A   1      41.230  31.693  30.536  1.00  0.00     0.031 C 
ATOM     58  C   UNL A   1      46.604  31.420  27.738  1.00  0.00     0.029 A 
ATOM     59  C   UNL A   1      45.340  31.102  28.210  1.00  0.00     0.049 A 
ATOM     60  H   UNL A   1      44.291  29.278  28.075  1.00  0.00     0.167 HD
ATOM     61  C   UNL A   1      43.205  31.535  29.384  1.00  0.00     0.074 A 
ATOM     62  C   UNL A   1      42.312  32.364  30.166  1.00  0.00     0.031 C 
ATOM     63  C   UNL A   1      44.420  31.937  28.937  1.00  0.00     0.034 A 
BRANCH  50  64
ATOM     64  C   UNL A   1      47.574  27.528  25.974  1.00  0.00     0.023 A 
ATOM     65  C   UNL A   1      48.631  26.950  26.708  1.00  0.00     0.012 A 
ATOM     66  C   UNL A   1      47.701  27.668  24.578  1.00  0.00     0.148 A 
ATOM     67  C   UNL A   1      49.803  26.549  26.070  1.00  0.00     0.002 A 
ATOM     68  C   UNL A   1      48.853  27.223  23.943  1.00  0.00     0.091 A 
ATOM     69  F   UNL A   1      46.694  28.239  23.900  1.00  0.00    -0.205 F 
ATOM     70  C   UNL A   1      49.910  26.674  24.688  1.00  0.00     0.022 A 
BRANCH  68  71
ATOM     71  S   UNL A   1      49.058  27.268  22.159  1.00  0.00     0.127 S 
ATOM     72  O   UNL A   1      48.224  28.411  21.794  1.00  0.00    -0.237 OA
ATOM     73  O   UNL A   1      50.497  27.494  22.022  1.00  0.00    -0.237 OA
ATOM     74  O   UNL A   1      48.595  25.977  21.666  1.00  0.00    -0.744 OA
ENDBRANCH  68  71
ENDBRANCH  50  64
BRANCH  51  75
ATOM     75  C   UNL A   1      39.052  29.741  30.696  1.00  0.00     0.023 A 
ATOM     76  C   UNL A   1      38.821  29.165  31.961  1.00  0.00     0.012 A 
ATOM     77  C   UNL A   1      38.087  30.612  30.153  1.00  0.00     0.148 A 
ATOM     78  C   UNL A   1      37.634  29.415  32.652  1.00  0.00     0.002 A 
ATOM     79  C   UNL A   1      36.932  30.901  30.872  1.00  0.00     0.091 A 
ATOM     80  F   UNL A   1      38.314  31.136  28.941  1.00  0.00    -0.205 F 
ATOM     81  C   UNL A   1      36.694  30.288  32.111  1.00  0.00     0.022 A 
BRANCH  79  82
ATOM     82  S   UNL A   1      35.718  32.101  30.313  1.00  0.00     0.127 S 
ATOM     83  O   UNL A   1      35.255  31.499  29.066  1.00  0.00    -0.237 OA
ATOM     84  O   UNL A   1      34.745  32.076  31.406  1.00  0.00    -0.237 OA
ATOM     85  O   UNL A   1      36.439  33.359  30.177  1.00  0.00    -0.744 OA
ENDBRANCH  79  82
ENDBRANCH  51  75
BRANCH  63  86
ATOM     86  C   UNL A   1      44.844  33.358  29.223  1.00  0.00     0.023 A 
ATOM     87  C   UNL A   1      45.505  33.670  30.428  1.00  0.00     0.012 A 
ATOM     88  C   UNL A   1      44.658  34.367  28.256  1.00  0.00     0.148 A 
ATOM     89  C   UNL A   1      45.939  34.972  30.681  1.00  0.00     0.002 A 
ATOM     90  C   UNL A   1      45.140  35.648  28.493  1.00  0.00     0.091 A 
ATOM     91  F   UNL A   1      44.016  34.054  27.121  1.00  0.00    -0.205 F 
ATOM     92  C   UNL A   1      45.769  35.956  29.710  1.00  0.00     0.022 A 
BRANCH  90  93
ATOM     93  S   UNL A   1      45.056  36.956  27.264  1.00  0.00     0.127 S 
ATOM     94  O   UNL A   1      45.900  36.418  26.198  1.00  0.00    -0.237 OA
ATOM     95  O   UNL A   1      43.628  36.993  26.949  1.00  0.00    -0.237 OA
ATOM     96  O   UNL A   1      45.565  38.156  27.915  1.00  0.00    -0.744 OA
ENDBRANCH  90  93
ENDBRANCH  63  86
ENDBRANCH  37  38
ENDBRANCH  30  32
ENDBRANCH  29  30
ENDBRANCH  28  29
ENDBRANCH  27  28
ENDBRANCH  26  27
ENDBRANCH   1  26
TORSDOF 22
ENDMDL
MODEL 3
REMARK VINA RESULT:     -10.6      1.358      7.465
REMARK SMILES C[C@@H]1[C@@H](C(=O)OCCOCCOCCOC(=O)c2ccc(-c3c4nc(c(-c5cccc(S(=O)(=O)[O-])c5F)c5ccc([nH]5)c(-c5cccc(S(=O)(=O)[O-])c5F)c5nc(c(-c6cccc(S(=O)(=O)[O-])c6F)c6ccc3[nH]6)C=C5)C=C4)cc2)CCN1c1nc2sccn2c1[N+](=O)[O-]
REMARK SMILES IDX 11 1 10 2 9 3 8 4 7 5 6 6 4 7 5 8 3 9 1 10 2 11 83 12 81 13
REMARK SMILES IDX 82 14 84 15 85 16 91 17 86 18 90 19 87 20 89 21 88 22 92 23
REMARK SMILES IDX 93 24 94 25 12 26 13 27 14 28 15 29 16 30 17 31 18 32 19 33
REMARK SMILES IDX 80 34 20 35 79 36 21 37 22 38 23 39 73 40 24 41 78 42 72 43
REMARK SMILES IDX 74 44 25 45 77 46 71 47 70 48 26 50 58 51 38 52 57 53 39 54
REMARK SMILES IDX 42 55 56 56 75 57 40 58 41 59 55 61 76 62 43 63 27 64 28 65
REMARK SMILES IDX 36 66 29 67 31 68 37 69 30 70 32 71 33 72 34 73 35 74 59 75
REMARK SMILES IDX 60 76 68 77 61 78 63 79 69 80 62 81 64 82 65 83 66 84 67 85
REMARK SMILES IDX 44 86 45 87 53 88 46 89 48 90 54 91 47 92 49 93 50 94 51 95
REMARK SMILES IDX 52 96
REMARK H PARENT 74 49 42 60
REMARK Flexibility Score: inf
ROOT
ATOM      1  C   UNL A   1      32.049  28.567  23.399  1.00  0.00     0.188 C 
ENDROOT
BRANCH   1   2
ATOM      2  C   UNL A   1      31.318  27.391  22.718  1.00  0.00     0.188 C 
BRANCH   2   3
ATOM      3  O   UNL A   1      30.391  26.711  23.531  1.00  0.00    -0.376 OA
BRANCH   3   4
ATOM      4  C   UNL A   1      30.366  25.295  23.578  1.00  0.00     0.202 C 
BRANCH   4   5
ATOM      5  C   UNL A   1      31.264  24.400  24.456  1.00  0.00     0.261 C 
BRANCH   5   6
ATOM      6  O   UNL A   1      32.657  24.347  24.142  1.00  0.00    -0.463 OA
BRANCH   6   7
ATOM      7  C   UNL A   1      33.497  24.460  25.209  1.00  0.00     0.311 C 
ATOM      8  O   UNL A   1      33.120  24.678  26.352  1.00  0.00    -0.252 OA
BRANCH   7   9
ATOM      9  C   UNL A   1      34.944  24.249  24.782  1.00  0.00     0.123 C 
ATOM     10  C   UNL A   1      36.235  22.943  23.013  1.00  0.00     0.032 C 
ATOM     11  C   UNL A   1      35.047  22.951  23.976  1.00  0.00     0.095 C 
ATOM     12  N   UNL A   1      35.216  21.925  25.029  1.00  0.00    -0.346 N 
ATOM     13  C   UNL A   1      35.849  24.000  25.972  1.00  0.00     0.039 C 
ATOM     14  C   UNL A   1      35.529  22.549  26.311  1.00  0.00     0.119 C 
BRANCH  12  15
ATOM     15  C   UNL A   1      34.615  20.722  24.846  1.00  0.00     0.229 A 
ATOM     16  N   UNL A   1      35.437  19.612  24.946  1.00  0.00    -0.173 NA
ATOM     17  C   UNL A   1      33.313  20.334  24.566  1.00  0.00     0.373 A 
ATOM     18  C   UNL A   1      34.653  18.611  24.688  1.00  0.00     0.286 A 
ATOM     19  N   UNL A   1      33.363  18.970  24.440  1.00  0.00    -0.166 N 
ATOM     20  S   UNL A   1      34.883  16.896  24.583  1.00  0.00    -0.078 S 
ATOM     21  C   UNL A   1      32.525  17.911  24.140  1.00  0.00     0.220 A 
ATOM     22  C   UNL A   1      33.172  16.733  24.172  1.00  0.00     0.114 A 
BRANCH  17  23
ATOM     23  N   UNL A   1      32.092  21.022  24.381  1.00  0.00    -0.023 N 
ATOM     24  O   UNL A   1      31.412  21.305  25.370  1.00  0.00    -0.358 OA
ATOM     25  O   UNL A   1      31.779  21.310  23.219  1.00  0.00    -0.358 OA
ENDBRANCH  17  23
ENDBRANCH  12  15
ENDBRANCH   7   9
ENDBRANCH   6   7
ENDBRANCH   5   6
ENDBRANCH   4   5
ENDBRANCH   3   4
ENDBRANCH   2   3
ENDBRANCH   1   2
BRANCH   1  26
ATOM     26  O   UNL A   1      32.286  28.540  24.792  1.00  0.00    -0.376 OA
BRANCH  26  27
ATOM     27  C   UNL A   1      32.945  29.652  25.384  1.00  0.00     0.202 C 
BRANCH  27  28
ATOM     28  C   UNL A   1      32.186  30.804  26.081  1.00  0.00     0.261 C 
BRANCH  28  29
ATOM     29  O   UNL A   1      32.537  31.095  27.444  1.00  0.00    -0.460 OA
BRANCH  29  30
ATOM     30  C   UNL A   1      33.472  32.063  27.619  1.00  0.00     0.338 C 
ATOM     31  O   UNL A   1      33.280  33.275  27.629  1.00  0.00    -0.246 OA
BRANCH  30  32
ATOM     32  C   UNL A   1      34.756  31.457  28.023  1.00  0.00     0.060 A 
ATOM     33  C   UNL A   1      34.800  30.082  28.311  1.00  0.00     0.016 A 
ATOM     34  C   UNL A   1      35.895  32.244  28.169  1.00  0.00     0.016 A 
ATOM     35  C   UNL A   1      35.984  29.492  28.756  1.00  0.00     0.010 A 
ATOM     36  C   UNL A   1      37.072  31.657  28.648  1.00  0.00     0.010 A 
ATOM     37  C   UNL A   1      37.115  30.287  28.970  1.00  0.00    -0.014 A 
BRANCH  37  38
ATOM     38  C   UNL A   1      38.286  29.740  29.701  1.00  0.00     0.031 A 
ATOM     39  C   UNL A   1      38.581  30.271  31.079  1.00  0.00     0.074 A 
ATOM     40  C   UNL A   1      39.087  28.812  29.150  1.00  0.00     0.049 A 
ATOM     41  N   UNL A   1      39.598  30.027  31.863  1.00  0.00    -0.248 NA
ATOM     42  C   UNL A   1      37.596  31.209  31.643  1.00  0.00     0.031 C 
ATOM     43  C   UNL A   1      38.895  28.194  27.840  1.00  0.00     0.029 A 
ATOM     44  N   UNL A   1      40.251  28.251  29.619  1.00  0.00    -0.354 N 
ATOM     45  C   UNL A   1      39.395  30.804  32.998  1.00  0.00     0.074 A 
ATOM     46  C   UNL A   1      38.162  31.534  32.796  1.00  0.00     0.031 C 
ATOM     47  C   UNL A   1      39.926  27.366  27.593  1.00  0.00     0.029 A 
ATOM     48  C   UNL A   1      40.867  27.422  28.711  1.00  0.00     0.049 A 
ATOM     49  H   UNL A   1      40.610  28.427  30.519  1.00  0.00     0.167 HD
ATOM     50  C   UNL A   1      40.157  30.893  34.113  1.00  0.00     0.034 A 
ATOM     51  C   UNL A   1      42.065  26.806  28.766  1.00  0.00     0.034 A 
ATOM     52  C   UNL A   1      41.376  30.160  34.316  1.00  0.00     0.049 A 
ATOM     53  C   UNL A   1      42.924  26.967  29.998  1.00  0.00     0.074 A 
ATOM     54  C   UNL A   1      42.205  30.162  35.424  1.00  0.00     0.029 A 
ATOM     55  N   UNL A   1      41.952  29.306  33.389  1.00  0.00    -0.354 N 
ATOM     56  N   UNL A   1      42.675  27.629  31.102  1.00  0.00    -0.248 NA
ATOM     57  C   UNL A   1      44.219  26.268  30.002  1.00  0.00     0.031 C 
ATOM     58  C   UNL A   1      43.299  29.334  35.154  1.00  0.00     0.029 A 
ATOM     59  C   UNL A   1      43.130  28.783  33.893  1.00  0.00     0.049 A 
ATOM     60  H   UNL A   1      41.577  29.101  32.502  1.00  0.00     0.167 HD
ATOM     61  C   UNL A   1      43.755  27.388  31.946  1.00  0.00     0.074 A 
ATOM     62  C   UNL A   1      44.654  26.507  31.231  1.00  0.00     0.031 C 
ATOM     63  C   UNL A   1      43.987  27.860  33.196  1.00  0.00     0.034 A 
BRANCH  50  64
ATOM     64  C   UNL A   1      39.683  31.807  35.212  1.00  0.00     0.023 A 
ATOM     65  C   UNL A   1      38.759  31.334  36.167  1.00  0.00     0.012 A 
ATOM     66  C   UNL A   1      40.193  33.115  35.335  1.00  0.00     0.148 A 
ATOM     67  C   UNL A   1      38.327  32.157  37.205  1.00  0.00     0.002 A 
ATOM     68  C   UNL A   1      39.793  33.913  36.400  1.00  0.00     0.091 A 
ATOM     69  F   UNL A   1      41.055  33.554  34.406  1.00  0.00    -0.205 F 
ATOM     70  C   UNL A   1      38.851  33.440  37.328  1.00  0.00     0.022 A 
BRANCH  68  71
ATOM     71  S   UNL A   1      40.468  35.551  36.693  1.00  0.00     0.127 S 
ATOM     72  O   UNL A   1      40.325  35.675  38.143  1.00  0.00    -0.237 OA
ATOM     73  O   UNL A   1      41.846  35.402  36.226  1.00  0.00    -0.237 OA
ATOM     74  O   UNL A   1      39.654  36.469  35.908  1.00  0.00    -0.744 OA
ENDBRANCH  68  71
ENDBRANCH  50  64
BRANCH  51  75
ATOM     75  C   UNL A   1      42.530  25.956  27.630  1.00  0.00     0.023 A 
ATOM     76  C   UNL A   1      43.375  26.512  26.650  1.00  0.00     0.012 A 
ATOM     77  C   UNL A   1      42.126  24.612  27.504  1.00  0.00     0.148 A 
ATOM     78  C   UNL A   1      43.775  25.762  25.543  1.00  0.00     0.002 A 
ATOM     79  C   UNL A   1      42.573  23.853  26.428  1.00  0.00     0.091 A 
ATOM     80  F   UNL A   1      41.306  24.104  28.434  1.00  0.00    -0.205 F 
ATOM     81  C   UNL A   1      43.381  24.431  25.437  1.00  0.00     0.022 A 
BRANCH  79  82
ATOM     82  S   UNL A   1      42.215  22.100  26.264  1.00  0.00     0.127 S 
ATOM     83  O   UNL A   1      42.676  21.579  27.548  1.00  0.00    -0.237 OA
ATOM     84  O   UNL A   1      40.762  22.106  26.088  1.00  0.00    -0.237 OA
ATOM     85  O   UNL A   1      42.961  21.652  25.096  1.00  0.00    -0.744 OA
ENDBRANCH  79  82
ENDBRANCH  51  75
BRANCH  63  86
ATOM     86  C   UNL A   1      45.234  27.393  33.909  1.00  0.00     0.023 A 
ATOM     87  C   UNL A   1      46.418  28.152  33.832  1.00  0.00     0.012 A 
ATOM     88  C   UNL A   1      45.202  26.242  34.721  1.00  0.00     0.148 A 
ATOM     89  C   UNL A   1      47.563  27.751  34.524  1.00  0.00     0.002 A 
ATOM     90  C   UNL A   1      46.330  25.878  35.448  1.00  0.00     0.091 A 
ATOM     91  F   UNL A   1      44.070  25.525  34.771  1.00  0.00    -0.205 F 
ATOM     92  C   UNL A   1      47.514  26.623  35.340  1.00  0.00     0.022 A 
BRANCH  90  93
ATOM     93  S   UNL A   1      46.333  24.500  36.602  1.00  0.00     0.127 S 
ATOM     94  O   UNL A   1      47.754  24.391  36.930  1.00  0.00    -0.237 OA
ATOM     95  O   UNL A   1      45.494  25.005  37.689  1.00  0.00    -0.237 OA
ATOM     96  O   UNL A   1      45.772  23.366  35.879  1.00  0.00    -0.744 OA
ENDBRANCH  90  93
ENDBRANCH  63  86
ENDBRANCH  37  38
ENDBRANCH  30  32
ENDBRANCH  29  30
ENDBRANCH  28  29
ENDBRANCH  27  28
ENDBRANCH  26  27
ENDBRANCH   1  26
TORSDOF 22
ENDMDL
