MODEL 1
REMARK VINA RESULT:     -11.1      0.000      0.000
REMARK SMILES O=C(OCCOCCOCCOC(=O)c1ccc([C@@H]2CC(O)=Nc3c2ncn3-c2cccc(Cl)c2)cc1)c1ccc(-c2c3nc(c(-c4cccc(S(=O)(=O)[O-])c4F)c4ccc([nH]4)c(-c4cccc(S(=O)(=O)[O-])c4F)c4nc(c(-c5cccc(S(=O)(=O)[O-])c5F)c5ccc2[nH]5)C=C4)C=C3)cc1
REMARK SMILES IDX 7 1 6 2 5 3 4 4 3 5 2 6 1 7 38 8 39 9 100 10 40 11 99 12
REMARK SMILES IDX 41 13 42 14 43 15 93 16 44 17 98 18 92 19 94 20 45 21 97 22
REMARK SMILES IDX 91 23 90 24 46 26 78 27 58 28 77 29 59 30 62 31 76 32 95 33
REMARK SMILES IDX 60 34 61 35 75 37 96 38 63 39 47 40 48 41 56 42 49 43 51 44
REMARK SMILES IDX 57 45 50 46 52 47 53 48 54 49 55 50 79 51 80 52 88 53 81 54
REMARK SMILES IDX 83 55 89 56 82 57 84 58 85 59 86 60 87 61 64 62 65 63 73 64
REMARK SMILES IDX 66 65 68 66 74 67 67 68 69 69 70 70 71 71 72 72 8 73 9 74
REMARK SMILES IDX 10 75 11 76 12 77 13 78 14 79 15 80 16 81 37 82 17 83 36 84
REMARK SMILES IDX 18 85 19 86 20 87 25 88 21 89 24 90 26 91 23 92 28 93 27 94
REMARK SMILES IDX 22 95 29 97 30 98 35 99 31 100 33 101 32 102 34 103
REMARK H PARENT 94 25 62 36 22 96
REMARK Flexibility Score: inf
ROOT
ATOM      1  C   UNL A   1      38.915  21.450  26.034  1.00  0.00     0.188 C 
ENDROOT
BRANCH   1   2
ATOM      2  O   UNL A   1      40.163  21.685  26.675  1.00  0.00    -0.376 OA
BRANCH   2   3
ATOM      3  C   UNL A   1      41.261  20.966  26.144  1.00  0.00     0.202 C 
BRANCH   3   4
ATOM      4  C   UNL A   1      42.518  21.826  26.018  1.00  0.00     0.261 C 
BRANCH   4   5
ATOM      5  O   UNL A   1      42.408  23.158  26.558  1.00  0.00    -0.460 OA
BRANCH   5   6
ATOM      6  C   UNL A   1      42.689  23.685  27.764  1.00  0.00     0.338 C 
ATOM      7  O   UNL A   1      43.181  22.950  28.620  1.00  0.00    -0.246 OA
BRANCH   6   8
ATOM      8  C   UNL A   1      42.312  25.066  28.171  1.00  0.00     0.060 A 
ATOM      9  C   UNL A   1      41.377  25.873  27.526  1.00  0.00     0.016 A 
ATOM     10  C   UNL A   1      43.027  25.601  29.263  1.00  0.00     0.016 A 
ATOM     11  C   UNL A   1      41.213  27.202  27.912  1.00  0.00     0.010 A 
ATOM     12  C   UNL A   1      42.868  26.929  29.649  1.00  0.00     0.010 A 
ATOM     13  C   UNL A   1      42.001  27.746  28.931  1.00  0.00    -0.014 A 
BRANCH  13  14
ATOM     14  C   UNL A   1      41.941  29.193  29.119  1.00  0.00     0.031 A 
ATOM     15  C   UNL A   1      43.091  30.009  28.647  1.00  0.00     0.074 A 
ATOM     16  C   UNL A   1      40.888  29.809  29.693  1.00  0.00     0.049 A 
ATOM     17  N   UNL A   1      43.919  30.705  29.361  1.00  0.00    -0.248 NA
ATOM     18  C   UNL A   1      43.368  30.029  27.207  1.00  0.00     0.031 C 
ATOM     19  C   UNL A   1      39.554  29.258  29.951  1.00  0.00     0.029 A 
ATOM     20  N   UNL A   1      40.767  31.118  30.066  1.00  0.00    -0.354 N 
ATOM     21  C   UNL A   1      44.704  31.412  28.449  1.00  0.00     0.074 A 
ATOM     22  C   UNL A   1      44.396  30.876  27.146  1.00  0.00     0.031 C 
ATOM     23  C   UNL A   1      38.701  30.276  30.203  1.00  0.00     0.029 A 
ATOM     24  C   UNL A   1      39.457  31.512  30.278  1.00  0.00     0.049 A 
ATOM     25  H   UNL A   1      41.538  31.721  30.173  1.00  0.00     0.167 HD
ATOM     26  C   UNL A   1      45.427  32.511  28.801  1.00  0.00     0.034 A 
ATOM     27  C   UNL A   1      39.009  32.778  30.439  1.00  0.00     0.034 A 
ATOM     28  C   UNL A   1      45.583  32.643  30.222  1.00  0.00     0.049 A 
ATOM     29  C   UNL A   1      40.145  33.620  30.871  1.00  0.00     0.074 A 
ATOM     30  C   UNL A   1      46.146  31.891  31.231  1.00  0.00     0.029 A 
ATOM     31  N   UNL A   1      44.857  33.626  30.845  1.00  0.00    -0.354 N 
ATOM     32  N   UNL A   1      40.721  33.537  32.038  1.00  0.00    -0.248 NA
ATOM     33  C   UNL A   1      40.865  34.389  29.870  1.00  0.00     0.031 C 
ATOM     34  C   UNL A   1      45.376  32.188  32.393  1.00  0.00     0.029 A 
ATOM     35  C   UNL A   1      44.387  33.099  32.017  1.00  0.00     0.049 A 
ATOM     36  H   UNL A   1      44.703  34.539  30.512  1.00  0.00     0.167 HD
ATOM     37  C   UNL A   1      42.043  33.883  31.802  1.00  0.00     0.074 A 
ATOM     38  C   UNL A   1      42.033  34.537  30.498  1.00  0.00     0.031 C 
ATOM     39  C   UNL A   1      43.060  33.352  32.543  1.00  0.00     0.034 A 
BRANCH  26  40
ATOM     40  C   UNL A   1      45.784  33.651  27.877  1.00  0.00     0.023 A 
ATOM     41  C   UNL A   1      44.729  34.343  27.240  1.00  0.00     0.012 A 
ATOM     42  C   UNL A   1      47.091  33.907  27.412  1.00  0.00     0.148 A 
ATOM     43  C   UNL A   1      44.960  35.224  26.177  1.00  0.00     0.002 A 
ATOM     44  C   UNL A   1      47.323  34.849  26.413  1.00  0.00     0.091 A 
ATOM     45  F   UNL A   1      48.111  33.152  27.835  1.00  0.00    -0.205 F 
ATOM     46  C   UNL A   1      46.260  35.490  25.773  1.00  0.00     0.022 A 
BRANCH  44  47
ATOM     47  S   UNL A   1      48.997  35.289  25.935  1.00  0.00     0.127 S 
ATOM     48  O   UNL A   1      49.445  34.072  25.267  1.00  0.00    -0.237 OA
ATOM     49  O   UNL A   1      48.776  36.436  25.052  1.00  0.00    -0.237 OA
ATOM     50  O   UNL A   1      49.658  35.631  27.189  1.00  0.00    -0.744 OA
ENDBRANCH  44  47
ENDBRANCH  26  40
BRANCH  27  51
ATOM     51  C   UNL A   1      37.700  33.347  30.055  1.00  0.00     0.023 A 
ATOM     52  C   UNL A   1      37.288  33.315  28.711  1.00  0.00     0.012 A 
ATOM     53  C   UNL A   1      36.750  33.701  31.040  1.00  0.00     0.148 A 
ATOM     54  C   UNL A   1      35.965  33.607  28.359  1.00  0.00     0.002 A 
ATOM     55  C   UNL A   1      35.441  34.006  30.684  1.00  0.00     0.091 A 
ATOM     56  F   UNL A   1      37.107  33.649  32.331  1.00  0.00    -0.205 F 
ATOM     57  C   UNL A   1      35.042  33.950  29.344  1.00  0.00     0.022 A 
BRANCH  55  58
ATOM     58  S   UNL A   1      34.200  34.449  31.908  1.00  0.00     0.127 S 
ATOM     59  O   UNL A   1      34.038  33.196  32.646  1.00  0.00    -0.237 OA
ATOM     60  O   UNL A   1      34.872  35.513  32.648  1.00  0.00    -0.237 OA
ATOM     61  O   UNL A   1      33.022  34.846  31.146  1.00  0.00    -0.744 OA
ENDBRANCH  55  58
ENDBRANCH  27  51
BRANCH  39  62
ATOM     62  C   UNL A   1      42.725  32.653  33.838  1.00  0.00     0.023 A 
ATOM     63  C   UNL A   1      42.596  33.368  35.047  1.00  0.00     0.012 A 
ATOM     64  C   UNL A   1      42.324  31.305  33.800  1.00  0.00     0.148 A 
ATOM     65  C   UNL A   1      42.101  32.749  36.196  1.00  0.00     0.002 A 
ATOM     66  C   UNL A   1      41.784  30.706  34.933  1.00  0.00     0.091 A 
ATOM     67  F   UNL A   1      42.443  30.637  32.642  1.00  0.00    -0.205 F 
ATOM     68  C   UNL A   1      41.679  31.423  36.136  1.00  0.00     0.022 A 
BRANCH  66  69
ATOM     69  S   UNL A   1      41.079  29.054  34.884  1.00  0.00     0.127 S 
ATOM     70  O   UNL A   1      40.548  28.906  36.236  1.00  0.00    -0.237 OA
ATOM     71  O   UNL A   1      40.061  29.175  33.838  1.00  0.00    -0.237 OA
ATOM     72  O   UNL A   1      42.179  28.163  34.537  1.00  0.00    -0.744 OA
ENDBRANCH  66  69
ENDBRANCH  39  62
ENDBRANCH  13  14
ENDBRANCH   6   8
ENDBRANCH   5   6
ENDBRANCH   4   5
ENDBRANCH   3   4
ENDBRANCH   2   3
ENDBRANCH   1   2
BRANCH   1  73
ATOM     73  C   UNL A   1      38.032  22.711  25.945  1.00  0.00     0.188 C 
BRANCH  73  74
ATOM     74  O   UNL A   1      36.844  22.728  25.160  1.00  0.00    -0.376 OA
BRANCH  74  75
ATOM     75  C   UNL A   1      36.323  21.515  24.644  1.00  0.00     0.202 C 
BRANCH  75  76
ATOM     76  C   UNL A   1      34.807  21.322  24.715  1.00  0.00     0.261 C 
BRANCH  76  77
ATOM     77  O   UNL A   1      34.377  19.965  24.512  1.00  0.00    -0.460 OA
BRANCH  77  78
ATOM     78  C   UNL A   1      33.091  19.712  24.853  1.00  0.00     0.338 C 
ATOM     79  O   UNL A   1      32.654  18.725  25.416  1.00  0.00    -0.246 OA
BRANCH  78  80
ATOM     80  C   UNL A   1      32.225  20.861  24.530  1.00  0.00     0.060 A 
ATOM     81  C   UNL A   1      32.384  21.465  23.282  1.00  0.00     0.016 A 
ATOM     82  C   UNL A   1      31.443  21.470  25.515  1.00  0.00     0.016 A 
ATOM     83  C   UNL A   1      31.817  22.710  23.040  1.00  0.00     0.005 A 
ATOM     84  C   UNL A   1      30.910  22.748  25.284  1.00  0.00     0.005 A 
ATOM     85  C   UNL A   1      31.147  23.406  24.064  1.00  0.00    -0.038 A 
BRANCH  85  86
ATOM     86  C   UNL A   1      31.047  24.911  23.877  1.00  0.00     0.081 C 
ATOM     87  C   UNL A   1      31.960  25.324  22.696  1.00  0.00     0.111 C 
ATOM     88  C   UNL A   1      31.361  25.673  25.103  1.00  0.00     0.093 A 
ATOM     89  C   UNL A   1      33.097  26.258  23.057  1.00  0.00     0.188 C 
ATOM     90  C   UNL A   1      32.299  26.683  25.082  1.00  0.00     0.164 A 
ATOM     91  N   UNL A   1      30.681  25.647  26.285  1.00  0.00    -0.238 NA
ATOM     92  N   UNL A   1      33.238  26.944  24.141  1.00  0.00    -0.198 NA
ATOM     93  N   UNL A   1      32.091  27.401  26.246  1.00  0.00    -0.283 N 
ATOM     94  C   UNL A   1      31.152  26.682  26.961  1.00  0.00     0.206 A 
BRANCH  89  95
ATOM     95  O   UNL A   1      34.028  26.391  22.090  1.00  0.00    -0.496 OA
ATOM     96  H   UNL A   1      33.767  26.442  21.192  1.00  0.00     0.294 HD
ENDBRANCH  89  95
BRANCH  93  97
ATOM     97  C   UNL A   1      32.682  28.643  26.597  1.00  0.00     0.050 A 
ATOM     98  C   UNL A   1      34.012  28.704  27.024  1.00  0.00     0.027 A 
ATOM     99  C   UNL A   1      31.920  29.819  26.515  1.00  0.00     0.047 A 
ATOM    100  C   UNL A   1      34.590  29.948  27.304  1.00  0.00     0.004 A 
ATOM    101  C   UNL A   1      32.495  31.047  26.832  1.00  0.00     0.043 A 
ATOM    102  C   UNL A   1      33.834  31.118  27.208  1.00  0.00     0.020 A 
ATOM    103  Cl  UNL A   1      31.546  32.482  26.763  1.00  0.00    -0.084 Cl
ENDBRANCH  93  97
ENDBRANCH  85  86
ENDBRANCH  78  80
ENDBRANCH  77  78
ENDBRANCH  76  77
ENDBRANCH  75  76
ENDBRANCH  74  75
ENDBRANCH  73  74
ENDBRANCH   1  73
TORSDOF 23
ENDMDL
MODEL 2
REMARK VINA RESULT:     -10.7      1.999      2.356
REMARK SMILES O=C(OCCOCCOCCOC(=O)c1ccc([C@@H]2CC(O)=Nc3c2ncn3-c2cccc(Cl)c2)cc1)c1ccc(-c2c3nc(c(-c4cccc(S(=O)(=O)[O-])c4F)c4ccc([nH]4)c(-c4cccc(S(=O)(=O)[O-])c4F)c4nc(c(-c5cccc(S(=O)(=O)[O-])c5F)c5ccc2[nH]5)C=C4)C=C3)cc1
REMARK SMILES IDX 7 1 6 2 5 3 4 4 3 5 2 6 1 7 38 8 39 9 100 10 40 11 99 12
REMARK SMILES IDX 41 13 42 14 43 15 93 16 44 17 98 18 92 19 94 20 45 21 97 22
REMARK SMILES IDX 91 23 90 24 46 26 78 27 58 28 77 29 59 30 62 31 76 32 95 33
REMARK SMILES IDX 60 34 61 35 75 37 96 38 63 39 47 40 48 41 56 42 49 43 51 44
REMARK SMILES IDX 57 45 50 46 52 47 53 48 54 49 55 50 79 51 80 52 88 53 81 54
REMARK SMILES IDX 83 55 89 56 82 57 84 58 85 59 86 60 87 61 64 62 65 63 73 64
REMARK SMILES IDX 66 65 68 66 74 67 67 68 69 69 70 70 71 71 72 72 8 73 9 74
REMARK SMILES IDX 10 75 11 76 12 77 13 78 14 79 15 80 16 81 37 82 17 83 36 84
REMARK SMILES IDX 18 85 19 86 20 87 25 88 21 89 24 90 26 91 23 92 28 93 27 94
REMARK SMILES IDX 22 95 29 97 30 98 35 99 31 100 33 101 32 102 34 103
REMARK H PARENT 94 25 62 36 22 96
REMARK Flexibility Score: inf
ROOT
ATOM      1  C   UNL A   1      39.165  21.632  26.187  1.00  0.00     0.188 C 
ENDROOT
BRANCH   1   2
ATOM      2  O   UNL A   1      40.222  22.097  27.017  1.00  0.00    -0.376 OA
BRANCH   2   3
ATOM      3  C   UNL A   1      41.470  21.457  26.825  1.00  0.00     0.202 C 
BRANCH   3   4
ATOM      4  C   UNL A   1      42.617  22.451  26.649  1.00  0.00     0.261 C 
BRANCH   4   5
ATOM      5  O   UNL A   1      42.355  23.539  25.740  1.00  0.00    -0.460 OA
BRANCH   5   6
ATOM      6  C   UNL A   1      42.930  24.742  25.559  1.00  0.00     0.338 C 
ATOM      7  O   UNL A   1      43.878  24.823  24.779  1.00  0.00    -0.246 OA
BRANCH   6   8
ATOM      8  C   UNL A   1      42.580  25.952  26.352  1.00  0.00     0.060 A 
ATOM      9  C   UNL A   1      41.639  26.913  25.990  1.00  0.00     0.016 A 
ATOM     10  C   UNL A   1      43.329  26.151  27.531  1.00  0.00     0.016 A 
ATOM     11  C   UNL A   1      41.502  28.079  26.742  1.00  0.00     0.010 A 
ATOM     12  C   UNL A   1      43.198  27.316  28.283  1.00  0.00     0.010 A 
ATOM     13  C   UNL A   1      42.322  28.307  27.851  1.00  0.00    -0.014 A 
BRANCH  13  14
ATOM     14  C   UNL A   1      42.285  29.641  28.443  1.00  0.00     0.031 A 
ATOM     15  C   UNL A   1      43.416  30.564  28.163  1.00  0.00     0.074 A 
ATOM     16  C   UNL A   1      41.268  30.063  29.223  1.00  0.00     0.049 A 
ATOM     17  N   UNL A   1      44.286  31.034  29.001  1.00  0.00    -0.248 NA
ATOM     18  C   UNL A   1      43.619  30.992  26.776  1.00  0.00     0.031 C 
ATOM     19  C   UNL A   1      39.944  29.454  29.383  1.00  0.00     0.029 A 
ATOM     20  N   UNL A   1      41.179  31.212  29.956  1.00  0.00    -0.354 N 
ATOM     21  C   UNL A   1      45.029  31.975  28.288  1.00  0.00     0.074 A 
ATOM     22  C   UNL A   1      44.651  31.829  26.904  1.00  0.00     0.031 C 
ATOM     23  C   UNL A   1      39.114  30.353  29.956  1.00  0.00     0.029 A 
ATOM     24  C   UNL A   1      39.884  31.522  30.339  1.00  0.00     0.049 A 
ATOM     25  H   UNL A   1      41.959  31.764  30.190  1.00  0.00     0.167 HD
ATOM     26  C   UNL A   1      45.780  32.934  28.898  1.00  0.00     0.034 A 
ATOM     27  C   UNL A   1      39.456  32.687  30.874  1.00  0.00     0.034 A 
ATOM     28  C   UNL A   1      46.009  32.659  30.289  1.00  0.00     0.049 A 
ATOM     29  C   UNL A   1      40.621  33.380  31.468  1.00  0.00     0.074 A 
ATOM     30  C   UNL A   1      46.616  31.655  31.013  1.00  0.00     0.029 A 
ATOM     31  N   UNL A   1      45.325  33.421  31.201  1.00  0.00    -0.354 N 
ATOM     32  N   UNL A   1      41.255  32.973  32.532  1.00  0.00    -0.248 NA
ATOM     33  C   UNL A   1      41.296  34.405  30.690  1.00  0.00     0.031 C 
ATOM     34  C   UNL A   1      45.910  31.606  32.250  1.00  0.00     0.029 A 
ATOM     35  C   UNL A   1      44.911  32.581  32.199  1.00  0.00     0.049 A 
ATOM     36  H   UNL A   1      45.162  34.390  31.149  1.00  0.00     0.167 HD
ATOM     37  C   UNL A   1      42.566  33.379  32.336  1.00  0.00     0.074 A 
ATOM     38  C   UNL A   1      42.495  34.376  31.273  1.00  0.00     0.031 C 
ATOM     39  C   UNL A   1      43.616  32.666  32.843  1.00  0.00     0.034 A 
BRANCH  26  40
ATOM     40  C   UNL A   1      46.099  34.291  28.318  1.00  0.00     0.023 A 
ATOM     41  C   UNL A   1      47.460  34.637  28.153  1.00  0.00     0.012 A 
ATOM     42  C   UNL A   1      45.152  35.326  28.168  1.00  0.00     0.148 A 
ATOM     43  C   UNL A   1      47.859  35.950  27.879  1.00  0.00     0.002 A 
ATOM     44  C   UNL A   1      45.548  36.612  27.810  1.00  0.00     0.091 A 
ATOM     45  F   UNL A   1      43.872  35.113  28.497  1.00  0.00    -0.205 F 
ATOM     46  C   UNL A   1      46.901  36.937  27.692  1.00  0.00     0.022 A 
BRANCH  44  47
ATOM     47  S   UNL A   1      44.331  37.886  27.465  1.00  0.00     0.127 S 
ATOM     48  O   UNL A   1      45.144  38.905  26.811  1.00  0.00    -0.237 OA
ATOM     49  O   UNL A   1      43.390  37.186  26.589  1.00  0.00    -0.237 OA
ATOM     50  O   UNL A   1      43.777  38.227  28.771  1.00  0.00    -0.744 OA
ENDBRANCH  44  47
ENDBRANCH  26  40
BRANCH  27  51
ATOM     51  C   UNL A   1      38.135  33.334  30.736  1.00  0.00     0.023 A 
ATOM     52  C   UNL A   1      37.588  33.547  29.457  1.00  0.00     0.012 A 
ATOM     53  C   UNL A   1      37.301  33.522  31.862  1.00  0.00     0.148 A 
ATOM     54  C   UNL A   1      36.247  33.916  29.303  1.00  0.00     0.002 A 
ATOM     55  C   UNL A   1      35.973  33.903  31.704  1.00  0.00     0.091 A 
ATOM     56  F   UNL A   1      37.785  33.237  33.079  1.00  0.00    -0.205 F 
ATOM     57  C   UNL A   1      35.439  34.091  30.425  1.00  0.00     0.022 A 
BRANCH  55  58
ATOM     58  S   UNL A   1      34.878  34.140  33.111  1.00  0.00     0.127 S 
ATOM     59  O   UNL A   1      35.467  35.311  33.763  1.00  0.00    -0.237 OA
ATOM     60  O   UNL A   1      33.596  34.384  32.458  1.00  0.00    -0.237 OA
ATOM     61  O   UNL A   1      34.974  32.914  33.893  1.00  0.00    -0.744 OA
ENDBRANCH  55  58
ENDBRANCH  27  51
BRANCH  39  62
ATOM     62  C   UNL A   1      43.341  31.627  33.903  1.00  0.00     0.023 A 
ATOM     63  C   UNL A   1      42.908  30.329  33.564  1.00  0.00     0.012 A 
ATOM     64  C   UNL A   1      43.730  31.890  35.230  1.00  0.00     0.148 A 
ATOM     65  C   UNL A   1      42.841  29.321  34.529  1.00  0.00     0.002 A 
ATOM     66  C   UNL A   1      43.710  30.871  36.176  1.00  0.00     0.091 A 
ATOM     67  F   UNL A   1      44.149  33.126  35.538  1.00  0.00    -0.205 F 
ATOM     68  C   UNL A   1      43.257  29.587  35.831  1.00  0.00     0.022 A 
BRANCH  66  69
ATOM     69  S   UNL A   1      44.378  31.102  37.828  1.00  0.00     0.127 S 
ATOM     70  O   UNL A   1      44.196  29.780  38.422  1.00  0.00    -0.237 OA
ATOM     71  O   UNL A   1      45.771  31.464  37.558  1.00  0.00    -0.237 OA
ATOM     72  O   UNL A   1      43.594  32.176  38.426  1.00  0.00    -0.744 OA
ENDBRANCH  66  69
ENDBRANCH  39  62
ENDBRANCH  13  14
ENDBRANCH   6   8
ENDBRANCH   5   6
ENDBRANCH   4   5
ENDBRANCH   3   4
ENDBRANCH   2   3
ENDBRANCH   1   2
BRANCH   1  73
ATOM     73  C   UNL A   1      38.161  22.739  25.807  1.00  0.00     0.188 C 
BRANCH  73  74
ATOM     74  O   UNL A   1      36.756  22.507  25.846  1.00  0.00    -0.376 OA
BRANCH  74  75
ATOM     75  C   UNL A   1      36.249  21.208  25.595  1.00  0.00     0.202 C 
BRANCH  75  76
ATOM     76  C   UNL A   1      34.728  21.054  25.534  1.00  0.00     0.261 C 
BRANCH  76  77
ATOM     77  O   UNL A   1      34.221  20.734  24.227  1.00  0.00    -0.460 OA
BRANCH  77  78
ATOM     78  C   UNL A   1      32.872  20.747  24.115  1.00  0.00     0.338 C 
ATOM     79  O   UNL A   1      32.091  19.876  24.453  1.00  0.00    -0.246 OA
BRANCH  78  80
ATOM     80  C   UNL A   1      32.401  22.039  23.583  1.00  0.00     0.060 A 
ATOM     81  C   UNL A   1      33.360  22.939  23.116  1.00  0.00     0.016 A 
ATOM     82  C   UNL A   1      31.075  22.445  23.753  1.00  0.00     0.016 A 
ATOM     83  C   UNL A   1      33.010  24.263  22.885  1.00  0.00     0.005 A 
ATOM     84  C   UNL A   1      30.734  23.794  23.563  1.00  0.00     0.005 A 
ATOM     85  C   UNL A   1      31.716  24.728  23.186  1.00  0.00    -0.038 A 
BRANCH  85  86
ATOM     86  C   UNL A   1      31.593  26.226  23.410  1.00  0.00     0.081 C 
ATOM     87  C   UNL A   1      32.324  26.961  22.259  1.00  0.00     0.111 C 
ATOM     88  C   UNL A   1      32.083  26.661  24.734  1.00  0.00     0.093 A 
ATOM     89  C   UNL A   1      33.503  27.812  22.685  1.00  0.00     0.188 C 
ATOM     90  C   UNL A   1      33.008  27.676  24.842  1.00  0.00     0.164 A 
ATOM     91  N   UNL A   1      31.582  26.309  25.953  1.00  0.00    -0.238 NA
ATOM     92  N   UNL A   1      33.802  28.202  23.878  1.00  0.00    -0.198 NA
ATOM     93  N   UNL A   1      32.974  28.065  26.169  1.00  0.00    -0.283 N 
ATOM     94  C   UNL A   1      32.147  27.153  26.800  1.00  0.00     0.206 A 
BRANCH  89  95
ATOM     95  O   UNL A   1      34.284  28.221  21.664  1.00  0.00    -0.496 OA
ATOM     96  H   UNL A   1      34.749  29.032  21.725  1.00  0.00     0.294 HD
ENDBRANCH  89  95
BRANCH  93  97
ATOM     97  C   UNL A   1      33.612  29.197  26.742  1.00  0.00     0.050 A 
ATOM     98  C   UNL A   1      34.926  29.113  27.210  1.00  0.00     0.027 A 
ATOM     99  C   UNL A   1      32.911  30.410  26.837  1.00  0.00     0.047 A 
ATOM    100  C   UNL A   1      35.553  30.259  27.713  1.00  0.00     0.004 A 
ATOM    101  C   UNL A   1      33.534  31.534  27.374  1.00  0.00     0.043 A 
ATOM    102  C   UNL A   1      34.859  31.468  27.795  1.00  0.00     0.020 A 
ATOM    103  Cl  UNL A   1      32.660  33.010  27.521  1.00  0.00    -0.084 Cl
ENDBRANCH  93  97
ENDBRANCH  85  86
ENDBRANCH  78  80
ENDBRANCH  77  78
ENDBRANCH  76  77
ENDBRANCH  75  76
ENDBRANCH  74  75
ENDBRANCH  73  74
ENDBRANCH   1  73
TORSDOF 23
ENDMDL
MODEL 3
REMARK VINA RESULT:     -10.6      2.676      3.504
REMARK SMILES O=C(OCCOCCOCCOC(=O)c1ccc([C@@H]2CC(O)=Nc3c2ncn3-c2cccc(Cl)c2)cc1)c1ccc(-c2c3nc(c(-c4cccc(S(=O)(=O)[O-])c4F)c4ccc([nH]4)c(-c4cccc(S(=O)(=O)[O-])c4F)c4nc(c(-c5cccc(S(=O)(=O)[O-])c5F)c5ccc2[nH]5)C=C4)C=C3)cc1
REMARK SMILES IDX 7 1 6 2 5 3 4 4 3 5 2 6 1 7 38 8 39 9 100 10 40 11 99 12
REMARK SMILES IDX 41 13 42 14 43 15 93 16 44 17 98 18 92 19 94 20 45 21 97 22
REMARK SMILES IDX 91 23 90 24 46 26 78 27 58 28 77 29 59 30 62 31 76 32 95 33
REMARK SMILES IDX 60 34 61 35 75 37 96 38 63 39 47 40 48 41 56 42 49 43 51 44
REMARK SMILES IDX 57 45 50 46 52 47 53 48 54 49 55 50 79 51 80 52 88 53 81 54
REMARK SMILES IDX 83 55 89 56 82 57 84 58 85 59 86 60 87 61 64 62 65 63 73 64
REMARK SMILES IDX 66 65 68 66 74 67 67 68 69 69 70 70 71 71 72 72 8 73 9 74
REMARK SMILES IDX 10 75 11 76 12 77 13 78 14 79 15 80 16 81 37 82 17 83 36 84
REMARK SMILES IDX 18 85 19 86 20 87 25 88 21 89 24 90 26 91 23 92 28 93 27 94
REMARK SMILES IDX 22 95 29 97 30 98 35 99 31 100 33 101 32 102 34 103
REMARK H PARENT 94 25 62 36 22 96
REMARK Flexibility Score: inf
ROOT
ATOM      1  C   UNL A   1      36.689  20.822  25.023  1.00  0.00     0.188 C 
ENDROOT
BRANCH   1   2
ATOM      2  O   UNL A   1      38.003  21.331  24.833  1.00  0.00    -0.376 OA
BRANCH   2   3
ATOM      3  C   UNL A   1      38.606  21.897  25.982  1.00  0.00     0.202 C 
BRANCH   3   4
ATOM      4  C   UNL A   1      39.904  21.190  26.370  1.00  0.00     0.261 C 
BRANCH   4   5
ATOM      5  O   UNL A   1      41.113  21.918  26.077  1.00  0.00    -0.460 OA
BRANCH   5   6
ATOM      6  C   UNL A   1      42.062  22.472  26.855  1.00  0.00     0.338 C 
ATOM      7  O   UNL A   1      42.845  21.724  27.439  1.00  0.00    -0.246 OA
BRANCH   6   8
ATOM      8  C   UNL A   1      42.133  23.926  27.163  1.00  0.00     0.060 A 
ATOM      9  C   UNL A   1      43.192  24.568  27.801  1.00  0.00     0.016 A 
ATOM     10  C   UNL A   1      40.989  24.681  26.829  1.00  0.00     0.016 A 
ATOM     11  C   UNL A   1      43.083  25.909  28.165  1.00  0.00     0.010 A 
ATOM     12  C   UNL A   1      40.874  26.019  27.195  1.00  0.00     0.010 A 
ATOM     13  C   UNL A   1      41.903  26.616  27.917  1.00  0.00    -0.014 A 
BRANCH  13  14
ATOM     14  C   UNL A   1      41.775  27.934  28.532  1.00  0.00     0.031 A 
ATOM     15  C   UNL A   1      42.751  28.986  28.144  1.00  0.00     0.074 A 
ATOM     16  C   UNL A   1      40.809  28.229  29.426  1.00  0.00     0.049 A 
ATOM     17  N   UNL A   1      43.647  29.554  28.889  1.00  0.00    -0.248 NA
ATOM     18  C   UNL A   1      42.746  29.441  26.750  1.00  0.00     0.031 C 
ATOM     19  C   UNL A   1      39.593  27.466  29.721  1.00  0.00     0.029 A 
ATOM     20  N   UNL A   1      40.667  29.356  30.184  1.00  0.00    -0.354 N 
ATOM     21  C   UNL A   1      44.190  30.580  28.114  1.00  0.00     0.074 A 
ATOM     22  C   UNL A   1      43.679  30.394  26.778  1.00  0.00     0.031 C 
ATOM     23  C   UNL A   1      38.732  28.257  30.398  1.00  0.00     0.029 A 
ATOM     24  C   UNL A   1      39.396  29.509  30.713  1.00  0.00     0.049 A 
ATOM     25  H   UNL A   1      41.398  29.997  30.340  1.00  0.00     0.167 HD
ATOM     26  C   UNL A   1      44.885  31.618  28.654  1.00  0.00     0.034 A 
ATOM     27  C   UNL A   1      38.896  30.613  31.312  1.00  0.00     0.034 A 
ATOM     28  C   UNL A   1      45.300  31.367  30.006  1.00  0.00     0.049 A 
ATOM     29  C   UNL A   1      40.030  31.437  31.785  1.00  0.00     0.074 A 
ATOM     30  C   UNL A   1      46.098  30.440  30.641  1.00  0.00     0.029 A 
ATOM     31  N   UNL A   1      44.636  32.039  31.001  1.00  0.00    -0.354 N 
ATOM     32  N   UNL A   1      40.822  31.105  32.766  1.00  0.00    -0.248 NA
ATOM     33  C   UNL A   1      40.487  32.538  30.955  1.00  0.00     0.031 C 
ATOM     34  C   UNL A   1      45.545  30.303  31.948  1.00  0.00     0.029 A 
ATOM     35  C   UNL A   1      44.439  31.152  32.024  1.00  0.00     0.049 A 
ATOM     36  H   UNL A   1      44.356  32.982  30.984  1.00  0.00     0.167 HD
ATOM     37  C   UNL A   1      42.046  31.665  32.433  1.00  0.00     0.074 A 
ATOM     38  C   UNL A   1      41.740  32.650  31.402  1.00  0.00     0.031 C 
ATOM     39  C   UNL A   1      43.223  31.080  32.809  1.00  0.00     0.034 A 
BRANCH  26  40
ATOM     40  C   UNL A   1      44.976  33.006  28.065  1.00  0.00     0.023 A 
ATOM     41  C   UNL A   1      43.770  33.708  27.836  1.00  0.00     0.012 A 
ATOM     42  C   UNL A   1      46.149  33.545  27.497  1.00  0.00     0.148 A 
ATOM     43  C   UNL A   1      43.731  34.872  27.060  1.00  0.00     0.002 A 
ATOM     44  C   UNL A   1      46.118  34.749  26.799  1.00  0.00     0.091 A 
ATOM     45  F   UNL A   1      47.285  32.837  27.511  1.00  0.00    -0.205 F 
ATOM     46  C   UNL A   1      44.908  35.402  26.553  1.00  0.00     0.022 A 
BRANCH  44  47
ATOM     47  S   UNL A   1      47.634  35.513  26.215  1.00  0.00     0.127 S 
ATOM     48  O   UNL A   1      48.437  35.549  27.432  1.00  0.00    -0.237 OA
ATOM     49  O   UNL A   1      48.089  34.561  25.199  1.00  0.00    -0.237 OA
ATOM     50  O   UNL A   1      47.210  36.798  25.669  1.00  0.00    -0.744 OA
ENDBRANCH  44  47
ENDBRANCH  26  40
BRANCH  27  51
ATOM     51  C   UNL A   1      37.501  31.098  31.332  1.00  0.00     0.023 A 
ATOM     52  C   UNL A   1      36.793  31.150  32.547  1.00  0.00     0.012 A 
ATOM     53  C   UNL A   1      36.943  31.741  30.203  1.00  0.00     0.148 A 
ATOM     54  C   UNL A   1      35.577  31.836  32.640  1.00  0.00     0.002 A 
ATOM     55  C   UNL A   1      35.727  32.409  30.297  1.00  0.00     0.091 A 
ATOM     56  F   UNL A   1      37.649  31.775  29.064  1.00  0.00    -0.205 F 
ATOM     57  C   UNL A   1      35.045  32.467  31.517  1.00  0.00     0.022 A 
BRANCH  55  58
ATOM     58  S   UNL A   1      34.991  33.248  28.887  1.00  0.00     0.127 S 
ATOM     59  O   UNL A   1      35.940  34.337  28.650  1.00  0.00    -0.237 OA
ATOM     60  O   UNL A   1      34.997  32.198  27.873  1.00  0.00    -0.237 OA
ATOM     61  O   UNL A   1      33.678  33.694  29.337  1.00  0.00    -0.744 OA
ENDBRANCH  55  58
ENDBRANCH  27  51
BRANCH  39  62
ATOM     62  C   UNL A   1      43.193  30.012  33.875  1.00  0.00     0.023 A 
ATOM     63  C   UNL A   1      42.712  28.715  33.601  1.00  0.00     0.012 A 
ATOM     64  C   UNL A   1      43.853  30.249  35.095  1.00  0.00     0.148 A 
ATOM     65  C   UNL A   1      42.863  27.684  34.531  1.00  0.00     0.002 A 
ATOM     66  C   UNL A   1      44.047  29.208  35.996  1.00  0.00     0.091 A 
ATOM     67  F   UNL A   1      44.315  31.485  35.339  1.00  0.00    -0.205 F 
ATOM     68  C   UNL A   1      43.546  27.925  35.721  1.00  0.00     0.022 A 
BRANCH  66  69
ATOM     69  S   UNL A   1      45.051  29.410  37.472  1.00  0.00     0.127 S 
ATOM     70  O   UNL A   1      44.412  28.489  38.408  1.00  0.00    -0.237 OA
ATOM     71  O   UNL A   1      46.377  28.993  37.014  1.00  0.00    -0.237 OA
ATOM     72  O   UNL A   1      44.964  30.824  37.820  1.00  0.00    -0.744 OA
ENDBRANCH  66  69
ENDBRANCH  39  62
ENDBRANCH  13  14
ENDBRANCH   6   8
ENDBRANCH   5   6
ENDBRANCH   4   5
ENDBRANCH   3   4
ENDBRANCH   2   3
ENDBRANCH   1   2
BRANCH   1  73
ATOM     73  C   UNL A   1      35.588  21.812  24.594  1.00  0.00     0.188 C 
BRANCH  73  74
ATOM     74  O   UNL A   1      34.511  21.402  23.756  1.00  0.00    -0.376 OA
BRANCH  74  75
ATOM     75  C   UNL A   1      33.376  20.771  24.325  1.00  0.00     0.202 C 
BRANCH  75  76
ATOM     76  C   UNL A   1      32.086  21.591  24.396  1.00  0.00     0.261 C 
BRANCH  76  77
ATOM     77  O   UNL A   1      31.595  21.800  25.731  1.00  0.00    -0.460 OA
BRANCH  77  78
ATOM     78  C   UNL A   1      32.527  22.192  26.632  1.00  0.00     0.338 C 
ATOM     79  O   UNL A   1      33.168  21.487  27.389  1.00  0.00    -0.246 OA
BRANCH  78  80
ATOM     80  C   UNL A   1      32.767  23.644  26.544  1.00  0.00     0.060 A 
ATOM     81  C   UNL A   1      31.656  24.482  26.439  1.00  0.00     0.016 A 
ATOM     82  C   UNL A   1      34.054  24.148  26.337  1.00  0.00     0.016 A 
ATOM     83  C   UNL A   1      31.824  25.808  26.060  1.00  0.00     0.005 A 
ATOM     84  C   UNL A   1      34.216  25.476  25.910  1.00  0.00     0.005 A 
ATOM     85  C   UNL A   1      33.095  26.299  25.708  1.00  0.00    -0.038 A 
BRANCH  85  86
ATOM     86  C   UNL A   1      33.098  27.537  24.825  1.00  0.00     0.081 C 
ATOM     87  C   UNL A   1      33.602  28.740  25.661  1.00  0.00     0.111 C 
ATOM     88  C   UNL A   1      31.787  27.814  24.204  1.00  0.00     0.093 A 
ATOM     89  C   UNL A   1      32.601  29.862  25.842  1.00  0.00     0.188 C 
ATOM     90  C   UNL A   1      31.202  29.056  24.322  1.00  0.00     0.164 A 
ATOM     91  N   UNL A   1      31.113  27.026  23.316  1.00  0.00    -0.238 NA
ATOM     92  N   UNL A   1      31.507  30.055  25.185  1.00  0.00    -0.198 NA
ATOM     93  N   UNL A   1      30.207  29.087  23.361  1.00  0.00    -0.283 N 
ATOM     94  C   UNL A   1      30.158  27.808  22.839  1.00  0.00     0.206 A 
BRANCH  89  95
ATOM     95  O   UNL A   1      32.951  30.765  26.781  1.00  0.00    -0.496 OA
ATOM     96  H   UNL A   1      32.636  31.645  26.726  1.00  0.00     0.294 HD
ENDBRANCH  89  95
BRANCH  93  97
ATOM     97  C   UNL A   1      29.443  30.215  22.962  1.00  0.00     0.050 A 
ATOM     98  C   UNL A   1      29.069  31.188  23.893  1.00  0.00     0.027 A 
ATOM     99  C   UNL A   1      29.061  30.351  21.617  1.00  0.00     0.047 A 
ATOM    100  C   UNL A   1      28.370  32.321  23.464  1.00  0.00     0.004 A 
ATOM    101  C   UNL A   1      28.333  31.465  21.209  1.00  0.00     0.043 A 
ATOM    102  C   UNL A   1      28.002  32.461  22.124  1.00  0.00     0.020 A 
ATOM    103  Cl  UNL A   1      27.836  31.610  19.567  1.00  0.00    -0.084 Cl
ENDBRANCH  93  97
ENDBRANCH  85  86
ENDBRANCH  78  80
ENDBRANCH  77  78
ENDBRANCH  76  77
ENDBRANCH  75  76
ENDBRANCH  74  75
ENDBRANCH  73  74
ENDBRANCH   1  73
TORSDOF 23
ENDMDL
