MODEL 1
REMARK VINA RESULT:      -7.8      0.000      0.000
REMARK SMILES CCc1cc(OC(F)(F)F)cc2c1O[C@@H](C(F)(F)F)C(C(=O)OCCOCCOCCOC(=O)c1ccc(-c3c4nc(c(-c5cccc(S(=O)(=O)[O-])c5F)c5ccc([nH]5)c(-c5cccc(S(=O)(=O)[O-])c5F)c5nc(c(-c6cccc(S(=O)(=O)[O-])c6F)c6ccc3[nH]6)C=C5)C=C4)cc1)=C2
REMARK SMILES IDX 28 1 27 2 26 3 25 4 24 5 23 6 21 7 22 8 20 9 3 10 4 11 13 12
REMARK SMILES IDX 5 13 12 14 14 15 11 16 98 17 15 18 2 19 1 20 6 21 7 22 8 23
REMARK SMILES IDX 9 24 10 25 16 26 17 27 18 28 19 29 29 30 30 31 31 32 32 33
REMARK SMILES IDX 33 34 34 35 35 36 36 37 97 38 37 39 96 40 38 41 39 42 40 43
REMARK SMILES IDX 90 44 41 45 95 46 89 47 91 48 42 49 94 50 88 51 87 52 43 54
REMARK SMILES IDX 75 55 55 56 74 57 56 58 59 59 73 60 92 61 57 62 58 63 72 65
REMARK SMILES IDX 93 66 60 67 44 68 45 69 53 70 46 71 48 72 54 73 47 74 49 75
REMARK SMILES IDX 50 76 51 77 52 78 76 79 77 80 85 81 78 82 80 83 86 84 79 85
REMARK SMILES IDX 81 86 82 87 83 88 84 89 61 90 62 91 70 92 63 93 65 94 71 95
REMARK SMILES IDX 64 96 66 97 67 98 68 99 69 100
REMARK H PARENT 91 53 59 64
REMARK Flexibility Score: inf
ROOT
ATOM      1  C   UNL A   1      43.024  23.422  27.272  1.00  0.00     0.188 C 
ENDROOT
BRANCH   1   2
ATOM      2  C   UNL A   1      41.878  24.428  27.044  1.00  0.00     0.188 C 
BRANCH   2   3
ATOM      3  O   UNL A   1      41.169  24.768  28.228  1.00  0.00    -0.376 OA
BRANCH   3   4
ATOM      4  C   UNL A   1      39.796  25.091  28.054  1.00  0.00     0.202 C 
BRANCH   4   5
ATOM      5  C   UNL A   1      39.589  26.405  27.298  1.00  0.00     0.261 C 
BRANCH   5   6
ATOM      6  O   UNL A   1      39.024  27.452  28.104  1.00  0.00    -0.460 OA
BRANCH   6   7
ATOM      7  C   UNL A   1      39.833  28.492  28.409  1.00  0.00     0.338 C 
ATOM      8  O   UNL A   1      40.991  28.621  28.058  1.00  0.00    -0.246 OA
BRANCH   7   9
ATOM      9  C   UNL A   1      39.075  29.496  29.180  1.00  0.00     0.087 C 
ATOM     10  C   UNL A   1      36.480  31.886  31.433  1.00  0.00    -0.002 A 
ATOM     11  C   UNL A   1      35.906  33.021  30.828  1.00  0.00     0.054 A 
ATOM     12  C   UNL A   1      37.333  31.078  30.667  1.00  0.00     0.131 A 
ATOM     13  C   UNL A   1      36.147  33.322  29.485  1.00  0.00     0.130 A 
ATOM     14  C   UNL A   1      37.584  31.372  29.319  1.00  0.00     0.021 A 
ATOM     15  O   UNL A   1      37.857  29.953  31.255  1.00  0.00    -0.475 OA
ATOM     16  C   UNL A   1      37.001  32.502  28.740  1.00  0.00     0.058 A 
ATOM     17  C   UNL A   1      38.372  30.434  28.521  1.00  0.00     0.027 C 
ATOM     18  C   UNL A   1      39.119  29.500  30.690  1.00  0.00     0.316 C 
BRANCH  10  19
ATOM     19  C   UNL A   1      36.168  31.573  32.879  1.00  0.00     0.036 C 
ATOM     20  C   UNL A   1      36.301  32.793  33.785  1.00  0.00     0.009 C 
ENDBRANCH  10  19
BRANCH  13  21
ATOM     21  O   UNL A   1      35.617  34.375  28.794  1.00  0.00    -0.406 OA
BRANCH  21  22
ATOM     22  C   UNL A   1      34.206  34.523  28.821  1.00  0.00     0.573 C 
ATOM     23  F   UNL A   1      33.580  33.370  28.500  1.00  0.00    -0.132 F 
ATOM     24  F   UNL A   1      33.784  34.946  30.031  1.00  0.00    -0.132 F 
ATOM     25  F   UNL A   1      33.852  35.455  27.907  1.00  0.00    -0.132 F 
ENDBRANCH  21  22
ENDBRANCH  13  21
BRANCH  18  26
ATOM     26  C   UNL A   1      39.536  28.205  31.405  1.00  0.00     0.430 C 
ATOM     27  F   UNL A   1      40.752  27.791  30.977  1.00  0.00    -0.167 F 
ATOM     28  F   UNL A   1      39.659  28.428  32.737  1.00  0.00    -0.167 F 
ATOM     29  F   UNL A   1      38.647  27.207  31.238  1.00  0.00    -0.167 F 
ENDBRANCH  18  26
ENDBRANCH   7   9
ENDBRANCH   6   7
ENDBRANCH   5   6
ENDBRANCH   4   5
ENDBRANCH   3   4
ENDBRANCH   2   3
ENDBRANCH   1   2
BRANCH   1  30
ATOM     30  O   UNL A   1      43.676  22.793  26.174  1.00  0.00    -0.376 OA
BRANCH  30  31
ATOM     31  C   UNL A   1      45.084  22.625  26.200  1.00  0.00     0.202 C 
BRANCH  31  32
ATOM     32  C   UNL A   1      45.892  23.113  24.993  1.00  0.00     0.261 C 
BRANCH  32  33
ATOM     33  O   UNL A   1      45.635  24.472  24.610  1.00  0.00    -0.460 OA
BRANCH  33  34
ATOM     34  C   UNL A   1      46.580  25.365  24.995  1.00  0.00     0.338 C 
ATOM     35  O   UNL A   1      47.733  25.429  24.601  1.00  0.00    -0.246 OA
BRANCH  34  36
ATOM     36  C   UNL A   1      45.984  26.399  25.865  1.00  0.00     0.060 A 
ATOM     37  C   UNL A   1      46.838  27.081  26.741  1.00  0.00     0.016 A 
ATOM     38  C   UNL A   1      44.608  26.639  25.889  1.00  0.00     0.016 A 
ATOM     39  C   UNL A   1      46.315  27.975  27.673  1.00  0.00     0.010 A 
ATOM     40  C   UNL A   1      44.083  27.523  26.840  1.00  0.00     0.010 A 
ATOM     41  C   UNL A   1      44.931  28.166  27.759  1.00  0.00    -0.014 A 
BRANCH  41  42
ATOM     42  C   UNL A   1      44.376  28.903  28.922  1.00  0.00     0.031 A 
ATOM     43  C   UNL A   1      44.104  30.377  28.782  1.00  0.00     0.074 A 
ATOM     44  C   UNL A   1      44.092  28.271  30.074  1.00  0.00     0.049 A 
ATOM     45  N   UNL A   1      43.579  31.207  29.646  1.00  0.00    -0.248 NA
ATOM     46  C   UNL A   1      44.469  30.998  27.498  1.00  0.00     0.031 C 
ATOM     47  C   UNL A   1      44.311  26.851  30.337  1.00  0.00     0.029 A 
ATOM     48  N   UNL A   1      43.572  28.757  31.248  1.00  0.00    -0.354 N 
ATOM     49  C   UNL A   1      43.562  32.448  29.019  1.00  0.00     0.074 A 
ATOM     50  C   UNL A   1      44.145  32.266  27.708  1.00  0.00     0.031 C 
ATOM     51  C   UNL A   1      43.952  26.584  31.605  1.00  0.00     0.029 A 
ATOM     52  C   UNL A   1      43.487  27.814  32.245  1.00  0.00     0.049 A 
ATOM     53  H   UNL A   1      43.286  29.693  31.365  1.00  0.00     0.167 HD
ATOM     54  C   UNL A   1      43.085  33.627  29.481  1.00  0.00     0.034 A 
ATOM     55  C   UNL A   1      43.088  27.934  33.526  1.00  0.00     0.034 A 
ATOM     56  C   UNL A   1      42.492  33.810  30.778  1.00  0.00     0.049 A 
ATOM     57  C   UNL A   1      42.580  29.264  34.024  1.00  0.00     0.074 A 
ATOM     58  C   UNL A   1      41.940  34.958  31.318  1.00  0.00     0.029 A 
ATOM     59  N   UNL A   1      42.387  32.823  31.745  1.00  0.00    -0.354 N 
ATOM     60  N   UNL A   1      42.438  30.392  33.370  1.00  0.00    -0.248 NA
ATOM     61  C   UNL A   1      42.142  29.327  35.426  1.00  0.00     0.031 C 
ATOM     62  C   UNL A   1      41.517  34.670  32.620  1.00  0.00     0.029 A 
ATOM     63  C   UNL A   1      41.790  33.336  32.883  1.00  0.00     0.049 A 
ATOM     64  H   UNL A   1      42.693  31.893  31.639  1.00  0.00     0.167 HD
ATOM     65  C   UNL A   1      41.863  31.285  34.269  1.00  0.00     0.074 A 
ATOM     66  C   UNL A   1      41.663  30.561  35.507  1.00  0.00     0.031 C 
ATOM     67  C   UNL A   1      41.544  32.591  34.091  1.00  0.00     0.034 A 
BRANCH  54  68
ATOM     68  C   UNL A   1      43.150  34.812  28.556  1.00  0.00     0.023 A 
ATOM     69  C   UNL A   1      42.009  35.168  27.807  1.00  0.00     0.012 A 
ATOM     70  C   UNL A   1      44.313  35.600  28.463  1.00  0.00     0.148 A 
ATOM     71  C   UNL A   1      42.034  36.274  26.960  1.00  0.00     0.002 A 
ATOM     72  C   UNL A   1      44.317  36.724  27.644  1.00  0.00     0.091 A 
ATOM     73  F   UNL A   1      45.395  35.229  29.162  1.00  0.00    -0.205 F 
ATOM     74  C   UNL A   1      43.183  37.057  26.886  1.00  0.00     0.022 A 
BRANCH  72  75
ATOM     75  S   UNL A   1      45.727  37.832  27.535  1.00  0.00     0.127 S 
ATOM     76  O   UNL A   1      46.569  37.143  26.559  1.00  0.00    -0.237 OA
ATOM     77  O   UNL A   1      45.113  39.067  27.046  1.00  0.00    -0.237 OA
ATOM     78  O   UNL A   1      46.270  37.920  28.883  1.00  0.00    -0.744 OA
ENDBRANCH  72  75
ENDBRANCH  54  68
BRANCH  55  79
ATOM     79  C   UNL A   1      43.103  26.745  34.424  1.00  0.00     0.023 A 
ATOM     80  C   UNL A   1      41.908  26.042  34.666  1.00  0.00     0.012 A 
ATOM     81  C   UNL A   1      44.295  26.305  35.033  1.00  0.00     0.148 A 
ATOM     82  C   UNL A   1      41.893  24.938  35.520  1.00  0.00     0.002 A 
ATOM     83  C   UNL A   1      44.283  25.175  35.842  1.00  0.00     0.091 A 
ATOM     84  F   UNL A   1      45.418  27.003  34.809  1.00  0.00    -0.205 F 
ATOM     85  C   UNL A   1      43.081  24.498  36.098  1.00  0.00     0.022 A 
BRANCH  83  86
ATOM     86  S   UNL A   1      45.786  24.477  36.537  1.00  0.00     0.127 S 
ATOM     87  O   UNL A   1      45.272  23.309  37.247  1.00  0.00    -0.237 OA
ATOM     88  O   UNL A   1      46.565  24.174  35.336  1.00  0.00    -0.237 OA
ATOM     89  O   UNL A   1      46.355  25.528  37.370  1.00  0.00    -0.744 OA
ENDBRANCH  83  86
ENDBRANCH  55  79
BRANCH  67  90
ATOM     90  C   UNL A   1      40.919  33.326  35.250  1.00  0.00     0.023 A 
ATOM     91  C   UNL A   1      39.516  33.341  35.390  1.00  0.00     0.012 A 
ATOM     92  C   UNL A   1      41.718  33.934  36.239  1.00  0.00     0.148 A 
ATOM     93  C   UNL A   1      38.919  33.976  36.479  1.00  0.00     0.002 A 
ATOM     94  C   UNL A   1      41.116  34.526  37.344  1.00  0.00     0.091 A 
ATOM     95  F   UNL A   1      43.050  33.928  36.080  1.00  0.00    -0.205 F 
ATOM     96  C   UNL A   1      39.719  34.558  37.461  1.00  0.00     0.022 A 
BRANCH  94  97
ATOM     97  S   UNL A   1      42.077  35.215  38.699  1.00  0.00     0.127 S 
ATOM     98  O   UNL A   1      42.852  36.251  38.021  1.00  0.00    -0.237 OA
ATOM     99  O   UNL A   1      41.036  35.721  39.596  1.00  0.00    -0.237 OA
ATOM    100  O   UNL A   1      42.847  34.104  39.242  1.00  0.00    -0.744 OA
ENDBRANCH  94  97
ENDBRANCH  67  90
ENDBRANCH  41  42
ENDBRANCH  34  36
ENDBRANCH  33  34
ENDBRANCH  32  33
ENDBRANCH  31  32
ENDBRANCH  30  31
ENDBRANCH   1  30
TORSDOF 24
ENDMDL
MODEL 2
REMARK VINA RESULT:      -7.8      5.052      9.831
REMARK SMILES CCc1cc(OC(F)(F)F)cc2c1O[C@@H](C(F)(F)F)C(C(=O)OCCOCCOCCOC(=O)c1ccc(-c3c4nc(c(-c5cccc(S(=O)(=O)[O-])c5F)c5ccc([nH]5)c(-c5cccc(S(=O)(=O)[O-])c5F)c5nc(c(-c6cccc(S(=O)(=O)[O-])c6F)c6ccc3[nH]6)C=C5)C=C4)cc1)=C2
REMARK SMILES IDX 28 1 27 2 26 3 25 4 24 5 23 6 21 7 22 8 20 9 3 10 4 11 13 12
REMARK SMILES IDX 5 13 12 14 14 15 11 16 98 17 15 18 2 19 1 20 6 21 7 22 8 23
REMARK SMILES IDX 9 24 10 25 16 26 17 27 18 28 19 29 29 30 30 31 31 32 32 33
REMARK SMILES IDX 33 34 34 35 35 36 36 37 97 38 37 39 96 40 38 41 39 42 40 43
REMARK SMILES IDX 90 44 41 45 95 46 89 47 91 48 42 49 94 50 88 51 87 52 43 54
REMARK SMILES IDX 75 55 55 56 74 57 56 58 59 59 73 60 92 61 57 62 58 63 72 65
REMARK SMILES IDX 93 66 60 67 44 68 45 69 53 70 46 71 48 72 54 73 47 74 49 75
REMARK SMILES IDX 50 76 51 77 52 78 76 79 77 80 85 81 78 82 80 83 86 84 79 85
REMARK SMILES IDX 81 86 82 87 83 88 84 89 61 90 62 91 70 92 63 93 65 94 71 95
REMARK SMILES IDX 64 96 66 97 67 98 68 99 69 100
REMARK H PARENT 91 53 59 64
REMARK Flexibility Score: inf
ROOT
ATOM      1  C   UNL A   1      33.545  32.346  28.449  1.00  0.00     0.188 C 
ENDROOT
BRANCH   1   2
ATOM      2  C   UNL A   1      34.205  31.124  27.779  1.00  0.00     0.188 C 
BRANCH   2   3
ATOM      3  O   UNL A   1      33.277  30.188  27.248  1.00  0.00    -0.376 OA
BRANCH   3   4
ATOM      4  C   UNL A   1      32.166  30.743  26.559  1.00  0.00     0.202 C 
BRANCH   4   5
ATOM      5  C   UNL A   1      31.775  29.935  25.320  1.00  0.00     0.261 C 
BRANCH   5   6
ATOM      6  O   UNL A   1      32.870  29.208  24.737  1.00  0.00    -0.460 OA
BRANCH   6   7
ATOM      7  C   UNL A   1      32.592  28.458  23.647  1.00  0.00     0.338 C 
ATOM      8  O   UNL A   1      32.395  28.879  22.522  1.00  0.00    -0.246 OA
BRANCH   7   9
ATOM      9  C   UNL A   1      32.635  27.027  24.008  1.00  0.00     0.087 C 
ATOM     10  C   UNL A   1      32.426  23.144  25.556  1.00  0.00    -0.002 A 
ATOM     11  C   UNL A   1      33.619  22.503  25.943  1.00  0.00     0.054 A 
ATOM     12  C   UNL A   1      32.500  24.453  25.057  1.00  0.00     0.131 A 
ATOM     13  C   UNL A   1      34.848  23.161  25.867  1.00  0.00     0.130 A 
ATOM     14  C   UNL A   1      33.730  25.122  24.975  1.00  0.00     0.021 A 
ATOM     15  O   UNL A   1      31.328  25.083  24.719  1.00  0.00    -0.475 OA
ATOM     16  C   UNL A   1      34.900  24.466  25.366  1.00  0.00     0.058 A 
ATOM     17  C   UNL A   1      33.749  26.528  24.574  1.00  0.00     0.027 C 
ATOM     18  C   UNL A   1      31.462  26.123  23.711  1.00  0.00     0.316 C 
BRANCH  10  19
ATOM     19  C   UNL A   1      31.109  22.411  25.685  1.00  0.00     0.036 C 
ATOM     20  C   UNL A   1      30.249  22.947  26.823  1.00  0.00     0.009 C 
ENDBRANCH  10  19
BRANCH  13  21
ATOM     21  O   UNL A   1      36.057  22.646  26.245  1.00  0.00    -0.406 OA
BRANCH  21  22
ATOM     22  C   UNL A   1      36.972  22.316  25.213  1.00  0.00     0.573 C 
ATOM     23  F   UNL A   1      36.332  21.933  24.087  1.00  0.00    -0.132 F 
ATOM     24  F   UNL A   1      37.791  23.353  24.938  1.00  0.00    -0.132 F 
ATOM     25  F   UNL A   1      37.736  21.281  25.628  1.00  0.00    -0.132 F 
ENDBRANCH  21  22
ENDBRANCH  13  21
BRANCH  18  26
ATOM     26  C   UNL A   1      30.086  26.772  23.494  1.00  0.00     0.430 C 
ATOM     27  F   UNL A   1      30.010  27.337  22.266  1.00  0.00    -0.167 F 
ATOM     28  F   UNL A   1      29.114  25.827  23.537  1.00  0.00    -0.167 F 
ATOM     29  F   UNL A   1      29.794  27.700  24.425  1.00  0.00    -0.167 F 
ENDBRANCH  18  26
ENDBRANCH   7   9
ENDBRANCH   6   7
ENDBRANCH   5   6
ENDBRANCH   4   5
ENDBRANCH   3   4
ENDBRANCH   2   3
ENDBRANCH   1   2
BRANCH   1  30
ATOM     30  O   UNL A   1      33.749  33.659  27.942  1.00  0.00    -0.376 OA
BRANCH  30  31
ATOM     31  C   UNL A   1      33.544  34.776  28.792  1.00  0.00     0.202 C 
BRANCH  31  32
ATOM     32  C   UNL A   1      33.637  34.558  30.306  1.00  0.00     0.261 C 
BRANCH  32  33
ATOM     33  O   UNL A   1      34.974  34.444  30.815  1.00  0.00    -0.460 OA
BRANCH  33  34
ATOM     34  C   UNL A   1      35.228  33.309  31.511  1.00  0.00     0.338 C 
ATOM     35  O   UNL A   1      34.438  32.670  32.187  1.00  0.00    -0.246 OA
BRANCH  34  36
ATOM     36  C   UNL A   1      36.591  32.821  31.215  1.00  0.00     0.060 A 
ATOM     37  C   UNL A   1      37.536  32.871  32.249  1.00  0.00     0.016 A 
ATOM     38  C   UNL A   1      36.964  32.404  29.936  1.00  0.00     0.016 A 
ATOM     39  C   UNL A   1      38.866  32.544  31.997  1.00  0.00     0.010 A 
ATOM     40  C   UNL A   1      38.306  32.095  29.680  1.00  0.00     0.010 A 
ATOM     41  C   UNL A   1      39.268  32.200  30.700  1.00  0.00    -0.014 A 
BRANCH  41  42
ATOM     42  C   UNL A   1      40.717  32.121  30.392  1.00  0.00     0.031 A 
ATOM     43  C   UNL A   1      41.437  33.373  29.966  1.00  0.00     0.074 A 
ATOM     44  C   UNL A   1      41.393  30.965  30.515  1.00  0.00     0.049 A 
ATOM     45  N   UNL A   1      42.705  33.548  29.696  1.00  0.00    -0.248 NA
ATOM     46  C   UNL A   1      40.620  34.591  29.830  1.00  0.00     0.031 C 
ATOM     47  C   UNL A   1      40.813  29.685  30.916  1.00  0.00     0.029 A 
ATOM     48  N   UNL A   1      42.718  30.683  30.295  1.00  0.00    -0.354 N 
ATOM     49  C   UNL A   1      42.837  34.887  29.345  1.00  0.00     0.074 A 
ATOM     50  C   UNL A   1      41.518  35.475  29.420  1.00  0.00     0.031 C 
ATOM     51  C   UNL A   1      41.774  28.745  30.886  1.00  0.00     0.029 A 
ATOM     52  C   UNL A   1      43.033  29.355  30.458  1.00  0.00     0.049 A 
ATOM     53  H   UNL A   1      43.381  31.367  30.043  1.00  0.00     0.167 HD
ATOM     54  C   UNL A   1      43.957  35.571  29.012  1.00  0.00     0.034 A 
ATOM     55  C   UNL A   1      44.200  28.707  30.274  1.00  0.00     0.034 A 
ATOM     56  C   UNL A   1      45.272  34.994  28.950  1.00  0.00     0.049 A 
ATOM     57  C   UNL A   1      45.429  29.489  29.883  1.00  0.00     0.074 A 
ATOM     58  C   UNL A   1      46.473  35.619  28.665  1.00  0.00     0.029 A 
ATOM     59  N   UNL A   1      45.557  33.654  29.161  1.00  0.00    -0.354 N 
ATOM     60  N   UNL A   1      45.563  30.779  29.695  1.00  0.00    -0.248 NA
ATOM     61  C   UNL A   1      46.676  28.728  29.715  1.00  0.00     0.031 C 
ATOM     62  C   UNL A   1      47.484  34.652  28.687  1.00  0.00     0.029 A 
ATOM     63  C   UNL A   1      46.914  33.429  29.002  1.00  0.00     0.049 A 
ATOM     64  H   UNL A   1      44.894  32.964  29.389  1.00  0.00     0.167 HD
ATOM     65  C   UNL A   1      46.911  30.988  29.423  1.00  0.00     0.074 A 
ATOM     66  C   UNL A   1      47.557  29.694  29.492  1.00  0.00     0.031 C 
ATOM     67  C   UNL A   1      47.555  32.145  29.128  1.00  0.00     0.034 A 
BRANCH  54  68
ATOM     68  C   UNL A   1      43.811  37.041  28.726  1.00  0.00     0.023 A 
ATOM     69  C   UNL A   1      43.482  37.462  27.420  1.00  0.00     0.012 A 
ATOM     70  C   UNL A   1      43.949  37.999  29.749  1.00  0.00     0.148 A 
ATOM     71  C   UNL A   1      43.318  38.816  27.133  1.00  0.00     0.002 A 
ATOM     72  C   UNL A   1      43.747  39.344  29.461  1.00  0.00     0.091 A 
ATOM     73  F   UNL A   1      44.289  37.581  30.975  1.00  0.00    -0.205 F 
ATOM     74  C   UNL A   1      43.440  39.755  28.153  1.00  0.00     0.022 A 
BRANCH  72  75
ATOM     75  S   UNL A   1      43.817  40.621  30.723  1.00  0.00     0.127 S 
ATOM     76  O   UNL A   1      43.396  41.802  29.971  1.00  0.00    -0.237 OA
ATOM     77  O   UNL A   1      42.840  40.141  31.702  1.00  0.00    -0.237 OA
ATOM     78  O   UNL A   1      45.192  40.635  31.200  1.00  0.00    -0.744 OA
ENDBRANCH  72  75
ENDBRANCH  54  68
BRANCH  55  79
ATOM     79  C   UNL A   1      44.279  27.237  30.507  1.00  0.00     0.023 A 
ATOM     80  C   UNL A   1      44.712  26.754  31.756  1.00  0.00     0.012 A 
ATOM     81  C   UNL A   1      43.923  26.318  29.501  1.00  0.00     0.148 A 
ATOM     82  C   UNL A   1      44.814  25.382  31.991  1.00  0.00     0.002 A 
ATOM     83  C   UNL A   1      43.980  24.953  29.758  1.00  0.00     0.091 A 
ATOM     84  F   UNL A   1      43.537  26.798  28.310  1.00  0.00    -0.205 F 
ATOM     85  C   UNL A   1      44.438  24.483  30.998  1.00  0.00     0.022 A 
BRANCH  83  86
ATOM     86  S   UNL A   1      43.409  23.729  28.572  1.00  0.00     0.127 S 
ATOM     87  O   UNL A   1      44.416  23.840  27.521  1.00  0.00    -0.237 OA
ATOM     88  O   UNL A   1      43.469  22.495  29.356  1.00  0.00    -0.237 OA
ATOM     89  O   UNL A   1      42.061  24.141  28.206  1.00  0.00    -0.744 OA
ENDBRANCH  83  86
ENDBRANCH  55  79
BRANCH  67  90
ATOM     90  C   UNL A   1      49.041  32.079  28.880  1.00  0.00     0.023 A 
ATOM     91  C   UNL A   1      49.932  32.136  29.970  1.00  0.00     0.012 A 
ATOM     92  C   UNL A   1      49.551  31.884  27.581  1.00  0.00     0.148 A 
ATOM     93  C   UNL A   1      51.308  32.031  29.768  1.00  0.00     0.002 A 
ATOM     94  C   UNL A   1      50.921  31.735  27.392  1.00  0.00     0.091 A 
ATOM     95  F   UNL A   1      48.690  31.852  26.552  1.00  0.00    -0.205 F 
ATOM     96  C   UNL A   1      51.801  31.820  28.482  1.00  0.00     0.022 A 
BRANCH  94  97
ATOM     97  S   UNL A   1      51.629  31.366  25.782  1.00  0.00     0.127 S 
ATOM     98  O   UNL A   1      53.060  31.360  26.078  1.00  0.00    -0.237 OA
ATOM     99  O   UNL A   1      51.062  30.050  25.484  1.00  0.00    -0.237 OA
ATOM    100  O   UNL A   1      51.172  32.430  24.896  1.00  0.00    -0.744 OA
ENDBRANCH  94  97
ENDBRANCH  67  90
ENDBRANCH  41  42
ENDBRANCH  34  36
ENDBRANCH  33  34
ENDBRANCH  32  33
ENDBRANCH  31  32
ENDBRANCH  30  31
ENDBRANCH   1  30
TORSDOF 24
ENDMDL
MODEL 3
REMARK VINA RESULT:      -7.3      7.134     14.188
REMARK SMILES CCc1cc(OC(F)(F)F)cc2c1O[C@@H](C(F)(F)F)C(C(=O)OCCOCCOCCOC(=O)c1ccc(-c3c4nc(c(-c5cccc(S(=O)(=O)[O-])c5F)c5ccc([nH]5)c(-c5cccc(S(=O)(=O)[O-])c5F)c5nc(c(-c6cccc(S(=O)(=O)[O-])c6F)c6ccc3[nH]6)C=C5)C=C4)cc1)=C2
REMARK SMILES IDX 28 1 27 2 26 3 25 4 24 5 23 6 21 7 22 8 20 9 3 10 4 11 13 12
REMARK SMILES IDX 5 13 12 14 14 15 11 16 98 17 15 18 2 19 1 20 6 21 7 22 8 23
REMARK SMILES IDX 9 24 10 25 16 26 17 27 18 28 19 29 29 30 30 31 31 32 32 33
REMARK SMILES IDX 33 34 34 35 35 36 36 37 97 38 37 39 96 40 38 41 39 42 40 43
REMARK SMILES IDX 90 44 41 45 95 46 89 47 91 48 42 49 94 50 88 51 87 52 43 54
REMARK SMILES IDX 75 55 55 56 74 57 56 58 59 59 73 60 92 61 57 62 58 63 72 65
REMARK SMILES IDX 93 66 60 67 44 68 45 69 53 70 46 71 48 72 54 73 47 74 49 75
REMARK SMILES IDX 50 76 51 77 52 78 76 79 77 80 85 81 78 82 80 83 86 84 79 85
REMARK SMILES IDX 81 86 82 87 83 88 84 89 61 90 62 91 70 92 63 93 65 94 71 95
REMARK SMILES IDX 64 96 66 97 67 98 68 99 69 100
REMARK H PARENT 91 53 59 64
REMARK Flexibility Score: inf
ROOT
ATOM      1  C   UNL A   1      49.000  21.774  37.205  1.00  0.00     0.188 C 
ENDROOT
BRANCH   1   2
ATOM      2  C   UNL A   1      47.965  20.734  37.678  1.00  0.00     0.188 C 
BRANCH   2   3
ATOM      3  O   UNL A   1      48.187  20.264  39.001  1.00  0.00    -0.376 OA
BRANCH   3   4
ATOM      4  C   UNL A   1      47.123  20.479  39.919  1.00  0.00     0.202 C 
BRANCH   4   5
ATOM      5  C   UNL A   1      46.326  19.205  40.208  1.00  0.00     0.261 C 
BRANCH   5   6
ATOM      6  O   UNL A   1      46.691  18.565  41.442  1.00  0.00    -0.460 OA
BRANCH   6   7
ATOM      7  C   UNL A   1      45.920  18.834  42.520  1.00  0.00     0.338 C 
ATOM      8  O   UNL A   1      45.631  19.942  42.933  1.00  0.00    -0.246 OA
BRANCH   7   9
ATOM      9  C   UNL A   1      45.413  17.570  43.091  1.00  0.00     0.087 C 
ATOM     10  C   UNL A   1      44.441  13.705  44.370  1.00  0.00    -0.002 A 
ATOM     11  C   UNL A   1      43.195  13.162  44.002  1.00  0.00     0.054 A 
ATOM     12  C   UNL A   1      44.769  14.993  43.922  1.00  0.00     0.131 A 
ATOM     13  C   UNL A   1      42.315  13.870  43.180  1.00  0.00     0.130 A 
ATOM     14  C   UNL A   1      43.893  15.713  43.098  1.00  0.00     0.021 A 
ATOM     15  O   UNL A   1      46.002  15.498  44.254  1.00  0.00    -0.475 OA
ATOM     16  C   UNL A   1      42.662  15.153  42.744  1.00  0.00     0.058 A 
ATOM     17  C   UNL A   1      44.327  16.995  42.545  1.00  0.00     0.027 C 
ATOM     18  C   UNL A   1      46.077  16.950  44.298  1.00  0.00     0.316 C 
BRANCH  10  19
ATOM     19  C   UNL A   1      45.382  12.896  45.233  1.00  0.00     0.036 C 
ATOM     20  C   UNL A   1      45.997  11.718  44.485  1.00  0.00     0.009 C 
ENDBRANCH  10  19
BRANCH  13  21
ATOM     21  O   UNL A   1      41.100  13.425  42.737  1.00  0.00    -0.406 OA
BRANCH  21  22
ATOM     22  C   UNL A   1      41.068  12.160  42.095  1.00  0.00     0.573 C 
ATOM     23  F   UNL A   1      40.134  12.123  41.121  1.00  0.00    -0.132 F 
ATOM     24  F   UNL A   1      42.274  11.845  41.579  1.00  0.00    -0.132 F 
ATOM     25  F   UNL A   1      40.748  11.219  43.012  1.00  0.00    -0.132 F 
ENDBRANCH  21  22
ENDBRANCH  13  21
BRANCH  18  26
ATOM     26  C   UNL A   1      47.524  17.355  44.615  1.00  0.00     0.430 C 
ATOM     27  F   UNL A   1      48.268  17.403  43.484  1.00  0.00    -0.167 F 
ATOM     28  F   UNL A   1      47.554  18.605  45.140  1.00  0.00    -0.167 F 
ATOM     29  F   UNL A   1      48.117  16.527  45.497  1.00  0.00    -0.167 F 
ENDBRANCH  18  26
ENDBRANCH   7   9
ENDBRANCH   6   7
ENDBRANCH   5   6
ENDBRANCH   4   5
ENDBRANCH   3   4
ENDBRANCH   2   3
ENDBRANCH   1   2
BRANCH   1  30
ATOM     30  O   UNL A   1      48.681  23.160  37.167  1.00  0.00    -0.376 OA
BRANCH  30  31
ATOM     31  C   UNL A   1      48.582  23.888  38.381  1.00  0.00     0.202 C 
BRANCH  31  32
ATOM     32  C   UNL A   1      48.232  25.378  38.304  1.00  0.00     0.261 C 
BRANCH  32  33
ATOM     33  O   UNL A   1      47.824  25.831  37.005  1.00  0.00    -0.460 OA
BRANCH  33  34
ATOM     34  C   UNL A   1      47.403  27.119  36.953  1.00  0.00     0.338 C 
ATOM     35  O   UNL A   1      47.854  28.064  37.579  1.00  0.00    -0.246 OA
BRANCH  34  36
ATOM     36  C   UNL A   1      46.396  27.286  35.885  1.00  0.00     0.060 A 
ATOM     37  C   UNL A   1      46.338  28.527  35.237  1.00  0.00     0.016 A 
ATOM     38  C   UNL A   1      45.472  26.285  35.580  1.00  0.00     0.016 A 
ATOM     39  C   UNL A   1      45.329  28.786  34.312  1.00  0.00     0.010 A 
ATOM     40  C   UNL A   1      44.447  26.555  34.664  1.00  0.00     0.010 A 
ATOM     41  C   UNL A   1      44.350  27.818  34.055  1.00  0.00    -0.014 A 
BRANCH  41  42
ATOM     42  C   UNL A   1      43.143  28.202  33.283  1.00  0.00     0.031 A 
ATOM     43  C   UNL A   1      42.114  29.086  33.937  1.00  0.00     0.074 A 
ATOM     44  C   UNL A   1      42.973  27.798  32.011  1.00  0.00     0.049 A 
ATOM     45  N   UNL A   1      41.013  29.583  33.439  1.00  0.00    -0.248 NA
ATOM     46  C   UNL A   1      42.363  29.461  35.340  1.00  0.00     0.031 C 
ATOM     47  C   UNL A   1      43.892  26.941  31.266  1.00  0.00     0.029 A 
ATOM     48  N   UNL A   1      41.950  28.047  31.130  1.00  0.00    -0.354 N 
ATOM     49  C   UNL A   1      40.429  30.317  34.465  1.00  0.00     0.074 A 
ATOM     50  C   UNL A   1      41.289  30.186  35.620  1.00  0.00     0.031 C 
ATOM     51  C   UNL A   1      43.377  26.712  30.045  1.00  0.00     0.029 A 
ATOM     52  C   UNL A   1      42.091  27.398  29.926  1.00  0.00     0.049 A 
ATOM     53  H   UNL A   1      41.188  28.634  31.340  1.00  0.00     0.167 HD
ATOM     54  C   UNL A   1      39.292  31.051  34.444  1.00  0.00     0.034 A 
ATOM     55  C   UNL A   1      41.271  27.357  28.857  1.00  0.00     0.034 A 
ATOM     56  C   UNL A   1      38.441  31.195  33.294  1.00  0.00     0.049 A 
ATOM     57  C   UNL A   1      39.999  28.168  28.866  1.00  0.00     0.074 A 
ATOM     58  C   UNL A   1      37.291  31.955  33.165  1.00  0.00     0.029 A 
ATOM     59  N   UNL A   1      38.637  30.556  32.081  1.00  0.00    -0.354 N 
ATOM     60  N   UNL A   1      39.536  28.971  29.794  1.00  0.00    -0.248 NA
ATOM     61  C   UNL A   1      39.156  28.096  27.663  1.00  0.00     0.031 C 
ATOM     62  C   UNL A   1      36.782  31.760  31.876  1.00  0.00     0.029 A 
ATOM     63  C   UNL A   1      37.624  30.893  31.199  1.00  0.00     0.049 A 
ATOM     64  H   UNL A   1      39.385  29.950  31.876  1.00  0.00     0.167 HD
ATOM     65  C   UNL A   1      38.371  29.525  29.274  1.00  0.00     0.074 A 
ATOM     66  C   UNL A   1      38.209  28.982  27.941  1.00  0.00     0.031 C 
ATOM     67  C   UNL A   1      37.504  30.391  29.854  1.00  0.00     0.034 A 
BRANCH  54  68
ATOM     68  C   UNL A   1      38.922  31.792  35.700  1.00  0.00     0.023 A 
ATOM     69  C   UNL A   1      39.321  33.136  35.853  1.00  0.00     0.012 A 
ATOM     70  C   UNL A   1      38.142  31.183  36.701  1.00  0.00     0.148 A 
ATOM     71  C   UNL A   1      38.972  33.854  36.995  1.00  0.00     0.002 A 
ATOM     72  C   UNL A   1      37.766  31.918  37.821  1.00  0.00     0.091 A 
ATOM     73  F   UNL A   1      37.796  29.897  36.550  1.00  0.00    -0.205 F 
ATOM     74  C   UNL A   1      38.188  33.249  37.973  1.00  0.00     0.022 A 
BRANCH  72  75
ATOM     75  S   UNL A   1      36.701  31.246  39.101  1.00  0.00     0.127 S 
ATOM     76  O   UNL A   1      36.344  29.945  38.536  1.00  0.00    -0.237 OA
ATOM     77  O   UNL A   1      37.602  31.184  40.253  1.00  0.00    -0.237 OA
ATOM     78  O   UNL A   1      35.603  32.192  39.244  1.00  0.00    -0.744 OA
ENDBRANCH  72  75
ENDBRANCH  54  68
BRANCH  55  79
ATOM     79  C   UNL A   1      41.650  26.555  27.660  1.00  0.00     0.023 A 
ATOM     80  C   UNL A   1      42.154  27.207  26.519  1.00  0.00     0.012 A 
ATOM     81  C   UNL A   1      41.520  25.153  27.649  1.00  0.00     0.148 A 
ATOM     82  C   UNL A   1      42.496  26.480  25.378  1.00  0.00     0.002 A 
ATOM     83  C   UNL A   1      41.909  24.430  26.528  1.00  0.00     0.091 A 
ATOM     84  F   UNL A   1      41.014  24.553  28.737  1.00  0.00    -0.205 F 
ATOM     85  C   UNL A   1      42.385  25.092  25.386  1.00  0.00     0.022 A 
BRANCH  83  86
ATOM     86  S   UNL A   1      41.901  22.633  26.495  1.00  0.00     0.127 S 
ATOM     87  O   UNL A   1      40.473  22.339  26.573  1.00  0.00    -0.237 OA
ATOM     88  O   UNL A   1      42.519  22.349  25.200  1.00  0.00    -0.237 OA
ATOM     89  O   UNL A   1      42.698  22.219  27.642  1.00  0.00    -0.744 OA
ENDBRANCH  83  86
ENDBRANCH  55  79
BRANCH  67  90
ATOM     90  C   UNL A   1      36.310  30.836  29.047  1.00  0.00     0.023 A 
ATOM     91  C   UNL A   1      35.523  29.876  28.381  1.00  0.00     0.012 A 
ATOM     92  C   UNL A   1      35.923  32.191  29.012  1.00  0.00     0.148 A 
ATOM     93  C   UNL A   1      34.388  30.261  27.667  1.00  0.00     0.002 A 
ATOM     94  C   UNL A   1      34.765  32.561  28.335  1.00  0.00     0.091 A 
ATOM     95  F   UNL A   1      36.694  33.094  29.636  1.00  0.00    -0.205 F 
ATOM     96  C   UNL A   1      34.003  31.600  27.653  1.00  0.00     0.022 A 
BRANCH  94  97
ATOM     97  S   UNL A   1      34.150  34.250  28.349  1.00  0.00     0.127 S 
ATOM     98  O   UNL A   1      32.715  34.047  28.164  1.00  0.00    -0.237 OA
ATOM     99  O   UNL A   1      34.534  34.714  29.683  1.00  0.00    -0.237 OA
ATOM    100  O   UNL A   1      34.837  34.929  27.258  1.00  0.00    -0.744 OA
ENDBRANCH  94  97
ENDBRANCH  67  90
ENDBRANCH  41  42
ENDBRANCH  34  36
ENDBRANCH  33  34
ENDBRANCH  32  33
ENDBRANCH  31  32
ENDBRANCH  30  31
ENDBRANCH   1  30
TORSDOF 24
ENDMDL
