MODEL 1
REMARK VINA RESULT:      -9.5      0.000      0.000
REMARK SMILES CC(C)(C)N(CC(=O)OCCOCCOCCOC(=O)c1ccc(-c2c3nc(c(-c4cccc(S(=O)(=O)[O-])c4F)c4ccc([nH]4)c(-c4cccc(S(=O)(=O)[O-])c4F)c4nc(c(-c5cccc(S(=O)(=O)[O-])c5F)c5ccc2[nH]5)C=C4)C=C3)cc1)C(=O)c1ccc(N)c(Cl)c1
REMARK SMILES IDX 13 1 12 2 11 3 10 4 9 5 7 6 8 7 6 8 5 9 2 10 1 11 3 12 4 13
REMARK SMILES IDX 84 14 85 15 86 16 87 17 93 18 88 19 91 20 89 21 92 22 90 23
REMARK SMILES IDX 14 26 15 27 16 28 17 29 18 30 19 31 20 32 21 33 22 34 83 35
REMARK SMILES IDX 23 36 82 37 24 38 25 39 26 40 76 41 27 42 81 43 75 44 77 45
REMARK SMILES IDX 28 46 80 47 74 48 73 49 29 51 61 52 41 53 60 54 42 55 45 56
REMARK SMILES IDX 59 57 78 58 43 59 44 60 58 62 79 63 46 64 30 65 31 66 39 67
REMARK SMILES IDX 32 68 34 69 40 70 33 71 35 72 36 73 37 74 38 75 62 76 63 77
REMARK SMILES IDX 71 78 64 79 66 80 72 81 65 82 67 83 68 84 69 85 70 86 47 87
REMARK SMILES IDX 48 88 56 89 49 90 51 91 57 92 50 93 52 94 53 95 54 96 55 97
REMARK H PARENT 90 24 90 25 77 50 45 61
REMARK Flexibility Score: inf
ROOT
ATOM      1  C   UNL A   1      35.043  20.506  24.987  1.00  0.00     0.188 C 
ENDROOT
BRANCH   1   2
ATOM      2  O   UNL A   1      34.020  21.374  24.536  1.00  0.00    -0.376 OA
BRANCH   2   3
ATOM      3  C   UNL A   1      34.449  22.705  24.274  1.00  0.00     0.202 C 
BRANCH   3   4
ATOM      4  C   UNL A   1      33.654  23.513  23.212  1.00  0.00     0.261 C 
BRANCH   4   5
ATOM      5  O   UNL A   1      34.369  24.674  22.669  1.00  0.00    -0.462 OA
BRANCH   5   6
ATOM      6  C   UNL A   1      33.633  25.686  22.137  1.00  0.00     0.325 C 
ATOM      7  O   UNL A   1      33.137  25.618  21.014  1.00  0.00    -0.250 OA
BRANCH   6   8
ATOM      8  C   UNL A   1      33.394  26.952  23.044  1.00  0.00     0.243 C 
BRANCH   8   9
ATOM      9  N   UNL A   1      32.479  27.093  24.224  1.00  0.00    -0.323 N 
BRANCH   9  10
ATOM     10  C   UNL A   1      33.118  27.155  25.600  1.00  0.00     0.035 C 
ATOM     11  C   UNL A   1      34.024  25.941  25.935  1.00  0.00     0.034 C 
ATOM     12  C   UNL A   1      32.021  27.189  26.684  1.00  0.00     0.034 C 
ATOM     13  C   UNL A   1      34.048  28.394  25.734  1.00  0.00     0.034 C 
ENDBRANCH   9  10
BRANCH   9  14
ATOM     14  C   UNL A   1      31.080  27.420  24.180  1.00  0.00     0.254 C 
ATOM     15  O   UNL A   1      30.201  26.567  24.320  1.00  0.00    -0.269 OA
BRANCH  14  16
ATOM     16  C   UNL A   1      30.506  28.777  23.992  1.00  0.00     0.041 A 
ATOM     17  C   UNL A   1      30.935  30.044  25.177  1.00  0.00     0.016 A 
ATOM     18  C   UNL A   1      29.494  29.119  22.592  1.00  0.00     0.036 A 
ATOM     19  C   UNL A   1      30.324  31.735  24.897  1.00  0.00     0.028 A 
ATOM     20  C   UNL A   1      28.834  30.662  22.192  1.00  0.00     0.064 A 
ATOM     21  C   UNL A   1      29.185  32.067  23.247  1.00  0.00     0.050 A 
ATOM     22  Cl  UNL A   1      27.964  30.851  20.720  1.00  0.00    -0.082 Cl
BRANCH  21  23
ATOM     23  N   UNL A   1      28.336  33.141  22.753  1.00  0.00    -0.398 N 
ATOM     24  H   UNL A   1      28.221  33.962  23.285  1.00  0.00     0.156 HD
ATOM     25  H   UNL A   1      27.875  33.046  21.889  1.00  0.00     0.156 HD
ENDBRANCH  21  23
ENDBRANCH  14  16
ENDBRANCH   9  14
ENDBRANCH   8   9
ENDBRANCH   6   8
ENDBRANCH   5   6
ENDBRANCH   4   5
ENDBRANCH   3   4
ENDBRANCH   2   3
ENDBRANCH   1   2
BRANCH   1  26
ATOM     26  C   UNL A   1      36.488  21.025  24.817  1.00  0.00     0.188 C 
BRANCH  26  27
ATOM     27  O   UNL A   1      37.539  20.226  25.294  1.00  0.00    -0.376 OA
BRANCH  27  28
ATOM     28  C   UNL A   1      38.824  20.791  25.385  1.00  0.00     0.202 C 
BRANCH  28  29
ATOM     29  C   UNL A   1      39.963  20.218  26.257  1.00  0.00     0.261 C 
BRANCH  29  30
ATOM     30  O   UNL A   1      40.875  19.258  25.693  1.00  0.00    -0.460 OA
BRANCH  30  31
ATOM     31  C   UNL A   1      42.191  19.536  25.899  1.00  0.00     0.338 C 
ATOM     32  O   UNL A   1      43.044  18.691  26.124  1.00  0.00    -0.246 OA
BRANCH  31  33
ATOM     33  C   UNL A   1      42.393  21.058  26.050  1.00  0.00     0.060 A 
ATOM     34  C   UNL A   1      42.950  22.692  24.982  1.00  0.00     0.016 A 
ATOM     35  C   UNL A   1      42.591  21.164  27.852  1.00  0.00     0.016 A 
ATOM     36  C   UNL A   1      43.612  24.101  25.813  1.00  0.00     0.010 A 
ATOM     37  C   UNL A   1      43.259  22.645  28.550  1.00  0.00     0.010 A 
ATOM     38  C   UNL A   1      43.717  24.061  27.556  1.00  0.00    -0.014 A 
BRANCH  38  39
ATOM     39  C   UNL A   1      44.113  25.366  28.112  1.00  0.00     0.031 A 
ATOM     40  C   UNL A   1      45.524  25.804  27.973  1.00  0.00     0.074 A 
ATOM     41  C   UNL A   1      43.123  26.189  28.530  1.00  0.00     0.049 A 
ATOM     42  N   UNL A   1      46.027  26.986  28.181  1.00  0.00    -0.248 NA
ATOM     43  C   UNL A   1      46.501  24.798  27.530  1.00  0.00     0.031 C 
ATOM     44  C   UNL A   1      41.705  25.822  28.662  1.00  0.00     0.029 A 
ATOM     45  N   UNL A   1      43.120  27.525  28.835  1.00  0.00    -0.354 N 
ATOM     46  C   UNL A   1      47.384  26.857  27.939  1.00  0.00     0.074 A 
ATOM     47  C   UNL A   1      47.630  25.486  27.559  1.00  0.00     0.031 C 
ATOM     48  C   UNL A   1      40.965  26.910  28.889  1.00  0.00     0.029 A 
ATOM     49  C   UNL A   1      41.856  28.042  29.039  1.00  0.00     0.049 A 
ATOM     50  H   UNL A   1      43.940  28.063  28.903  1.00  0.00     0.167 HD
ATOM     51  C   UNL A   1      48.335  27.808  28.039  1.00  0.00     0.034 A 
ATOM     52  C   UNL A   1      41.456  29.295  29.326  1.00  0.00     0.034 A 
ATOM     53  C   UNL A   1      48.042  29.155  28.438  1.00  0.00     0.049 A 
ATOM     54  C   UNL A   1      42.540  30.321  29.441  1.00  0.00     0.074 A 
ATOM     55  C   UNL A   1      48.916  30.200  28.658  1.00  0.00     0.029 A 
ATOM     56  N   UNL A   1      46.763  29.632  28.697  1.00  0.00    -0.354 N 
ATOM     57  N   UNL A   1      43.822  30.182  29.203  1.00  0.00    -0.248 NA
ATOM     58  C   UNL A   1      42.138  31.664  29.865  1.00  0.00     0.031 C 
ATOM     59  C   UNL A   1      48.166  31.298  29.091  1.00  0.00     0.029 A 
ATOM     60  C   UNL A   1      46.820  30.955  29.087  1.00  0.00     0.049 A 
ATOM     61  H   UNL A   1      45.935  29.104  28.615  1.00  0.00     0.167 HD
ATOM     62  C   UNL A   1      44.388  31.421  29.446  1.00  0.00     0.074 A 
ATOM     63  C   UNL A   1      43.295  32.309  29.806  1.00  0.00     0.031 C 
ATOM     64  C   UNL A   1      45.690  31.793  29.405  1.00  0.00     0.034 A 
BRANCH  51  65
ATOM     65  C   UNL A   1      49.752  27.372  27.802  1.00  0.00     0.023 A 
ATOM     66  C   UNL A   1      50.533  26.861  28.860  1.00  0.00     0.012 A 
ATOM     67  C   UNL A   1      50.332  27.541  26.532  1.00  0.00     0.148 A 
ATOM     68  C   UNL A   1      51.884  26.571  28.665  1.00  0.00     0.002 A 
ATOM     69  C   UNL A   1      51.664  27.205  26.333  1.00  0.00     0.091 A 
ATOM     70  F   UNL A   1      49.581  28.065  25.553  1.00  0.00    -0.205 F 
ATOM     71  C   UNL A   1      52.447  26.738  27.401  1.00  0.00     0.022 A 
BRANCH  69  72
ATOM     72  S   UNL A   1      52.462  27.332  24.732  1.00  0.00     0.127 S 
ATOM     73  O   UNL A   1      53.724  27.985  25.081  1.00  0.00    -0.237 OA
ATOM     74  O   UNL A   1      52.588  25.927  24.345  1.00  0.00    -0.237 OA
ATOM     75  O   UNL A   1      51.569  28.121  23.894  1.00  0.00    -0.744 OA
ENDBRANCH  69  72
ENDBRANCH  51  65
BRANCH  52  76
ATOM     76  C   UNL A   1      40.012  29.621  29.543  1.00  0.00     0.023 A 
ATOM     77  C   UNL A   1      39.162  29.870  28.449  1.00  0.00     0.012 A 
ATOM     78  C   UNL A   1      39.470  29.672  30.845  1.00  0.00     0.148 A 
ATOM     79  C   UNL A   1      37.815  30.194  28.648  1.00  0.00     0.002 A 
ATOM     80  C   UNL A   1      38.116  29.928  31.033  1.00  0.00     0.091 A 
ATOM     81  F   UNL A   1      40.289  29.457  31.883  1.00  0.00    -0.205 F 
ATOM     82  C   UNL A   1      37.290  30.211  29.937  1.00  0.00     0.022 A 
BRANCH  80  83
ATOM     83  S   UNL A   1      37.340  29.827  32.650  1.00  0.00     0.127 S 
ATOM     84  O   UNL A   1      36.014  30.379  32.380  1.00  0.00    -0.237 OA
ATOM     85  O   UNL A   1      37.367  28.387  32.912  1.00  0.00    -0.237 OA
ATOM     86  O   UNL A   1      38.187  30.611  33.539  1.00  0.00    -0.744 OA
ENDBRANCH  80  83
ENDBRANCH  52  76
BRANCH  64  87
ATOM     87  C   UNL A   1      45.984  33.227  29.724  1.00  0.00     0.023 A 
ATOM     88  C   UNL A   1      46.303  33.607  31.041  1.00  0.00     0.012 A 
ATOM     89  C   UNL A   1      46.015  34.179  28.689  1.00  0.00     0.148 A 
ATOM     90  C   UNL A   1      46.620  34.931  31.329  1.00  0.00     0.002 A 
ATOM     91  C   UNL A   1      46.393  35.480  28.973  1.00  0.00     0.091 A 
ATOM     92  F   UNL A   1      45.679  33.789  27.450  1.00  0.00    -0.205 F 
ATOM     93  C   UNL A   1      46.680  35.863  30.294  1.00  0.00     0.022 A 
BRANCH  91  94
ATOM     94  S   UNL A   1      46.611  36.708  27.685  1.00  0.00     0.127 S 
ATOM     95  O   UNL A   1      46.597  37.951  28.455  1.00  0.00    -0.237 OA
ATOM     96  O   UNL A   1      47.915  36.344  27.131  1.00  0.00    -0.237 OA
ATOM     97  O   UNL A   1      45.494  36.530  26.766  1.00  0.00    -0.744 OA
ENDBRANCH  91  94
ENDBRANCH  64  87
ENDBRANCH  38  39
ENDBRANCH  31  33
ENDBRANCH  30  31
ENDBRANCH  29  30
ENDBRANCH  28  29
ENDBRANCH  27  28
ENDBRANCH  26  27
ENDBRANCH   1  26
TORSDOF 25
ENDMDL
MODEL 2
REMARK VINA RESULT:      -9.4      2.832      8.211
REMARK SMILES CC(C)(C)N(CC(=O)OCCOCCOCCOC(=O)c1ccc(-c2c3nc(c(-c4cccc(S(=O)(=O)[O-])c4F)c4ccc([nH]4)c(-c4cccc(S(=O)(=O)[O-])c4F)c4nc(c(-c5cccc(S(=O)(=O)[O-])c5F)c5ccc2[nH]5)C=C4)C=C3)cc1)C(=O)c1ccc(N)c(Cl)c1
REMARK SMILES IDX 13 1 12 2 11 3 10 4 9 5 7 6 8 7 6 8 5 9 2 10 1 11 3 12 4 13
REMARK SMILES IDX 84 14 85 15 86 16 87 17 93 18 88 19 91 20 89 21 92 22 90 23
REMARK SMILES IDX 14 26 15 27 16 28 17 29 18 30 19 31 20 32 21 33 22 34 83 35
REMARK SMILES IDX 23 36 82 37 24 38 25 39 26 40 76 41 27 42 81 43 75 44 77 45
REMARK SMILES IDX 28 46 80 47 74 48 73 49 29 51 61 52 41 53 60 54 42 55 45 56
REMARK SMILES IDX 59 57 78 58 43 59 44 60 58 62 79 63 46 64 30 65 31 66 39 67
REMARK SMILES IDX 32 68 34 69 40 70 33 71 35 72 36 73 37 74 38 75 62 76 63 77
REMARK SMILES IDX 71 78 64 79 66 80 72 81 65 82 67 83 68 84 69 85 70 86 47 87
REMARK SMILES IDX 48 88 56 89 49 90 51 91 57 92 50 93 52 94 53 95 54 96 55 97
REMARK H PARENT 90 24 90 25 77 50 45 61
REMARK Flexibility Score: inf
ROOT
ATOM      1  C   UNL A   1      36.061  20.786  25.089  1.00  0.00     0.188 C 
ENDROOT
BRANCH   1   2
ATOM      2  O   UNL A   1      34.737  21.107  24.709  1.00  0.00    -0.376 OA
BRANCH   2   3
ATOM      3  C   UNL A   1      34.567  22.434  24.225  1.00  0.00     0.202 C 
BRANCH   3   4
ATOM      4  C   UNL A   1      33.495  22.660  23.124  1.00  0.00     0.261 C 
BRANCH   4   5
ATOM      5  O   UNL A   1      33.887  23.614  22.079  1.00  0.00    -0.462 OA
BRANCH   5   6
ATOM      6  C   UNL A   1      33.087  24.692  21.867  1.00  0.00     0.325 C 
ATOM      7  O   UNL A   1      33.178  25.390  20.859  1.00  0.00    -0.250 OA
BRANCH   6   8
ATOM      8  C   UNL A   1      31.988  24.994  22.954  1.00  0.00     0.243 C 
BRANCH   8   9
ATOM      9  N   UNL A   1      32.015  26.024  24.044  1.00  0.00    -0.323 N 
BRANCH   9  10
ATOM     10  C   UNL A   1      31.924  25.528  25.477  1.00  0.00     0.035 C 
ATOM     11  C   UNL A   1      33.298  25.243  26.138  1.00  0.00     0.034 C 
ATOM     12  C   UNL A   1      31.139  24.202  25.521  1.00  0.00     0.034 C 
ATOM     13  C   UNL A   1      31.252  26.585  26.398  1.00  0.00     0.034 C 
ENDBRANCH   9  10
BRANCH   9  14
ATOM     14  C   UNL A   1      32.361  27.411  23.894  1.00  0.00     0.254 C 
ATOM     15  O   UNL A   1      33.522  27.781  23.708  1.00  0.00    -0.269 OA
BRANCH  14  16
ATOM     16  C   UNL A   1      31.413  28.555  23.914  1.00  0.00     0.041 A 
ATOM     17  C   UNL A   1      31.587  29.770  25.212  1.00  0.00     0.016 A 
ATOM     18  C   UNL A   1      30.209  28.722  22.640  1.00  0.00     0.036 A 
ATOM     19  C   UNL A   1      30.501  31.230  25.184  1.00  0.00     0.028 A 
ATOM     20  C   UNL A   1      29.104  30.037  22.479  1.00  0.00     0.064 A 
ATOM     21  C   UNL A   1      29.152  31.375  23.671  1.00  0.00     0.050 A 
ATOM     22  Cl  UNL A   1      28.071  30.107  21.105  1.00  0.00    -0.082 Cl
BRANCH  21  23
ATOM     23  N   UNL A   1      27.990  32.198  23.372  1.00  0.00    -0.398 N 
ATOM     24  H   UNL A   1      28.091  33.171  23.262  1.00  0.00     0.156 HD
ATOM     25  H   UNL A   1      27.102  31.782  23.282  1.00  0.00     0.156 HD
ENDBRANCH  21  23
ENDBRANCH  14  16
ENDBRANCH   9  14
ENDBRANCH   8   9
ENDBRANCH   6   8
ENDBRANCH   5   6
ENDBRANCH   4   5
ENDBRANCH   3   4
ENDBRANCH   2   3
ENDBRANCH   1   2
BRANCH   1  26
ATOM     26  C   UNL A   1      37.050  21.971  25.144  1.00  0.00     0.188 C 
BRANCH  26  27
ATOM     27  O   UNL A   1      38.348  21.728  25.620  1.00  0.00    -0.376 OA
BRANCH  27  28
ATOM     28  C   UNL A   1      39.048  22.784  26.232  1.00  0.00     0.202 C 
BRANCH  28  29
ATOM     29  C   UNL A   1      40.447  22.642  26.872  1.00  0.00     0.261 C 
BRANCH  29  30
ATOM     30  O   UNL A   1      41.518  22.052  26.113  1.00  0.00    -0.460 OA
BRANCH  30  31
ATOM     31  C   UNL A   1      42.661  22.789  26.075  1.00  0.00     0.338 C 
ATOM     32  O   UNL A   1      43.784  22.313  26.060  1.00  0.00    -0.246 OA
BRANCH  31  33
ATOM     33  C   UNL A   1      42.334  24.280  26.299  1.00  0.00     0.060 A 
ATOM     34  C   UNL A   1      41.741  25.939  25.288  1.00  0.00     0.016 A 
ATOM     35  C   UNL A   1      43.230  24.560  27.854  1.00  0.00     0.016 A 
ATOM     36  C   UNL A   1      42.127  27.540  25.922  1.00  0.00     0.010 A 
ATOM     37  C   UNL A   1      43.538  26.222  28.373  1.00  0.00     0.010 A 
ATOM     38  C   UNL A   1      42.973  27.644  27.446  1.00  0.00    -0.014 A 
BRANCH  38  39
ATOM     39  C   UNL A   1      43.061  29.033  27.931  1.00  0.00     0.031 A 
ATOM     40  C   UNL A   1      41.978  29.557  28.799  1.00  0.00     0.074 A 
ATOM     41  C   UNL A   1      44.230  29.685  27.734  1.00  0.00     0.049 A 
ATOM     42  N   UNL A   1      41.968  30.649  29.507  1.00  0.00    -0.248 NA
ATOM     43  C   UNL A   1      40.751  28.754  28.904  1.00  0.00     0.031 C 
ATOM     44  C   UNL A   1      45.350  29.205  26.909  1.00  0.00     0.029 A 
ATOM     45  N   UNL A   1      44.727  30.843  28.274  1.00  0.00    -0.354 N 
ATOM     46  C   UNL A   1      40.720  30.688  30.106  1.00  0.00     0.074 A 
ATOM     47  C   UNL A   1      40.000  29.509  29.689  1.00  0.00     0.031 C 
ATOM     48  C   UNL A   1      46.425  29.975  27.096  1.00  0.00     0.029 A 
ATOM     49  C   UNL A   1      46.052  31.075  27.960  1.00  0.00     0.049 A 
ATOM     50  H   UNL A   1      44.191  31.449  28.832  1.00  0.00     0.167 HD
ATOM     51  C   UNL A   1      40.227  31.640  30.925  1.00  0.00     0.034 A 
ATOM     52  C   UNL A   1      46.877  32.075  28.321  1.00  0.00     0.034 A 
ATOM     53  C   UNL A   1      40.977  32.805  31.296  1.00  0.00     0.049 A 
ATOM     54  C   UNL A   1      46.291  33.119  29.220  1.00  0.00     0.074 A 
ATOM     55  C   UNL A   1      40.575  33.886  32.053  1.00  0.00     0.029 A 
ATOM     56  N   UNL A   1      42.292  33.042  30.912  1.00  0.00    -0.354 N 
ATOM     57  N   UNL A   1      45.107  33.138  29.783  1.00  0.00    -0.248 NA
ATOM     58  C   UNL A   1      47.135  34.275  29.532  1.00  0.00     0.031 C 
ATOM     59  C   UNL A   1      41.636  34.797  32.091  1.00  0.00     0.029 A 
ATOM     60  C   UNL A   1      42.717  34.260  31.405  1.00  0.00     0.049 A 
ATOM     61  H   UNL A   1      42.842  32.432  30.368  1.00  0.00     0.167 HD
ATOM     62  C   UNL A   1      45.058  34.307  30.522  1.00  0.00     0.074 A 
ATOM     63  C   UNL A   1      46.354  34.946  30.367  1.00  0.00     0.031 C 
ATOM     64  C   UNL A   1      44.033  34.826  31.240  1.00  0.00     0.034 A 
BRANCH  51  65
ATOM     65  C   UNL A   1      38.801  31.476  31.366  1.00  0.00     0.023 A 
ATOM     66  C   UNL A   1      38.477  30.635  32.452  1.00  0.00     0.012 A 
ATOM     67  C   UNL A   1      37.770  32.105  30.645  1.00  0.00     0.148 A 
ATOM     68  C   UNL A   1      37.144  30.388  32.781  1.00  0.00     0.002 A 
ATOM     69  C   UNL A   1      36.447  31.893  31.009  1.00  0.00     0.091 A 
ATOM     70  F   UNL A   1      38.101  32.866  29.593  1.00  0.00    -0.205 F 
ATOM     71  C   UNL A   1      36.131  31.021  32.064  1.00  0.00     0.022 A 
BRANCH  69  72
ATOM     72  S   UNL A   1      35.078  32.705  30.183  1.00  0.00     0.127 S 
ATOM     73  O   UNL A   1      34.080  32.763  31.251  1.00  0.00    -0.237 OA
ATOM     74  O   UNL A   1      35.664  33.996  29.824  1.00  0.00    -0.237 OA
ATOM     75  O   UNL A   1      34.725  31.857  29.052  1.00  0.00    -0.744 OA
ENDBRANCH  69  72
ENDBRANCH  51  65
BRANCH  52  76
ATOM     76  C   UNL A   1      48.285  32.141  27.821  1.00  0.00     0.023 A 
ATOM     77  C   UNL A   1      48.610  32.926  26.697  1.00  0.00     0.012 A 
ATOM     78  C   UNL A   1      49.318  31.433  28.471  1.00  0.00     0.148 A 
ATOM     79  C   UNL A   1      49.923  32.977  26.215  1.00  0.00     0.002 A 
ATOM     80  C   UNL A   1      50.632  31.541  28.028  1.00  0.00     0.091 A 
ATOM     81  F   UNL A   1      48.998  30.670  29.525  1.00  0.00    -0.205 F 
ATOM     82  C   UNL A   1      50.934  32.295  26.887  1.00  0.00     0.022 A 
BRANCH  80  83
ATOM     83  S   UNL A   1      52.005  30.806  28.923  1.00  0.00     0.127 S 
ATOM     84  O   UNL A   1      52.096  31.674  30.096  1.00  0.00    -0.237 OA
ATOM     85  O   UNL A   1      51.507  29.457  29.193  1.00  0.00    -0.237 OA
ATOM     86  O   UNL A   1      53.137  30.854  28.008  1.00  0.00    -0.744 OA
ENDBRANCH  80  83
ENDBRANCH  52  76
BRANCH  64  87
ATOM     87  C   UNL A   1      44.299  36.127  31.935  1.00  0.00     0.023 A 
ATOM     88  C   UNL A   1      44.846  36.137  33.231  1.00  0.00     0.012 A 
ATOM     89  C   UNL A   1      44.071  37.338  31.257  1.00  0.00     0.148 A 
ATOM     90  C   UNL A   1      45.136  37.345  33.859  1.00  0.00     0.002 A 
ATOM     91  C   UNL A   1      44.421  38.532  31.864  1.00  0.00     0.091 A 
ATOM     92  F   UNL A   1      43.524  37.294  30.033  1.00  0.00    -0.205 F 
ATOM     93  C   UNL A   1      44.938  38.540  33.170  1.00  0.00     0.022 A 
BRANCH  91  94
ATOM     94  S   UNL A   1      44.311  40.101  31.003  1.00  0.00     0.127 S 
ATOM     95  O   UNL A   1      44.825  39.751  29.680  1.00  0.00    -0.237 OA
ATOM     96  O   UNL A   1      42.875  40.379  31.050  1.00  0.00    -0.237 OA
ATOM     97  O   UNL A   1      45.131  41.035  31.764  1.00  0.00    -0.744 OA
ENDBRANCH  91  94
ENDBRANCH  64  87
ENDBRANCH  38  39
ENDBRANCH  31  33
ENDBRANCH  30  31
ENDBRANCH  29  30
ENDBRANCH  28  29
ENDBRANCH  27  28
ENDBRANCH  26  27
ENDBRANCH   1  26
TORSDOF 25
ENDMDL
MODEL 3
REMARK VINA RESULT:      -9.4      1.980      2.563
REMARK SMILES CC(C)(C)N(CC(=O)OCCOCCOCCOC(=O)c1ccc(-c2c3nc(c(-c4cccc(S(=O)(=O)[O-])c4F)c4ccc([nH]4)c(-c4cccc(S(=O)(=O)[O-])c4F)c4nc(c(-c5cccc(S(=O)(=O)[O-])c5F)c5ccc2[nH]5)C=C4)C=C3)cc1)C(=O)c1ccc(N)c(Cl)c1
REMARK SMILES IDX 13 1 12 2 11 3 10 4 9 5 7 6 8 7 6 8 5 9 2 10 1 11 3 12 4 13
REMARK SMILES IDX 84 14 85 15 86 16 87 17 93 18 88 19 91 20 89 21 92 22 90 23
REMARK SMILES IDX 14 26 15 27 16 28 17 29 18 30 19 31 20 32 21 33 22 34 83 35
REMARK SMILES IDX 23 36 82 37 24 38 25 39 26 40 76 41 27 42 81 43 75 44 77 45
REMARK SMILES IDX 28 46 80 47 74 48 73 49 29 51 61 52 41 53 60 54 42 55 45 56
REMARK SMILES IDX 59 57 78 58 43 59 44 60 58 62 79 63 46 64 30 65 31 66 39 67
REMARK SMILES IDX 32 68 34 69 40 70 33 71 35 72 36 73 37 74 38 75 62 76 63 77
REMARK SMILES IDX 71 78 64 79 66 80 72 81 65 82 67 83 68 84 69 85 70 86 47 87
REMARK SMILES IDX 48 88 56 89 49 90 51 91 57 92 50 93 52 94 53 95 54 96 55 97
REMARK H PARENT 90 24 90 25 77 50 45 61
REMARK Flexibility Score: inf
ROOT
ATOM      1  C   UNL A   1      34.762  20.194  24.977  1.00  0.00     0.188 C 
ENDROOT
BRANCH   1   2
ATOM      2  O   UNL A   1      33.657  20.732  24.274  1.00  0.00    -0.376 OA
BRANCH   2   3
ATOM      3  C   UNL A   1      33.846  22.063  23.809  1.00  0.00     0.202 C 
BRANCH   3   4
ATOM      4  C   UNL A   1      32.832  22.601  22.762  1.00  0.00     0.261 C 
BRANCH   4   5
ATOM      5  O   UNL A   1      33.419  23.476  21.740  1.00  0.00    -0.462 OA
BRANCH   5   6
ATOM      6  C   UNL A   1      33.194  24.813  21.837  1.00  0.00     0.325 C 
ATOM      7  O   UNL A   1      33.316  25.572  20.878  1.00  0.00    -0.250 OA
BRANCH   6   8
ATOM      8  C   UNL A   1      32.718  25.359  23.237  1.00  0.00     0.243 C 
BRANCH   8   9
ATOM      9  N   UNL A   1      31.715  26.437  23.523  1.00  0.00    -0.323 N 
BRANCH   9  10
ATOM     10  C   UNL A   1      30.366  26.008  24.073  1.00  0.00     0.035 C 
ATOM     11  C   UNL A   1      30.323  25.872  25.617  1.00  0.00     0.034 C 
ATOM     12  C   UNL A   1      29.988  24.624  23.506  1.00  0.00     0.034 C 
ATOM     13  C   UNL A   1      29.262  27.049  23.735  1.00  0.00     0.034 C 
ENDBRANCH   9  10
BRANCH   9  14
ATOM     14  C   UNL A   1      31.975  27.850  23.563  1.00  0.00     0.254 C 
ATOM     15  O   UNL A   1      31.757  28.585  22.599  1.00  0.00    -0.269 OA
BRANCH  14  16
ATOM     16  C   UNL A   1      32.497  28.608  24.729  1.00  0.00     0.041 A 
ATOM     17  C   UNL A   1      34.003  28.033  25.501  1.00  0.00     0.016 A 
ATOM     18  C   UNL A   1      31.677  30.070  25.268  1.00  0.00     0.036 A 
ATOM     19  C   UNL A   1      34.709  29.014  26.861  1.00  0.00     0.028 A 
ATOM     20  C   UNL A   1      32.212  31.102  26.543  1.00  0.00     0.064 A 
ATOM     21  C   UNL A   1      33.727  30.706  27.415  1.00  0.00     0.050 A 
ATOM     22  Cl  UNL A   1      31.357  32.559  26.864  1.00  0.00    -0.082 Cl
BRANCH  21  23
ATOM     23  N   UNL A   1      33.784  31.638  28.531  1.00  0.00    -0.398 N 
ATOM     24  H   UNL A   1      34.625  31.758  29.030  1.00  0.00     0.156 HD
ATOM     25  H   UNL A   1      32.982  32.147  28.788  1.00  0.00     0.156 HD
ENDBRANCH  21  23
ENDBRANCH  14  16
ENDBRANCH   9  14
ENDBRANCH   8   9
ENDBRANCH   6   8
ENDBRANCH   5   6
ENDBRANCH   4   5
ENDBRANCH   3   4
ENDBRANCH   2   3
ENDBRANCH   1   2
BRANCH   1  26
ATOM     26  C   UNL A   1      35.952  21.154  25.193  1.00  0.00     0.188 C 
BRANCH  26  27
ATOM     27  O   UNL A   1      37.245  20.608  25.227  1.00  0.00    -0.376 OA
BRANCH  27  28
ATOM     28  C   UNL A   1      38.340  21.482  25.352  1.00  0.00     0.202 C 
BRANCH  28  29
ATOM     29  C   UNL A   1      39.595  21.183  26.202  1.00  0.00     0.261 C 
BRANCH  29  30
ATOM     30  O   UNL A   1      40.255  19.912  26.071  1.00  0.00    -0.460 OA
BRANCH  30  31
ATOM     31  C   UNL A   1      41.613  19.968  26.132  1.00  0.00     0.338 C 
ATOM     32  O   UNL A   1      42.334  18.995  26.290  1.00  0.00    -0.246 OA
BRANCH  31  33
ATOM     33  C   UNL A   1      42.078  21.436  26.219  1.00  0.00     0.060 A 
ATOM     34  C   UNL A   1      42.694  22.972  25.042  1.00  0.00     0.016 A 
ATOM     35  C   UNL A   1      42.603  21.489  27.957  1.00  0.00     0.016 A 
ATOM     36  C   UNL A   1      43.707  24.248  25.721  1.00  0.00     0.010 A 
ATOM     37  C   UNL A   1      43.610  22.837  28.502  1.00  0.00     0.010 A 
ATOM     38  C   UNL A   1      44.106  24.172  27.420  1.00  0.00    -0.014 A 
BRANCH  38  39
ATOM     39  C   UNL A   1      44.797  25.391  27.876  1.00  0.00     0.031 A 
ATOM     40  C   UNL A   1      46.161  25.673  27.366  1.00  0.00     0.074 A 
ATOM     41  C   UNL A   1      44.066  26.296  28.567  1.00  0.00     0.049 A 
ATOM     42  N   UNL A   1      46.845  26.777  27.456  1.00  0.00    -0.248 NA
ATOM     43  C   UNL A   1      46.850  24.589  26.649  1.00  0.00     0.031 C 
ATOM     44  C   UNL A   1      42.701  26.085  29.074  1.00  0.00     0.029 A 
ATOM     45  N   UNL A   1      44.310  27.604  28.893  1.00  0.00    -0.354 N 
ATOM     46  C   UNL A   1      48.059  26.509  26.848  1.00  0.00     0.074 A 
ATOM     47  C   UNL A   1      48.022  25.142  26.385  1.00  0.00     0.031 C 
ATOM     48  C   UNL A   1      42.190  27.236  29.520  1.00  0.00     0.029 A 
ATOM     49  C   UNL A   1      43.222  28.250  29.446  1.00  0.00     0.049 A 
ATOM     50  H   UNL A   1      45.179  28.042  28.746  1.00  0.00     0.167 HD
ATOM     51  C   UNL A   1      49.113  27.339  26.707  1.00  0.00     0.034 A 
ATOM     52  C   UNL A   1      43.073  29.521  29.860  1.00  0.00     0.034 A 
ATOM     53  C   UNL A   1      49.108  28.686  27.201  1.00  0.00     0.049 A 
ATOM     54  C   UNL A   1      44.267  30.410  29.698  1.00  0.00     0.074 A 
ATOM     55  C   UNL A   1      50.131  29.611  27.197  1.00  0.00     0.029 A 
ATOM     56  N   UNL A   1      48.014  29.289  27.811  1.00  0.00    -0.354 N 
ATOM     57  N   UNL A   1      45.410  30.140  29.115  1.00  0.00    -0.248 NA
ATOM     58  C   UNL A   1      44.164  31.765  30.246  1.00  0.00     0.031 C 
ATOM     59  C   UNL A   1      49.668  30.761  27.844  1.00  0.00     0.029 A 
ATOM     60  C   UNL A   1      48.339  30.574  28.201  1.00  0.00     0.049 A 
ATOM     61  H   UNL A   1      47.136  28.865  27.947  1.00  0.00     0.167 HD
ATOM     62  C   UNL A   1      46.170  31.292  29.222  1.00  0.00     0.074 A 
ATOM     63  C   UNL A   1      45.333  32.276  29.887  1.00  0.00     0.031 C 
ATOM     64  C   UNL A   1      47.449  31.515  28.834  1.00  0.00     0.034 A 
BRANCH  51  65
ATOM     65  C   UNL A   1      50.348  26.759  26.081  1.00  0.00     0.023 A 
ATOM     66  C   UNL A   1      51.197  25.908  26.821  1.00  0.00     0.012 A 
ATOM     67  C   UNL A   1      50.704  27.123  24.770  1.00  0.00     0.148 A 
ATOM     68  C   UNL A   1      52.405  25.470  26.278  1.00  0.00     0.002 A 
ATOM     69  C   UNL A   1      51.885  26.644  24.219  1.00  0.00     0.091 A 
ATOM     70  F   UNL A   1      49.903  27.964  24.102  1.00  0.00    -0.205 F 
ATOM     71  C   UNL A   1      52.746  25.833  24.977  1.00  0.00     0.022 A 
BRANCH  69  72
ATOM     72  S   UNL A   1      52.382  27.010  22.535  1.00  0.00     0.127 S 
ATOM     73  O   UNL A   1      53.335  25.932  22.266  1.00  0.00    -0.237 OA
ATOM     74  O   UNL A   1      51.114  26.897  21.815  1.00  0.00    -0.237 OA
ATOM     75  O   UNL A   1      52.954  28.349  22.562  1.00  0.00    -0.744 OA
ENDBRANCH  69  72
ENDBRANCH  51  65
BRANCH  52  76
ATOM     76  C   UNL A   1      41.793  29.996  30.472  1.00  0.00     0.023 A 
ATOM     77  C   UNL A   1      40.793  30.584  29.673  1.00  0.00     0.012 A 
ATOM     78  C   UNL A   1      41.555  29.853  31.855  1.00  0.00     0.148 A 
ATOM     79  C   UNL A   1      39.602  31.047  30.243  1.00  0.00     0.002 A 
ATOM     80  C   UNL A   1      40.342  30.253  32.405  1.00  0.00     0.091 A 
ATOM     81  F   UNL A   1      42.520  29.314  32.613  1.00  0.00    -0.205 F 
ATOM     82  C   UNL A   1      39.372  30.870  31.605  1.00  0.00     0.022 A 
BRANCH  80  83
ATOM     83  S   UNL A   1      39.918  29.930  34.121  1.00  0.00     0.127 S 
ATOM     84  O   UNL A   1      38.463  30.067  34.099  1.00  0.00    -0.237 OA
ATOM     85  O   UNL A   1      40.406  28.563  34.303  1.00  0.00    -0.237 OA
ATOM     86  O   UNL A   1      40.639  30.931  34.896  1.00  0.00    -0.744 OA
ENDBRANCH  80  83
ENDBRANCH  52  76
BRANCH  64  87
ATOM     87  C   UNL A   1      47.993  32.887  29.094  1.00  0.00     0.023 A 
ATOM     88  C   UNL A   1      48.640  33.172  30.310  1.00  0.00     0.012 A 
ATOM     89  C   UNL A   1      47.923  33.866  28.086  1.00  0.00     0.148 A 
ATOM     90  C   UNL A   1      49.186  34.433  30.534  1.00  0.00     0.002 A 
ATOM     91  C   UNL A   1      48.524  35.096  28.292  1.00  0.00     0.091 A 
ATOM     92  F   UNL A   1      47.276  33.570  26.949  1.00  0.00    -0.205 F 
ATOM     93  C   UNL A   1      49.142  35.388  29.520  1.00  0.00     0.022 A 
BRANCH  91  94
ATOM     94  S   UNL A   1      48.616  36.335  26.999  1.00  0.00     0.127 S 
ATOM     95  O   UNL A   1      47.570  37.270  27.409  1.00  0.00    -0.237 OA
ATOM     96  O   UNL A   1      49.982  36.838  27.152  1.00  0.00    -0.237 OA
ATOM     97  O   UNL A   1      48.369  35.630  25.748  1.00  0.00    -0.744 OA
ENDBRANCH  91  94
ENDBRANCH  64  87
ENDBRANCH  38  39
ENDBRANCH  31  33
ENDBRANCH  30  31
ENDBRANCH  29  30
ENDBRANCH  28  29
ENDBRANCH  27  28
ENDBRANCH  26  27
ENDBRANCH   1  26
TORSDOF 25
ENDMDL
