MODEL 1
REMARK VINA RESULT:     -10.4      0.000      0.000
REMARK SMILES Cc1nc2cc(SCC(=O)OCCOCCOCCOC(=O)c3ccc(-c4c5nc(c(-c6cccc(S(=O)(=O)[O-])c6F)c6ccc([nH]6)c(-c6cccc(S(=O)(=O)[O-])c6F)c6nc(c(-c7cccc(S(=O)(=O)[O-])c7F)c7ccc4[nH]7)C=C6)C=C5)cc3)ccc2s1
REMARK SMILES IDX 16 1 15 2 14 3 13 4 12 5 11 6 9 7 10 8 8 9 7 10 6 11 1 12
REMARK SMILES IDX 2 13 3 14 89 15 4 16 88 17 5 18 87 19 86 20 17 21 18 22
REMARK SMILES IDX 19 23 20 24 21 25 22 26 23 27 24 28 85 29 25 30 84 31 26 32
REMARK SMILES IDX 27 33 28 34 78 35 29 36 83 37 77 38 79 39 30 40 82 41 76 42
REMARK SMILES IDX 75 43 31 45 63 46 43 47 62 48 44 49 47 50 61 51 80 52 45 53
REMARK SMILES IDX 46 54 60 56 81 57 48 58 32 59 33 60 41 61 34 62 36 63 42 64
REMARK SMILES IDX 35 65 37 66 38 67 39 68 40 69 64 70 65 71 73 72 66 73 68 74
REMARK SMILES IDX 74 75 67 76 69 77 70 78 71 79 72 80 49 81 50 82 58 83 51 84
REMARK SMILES IDX 53 85 59 86 52 87 54 88 55 89 56 90 57 91
REMARK H PARENT 79 44 47 55
REMARK Flexibility Score: inf
ROOT
ATOM      1  C   UNL A   1      34.956  24.346  24.330  1.00  0.00     0.188 C 
ENDROOT
BRANCH   1   2
ATOM      2  C   UNL A   1      34.159  24.315  23.015  1.00  0.00     0.188 C 
BRANCH   2   3
ATOM      3  O   UNL A   1      33.837  25.567  22.410  1.00  0.00    -0.376 OA
BRANCH   3   4
ATOM      4  C   UNL A   1      33.520  26.671  23.257  1.00  0.00     0.202 C 
BRANCH   4   5
ATOM      5  C   UNL A   1      33.546  28.040  22.574  1.00  0.00     0.261 C 
BRANCH   5   6
ATOM      6  O   UNL A   1      32.487  28.861  23.092  1.00  0.00    -0.463 OA
BRANCH   6   7
ATOM      7  C   UNL A   1      31.221  28.522  22.738  1.00  0.00     0.316 C 
ATOM      8  O   UNL A   1      30.900  28.137  21.621  1.00  0.00    -0.251 OA
BRANCH   7   9
ATOM      9  C   UNL A   1      30.301  28.482  23.945  1.00  0.00     0.197 C 
BRANCH   9  10
ATOM     10  S   UNL A   1      28.990  27.210  23.825  1.00  0.00    -0.114 SA
BRANCH  10  11
ATOM     11  C   UNL A   1      29.868  25.679  24.181  1.00  0.00     0.010 A 
ATOM     12  C   UNL A   1      32.985  22.290  28.193  1.00  0.00     0.079 C 
ATOM     13  C   UNL A   1      32.266  22.895  27.036  1.00  0.00     0.091 A 
ATOM     14  N   UNL A   1      31.594  24.026  27.088  1.00  0.00    -0.241 NA
ATOM     15  S   UNL A   1      32.280  22.111  25.509  1.00  0.00    -0.119 S 
ATOM     16  C   UNL A   1      31.070  24.325  25.838  1.00  0.00     0.083 A 
ATOM     17  C   UNL A   1      31.320  23.376  24.849  1.00  0.00     0.055 A 
ATOM     18  C   UNL A   1      30.329  25.480  25.495  1.00  0.00     0.045 A 
ATOM     19  C   UNL A   1      30.829  23.525  23.543  1.00  0.00     0.022 A 
ATOM     20  C   UNL A   1      30.102  24.684  23.229  1.00  0.00     0.016 A 
ENDBRANCH  10  11
ENDBRANCH   9  10
ENDBRANCH   7   9
ENDBRANCH   6   7
ENDBRANCH   5   6
ENDBRANCH   4   5
ENDBRANCH   3   4
ENDBRANCH   2   3
ENDBRANCH   1   2
BRANCH   1  21
ATOM     21  O   UNL A   1      36.180  23.632  24.241  1.00  0.00    -0.376 OA
BRANCH  21  22
ATOM     22  C   UNL A   1      36.042  22.249  23.950  1.00  0.00     0.202 C 
BRANCH  22  23
ATOM     23  C   UNL A   1      37.221  21.423  24.465  1.00  0.00     0.261 C 
BRANCH  23  24
ATOM     24  O   UNL A   1      37.654  21.823  25.779  1.00  0.00    -0.460 OA
BRANCH  24  25
ATOM     25  C   UNL A   1      38.953  21.610  26.079  1.00  0.00     0.338 C 
ATOM     26  O   UNL A   1      39.599  20.598  25.885  1.00  0.00    -0.246 OA
BRANCH  25  27
ATOM     27  C   UNL A   1      39.479  22.820  26.742  1.00  0.00     0.060 A 
ATOM     28  C   UNL A   1      38.967  24.088  26.444  1.00  0.00     0.016 A 
ATOM     29  C   UNL A   1      40.555  22.686  27.616  1.00  0.00     0.016 A 
ATOM     30  C   UNL A   1      39.573  25.232  26.970  1.00  0.00     0.010 A 
ATOM     31  C   UNL A   1      41.133  23.828  28.172  1.00  0.00     0.010 A 
ATOM     32  C   UNL A   1      40.675  25.113  27.824  1.00  0.00    -0.014 A 
BRANCH  32  33
ATOM     33  C   UNL A   1      41.443  26.300  28.283  1.00  0.00     0.031 A 
ATOM     34  C   UNL A   1      40.719  27.381  29.037  1.00  0.00     0.074 A 
ATOM     35  C   UNL A   1      42.749  26.448  27.988  1.00  0.00     0.049 A 
ATOM     36  N   UNL A   1      41.082  28.613  29.276  1.00  0.00    -0.248 NA
ATOM     37  C   UNL A   1      39.398  27.026  29.583  1.00  0.00     0.031 C 
ATOM     38  C   UNL A   1      43.586  25.453  27.322  1.00  0.00     0.029 A 
ATOM     39  N   UNL A   1      43.589  27.521  28.180  1.00  0.00    -0.354 N 
ATOM     40  C   UNL A   1      40.006  29.204  29.928  1.00  0.00     0.074 A 
ATOM     41  C   UNL A   1      38.986  28.187  30.073  1.00  0.00     0.031 C 
ATOM     42  C   UNL A   1      44.811  25.969  27.130  1.00  0.00     0.029 A 
ATOM     43  C   UNL A   1      44.821  27.356  27.590  1.00  0.00     0.049 A 
ATOM     44  H   UNL A   1      43.334  28.325  28.687  1.00  0.00     0.167 HD
ATOM     45  C   UNL A   1      39.879  30.479  30.361  1.00  0.00     0.034 A 
ATOM     46  C   UNL A   1      45.819  28.239  27.383  1.00  0.00     0.034 A 
ATOM     47  C   UNL A   1      40.920  31.466  30.263  1.00  0.00     0.049 A 
ATOM     48  C   UNL A   1      45.649  29.661  27.850  1.00  0.00     0.074 A 
ATOM     49  C   UNL A   1      40.901  32.783  30.689  1.00  0.00     0.029 A 
ATOM     50  N   UNL A   1      42.170  31.241  29.709  1.00  0.00    -0.354 N 
ATOM     51  N   UNL A   1      44.637  30.207  28.477  1.00  0.00    -0.248 NA
ATOM     52  C   UNL A   1      46.762  30.587  27.587  1.00  0.00     0.031 C 
ATOM     53  C   UNL A   1      42.141  33.356  30.385  1.00  0.00     0.029 A 
ATOM     54  C   UNL A   1      42.935  32.392  29.785  1.00  0.00     0.049 A 
ATOM     55  H   UNL A   1      42.470  30.389  29.319  1.00  0.00     0.167 HD
ATOM     56  C   UNL A   1      44.998  31.529  28.710  1.00  0.00     0.074 A 
ATOM     57  C   UNL A   1      46.331  31.699  28.170  1.00  0.00     0.031 C 
ATOM     58  C   UNL A   1      44.284  32.520  29.299  1.00  0.00     0.034 A 
BRANCH  45  59
ATOM     59  C   UNL A   1      38.574  30.883  30.991  1.00  0.00     0.023 A 
ATOM     60  C   UNL A   1      38.370  30.685  32.371  1.00  0.00     0.012 A 
ATOM     61  C   UNL A   1      37.573  31.515  30.227  1.00  0.00     0.148 A 
ATOM     62  C   UNL A   1      37.181  31.089  32.976  1.00  0.00     0.002 A 
ATOM     63  C   UNL A   1      36.407  31.950  30.845  1.00  0.00     0.091 A 
ATOM     64  F   UNL A   1      37.775  31.668  28.910  1.00  0.00    -0.205 F 
ATOM     65  C   UNL A   1      36.205  31.732  32.216  1.00  0.00     0.022 A 
BRANCH  63  66
ATOM     66  S   UNL A   1      35.127  32.851  29.961  1.00  0.00     0.127 S 
ATOM     67  O   UNL A   1      35.894  33.947  29.371  1.00  0.00    -0.237 OA
ATOM     68  O   UNL A   1      34.651  31.855  29.001  1.00  0.00    -0.237 OA
ATOM     69  O   UNL A   1      34.148  33.240  30.966  1.00  0.00    -0.744 OA
ENDBRANCH  63  66
ENDBRANCH  45  59
BRANCH  46  70
ATOM     70  C   UNL A   1      47.065  27.800  26.692  1.00  0.00     0.023 A 
ATOM     71  C   UNL A   1      48.073  27.147  27.426  1.00  0.00     0.012 A 
ATOM     72  C   UNL A   1      47.234  27.977  25.304  1.00  0.00     0.148 A 
ATOM     73  C   UNL A   1      49.231  26.690  26.794  1.00  0.00     0.002 A 
ATOM     74  C   UNL A   1      48.360  27.464  24.670  1.00  0.00     0.091 A 
ATOM     75  F   UNL A   1      46.280  28.629  24.625  1.00  0.00    -0.205 F 
ATOM     76  C   UNL A   1      49.367  26.833  25.415  1.00  0.00     0.022 A 
BRANCH  74  77
ATOM     77  S   UNL A   1      48.530  27.471  22.882  1.00  0.00     0.127 S 
ATOM     78  O   UNL A   1      48.556  26.043  22.578  1.00  0.00    -0.237 OA
ATOM     79  O   UNL A   1      47.315  28.168  22.461  1.00  0.00    -0.237 OA
ATOM     80  O   UNL A   1      49.760  28.204  22.615  1.00  0.00    -0.744 OA
ENDBRANCH  74  77
ENDBRANCH  46  70
BRANCH  58  81
ATOM     81  C   UNL A   1      44.940  33.867  29.440  1.00  0.00     0.023 A 
ATOM     82  C   UNL A   1      45.694  34.160  30.592  1.00  0.00     0.012 A 
ATOM     83  C   UNL A   1      44.884  34.803  28.389  1.00  0.00     0.148 A 
ATOM     84  C   UNL A   1      46.369  35.376  30.704  1.00  0.00     0.002 A 
ATOM     85  C   UNL A   1      45.593  35.994  28.490  1.00  0.00     0.091 A 
ATOM     86  F   UNL A   1      44.145  34.509  27.309  1.00  0.00    -0.205 F 
ATOM     87  C   UNL A   1      46.329  36.285  29.650  1.00  0.00     0.022 A 
BRANCH  85  88
ATOM     88  S   UNL A   1      45.669  37.182  27.145  1.00  0.00     0.127 S 
ATOM     89  O   UNL A   1      46.219  36.370  26.061  1.00  0.00    -0.237 OA
ATOM     90  O   UNL A   1      44.263  37.553  26.976  1.00  0.00    -0.237 OA
ATOM     91  O   UNL A   1      46.524  38.263  27.614  1.00  0.00    -0.744 OA
ENDBRANCH  85  88
ENDBRANCH  58  81
ENDBRANCH  32  33
ENDBRANCH  25  27
ENDBRANCH  24  25
ENDBRANCH  23  24
ENDBRANCH  22  23
ENDBRANCH  21  22
ENDBRANCH   1  21
TORSDOF 22
ENDMDL
MODEL 2
REMARK VINA RESULT:     -10.1      1.619      2.020
REMARK SMILES Cc1nc2cc(SCC(=O)OCCOCCOCCOC(=O)c3ccc(-c4c5nc(c(-c6cccc(S(=O)(=O)[O-])c6F)c6ccc([nH]6)c(-c6cccc(S(=O)(=O)[O-])c6F)c6nc(c(-c7cccc(S(=O)(=O)[O-])c7F)c7ccc4[nH]7)C=C6)C=C5)cc3)ccc2s1
REMARK SMILES IDX 16 1 15 2 14 3 13 4 12 5 11 6 9 7 10 8 8 9 7 10 6 11 1 12
REMARK SMILES IDX 2 13 3 14 89 15 4 16 88 17 5 18 87 19 86 20 17 21 18 22
REMARK SMILES IDX 19 23 20 24 21 25 22 26 23 27 24 28 85 29 25 30 84 31 26 32
REMARK SMILES IDX 27 33 28 34 78 35 29 36 83 37 77 38 79 39 30 40 82 41 76 42
REMARK SMILES IDX 75 43 31 45 63 46 43 47 62 48 44 49 47 50 61 51 80 52 45 53
REMARK SMILES IDX 46 54 60 56 81 57 48 58 32 59 33 60 41 61 34 62 36 63 42 64
REMARK SMILES IDX 35 65 37 66 38 67 39 68 40 69 64 70 65 71 73 72 66 73 68 74
REMARK SMILES IDX 74 75 67 76 69 77 70 78 71 79 72 80 49 81 50 82 58 83 51 84
REMARK SMILES IDX 53 85 59 86 52 87 54 88 55 89 56 90 57 91
REMARK H PARENT 79 44 47 55
REMARK Flexibility Score: inf
ROOT
ATOM      1  C   UNL A   1      34.582  23.803  23.084  1.00  0.00     0.188 C 
ENDROOT
BRANCH   1   2
ATOM      2  C   UNL A   1      33.245  23.813  22.325  1.00  0.00     0.188 C 
BRANCH   2   3
ATOM      3  O   UNL A   1      32.629  25.080  22.092  1.00  0.00    -0.376 OA
BRANCH   3   4
ATOM      4  C   UNL A   1      33.401  26.261  22.306  1.00  0.00     0.202 C 
BRANCH   4   5
ATOM      5  C   UNL A   1      32.588  27.513  22.646  1.00  0.00     0.261 C 
BRANCH   5   6
ATOM      6  O   UNL A   1      32.597  27.726  24.067  1.00  0.00    -0.463 OA
BRANCH   6   7
ATOM      7  C   UNL A   1      31.451  28.196  24.622  1.00  0.00     0.316 C 
ATOM      8  O   UNL A   1      30.810  29.141  24.179  1.00  0.00    -0.251 OA
BRANCH   7   9
ATOM      9  C   UNL A   1      30.957  27.282  25.729  1.00  0.00     0.197 C 
BRANCH   9  10
ATOM     10  S   UNL A   1      30.135  25.766  25.116  1.00  0.00    -0.114 SA
BRANCH  10  11
ATOM     11  C   UNL A   1      31.304  24.463  25.540  1.00  0.00     0.010 A 
ATOM     12  C   UNL A   1      32.788  18.543  25.330  1.00  0.00     0.079 C 
ATOM     13  C   UNL A   1      32.675  20.017  25.523  1.00  0.00     0.091 A 
ATOM     14  N   UNL A   1      31.731  20.766  24.991  1.00  0.00    -0.241 NA
ATOM     15  S   UNL A   1      33.821  20.849  26.493  1.00  0.00    -0.119 S 
ATOM     16  C   UNL A   1      31.892  22.086  25.388  1.00  0.00     0.083 A 
ATOM     17  C   UNL A   1      33.001  22.331  26.195  1.00  0.00     0.055 A 
ATOM     18  C   UNL A   1      31.045  23.169  25.055  1.00  0.00     0.045 A 
ATOM     19  C   UNL A   1      33.310  23.621  26.650  1.00  0.00     0.022 A 
ATOM     20  C   UNL A   1      32.450  24.676  26.310  1.00  0.00     0.016 A 
ENDBRANCH  10  11
ENDBRANCH   9  10
ENDBRANCH   7   9
ENDBRANCH   6   7
ENDBRANCH   5   6
ENDBRANCH   4   5
ENDBRANCH   3   4
ENDBRANCH   2   3
ENDBRANCH   1   2
BRANCH   1  21
ATOM     21  O   UNL A   1      35.004  22.490  23.425  1.00  0.00    -0.376 OA
BRANCH  21  22
ATOM     22  C   UNL A   1      36.380  22.375  23.755  1.00  0.00     0.202 C 
BRANCH  22  23
ATOM     23  C   UNL A   1      36.661  22.723  25.217  1.00  0.00     0.261 C 
BRANCH  23  24
ATOM     24  O   UNL A   1      37.258  21.636  25.948  1.00  0.00    -0.460 OA
BRANCH  24  25
ATOM     25  C   UNL A   1      38.603  21.532  25.889  1.00  0.00     0.338 C 
ATOM     26  O   UNL A   1      39.252  20.617  25.421  1.00  0.00    -0.246 OA
BRANCH  25  27
ATOM     27  C   UNL A   1      39.187  22.722  26.539  1.00  0.00     0.060 A 
ATOM     28  C   UNL A   1      38.792  24.014  26.173  1.00  0.00     0.016 A 
ATOM     29  C   UNL A   1      40.203  22.538  27.474  1.00  0.00     0.016 A 
ATOM     30  C   UNL A   1      39.458  25.127  26.693  1.00  0.00     0.010 A 
ATOM     31  C   UNL A   1      40.839  23.653  28.024  1.00  0.00     0.010 A 
ATOM     32  C   UNL A   1      40.502  24.955  27.610  1.00  0.00    -0.014 A 
BRANCH  32  33
ATOM     33  C   UNL A   1      41.336  26.096  28.071  1.00  0.00     0.031 A 
ATOM     34  C   UNL A   1      40.684  27.191  28.869  1.00  0.00     0.074 A 
ATOM     35  C   UNL A   1      42.638  26.192  27.742  1.00  0.00     0.049 A 
ATOM     36  N   UNL A   1      41.108  28.399  29.123  1.00  0.00    -0.248 NA
ATOM     37  C   UNL A   1      39.364  26.883  29.446  1.00  0.00     0.031 C 
ATOM     38  C   UNL A   1      43.410  25.175  27.030  1.00  0.00     0.029 A 
ATOM     39  N   UNL A   1      43.531  27.221  27.931  1.00  0.00    -0.354 N 
ATOM     40  C   UNL A   1      40.079  29.022  29.820  1.00  0.00     0.074 A 
ATOM     41  C   UNL A   1      39.019  28.049  29.973  1.00  0.00     0.031 C 
ATOM     42  C   UNL A   1      44.651  25.640  26.813  1.00  0.00     0.029 A 
ATOM     43  C   UNL A   1      44.737  27.014  27.302  1.00  0.00     0.049 A 
ATOM     44  H   UNL A   1      43.327  28.024  28.462  1.00  0.00     0.167 HD
ATOM     45  C   UNL A   1      40.024  30.293  30.283  1.00  0.00     0.034 A 
ATOM     46  C   UNL A   1      45.768  27.856  27.085  1.00  0.00     0.034 A 
ATOM     47  C   UNL A   1      41.105  31.234  30.176  1.00  0.00     0.049 A 
ATOM     48  C   UNL A   1      45.676  29.273  27.586  1.00  0.00     0.074 A 
ATOM     49  C   UNL A   1      41.158  32.540  30.630  1.00  0.00     0.029 A 
ATOM     50  N   UNL A   1      42.327  30.965  29.580  1.00  0.00    -0.354 N 
ATOM     51  N   UNL A   1      44.708  29.850  28.255  1.00  0.00    -0.248 NA
ATOM     52  C   UNL A   1      46.822  30.154  27.311  1.00  0.00     0.031 C 
ATOM     53  C   UNL A   1      42.413  33.063  30.302  1.00  0.00     0.029 A 
ATOM     54  C   UNL A   1      43.145  32.079  29.659  1.00  0.00     0.049 A 
ATOM     55  H   UNL A   1      42.577  30.109  29.163  1.00  0.00     0.167 HD
ATOM     56  C   UNL A   1      45.135  31.149  28.505  1.00  0.00     0.074 A 
ATOM     57  C   UNL A   1      46.459  31.271  27.929  1.00  0.00     0.031 C 
ATOM     58  C   UNL A   1      44.485  32.157  29.136  1.00  0.00     0.034 A 
BRANCH  45  59
ATOM     59  C   UNL A   1      38.756  30.740  30.961  1.00  0.00     0.023 A 
ATOM     60  C   UNL A   1      38.621  30.604  32.356  1.00  0.00     0.012 A 
ATOM     61  C   UNL A   1      37.725  31.352  30.220  1.00  0.00     0.148 A 
ATOM     62  C   UNL A   1      37.469  31.049  33.002  1.00  0.00     0.002 A 
ATOM     63  C   UNL A   1      36.596  31.828  30.877  1.00  0.00     0.091 A 
ATOM     64  F   UNL A   1      37.861  31.445  28.890  1.00  0.00    -0.205 F 
ATOM     65  C   UNL A   1      36.462  31.671  32.265  1.00  0.00     0.022 A 
BRANCH  63  66
ATOM     66  S   UNL A   1      35.284  32.707  30.021  1.00  0.00     0.127 S 
ATOM     67  O   UNL A   1      34.844  31.706  29.049  1.00  0.00    -0.237 OA
ATOM     68  O   UNL A   1      34.330  32.970  31.099  1.00  0.00    -0.237 OA
ATOM     69  O   UNL A   1      35.904  33.899  29.458  1.00  0.00    -0.744 OA
ENDBRANCH  63  66
ENDBRANCH  45  59
BRANCH  46  70
ATOM     70  C   UNL A   1      46.972  27.377  26.347  1.00  0.00     0.023 A 
ATOM     71  C   UNL A   1      47.131  27.710  24.988  1.00  0.00     0.012 A 
ATOM     72  C   UNL A   1      47.983  26.640  26.994  1.00  0.00     0.148 A 
ATOM     73  C   UNL A   1      48.269  27.308  24.286  1.00  0.00     0.002 A 
ATOM     74  C   UNL A   1      49.142  26.298  26.307  1.00  0.00     0.091 A 
ATOM     75  F   UNL A   1      47.802  26.303  28.279  1.00  0.00    -0.205 F 
ATOM     76  C   UNL A   1      49.281  26.618  24.948  1.00  0.00     0.022 A 
BRANCH  74  77
ATOM     77  S   UNL A   1      50.551  25.548  27.132  1.00  0.00     0.127 S 
ATOM     78  O   UNL A   1      49.966  24.326  27.674  1.00  0.00    -0.237 OA
ATOM     79  O   UNL A   1      51.483  25.344  26.022  1.00  0.00    -0.237 OA
ATOM     80  O   UNL A   1      50.995  26.534  28.108  1.00  0.00    -0.744 OA
ENDBRANCH  74  77
ENDBRANCH  46  70
BRANCH  58  81
ATOM     81  C   UNL A   1      45.204  33.470  29.286  1.00  0.00     0.023 A 
ATOM     82  C   UNL A   1      46.062  33.675  30.384  1.00  0.00     0.012 A 
ATOM     83  C   UNL A   1      45.102  34.460  28.289  1.00  0.00     0.148 A 
ATOM     84  C   UNL A   1      46.793  34.857  30.497  1.00  0.00     0.002 A 
ATOM     85  C   UNL A   1      45.865  35.617  28.388  1.00  0.00     0.091 A 
ATOM     86  F   UNL A   1      44.265  34.250  27.262  1.00  0.00    -0.205 F 
ATOM     87  C   UNL A   1      46.705  35.821  29.495  1.00  0.00     0.022 A 
BRANCH  85  88
ATOM     88  S   UNL A   1      45.880  36.869  27.100  1.00  0.00     0.127 S 
ATOM     89  O   UNL A   1      46.823  37.845  27.644  1.00  0.00    -0.237 OA
ATOM     90  O   UNL A   1      46.374  36.122  25.943  1.00  0.00    -0.237 OA
ATOM     91  O   UNL A   1      44.504  37.331  26.975  1.00  0.00    -0.744 OA
ENDBRANCH  85  88
ENDBRANCH  58  81
ENDBRANCH  32  33
ENDBRANCH  25  27
ENDBRANCH  24  25
ENDBRANCH  23  24
ENDBRANCH  22  23
ENDBRANCH  21  22
ENDBRANCH   1  21
TORSDOF 22
ENDMDL
MODEL 3
REMARK VINA RESULT:      -9.9      1.979      8.215
REMARK SMILES Cc1nc2cc(SCC(=O)OCCOCCOCCOC(=O)c3ccc(-c4c5nc(c(-c6cccc(S(=O)(=O)[O-])c6F)c6ccc([nH]6)c(-c6cccc(S(=O)(=O)[O-])c6F)c6nc(c(-c7cccc(S(=O)(=O)[O-])c7F)c7ccc4[nH]7)C=C6)C=C5)cc3)ccc2s1
REMARK SMILES IDX 16 1 15 2 14 3 13 4 12 5 11 6 9 7 10 8 8 9 7 10 6 11 1 12
REMARK SMILES IDX 2 13 3 14 89 15 4 16 88 17 5 18 87 19 86 20 17 21 18 22
REMARK SMILES IDX 19 23 20 24 21 25 22 26 23 27 24 28 85 29 25 30 84 31 26 32
REMARK SMILES IDX 27 33 28 34 78 35 29 36 83 37 77 38 79 39 30 40 82 41 76 42
REMARK SMILES IDX 75 43 31 45 63 46 43 47 62 48 44 49 47 50 61 51 80 52 45 53
REMARK SMILES IDX 46 54 60 56 81 57 48 58 32 59 33 60 41 61 34 62 36 63 42 64
REMARK SMILES IDX 35 65 37 66 38 67 39 68 40 69 64 70 65 71 73 72 66 73 68 74
REMARK SMILES IDX 74 75 67 76 69 77 70 78 71 79 72 80 49 81 50 82 58 83 51 84
REMARK SMILES IDX 53 85 59 86 52 87 54 88 55 89 56 90 57 91
REMARK H PARENT 79 44 47 55
REMARK Flexibility Score: inf
ROOT
ATOM      1  C   UNL A   1      35.238  21.800  25.646  1.00  0.00     0.188 C 
ENDROOT
BRANCH   1   2
ATOM      2  C   UNL A   1      33.776  21.326  25.595  1.00  0.00     0.188 C 
BRANCH   2   3
ATOM      3  O   UNL A   1      33.378  20.535  24.475  1.00  0.00    -0.376 OA
BRANCH   3   4
ATOM      4  C   UNL A   1      32.305  21.003  23.660  1.00  0.00     0.202 C 
BRANCH   4   5
ATOM      5  C   UNL A   1      32.105  22.521  23.661  1.00  0.00     0.261 C 
BRANCH   5   6
ATOM      6  O   UNL A   1      32.570  23.072  22.418  1.00  0.00    -0.463 OA
BRANCH   6   7
ATOM      7  C   UNL A   1      33.711  23.806  22.464  1.00  0.00     0.316 C 
ATOM      8  O   UNL A   1      34.837  23.326  22.456  1.00  0.00    -0.251 OA
BRANCH   7   9
ATOM      9  C   UNL A   1      33.421  25.289  22.318  1.00  0.00     0.197 C 
BRANCH   9  10
ATOM     10  S   UNL A   1      33.034  26.120  23.903  1.00  0.00    -0.114 SA
BRANCH  10  11
ATOM     11  C   UNL A   1      31.411  26.840  23.606  1.00  0.00     0.010 A 
ATOM     12  C   UNL A   1      28.084  31.268  21.034  1.00  0.00     0.079 C 
ATOM     13  C   UNL A   1      28.641  30.087  21.753  1.00  0.00     0.091 A 
ATOM     14  N   UNL A   1      29.906  29.723  21.713  1.00  0.00    -0.241 NA
ATOM     15  S   UNL A   1      27.617  29.102  22.715  1.00  0.00    -0.119 S 
ATOM     16  C   UNL A   1      30.104  28.605  22.512  1.00  0.00     0.083 A 
ATOM     17  C   UNL A   1      28.957  28.105  23.124  1.00  0.00     0.055 A 
ATOM     18  C   UNL A   1      31.338  27.957  22.753  1.00  0.00     0.045 A 
ATOM     19  C   UNL A   1      28.994  26.963  23.938  1.00  0.00     0.022 A 
ATOM     20  C   UNL A   1      30.232  26.343  24.165  1.00  0.00     0.016 A 
ENDBRANCH  10  11
ENDBRANCH   9  10
ENDBRANCH   7   9
ENDBRANCH   6   7
ENDBRANCH   5   6
ENDBRANCH   4   5
ENDBRANCH   3   4
ENDBRANCH   2   3
ENDBRANCH   1   2
BRANCH   1  21
ATOM     21  O   UNL A   1      36.158  20.722  25.736  1.00  0.00    -0.376 OA
BRANCH  21  22
ATOM     22  C   UNL A   1      37.013  20.575  24.613  1.00  0.00     0.202 C 
BRANCH  22  23
ATOM     23  C   UNL A   1      38.395  20.044  24.997  1.00  0.00     0.261 C 
BRANCH  23  24
ATOM     24  O   UNL A   1      38.780  20.399  26.339  1.00  0.00    -0.460 OA
BRANCH  24  25
ATOM     25  C   UNL A   1      40.095  20.610  26.556  1.00  0.00     0.338 C 
ATOM     26  O   UNL A   1      40.989  19.787  26.524  1.00  0.00    -0.246 OA
BRANCH  25  27
ATOM     27  C   UNL A   1      40.285  22.036  26.892  1.00  0.00     0.060 A 
ATOM     28  C   UNL A   1      39.452  23.023  26.355  1.00  0.00     0.016 A 
ATOM     29  C   UNL A   1      41.365  22.391  27.697  1.00  0.00     0.016 A 
ATOM     30  C   UNL A   1      39.736  24.375  26.567  1.00  0.00     0.010 A 
ATOM     31  C   UNL A   1      41.622  23.741  27.942  1.00  0.00     0.010 A 
ATOM     32  C   UNL A   1      40.836  24.746  27.348  1.00  0.00    -0.014 A 
BRANCH  32  33
ATOM     33  C   UNL A   1      41.264  26.164  27.474  1.00  0.00     0.031 A 
ATOM     34  C   UNL A   1      42.595  26.570  26.904  1.00  0.00     0.074 A 
ATOM     35  C   UNL A   1      40.514  27.068  28.134  1.00  0.00     0.049 A 
ATOM     36  N   UNL A   1      43.309  27.639  27.139  1.00  0.00    -0.248 NA
ATOM     37  C   UNL A   1      43.211  25.633  25.949  1.00  0.00     0.031 C 
ATOM     38  C   UNL A   1      39.180  26.826  28.679  1.00  0.00     0.029 A 
ATOM     39  N   UNL A   1      40.795  28.366  28.493  1.00  0.00    -0.354 N 
ATOM     40  C   UNL A   1      44.490  27.469  26.426  1.00  0.00     0.074 A 
ATOM     41  C   UNL A   1      44.386  26.206  25.726  1.00  0.00     0.031 C 
ATOM     42  C   UNL A   1      38.768  27.927  29.330  1.00  0.00     0.029 A 
ATOM     43  C   UNL A   1      39.839  28.920  29.313  1.00  0.00     0.049 A 
ATOM     44  H   UNL A   1      41.598  28.849  28.193  1.00  0.00     0.167 HD
ATOM     45  C   UNL A   1      45.564  28.290  26.366  1.00  0.00     0.034 A 
ATOM     46  C   UNL A   1      39.852  30.066  30.025  1.00  0.00     0.034 A 
ATOM     47  C   UNL A   1      45.633  29.569  27.018  1.00  0.00     0.049 A 
ATOM     48  C   UNL A   1      41.067  30.953  29.964  1.00  0.00     0.074 A 
ATOM     49  C   UNL A   1      46.668  30.487  27.005  1.00  0.00     0.029 A 
ATOM     50  N   UNL A   1      44.622  30.114  27.794  1.00  0.00    -0.354 N 
ATOM     51  N   UNL A   1      42.172  30.793  29.278  1.00  0.00    -0.248 NA
ATOM     52  C   UNL A   1      41.035  32.184  30.770  1.00  0.00     0.031 C 
ATOM     53  C   UNL A   1      46.284  31.587  27.779  1.00  0.00     0.029 A 
ATOM     54  C   UNL A   1      45.005  31.359  28.260  1.00  0.00     0.049 A 
ATOM     55  H   UNL A   1      43.759  29.680  27.984  1.00  0.00     0.167 HD
ATOM     56  C   UNL A   1      42.954  31.910  29.545  1.00  0.00     0.074 A 
ATOM     57  C   UNL A   1      42.190  32.751  30.444  1.00  0.00     0.031 C 
ATOM     58  C   UNL A   1      44.201  32.207  29.102  1.00  0.00     0.034 A 
BRANCH  45  59
ATOM     59  C   UNL A   1      46.751  27.838  25.558  1.00  0.00     0.023 A 
ATOM     60  C   UNL A   1      46.748  28.000  24.158  1.00  0.00     0.012 A 
ATOM     61  C   UNL A   1      47.892  27.310  26.193  1.00  0.00     0.148 A 
ATOM     62  C   UNL A   1      47.857  27.622  23.402  1.00  0.00     0.002 A 
ATOM     63  C   UNL A   1      49.007  26.972  25.435  1.00  0.00     0.091 A 
ATOM     64  F   UNL A   1      47.862  27.137  27.523  1.00  0.00    -0.205 F 
ATOM     65  C   UNL A   1      48.989  27.119  24.040  1.00  0.00     0.022 A 
BRANCH  63  66
ATOM     66  S   UNL A   1      50.535  26.387  26.179  1.00  0.00     0.127 S 
ATOM     67  O   UNL A   1      50.086  25.170  26.855  1.00  0.00    -0.237 OA
ATOM     68  O   UNL A   1      51.382  26.155  25.008  1.00  0.00    -0.237 OA
ATOM     69  O   UNL A   1      50.989  27.460  27.052  1.00  0.00    -0.744 OA
ENDBRANCH  63  66
ENDBRANCH  45  59
BRANCH  46  70
ATOM     70  C   UNL A   1      38.674  30.429  30.863  1.00  0.00     0.023 A 
ATOM     71  C   UNL A   1      38.689  30.146  32.242  1.00  0.00     0.012 A 
ATOM     72  C   UNL A   1      37.563  31.100  30.314  1.00  0.00     0.148 A 
ATOM     73  C   UNL A   1      37.616  30.513  33.055  1.00  0.00     0.002 A 
ATOM     74  C   UNL A   1      36.526  31.518  31.140  1.00  0.00     0.091 A 
ATOM     75  F   UNL A   1      37.548  31.333  28.994  1.00  0.00    -0.205 F 
ATOM     76  C   UNL A   1      36.543  31.213  32.509  1.00  0.00     0.022 A 
BRANCH  74  77
ATOM     77  S   UNL A   1      35.190  32.558  30.538  1.00  0.00     0.127 S 
ATOM     78  O   UNL A   1      35.904  33.776  30.164  1.00  0.00    -0.237 OA
ATOM     79  O   UNL A   1      34.676  31.776  29.414  1.00  0.00    -0.237 OA
ATOM     80  O   UNL A   1      34.262  32.677  31.655  1.00  0.00    -0.744 OA
ENDBRANCH  74  77
ENDBRANCH  46  70
BRANCH  58  81
ATOM     81  C   UNL A   1      44.807  33.514  29.538  1.00  0.00     0.023 A 
ATOM     82  C   UNL A   1      45.605  33.560  30.697  1.00  0.00     0.012 A 
ATOM     83  C   UNL A   1      44.661  34.670  28.747  1.00  0.00     0.148 A 
ATOM     84  C   UNL A   1      46.235  34.747  31.073  1.00  0.00     0.002 A 
ATOM     85  C   UNL A   1      45.325  35.837  29.106  1.00  0.00     0.091 A 
ATOM     86  F   UNL A   1      43.881  34.606  27.658  1.00  0.00    -0.205 F 
ATOM     87  C   UNL A   1      46.105  35.880  30.272  1.00  0.00     0.022 A 
BRANCH  85  88
ATOM     88  S   UNL A   1      45.284  37.315  28.086  1.00  0.00     0.127 S 
ATOM     89  O   UNL A   1      43.855  37.448  27.811  1.00  0.00    -0.237 OA
ATOM     90  O   UNL A   1      45.830  38.332  28.987  1.00  0.00    -0.237 OA
ATOM     91  O   UNL A   1      46.120  37.026  26.929  1.00  0.00    -0.744 OA
ENDBRANCH  85  88
ENDBRANCH  58  81
ENDBRANCH  32  33
ENDBRANCH  25  27
ENDBRANCH  24  25
ENDBRANCH  23  24
ENDBRANCH  22  23
ENDBRANCH  21  22
ENDBRANCH   1  21
TORSDOF 22
ENDMDL
