MODEL 1
REMARK VINA RESULT:     -11.7      0.000      0.000
REMARK SMILES Cc1cccc(O[C@H](C)C(=O)NNC(=O)[C@H]2[C@@H]3CC[C@@H](C3)[C@@H]2C(=O)OCCOCCOCCOC(=O)c2ccc(-c3c4nc(c(-c5cccc(S(=O)(=O)[O-])c5F)c5ccc([nH]5)c(-c5cccc(S(=O)(=O)[O-])c5F)c5nc(c(-c6cccc(S(=O)(=O)[O-])c6F)c6ccc3[nH]6)C=C5)C=C4)cc2)c1
REMARK SMILES IDX 29 1 28 2 27 3 26 4 25 5 23 6 24 7 22 8 16 9 17 10 18 11
REMARK SMILES IDX 21 12 20 13 19 14 14 15 13 16 15 18 12 19 10 20 11 21 8 23
REMARK SMILES IDX 9 24 7 25 6 26 1 27 2 28 3 29 100 30 4 31 5 32 30 33 31 34
REMARK SMILES IDX 32 35 33 36 34 37 35 38 36 39 37 40 38 41 99 42 39 43 98 44
REMARK SMILES IDX 40 45 41 46 42 47 92 48 43 49 97 50 91 51 93 52 44 53 96 54
REMARK SMILES IDX 90 55 89 56 45 58 77 59 57 60 76 61 58 62 61 63 75 64 94 65
REMARK SMILES IDX 59 66 60 67 74 69 95 70 62 71 46 72 47 73 55 74 48 75 50 76
REMARK SMILES IDX 56 77 49 78 51 79 52 80 53 81 54 82 78 83 79 84 87 85 80 86
REMARK SMILES IDX 82 87 88 88 81 89 83 90 84 91 85 92 86 93 63 94 64 95 72 96
REMARK SMILES IDX 65 97 67 98 73 99 66 100 68 101 69 102 70 103 71 104
REMARK H PARENT 13 17 12 22 93 57 61 68
REMARK Flexibility Score: inf
ROOT
ATOM      1  C   UNL A   1      30.429  31.005  24.794  1.00  0.00     0.188 C 
ENDROOT
BRANCH   1   2
ATOM      2  O   UNL A   1      29.521  30.650  23.727  1.00  0.00    -0.376 OA
BRANCH   2   3
ATOM      3  C   UNL A   1      29.702  29.544  22.806  1.00  0.00     0.202 C 
BRANCH   3   4
ATOM      4  C   UNL A   1      29.387  27.873  23.030  1.00  0.00     0.261 C 
BRANCH   4   5
ATOM      5  O   UNL A   1      30.248  26.336  22.563  1.00  0.00    -0.463 OA
BRANCH   5   6
ATOM      6  C   UNL A   1      30.818  25.101  23.149  1.00  0.00     0.310 C 
ATOM      7  O   UNL A   1      30.306  23.979  23.194  1.00  0.00    -0.252 OA
BRANCH   6   8
ATOM      8  C   UNL A   1      32.128  25.072  23.882  1.00  0.00     0.115 C 
ATOM      9  C   UNL A   1      32.238  26.380  24.762  1.00  0.00     0.098 C 
ATOM     10  C   UNL A   1      33.608  27.004  24.335  1.00  0.00     0.003 C 
ATOM     11  C   UNL A   1      33.477  27.694  22.970  1.00  0.00     0.005 C 
ATOM     12  C   UNL A   1      34.424  25.762  23.996  1.00  0.00     0.009 C 
ATOM     13  C   UNL A   1      33.410  25.265  22.960  1.00  0.00     0.004 C 
ATOM     14  C   UNL A   1      33.421  26.501  22.013  1.00  0.00     0.005 C 
BRANCH   9  15
ATOM     15  C   UNL A   1      32.200  26.395  26.278  1.00  0.00     0.242 C 
ATOM     16  N   UNL A   1      31.417  25.590  27.033  1.00  0.00    -0.267 N 
ATOM     17  H   UNL A   1      31.393  25.792  27.997  1.00  0.00     0.191 HD
ATOM     18  O   UNL A   1      32.923  27.160  26.930  1.00  0.00    -0.273 OA
BRANCH  16  19
ATOM     19  N   UNL A   1      30.663  24.539  26.627  1.00  0.00    -0.264 N 
ATOM     20  C   UNL A   1      31.022  23.230  26.697  1.00  0.00     0.279 C 
ATOM     21  O   UNL A   1      30.140  22.378  26.547  1.00  0.00    -0.269 OA
ATOM     22  H   UNL A   1      29.778  24.743  26.247  1.00  0.00     0.191 HD
BRANCH  20  23
ATOM     23  C   UNL A   1      32.515  22.830  26.726  1.00  0.00     0.260 C 
ATOM     24  C   UNL A   1      32.923  22.368  28.129  1.00  0.00     0.064 C 
BRANCH  23  25
ATOM     25  O   UNL A   1      33.210  22.284  25.627  1.00  0.00    -0.481 OA
BRANCH  25  26
ATOM     26  C   UNL A   1      32.969  21.125  24.969  1.00  0.00     0.120 A 
ATOM     27  C   UNL A   1      31.809  20.445  21.385  1.00  0.00     0.044 C 
ATOM     28  C   UNL A   1      32.229  20.235  22.808  1.00  0.00    -0.047 A 
ATOM     29  C   UNL A   1      32.386  18.937  23.292  1.00  0.00     0.003 A 
ATOM     30  C   UNL A   1      32.500  21.315  23.662  1.00  0.00     0.049 A 
ATOM     31  C   UNL A   1      32.878  18.734  24.575  1.00  0.00     0.004 A 
ATOM     32  C   UNL A   1      33.210  19.825  25.388  1.00  0.00     0.046 A 
ENDBRANCH  25  26
ENDBRANCH  23  25
ENDBRANCH  20  23
ENDBRANCH  16  19
ENDBRANCH   9  15
ENDBRANCH   6   8
ENDBRANCH   5   6
ENDBRANCH   4   5
ENDBRANCH   3   4
ENDBRANCH   2   3
ENDBRANCH   1   2
BRANCH   1  33
ATOM     33  C   UNL A   1      31.437  30.041  25.415  1.00  0.00     0.188 C 
BRANCH  33  34
ATOM     34  O   UNL A   1      31.953  30.580  26.604  1.00  0.00    -0.376 OA
BRANCH  34  35
ATOM     35  C   UNL A   1      33.309  30.316  26.876  1.00  0.00     0.202 C 
BRANCH  35  36
ATOM     36  C   UNL A   1      33.902  31.213  27.972  1.00  0.00     0.261 C 
BRANCH  36  37
ATOM     37  O   UNL A   1      35.316  31.410  27.780  1.00  0.00    -0.460 OA
BRANCH  37  38
ATOM     38  C   UNL A   1      35.784  32.684  28.011  1.00  0.00     0.338 C 
ATOM     39  O   UNL A   1      35.204  33.701  27.651  1.00  0.00    -0.246 OA
BRANCH  38  40
ATOM     40  C   UNL A   1      37.215  32.622  28.432  1.00  0.00     0.060 A 
ATOM     41  C   UNL A   1      37.787  31.553  29.139  1.00  0.00     0.016 A 
ATOM     42  C   UNL A   1      37.869  33.803  28.491  1.00  0.00     0.016 A 
ATOM     43  C   UNL A   1      38.807  31.750  30.147  1.00  0.00     0.010 A 
ATOM     44  C   UNL A   1      38.738  33.969  29.559  1.00  0.00     0.010 A 
ATOM     45  C   UNL A   1      39.222  33.022  30.557  1.00  0.00    -0.014 A 
BRANCH  45  46
ATOM     46  C   UNL A   1      40.176  33.314  32.046  1.00  0.00     0.031 A 
ATOM     47  C   UNL A   1      39.811  34.198  33.568  1.00  0.00     0.074 A 
ATOM     48  C   UNL A   1      41.503  33.051  31.995  1.00  0.00     0.049 A 
ATOM     49  N   UNL A   1      40.669  34.947  34.239  1.00  0.00    -0.248 NA
ATOM     50  C   UNL A   1      38.472  34.395  34.315  1.00  0.00     0.031 C 
ATOM     51  C   UNL A   1      42.455  33.063  33.100  1.00  0.00     0.029 A 
ATOM     52  N   UNL A   1      42.306  32.837  30.870  1.00  0.00    -0.354 N 
ATOM     53  C   UNL A   1      40.008  35.428  35.395  1.00  0.00     0.074 A 
ATOM     54  C   UNL A   1      38.643  35.407  35.127  1.00  0.00     0.031 C 
ATOM     55  C   UNL A   1      43.689  33.192  32.590  1.00  0.00     0.029 A 
ATOM     56  C   UNL A   1      43.539  33.431  31.167  1.00  0.00     0.049 A 
ATOM     57  H   UNL A   1      42.056  32.366  30.043  1.00  0.00     0.167 HD
ATOM     58  C   UNL A   1      40.571  35.483  36.633  1.00  0.00     0.034 A 
ATOM     59  C   UNL A   1      43.990  34.494  30.442  1.00  0.00     0.034 A 
ATOM     60  C   UNL A   1      42.005  35.469  36.462  1.00  0.00     0.049 A 
ATOM     61  C   UNL A   1      44.333  35.693  31.311  1.00  0.00     0.074 A 
ATOM     62  C   UNL A   1      43.031  34.555  36.587  1.00  0.00     0.029 A 
ATOM     63  N   UNL A   1      42.499  36.497  35.693  1.00  0.00    -0.354 N 
ATOM     64  N   UNL A   1      44.408  35.677  32.619  1.00  0.00    -0.248 NA
ATOM     65  C   UNL A   1      44.553  37.032  30.772  1.00  0.00     0.031 C 
ATOM     66  C   UNL A   1      44.142  35.052  35.822  1.00  0.00     0.029 A 
ATOM     67  C   UNL A   1      43.792  36.277  35.284  1.00  0.00     0.049 A 
ATOM     68  H   UNL A   1      41.982  37.303  35.460  1.00  0.00     0.167 HD
ATOM     69  C   UNL A   1      44.484  36.965  33.093  1.00  0.00     0.074 A 
ATOM     70  C   UNL A   1      44.622  37.772  31.890  1.00  0.00     0.031 C 
ATOM     71  C   UNL A   1      44.340  37.306  34.414  1.00  0.00     0.034 A 
BRANCH  58  72
ATOM     72  C   UNL A   1      39.792  35.261  37.962  1.00  0.00     0.023 A 
ATOM     73  C   UNL A   1      39.894  36.291  38.918  1.00  0.00     0.012 A 
ATOM     74  C   UNL A   1      39.070  34.111  38.420  1.00  0.00     0.148 A 
ATOM     75  C   UNL A   1      39.431  36.156  40.241  1.00  0.00     0.002 A 
ATOM     76  C   UNL A   1      38.692  33.936  39.761  1.00  0.00     0.091 A 
ATOM     77  F   UNL A   1      38.600  33.202  37.564  1.00  0.00    -0.205 F 
ATOM     78  C   UNL A   1      38.875  34.963  40.679  1.00  0.00     0.022 A 
BRANCH  76  79
ATOM     79  S   UNL A   1      38.064  32.356  40.392  1.00  0.00     0.127 S 
ATOM     80  O   UNL A   1      36.957  32.777  41.255  1.00  0.00    -0.237 OA
ATOM     81  O   UNL A   1      37.652  31.663  39.175  1.00  0.00    -0.237 OA
ATOM     82  O   UNL A   1      39.177  31.756  41.122  1.00  0.00    -0.744 OA
ENDBRANCH  76  79
ENDBRANCH  58  72
BRANCH  59  83
ATOM     83  C   UNL A   1      43.548  34.466  28.996  1.00  0.00     0.023 A 
ATOM     84  C   UNL A   1      42.514  35.379  28.636  1.00  0.00     0.012 A 
ATOM     85  C   UNL A   1      44.235  33.822  27.950  1.00  0.00     0.148 A 
ATOM     86  C   UNL A   1      42.260  35.730  27.306  1.00  0.00     0.002 A 
ATOM     87  C   UNL A   1      43.938  34.139  26.616  1.00  0.00     0.091 A 
ATOM     88  F   UNL A   1      45.239  32.990  28.250  1.00  0.00    -0.205 F 
ATOM     89  C   UNL A   1      42.979  35.115  26.296  1.00  0.00     0.022 A 
BRANCH  87  90
ATOM     90  S   UNL A   1      44.782  33.380  25.216  1.00  0.00     0.127 S 
ATOM     91  O   UNL A   1      43.744  33.430  24.183  1.00  0.00    -0.237 OA
ATOM     92  O   UNL A   1      45.895  34.298  24.995  1.00  0.00    -0.237 OA
ATOM     93  O   UNL A   1      45.122  32.036  25.658  1.00  0.00    -0.744 OA
ENDBRANCH  87  90
ENDBRANCH  59  83
BRANCH  71  94
ATOM     94  C   UNL A   1      44.508  38.726  34.955  1.00  0.00     0.023 A 
ATOM     95  C   UNL A   1      45.253  38.960  36.123  1.00  0.00     0.012 A 
ATOM     96  C   UNL A   1      43.861  39.865  34.394  1.00  0.00     0.148 A 
ATOM     97  C   UNL A   1      45.477  40.252  36.614  1.00  0.00     0.002 A 
ATOM     98  C   UNL A   1      44.085  41.150  34.878  1.00  0.00     0.091 A 
ATOM     99  F   UNL A   1      42.955  39.727  33.422  1.00  0.00    -0.205 F 
ATOM    100  C   UNL A   1      44.917  41.350  35.975  1.00  0.00     0.022 A 
BRANCH  98 101
ATOM    101  S   UNL A   1      43.311  42.587  34.119  1.00  0.00     0.127 S 
ATOM    102  O   UNL A   1      41.895  42.332  34.376  1.00  0.00    -0.237 OA
ATOM    103  O   UNL A   1      43.883  43.690  34.893  1.00  0.00    -0.237 OA
ATOM    104  O   UNL A   1      43.719  42.566  32.721  1.00  0.00    -0.744 OA
ENDBRANCH  98 101
ENDBRANCH  71  94
ENDBRANCH  45  46
ENDBRANCH  38  40
ENDBRANCH  37  38
ENDBRANCH  36  37
ENDBRANCH  35  36
ENDBRANCH  34  35
ENDBRANCH  33  34
ENDBRANCH   1  33
TORSDOF 25
ENDMDL
MODEL 2
REMARK VINA RESULT:     -11.4      6.384     10.866
REMARK SMILES Cc1cccc(O[C@H](C)C(=O)NNC(=O)[C@H]2[C@@H]3CC[C@@H](C3)[C@@H]2C(=O)OCCOCCOCCOC(=O)c2ccc(-c3c4nc(c(-c5cccc(S(=O)(=O)[O-])c5F)c5ccc([nH]5)c(-c5cccc(S(=O)(=O)[O-])c5F)c5nc(c(-c6cccc(S(=O)(=O)[O-])c6F)c6ccc3[nH]6)C=C5)C=C4)cc2)c1
REMARK SMILES IDX 29 1 28 2 27 3 26 4 25 5 23 6 24 7 22 8 16 9 17 10 18 11
REMARK SMILES IDX 21 12 20 13 19 14 14 15 13 16 15 18 12 19 10 20 11 21 8 23
REMARK SMILES IDX 9 24 7 25 6 26 1 27 2 28 3 29 100 30 4 31 5 32 30 33 31 34
REMARK SMILES IDX 32 35 33 36 34 37 35 38 36 39 37 40 38 41 99 42 39 43 98 44
REMARK SMILES IDX 40 45 41 46 42 47 92 48 43 49 97 50 91 51 93 52 44 53 96 54
REMARK SMILES IDX 90 55 89 56 45 58 77 59 57 60 76 61 58 62 61 63 75 64 94 65
REMARK SMILES IDX 59 66 60 67 74 69 95 70 62 71 46 72 47 73 55 74 48 75 50 76
REMARK SMILES IDX 56 77 49 78 51 79 52 80 53 81 54 82 78 83 79 84 87 85 80 86
REMARK SMILES IDX 82 87 88 88 81 89 83 90 84 91 85 92 86 93 63 94 64 95 72 96
REMARK SMILES IDX 65 97 67 98 73 99 66 100 68 101 69 102 70 103 71 104
REMARK H PARENT 13 17 12 22 93 57 61 68
REMARK Flexibility Score: inf
ROOT
ATOM      1  C   UNL A   1      35.731  31.146  30.078  1.00  0.00     0.188 C 
ENDROOT
BRANCH   1   2
ATOM      2  O   UNL A   1      35.890  30.295  28.920  1.00  0.00    -0.376 OA
BRANCH   2   3
ATOM      3  C   UNL A   1      35.281  30.521  27.624  1.00  0.00     0.202 C 
BRANCH   3   4
ATOM      4  C   UNL A   1      33.631  30.434  27.163  1.00  0.00     0.261 C 
BRANCH   4   5
ATOM      5  O   UNL A   1      32.703  29.502  25.900  1.00  0.00    -0.463 OA
BRANCH   5   6
ATOM      6  C   UNL A   1      31.502  29.593  25.040  1.00  0.00     0.310 C 
ATOM      7  O   UNL A   1      30.643  30.477  25.031  1.00  0.00    -0.252 OA
BRANCH   6   8
ATOM      8  C   UNL A   1      31.104  28.514  24.073  1.00  0.00     0.115 C 
ATOM      9  C   UNL A   1      31.739  27.150  24.557  1.00  0.00     0.098 C 
ATOM     10  C   UNL A   1      32.515  26.632  23.301  1.00  0.00     0.003 C 
ATOM     11  C   UNL A   1      33.827  27.410  23.128  1.00  0.00     0.005 C 
ATOM     12  C   UNL A   1      31.661  27.174  22.161  1.00  0.00     0.009 C 
ATOM     13  C   UNL A   1      31.781  28.626  22.638  1.00  0.00     0.004 C 
ATOM     14  C   UNL A   1      33.332  28.757  22.595  1.00  0.00     0.005 C 
BRANCH   9  15
ATOM     15  C   UNL A   1      30.938  25.979  25.094  1.00  0.00     0.242 C 
ATOM     16  N   UNL A   1      31.467  24.937  25.776  1.00  0.00    -0.267 N 
ATOM     17  H   UNL A   1      30.858  24.183  25.953  1.00  0.00     0.191 HD
ATOM     18  O   UNL A   1      29.709  25.921  24.946  1.00  0.00    -0.273 OA
BRANCH  16  19
ATOM     19  N   UNL A   1      32.731  24.804  26.247  1.00  0.00    -0.264 N 
ATOM     20  C   UNL A   1      33.768  24.226  25.587  1.00  0.00     0.279 C 
ATOM     21  O   UNL A   1      34.911  24.416  26.018  1.00  0.00    -0.269 OA
ATOM     22  H   UNL A   1      32.913  25.158  27.148  1.00  0.00     0.191 HD
BRANCH  20  23
ATOM     23  C   UNL A   1      33.502  23.177  24.482  1.00  0.00     0.260 C 
ATOM     24  C   UNL A   1      34.813  22.758  23.809  1.00  0.00     0.064 C 
BRANCH  23  25
ATOM     25  O   UNL A   1      32.452  22.235  24.520  1.00  0.00    -0.481 OA
BRANCH  25  26
ATOM     26  C   UNL A   1      32.535  20.884  24.578  1.00  0.00     0.120 A 
ATOM     27  C   UNL A   1      32.181  18.210  21.863  1.00  0.00     0.044 C 
ATOM     28  C   UNL A   1      32.362  18.866  23.198  1.00  0.00    -0.047 A 
ATOM     29  C   UNL A   1      32.645  18.082  24.315  1.00  0.00     0.003 A 
ATOM     30  C   UNL A   1      32.288  20.259  23.348  1.00  0.00     0.049 A 
ATOM     31  C   UNL A   1      32.921  18.690  25.533  1.00  0.00     0.004 A 
ATOM     32  C   UNL A   1      32.910  20.085  25.648  1.00  0.00     0.046 A 
ENDBRANCH  25  26
ENDBRANCH  23  25
ENDBRANCH  20  23
ENDBRANCH  16  19
ENDBRANCH   9  15
ENDBRANCH   6   8
ENDBRANCH   5   6
ENDBRANCH   4   5
ENDBRANCH   3   4
ENDBRANCH   2   3
ENDBRANCH   1   2
BRANCH   1  33
ATOM     33  C   UNL A   1      35.053  32.514  30.047  1.00  0.00     0.188 C 
BRANCH  33  34
ATOM     34  O   UNL A   1      34.260  32.688  31.192  1.00  0.00    -0.376 OA
BRANCH  34  35
ATOM     35  C   UNL A   1      34.895  33.249  32.317  1.00  0.00     0.202 C 
BRANCH  35  36
ATOM     36  C   UNL A   1      35.863  34.388  31.971  1.00  0.00     0.261 C 
BRANCH  36  37
ATOM     37  O   UNL A   1      37.188  34.120  32.469  1.00  0.00    -0.460 OA
BRANCH  37  38
ATOM     38  C   UNL A   1      38.204  34.173  31.542  1.00  0.00     0.338 C 
ATOM     39  O   UNL A   1      38.520  35.187  30.932  1.00  0.00    -0.246 OA
BRANCH  38  40
ATOM     40  C   UNL A   1      38.604  32.787  31.158  1.00  0.00     0.060 A 
ATOM     41  C   UNL A   1      38.858  31.754  32.072  1.00  0.00     0.016 A 
ATOM     42  C   UNL A   1      39.128  32.641  29.920  1.00  0.00     0.016 A 
ATOM     43  C   UNL A   1      39.889  30.761  31.851  1.00  0.00     0.010 A 
ATOM     44  C   UNL A   1      40.198  31.766  29.809  1.00  0.00     0.010 A 
ATOM     45  C   UNL A   1      40.767  30.819  30.762  1.00  0.00    -0.014 A 
BRANCH  45  46
ATOM     46  C   UNL A   1      42.275  29.858  30.662  1.00  0.00     0.031 A 
ATOM     47  C   UNL A   1      42.657  28.275  29.899  1.00  0.00     0.074 A 
ATOM     48  C   UNL A   1      43.292  30.210  31.481  1.00  0.00     0.049 A 
ATOM     49  N   UNL A   1      43.454  27.353  30.414  1.00  0.00    -0.248 NA
ATOM     50  C   UNL A   1      42.076  27.607  28.633  1.00  0.00     0.031 C 
ATOM     51  C   UNL A   1      44.654  29.688  31.485  1.00  0.00     0.029 A 
ATOM     52  N   UNL A   1      43.259  31.051  32.598  1.00  0.00    -0.354 N 
ATOM     53  C   UNL A   1      43.525  26.283  29.491  1.00  0.00     0.074 A 
ATOM     54  C   UNL A   1      42.375  26.336  28.710  1.00  0.00     0.031 C 
ATOM     55  C   UNL A   1      45.201  29.947  32.682  1.00  0.00     0.029 A 
ATOM     56  C   UNL A   1      44.150  30.490  33.522  1.00  0.00     0.049 A 
ATOM     57  H   UNL A   1      42.722  31.868  32.711  1.00  0.00     0.167 HD
ATOM     58  C   UNL A   1      44.672  25.623  29.169  1.00  0.00     0.034 A 
ATOM     59  C   UNL A   1      43.701  30.012  34.717  1.00  0.00     0.034 A 
ATOM     60  C   UNL A   1      45.615  25.838  30.241  1.00  0.00     0.049 A 
ATOM     61  C   UNL A   1      44.101  28.566  34.960  1.00  0.00     0.074 A 
ATOM     62  C   UNL A   1      46.726  26.624  30.470  1.00  0.00     0.029 A 
ATOM     63  N   UNL A   1      45.181  25.417  31.477  1.00  0.00    -0.354 N 
ATOM     64  N   UNL A   1      44.957  27.891  34.233  1.00  0.00    -0.248 NA
ATOM     65  C   UNL A   1      43.511  27.740  36.009  1.00  0.00     0.031 C 
ATOM     66  C   UNL A   1      46.912  26.697  31.893  1.00  0.00     0.029 A 
ATOM     67  C   UNL A   1      45.943  25.921  32.504  1.00  0.00     0.049 A 
ATOM     68  H   UNL A   1      44.409  24.821  31.612  1.00  0.00     0.167 HD
ATOM     69  C   UNL A   1      44.895  26.559  34.565  1.00  0.00     0.074 A 
ATOM     70  C   UNL A   1      44.008  26.528  35.718  1.00  0.00     0.031 C 
ATOM     71  C   UNL A   1      45.488  25.558  33.836  1.00  0.00     0.034 A 
BRANCH  58  72
ATOM     72  C   UNL A   1      44.984  25.043  27.759  1.00  0.00     0.023 A 
ATOM     73  C   UNL A   1      45.737  25.870  26.903  1.00  0.00     0.012 A 
ATOM     74  C   UNL A   1      44.523  23.834  27.143  1.00  0.00     0.148 A 
ATOM     75  C   UNL A   1      45.922  25.591  25.535  1.00  0.00     0.002 A 
ATOM     76  C   UNL A   1      44.625  23.599  25.762  1.00  0.00     0.091 A 
ATOM     77  F   UNL A   1      44.092  22.805  27.875  1.00  0.00    -0.205 F 
ATOM     78  C   UNL A   1      45.326  24.483  24.952  1.00  0.00     0.022 A 
BRANCH  76  79
ATOM     79  S   UNL A   1      43.769  22.222  24.949  1.00  0.00     0.127 S 
ATOM     80  O   UNL A   1      44.307  21.054  25.653  1.00  0.00    -0.237 OA
ATOM     81  O   UNL A   1      42.365  22.503  25.232  1.00  0.00    -0.237 OA
ATOM     82  O   UNL A   1      44.162  22.289  23.546  1.00  0.00    -0.744 OA
ENDBRANCH  76  79
ENDBRANCH  58  72
BRANCH  59  83
ATOM     83  C   UNL A   1      42.508  30.769  35.257  1.00  0.00     0.023 A 
ATOM     84  C   UNL A   1      42.685  32.170  35.451  1.00  0.00     0.012 A 
ATOM     85  C   UNL A   1      41.194  30.267  35.329  1.00  0.00     0.148 A 
ATOM     86  C   UNL A   1      41.603  33.046  35.585  1.00  0.00     0.002 A 
ATOM     87  C   UNL A   1      40.117  31.146  35.517  1.00  0.00     0.091 A 
ATOM     88  F   UNL A   1      40.985  28.963  35.112  1.00  0.00    -0.205 F 
ATOM     89  C   UNL A   1      40.318  32.534  35.609  1.00  0.00     0.022 A 
BRANCH  87  90
ATOM     90  S   UNL A   1      38.404  30.594  35.601  1.00  0.00     0.127 S 
ATOM     91  O   UNL A   1      37.678  31.846  35.367  1.00  0.00    -0.237 OA
ATOM     92  O   UNL A   1      38.333  29.644  34.496  1.00  0.00    -0.237 OA
ATOM     93  O   UNL A   1      38.242  30.051  36.941  1.00  0.00    -0.744 OA
ENDBRANCH  87  90
ENDBRANCH  59  83
BRANCH  71  94
ATOM     94  C   UNL A   1      45.491  24.086  34.248  1.00  0.00     0.023 A 
ATOM     95  C   UNL A   1      44.282  23.391  34.418  1.00  0.00     0.012 A 
ATOM     96  C   UNL A   1      46.673  23.361  34.577  1.00  0.00     0.148 A 
ATOM     97  C   UNL A   1      44.248  22.028  34.736  1.00  0.00     0.002 A 
ATOM     98  C   UNL A   1      46.641  22.007  34.891  1.00  0.00     0.091 A 
ATOM     99  F   UNL A   1      47.853  23.983  34.667  1.00  0.00    -0.205 F 
ATOM    100  C   UNL A   1      45.428  21.328  34.944  1.00  0.00     0.022 A 
BRANCH  98 101
ATOM    101  S   UNL A   1      48.150  21.089  35.241  1.00  0.00     0.127 S 
ATOM    102  O   UNL A   1      49.071  22.163  35.611  1.00  0.00    -0.237 OA
ATOM    103  O   UNL A   1      47.737  20.230  36.353  1.00  0.00    -0.237 OA
ATOM    104  O   UNL A   1      48.471  20.368  34.018  1.00  0.00    -0.744 OA
ENDBRANCH  98 101
ENDBRANCH  71  94
ENDBRANCH  45  46
ENDBRANCH  38  40
ENDBRANCH  37  38
ENDBRANCH  36  37
ENDBRANCH  35  36
ENDBRANCH  34  35
ENDBRANCH  33  34
ENDBRANCH   1  33
TORSDOF 25
ENDMDL
MODEL 3
REMARK VINA RESULT:     -10.9      1.850      2.258
REMARK SMILES Cc1cccc(O[C@H](C)C(=O)NNC(=O)[C@H]2[C@@H]3CC[C@@H](C3)[C@@H]2C(=O)OCCOCCOCCOC(=O)c2ccc(-c3c4nc(c(-c5cccc(S(=O)(=O)[O-])c5F)c5ccc([nH]5)c(-c5cccc(S(=O)(=O)[O-])c5F)c5nc(c(-c6cccc(S(=O)(=O)[O-])c6F)c6ccc3[nH]6)C=C5)C=C4)cc2)c1
REMARK SMILES IDX 29 1 28 2 27 3 26 4 25 5 23 6 24 7 22 8 16 9 17 10 18 11
REMARK SMILES IDX 21 12 20 13 19 14 14 15 13 16 15 18 12 19 10 20 11 21 8 23
REMARK SMILES IDX 9 24 7 25 6 26 1 27 2 28 3 29 100 30 4 31 5 32 30 33 31 34
REMARK SMILES IDX 32 35 33 36 34 37 35 38 36 39 37 40 38 41 99 42 39 43 98 44
REMARK SMILES IDX 40 45 41 46 42 47 92 48 43 49 97 50 91 51 93 52 44 53 96 54
REMARK SMILES IDX 90 55 89 56 45 58 77 59 57 60 76 61 58 62 61 63 75 64 94 65
REMARK SMILES IDX 59 66 60 67 74 69 95 70 62 71 46 72 47 73 55 74 48 75 50 76
REMARK SMILES IDX 56 77 49 78 51 79 52 80 53 81 54 82 78 83 79 84 87 85 80 86
REMARK SMILES IDX 82 87 88 88 81 89 83 90 84 91 85 92 86 93 63 94 64 95 72 96
REMARK SMILES IDX 65 97 67 98 73 99 66 100 68 101 69 102 70 103 71 104
REMARK H PARENT 13 17 12 22 93 57 61 68
REMARK Flexibility Score: inf
ROOT
ATOM      1  C   UNL A   1      30.464  31.141  24.929  1.00  0.00     0.188 C 
ENDROOT
BRANCH   1   2
ATOM      2  O   UNL A   1      29.564  30.784  23.856  1.00  0.00    -0.376 OA
BRANCH   2   3
ATOM      3  C   UNL A   1      29.783  29.717  22.899  1.00  0.00     0.202 C 
BRANCH   3   4
ATOM      4  C   UNL A   1      29.388  28.052  23.010  1.00  0.00     0.261 C 
BRANCH   4   5
ATOM      5  O   UNL A   1      30.221  26.505  22.523  1.00  0.00    -0.463 OA
BRANCH   5   6
ATOM      6  C   UNL A   1      30.785  25.261  23.094  1.00  0.00     0.310 C 
ATOM      7  O   UNL A   1      30.272  24.139  23.120  1.00  0.00    -0.252 OA
BRANCH   6   8
ATOM      8  C   UNL A   1      32.091  25.219  23.836  1.00  0.00     0.115 C 
ATOM      9  C   UNL A   1      32.173  26.487  24.775  1.00  0.00     0.098 C 
ATOM     10  C   UNL A   1      33.536  27.152  24.389  1.00  0.00     0.003 C 
ATOM     11  C   UNL A   1      33.402  27.902  23.056  1.00  0.00     0.005 C 
ATOM     12  C   UNL A   1      34.374  25.940  24.000  1.00  0.00     0.009 C 
ATOM     13  C   UNL A   1      33.376  25.475  22.934  1.00  0.00     0.004 C 
ATOM     14  C   UNL A   1      33.373  26.753  22.045  1.00  0.00     0.005 C 
BRANCH   9  15
ATOM     15  C   UNL A   1      32.124  26.431  26.291  1.00  0.00     0.242 C 
ATOM     16  N   UNL A   1      31.374  25.558  27.002  1.00  0.00    -0.267 N 
ATOM     17  H   UNL A   1      31.333  25.715  27.973  1.00  0.00     0.191 HD
ATOM     18  O   UNL A   1      32.807  27.199  26.983  1.00  0.00    -0.273 OA
BRANCH  16  19
ATOM     19  N   UNL A   1      30.672  24.494  26.542  1.00  0.00    -0.264 N 
ATOM     20  C   UNL A   1      31.090  23.201  26.557  1.00  0.00     0.279 C 
ATOM     21  O   UNL A   1      30.250  22.316  26.360  1.00  0.00    -0.269 OA
ATOM     22  H   UNL A   1      29.781  24.673  26.164  1.00  0.00     0.191 HD
BRANCH  20  23
ATOM     23  C   UNL A   1      32.600  22.869  26.580  1.00  0.00     0.260 C 
ATOM     24  C   UNL A   1      33.031  22.415  27.979  1.00  0.00     0.064 C 
BRANCH  23  25
ATOM     25  O   UNL A   1      33.318  22.364  25.476  1.00  0.00    -0.481 OA
BRANCH  25  26
ATOM     26  C   UNL A   1      32.931  21.426  24.577  1.00  0.00     0.120 A 
ATOM     27  C   UNL A   1      32.491  17.639  24.906  1.00  0.00     0.044 C 
ATOM     28  C   UNL A   1      32.549  19.019  24.325  1.00  0.00    -0.047 A 
ATOM     29  C   UNL A   1      32.164  19.222  23.000  1.00  0.00     0.003 A 
ATOM     30  C   UNL A   1      32.951  20.123  25.091  1.00  0.00     0.049 A 
ATOM     31  C   UNL A   1      32.112  20.511  22.487  1.00  0.00     0.004 A 
ATOM     32  C   UNL A   1      32.450  21.608  23.289  1.00  0.00     0.046 A 
ENDBRANCH  25  26
ENDBRANCH  23  25
ENDBRANCH  20  23
ENDBRANCH  16  19
ENDBRANCH   9  15
ENDBRANCH   6   8
ENDBRANCH   5   6
ENDBRANCH   4   5
ENDBRANCH   3   4
ENDBRANCH   2   3
ENDBRANCH   1   2
BRANCH   1  33
ATOM     33  C   UNL A   1      31.394  30.153  25.629  1.00  0.00     0.188 C 
BRANCH  33  34
ATOM     34  O   UNL A   1      32.051  30.780  26.699  1.00  0.00    -0.376 OA
BRANCH  34  35
ATOM     35  C   UNL A   1      33.427  30.518  26.832  1.00  0.00     0.202 C 
BRANCH  35  36
ATOM     36  C   UNL A   1      34.082  31.253  28.010  1.00  0.00     0.261 C 
BRANCH  36  37
ATOM     37  O   UNL A   1      35.488  31.465  27.779  1.00  0.00    -0.460 OA
BRANCH  37  38
ATOM     38  C   UNL A   1      35.968  32.718  28.084  1.00  0.00     0.338 C 
ATOM     39  O   UNL A   1      35.456  33.760  27.693  1.00  0.00    -0.246 OA
BRANCH  38  40
ATOM     40  C   UNL A   1      37.348  32.603  28.642  1.00  0.00     0.060 A 
ATOM     41  C   UNL A   1      37.864  31.448  29.249  1.00  0.00     0.016 A 
ATOM     42  C   UNL A   1      37.969  33.768  28.936  1.00  0.00     0.016 A 
ATOM     43  C   UNL A   1      38.769  31.504  30.377  1.00  0.00     0.010 A 
ATOM     44  C   UNL A   1      38.718  33.784  30.102  1.00  0.00     0.010 A 
ATOM     45  C   UNL A   1      39.114  32.708  31.004  1.00  0.00    -0.014 A 
BRANCH  45  46
ATOM     46  C   UNL A   1      39.901  32.790  32.612  1.00  0.00     0.031 A 
ATOM     47  C   UNL A   1      39.410  33.548  34.166  1.00  0.00     0.074 A 
ATOM     48  C   UNL A   1      41.207  32.442  32.683  1.00  0.00     0.049 A 
ATOM     49  N   UNL A   1      40.225  34.170  35.002  1.00  0.00    -0.248 NA
ATOM     50  C   UNL A   1      38.007  33.766  34.775  1.00  0.00     0.031 C 
ATOM     51  C   UNL A   1      42.021  32.283  33.882  1.00  0.00     0.029 A 
ATOM     52  N   UNL A   1      42.123  32.281  31.638  1.00  0.00    -0.354 N 
ATOM     53  C   UNL A   1      39.461  34.583  36.119  1.00  0.00     0.074 A 
ATOM     54  C   UNL A   1      38.139  34.681  35.700  1.00  0.00     0.031 C 
ATOM     55  C   UNL A   1      43.312  32.375  33.528  1.00  0.00     0.029 A 
ATOM     56  C   UNL A   1      43.345  32.757  32.129  1.00  0.00     0.049 A 
ATOM     57  H   UNL A   1      41.945  31.910  30.744  1.00  0.00     0.167 HD
ATOM     58  C   UNL A   1      39.877  34.480  37.412  1.00  0.00     0.034 A 
ATOM     59  C   UNL A   1      43.938  33.851  31.573  1.00  0.00     0.034 A 
ATOM     60  C   UNL A   1      41.318  34.383  37.401  1.00  0.00     0.049 A 
ATOM     61  C   UNL A   1      44.245  34.936  32.592  1.00  0.00     0.074 A 
ATOM     62  C   UNL A   1      42.268  33.393  37.545  1.00  0.00     0.029 A 
ATOM     63  N   UNL A   1      41.957  35.444  36.802  1.00  0.00    -0.354 N 
ATOM     64  N   UNL A   1      44.164  34.790  33.892  1.00  0.00    -0.248 NA
ATOM     65  C   UNL A   1      44.605  36.301  32.221  1.00  0.00     0.031 C 
ATOM     66  C   UNL A   1      43.487  33.883  36.964  1.00  0.00     0.029 A 
ATOM     67  C   UNL A   1      43.275  35.175  36.519  1.00  0.00     0.049 A 
ATOM     68  H   UNL A   1      41.518  36.302  36.596  1.00  0.00     0.167 HD
ATOM     69  C   UNL A   1      44.259  36.019  34.501  1.00  0.00     0.074 A 
ATOM     70  C   UNL A   1      44.583  36.925  33.410  1.00  0.00     0.031 C 
ATOM     71  C   UNL A   1      43.980  36.242  35.826  1.00  0.00     0.034 A 
BRANCH  58  72
ATOM     72  C   UNL A   1      38.935  34.187  38.616  1.00  0.00     0.023 A 
ATOM     73  C   UNL A   1      39.005  35.094  39.691  1.00  0.00     0.012 A 
ATOM     74  C   UNL A   1      38.079  33.064  38.857  1.00  0.00     0.148 A 
ATOM     75  C   UNL A   1      38.385  34.860  40.933  1.00  0.00     0.002 A 
ATOM     76  C   UNL A   1      37.536  32.780  40.121  1.00  0.00     0.091 A 
ATOM     77  F   UNL A   1      37.641  32.299  37.855  1.00  0.00    -0.205 F 
ATOM     78  C   UNL A   1      37.691  33.681  41.167  1.00  0.00     0.022 A 
BRANCH  76  79
ATOM     79  S   UNL A   1      36.719  31.204  40.493  1.00  0.00     0.127 S 
ATOM     80  O   UNL A   1      37.853  30.322  40.785  1.00  0.00    -0.237 OA
ATOM     81  O   UNL A   1      35.895  31.532  41.652  1.00  0.00    -0.237 OA
ATOM     82  O   UNL A   1      35.996  30.841  39.278  1.00  0.00    -0.744 OA
ENDBRANCH  76  79
ENDBRANCH  58  72
BRANCH  59  83
ATOM     83  C   UNL A   1      43.669  33.992  30.091  1.00  0.00     0.023 A 
ATOM     84  C   UNL A   1      42.600  34.861  29.724  1.00  0.00     0.012 A 
ATOM     85  C   UNL A   1      44.530  33.558  29.065  1.00  0.00     0.148 A 
ATOM     86  C   UNL A   1      42.467  35.373  28.430  1.00  0.00     0.002 A 
ATOM     87  C   UNL A   1      44.358  34.034  27.757  1.00  0.00     0.091 A 
ATOM     88  F   UNL A   1      45.569  32.774  29.379  1.00  0.00    -0.205 F 
ATOM     89  C   UNL A   1      43.353  34.966  27.448  1.00  0.00     0.022 A 
BRANCH  87  90
ATOM     90  S   UNL A   1      45.425  33.549  26.388  1.00  0.00     0.127 S 
ATOM     91  O   UNL A   1      46.733  34.019  26.852  1.00  0.00    -0.237 OA
ATOM     92  O   UNL A   1      45.276  32.098  26.382  1.00  0.00    -0.237 OA
ATOM     93  O   UNL A   1      44.909  34.264  25.230  1.00  0.00    -0.744 OA
ENDBRANCH  87  90
ENDBRANCH  59  83
BRANCH  71  94
ATOM     94  C   UNL A   1      44.164  37.588  36.525  1.00  0.00     0.023 A 
ATOM     95  C   UNL A   1      44.467  38.741  35.781  1.00  0.00     0.012 A 
ATOM     96  C   UNL A   1      44.144  37.752  37.941  1.00  0.00     0.148 A 
ATOM     97  C   UNL A   1      44.584  40.001  36.380  1.00  0.00     0.002 A 
ATOM     98  C   UNL A   1      44.257  39.003  38.537  1.00  0.00     0.091 A 
ATOM     99  F   UNL A   1      44.088  36.691  38.751  1.00  0.00    -0.205 F 
ATOM    100  C   UNL A   1      44.449  40.137  37.755  1.00  0.00     0.022 A 
BRANCH  98 101
ATOM    101  S   UNL A   1      44.164  39.203  40.324  1.00  0.00     0.127 S 
ATOM    102  O   UNL A   1      45.059  38.143  40.787  1.00  0.00    -0.237 OA
ATOM    103  O   UNL A   1      44.679  40.561  40.509  1.00  0.00    -0.237 OA
ATOM    104  O   UNL A   1      42.759  39.046  40.670  1.00  0.00    -0.744 OA
ENDBRANCH  98 101
ENDBRANCH  71  94
ENDBRANCH  45  46
ENDBRANCH  38  40
ENDBRANCH  37  38
ENDBRANCH  36  37
ENDBRANCH  35  36
ENDBRANCH  34  35
ENDBRANCH  33  34
ENDBRANCH   1  33
TORSDOF 25
ENDMDL
