MODEL 1
REMARK VINA RESULT:     -11.2      0.000      0.000
REMARK SMILES Cc1ccc(NC(=O)NC2CCCC2)cc1/C=C/C(=O)OCCOCCOCCOC(=O)c1ccc(-c2c3nc(c(-c4cccc(S(=O)(=O)[O-])c4F)c4ccc([nH]4)c(-c4cccc(S(=O)(=O)[O-])c4F)c4nc(c(-c5cccc(S(=O)(=O)[O-])c5F)c5ccc2[nH]5)C=C4)C=C3)cc1
REMARK SMILES IDX 25 1 24 2 23 3 22 4 21 5 19 6 20 7 18 8 17 9 16 10 1 11 2 12
REMARK SMILES IDX 3 13 4 14 15 15 5 16 6 17 7 18 8 20 9 21 10 23 11 24 14 25
REMARK SMILES IDX 12 26 13 27 26 28 27 29 28 30 29 31 30 32 31 33 32 34 33 35
REMARK SMILES IDX 34 36 95 37 35 38 94 39 36 40 37 41 38 42 88 43 39 44 93 45
REMARK SMILES IDX 87 46 89 47 40 48 92 49 86 50 85 51 41 53 73 54 53 55 72 56
REMARK SMILES IDX 54 57 57 58 71 59 90 60 55 61 56 62 70 64 91 65 58 66 42 67
REMARK SMILES IDX 43 68 51 69 44 70 46 71 52 72 45 73 47 74 48 75 49 76 50 77
REMARK SMILES IDX 74 78 75 79 83 80 76 81 78 82 84 83 77 84 79 85 80 86 81 87
REMARK SMILES IDX 82 88 59 89 60 90 68 91 61 92 63 93 69 94 62 95 64 96 65 97
REMARK SMILES IDX 66 98 67 99
REMARK H PARENT 6 19 9 22 89 52 57 63
REMARK Flexibility Score: inf
ROOT
ATOM      1  C   UNL A   1      35.595  32.673  27.944  1.00  0.00     0.188 C 
ENDROOT
BRANCH   1   2
ATOM      2  O   UNL A   1      34.917  31.491  27.531  1.00  0.00    -0.376 OA
BRANCH   2   3
ATOM      3  C   UNL A   1      33.489  31.708  27.725  1.00  0.00     0.202 C 
BRANCH   3   4
ATOM      4  C   UNL A   1      32.688  30.449  27.183  1.00  0.00     0.261 C 
BRANCH   4   5
ATOM      5  O   UNL A   1      32.380  29.954  25.784  1.00  0.00    -0.460 OA
BRANCH   5   6
ATOM      6  C   UNL A   1      31.410  29.410  25.021  1.00  0.00     0.330 C 
ATOM      7  O   UNL A   1      30.522  29.889  24.346  1.00  0.00    -0.247 OA
BRANCH   6   8
ATOM      8  C   UNL A   1      31.418  27.987  24.921  1.00  0.00     0.094 C 
ATOM      9  C   UNL A   1      32.661  27.473  24.930  1.00  0.00     0.016 C 
BRANCH   9  10
ATOM     10  C   UNL A   1      32.869  26.299  24.094  1.00  0.00    -0.020 A 
ATOM     11  C   UNL A   1      33.651  27.756  22.137  1.00  0.00     0.045 C 
ATOM     12  C   UNL A   1      33.433  26.422  22.810  1.00  0.00    -0.044 A 
ATOM     13  C   UNL A   1      33.823  25.260  22.143  1.00  0.00     0.006 A 
ATOM     14  C   UNL A   1      33.475  24.006  22.650  1.00  0.00     0.026 A 
ATOM     15  C   UNL A   1      32.546  25.036  24.622  1.00  0.00     0.034 A 
ATOM     16  C   UNL A   1      32.730  23.910  23.828  1.00  0.00     0.043 A 
BRANCH  16  17
ATOM     17  N   UNL A   1      32.039  22.734  24.154  1.00  0.00    -0.308 N 
ATOM     18  C   UNL A   1      32.362  21.790  25.081  1.00  0.00     0.319 C 
ATOM     19  H   UNL A   1      31.210  22.571  23.647  1.00  0.00     0.171 HD
ATOM     20  O   UNL A   1      31.509  21.004  25.502  1.00  0.00    -0.248 OA
ATOM     21  N   UNL A   1      33.650  21.591  25.485  1.00  0.00    -0.335 N 
ATOM     22  H   UNL A   1      33.756  20.969  26.241  1.00  0.00     0.165 HD
BRANCH  21  23
ATOM     23  C   UNL A   1      34.884  22.147  24.977  1.00  0.00     0.083 C 
ATOM     24  C   UNL A   1      35.506  23.277  25.786  1.00  0.00     0.025 C 
ATOM     25  C   UNL A   1      36.055  21.178  24.868  1.00  0.00     0.025 C 
ATOM     26  C   UNL A   1      36.825  23.486  25.035  1.00  0.00     0.002 C 
ATOM     27  C   UNL A   1      37.219  22.100  24.504  1.00  0.00     0.002 C 
ENDBRANCH  21  23
ENDBRANCH  16  17
ENDBRANCH   9  10
ENDBRANCH   6   8
ENDBRANCH   5   6
ENDBRANCH   4   5
ENDBRANCH   3   4
ENDBRANCH   2   3
ENDBRANCH   1   2
BRANCH   1  28
ATOM     28  C   UNL A   1      34.913  33.524  29.003  1.00  0.00     0.188 C 
BRANCH  28  29
ATOM     29  O   UNL A   1      35.727  34.170  29.979  1.00  0.00    -0.376 OA
BRANCH  29  30
ATOM     30  C   UNL A   1      35.710  33.619  31.292  1.00  0.00     0.202 C 
BRANCH  30  31
ATOM     31  C   UNL A   1      35.652  32.073  31.435  1.00  0.00     0.261 C 
BRANCH  31  32
ATOM     32  O   UNL A   1      36.901  31.405  31.161  1.00  0.00    -0.460 OA
BRANCH  32  33
ATOM     33  C   UNL A   1      36.811  30.267  30.405  1.00  0.00     0.338 C 
ATOM     34  O   UNL A   1      36.072  29.317  30.661  1.00  0.00    -0.246 OA
BRANCH  33  35
ATOM     35  C   UNL A   1      37.937  30.303  29.432  1.00  0.00     0.060 A 
ATOM     36  C   UNL A   1      37.972  29.555  28.269  1.00  0.00     0.016 A 
ATOM     37  C   UNL A   1      39.120  30.862  29.812  1.00  0.00     0.016 A 
ATOM     38  C   UNL A   1      39.216  29.121  27.714  1.00  0.00     0.010 A 
ATOM     39  C   UNL A   1      40.304  30.251  29.355  1.00  0.00     0.010 A 
ATOM     40  C   UNL A   1      40.426  29.217  28.397  1.00  0.00    -0.014 A 
BRANCH  40  41
ATOM     41  C   UNL A   1      41.671  28.158  28.165  1.00  0.00     0.031 A 
ATOM     42  C   UNL A   1      41.723  26.530  28.052  1.00  0.00     0.074 A 
ATOM     43  C   UNL A   1      42.908  28.708  28.136  1.00  0.00     0.049 A 
ATOM     44  N   UNL A   1      41.943  25.605  28.966  1.00  0.00    -0.248 NA
ATOM     45  C   UNL A   1      41.491  25.841  26.763  1.00  0.00     0.031 C 
ATOM     46  C   UNL A   1      44.178  28.006  28.001  1.00  0.00     0.029 A 
ATOM     47  N   UNL A   1      43.294  29.990  28.545  1.00  0.00    -0.354 N 
ATOM     48  C   UNL A   1      41.765  24.335  28.332  1.00  0.00     0.074 A 
ATOM     49  C   UNL A   1      41.089  24.617  27.109  1.00  0.00     0.031 C 
ATOM     50  C   UNL A   1      45.087  28.698  28.714  1.00  0.00     0.029 A 
ATOM     51  C   UNL A   1      44.380  29.778  29.392  1.00  0.00     0.049 A 
ATOM     52  H   UNL A   1      42.888  30.849  28.291  1.00  0.00     0.167 HD
ATOM     53  C   UNL A   1      42.593  23.228  28.375  1.00  0.00     0.034 A 
ATOM     54  C   UNL A   1      44.312  29.998  30.743  1.00  0.00     0.034 A 
ATOM     55  C   UNL A   1      43.859  23.644  28.931  1.00  0.00     0.049 A 
ATOM     56  C   UNL A   1      44.688  28.757  31.543  1.00  0.00     0.074 A 
ATOM     57  C   UNL A   1      44.995  24.182  28.348  1.00  0.00     0.029 A 
ATOM     58  N   UNL A   1      43.924  23.906  30.273  1.00  0.00    -0.354 N 
ATOM     59  N   UNL A   1      44.818  27.552  31.045  1.00  0.00    -0.248 NA
ATOM     60  C   UNL A   1      44.959  28.790  32.976  1.00  0.00     0.031 C 
ATOM     61  C   UNL A   1      45.643  24.958  29.348  1.00  0.00     0.029 A 
ATOM     62  C   UNL A   1      44.944  24.802  30.534  1.00  0.00     0.049 A 
ATOM     63  H   UNL A   1      43.332  23.513  30.953  1.00  0.00     0.167 HD
ATOM     64  C   UNL A   1      45.074  26.660  32.057  1.00  0.00     0.074 A 
ATOM     65  C   UNL A   1      45.234  27.500  33.229  1.00  0.00     0.031 C 
ATOM     66  C   UNL A   1      45.067  25.300  31.892  1.00  0.00     0.034 A 
BRANCH  53  67
ATOM     67  C   UNL A   1      42.455  21.967  27.458  1.00  0.00     0.023 A 
ATOM     68  C   UNL A   1      41.351  21.097  27.636  1.00  0.00     0.012 A 
ATOM     69  C   UNL A   1      43.374  21.572  26.446  1.00  0.00     0.148 A 
ATOM     70  C   UNL A   1      41.241  19.860  26.969  1.00  0.00     0.002 A 
ATOM     71  C   UNL A   1      43.317  20.293  25.854  1.00  0.00     0.091 A 
ATOM     72  F   UNL A   1      44.302  22.448  26.030  1.00  0.00    -0.205 F 
ATOM     73  C   UNL A   1      42.250  19.433  26.118  1.00  0.00     0.022 A 
BRANCH  71  74
ATOM     74  S   UNL A   1      44.677  19.601  24.880  1.00  0.00     0.127 S 
ATOM     75  O   UNL A   1      45.814  20.430  25.293  1.00  0.00    -0.237 OA
ATOM     76  O   UNL A   1      44.741  18.217  25.342  1.00  0.00    -0.237 OA
ATOM     77  O   UNL A   1      44.291  19.790  23.486  1.00  0.00    -0.744 OA
ENDBRANCH  71  74
ENDBRANCH  53  67
BRANCH  54  78
ATOM     78  C   UNL A   1      43.449  31.148  31.228  1.00  0.00     0.023 A 
ATOM     79  C   UNL A   1      43.498  32.345  30.465  1.00  0.00     0.012 A 
ATOM     80  C   UNL A   1      42.457  31.068  32.234  1.00  0.00     0.148 A 
ATOM     81  C   UNL A   1      42.563  33.374  30.622  1.00  0.00     0.002 A 
ATOM     82  C   UNL A   1      41.507  32.099  32.377  1.00  0.00     0.091 A 
ATOM     83  F   UNL A   1      42.375  29.956  32.973  1.00  0.00    -0.205 F 
ATOM     84  C   UNL A   1      41.561  33.248  31.572  1.00  0.00     0.022 A 
BRANCH  82  85
ATOM     85  S   UNL A   1      40.028  31.917  33.410  1.00  0.00     0.127 S 
ATOM     86  O   UNL A   1      40.587  32.069  34.750  1.00  0.00    -0.237 OA
ATOM     87  O   UNL A   1      39.191  33.033  32.966  1.00  0.00    -0.237 OA
ATOM     88  O   UNL A   1      39.496  30.606  33.072  1.00  0.00    -0.744 OA
ENDBRANCH  82  85
ENDBRANCH  54  78
BRANCH  66  89
ATOM     89  C   UNL A   1      45.038  24.277  33.020  1.00  0.00     0.023 A 
ATOM     90  C   UNL A   1      43.991  23.350  33.149  1.00  0.00     0.012 A 
ATOM     91  C   UNL A   1      46.189  24.054  33.826  1.00  0.00     0.148 A 
ATOM     92  C   UNL A   1      44.049  22.294  34.063  1.00  0.00     0.002 A 
ATOM     93  C   UNL A   1      46.302  22.912  34.614  1.00  0.00     0.091 A 
ATOM     94  F   UNL A   1      47.204  24.933  33.808  1.00  0.00    -0.205 F 
ATOM     95  C   UNL A   1      45.218  22.052  34.773  1.00  0.00     0.022 A 
BRANCH  93  96
ATOM     96  S   UNL A   1      47.923  22.405  35.215  1.00  0.00     0.127 S 
ATOM     97  O   UNL A   1      47.710  21.003  35.561  1.00  0.00    -0.237 OA
ATOM     98  O   UNL A   1      48.786  22.618  34.050  1.00  0.00    -0.237 OA
ATOM     99  O   UNL A   1      48.184  23.319  36.321  1.00  0.00    -0.744 OA
ENDBRANCH  93  96
ENDBRANCH  66  89
ENDBRANCH  40  41
ENDBRANCH  33  35
ENDBRANCH  32  33
ENDBRANCH  31  32
ENDBRANCH  30  31
ENDBRANCH  29  30
ENDBRANCH  28  29
ENDBRANCH   1  28
TORSDOF 23
ENDMDL
MODEL 2
REMARK VINA RESULT:      -9.9      6.502     12.084
REMARK SMILES Cc1ccc(NC(=O)NC2CCCC2)cc1/C=C/C(=O)OCCOCCOCCOC(=O)c1ccc(-c2c3nc(c(-c4cccc(S(=O)(=O)[O-])c4F)c4ccc([nH]4)c(-c4cccc(S(=O)(=O)[O-])c4F)c4nc(c(-c5cccc(S(=O)(=O)[O-])c5F)c5ccc2[nH]5)C=C4)C=C3)cc1
REMARK SMILES IDX 25 1 24 2 23 3 22 4 21 5 19 6 20 7 18 8 17 9 16 10 1 11 2 12
REMARK SMILES IDX 3 13 4 14 15 15 5 16 6 17 7 18 8 20 9 21 10 23 11 24 14 25
REMARK SMILES IDX 12 26 13 27 26 28 27 29 28 30 29 31 30 32 31 33 32 34 33 35
REMARK SMILES IDX 34 36 95 37 35 38 94 39 36 40 37 41 38 42 88 43 39 44 93 45
REMARK SMILES IDX 87 46 89 47 40 48 92 49 86 50 85 51 41 53 73 54 53 55 72 56
REMARK SMILES IDX 54 57 57 58 71 59 90 60 55 61 56 62 70 64 91 65 58 66 42 67
REMARK SMILES IDX 43 68 51 69 44 70 46 71 52 72 45 73 47 74 48 75 49 76 50 77
REMARK SMILES IDX 74 78 75 79 83 80 76 81 78 82 84 83 77 84 79 85 80 86 81 87
REMARK SMILES IDX 82 88 59 89 60 90 68 91 61 92 63 93 69 94 62 95 64 96 65 97
REMARK SMILES IDX 66 98 67 99
REMARK H PARENT 6 19 9 22 89 52 57 63
REMARK Flexibility Score: inf
ROOT
ATOM      1  C   UNL A   1      31.948  29.998  25.109  1.00  0.00     0.188 C 
ENDROOT
BRANCH   1   2
ATOM      2  O   UNL A   1      31.146  28.987  24.507  1.00  0.00    -0.376 OA
BRANCH   2   3
ATOM      3  C   UNL A   1      31.782  28.605  23.253  1.00  0.00     0.202 C 
BRANCH   3   4
ATOM      4  C   UNL A   1      31.165  27.234  22.746  1.00  0.00     0.261 C 
BRANCH   4   5
ATOM      5  O   UNL A   1      31.777  25.877  22.460  1.00  0.00    -0.460 OA
BRANCH   5   6
ATOM      6  C   UNL A   1      32.721  25.251  21.728  1.00  0.00     0.330 C 
ATOM      7  O   UNL A   1      33.130  25.409  20.595  1.00  0.00    -0.247 OA
BRANCH   6   8
ATOM      8  C   UNL A   1      33.442  24.215  22.391  1.00  0.00     0.094 C 
ATOM      9  C   UNL A   1      32.653  23.195  22.772  1.00  0.00     0.016 C 
BRANCH   9  10
ATOM     10  C   UNL A   1      33.008  22.553  24.030  1.00  0.00    -0.020 A 
ATOM     11  C   UNL A   1      31.017  23.642  25.218  1.00  0.00     0.045 C 
ATOM     12  C   UNL A   1      32.179  22.681  25.160  1.00  0.00    -0.044 A 
ATOM     13  C   UNL A   1      32.436  21.869  26.266  1.00  0.00     0.006 A 
ATOM     14  C   UNL A   1      33.602  21.102  26.322  1.00  0.00     0.026 A 
ATOM     15  C   UNL A   1      34.166  21.756  24.070  1.00  0.00     0.034 A 
ATOM     16  C   UNL A   1      34.521  21.148  25.270  1.00  0.00     0.043 A 
BRANCH  16  17
ATOM     17  N   UNL A   1      35.846  20.724  25.446  1.00  0.00    -0.308 N 
ATOM     18  C   UNL A   1      36.454  19.614  24.943  1.00  0.00     0.319 C 
ATOM     19  H   UNL A   1      36.410  21.305  26.005  1.00  0.00     0.171 HD
ATOM     20  O   UNL A   1      37.684  19.542  24.888  1.00  0.00    -0.248 OA
ATOM     21  N   UNL A   1      35.745  18.498  24.603  1.00  0.00    -0.335 N 
ATOM     22  H   UNL A   1      36.267  17.801  24.141  1.00  0.00     0.165 HD
BRANCH  21  23
ATOM     23  C   UNL A   1      34.353  18.176  24.815  1.00  0.00     0.083 C 
ATOM     24  C   UNL A   1      33.469  18.123  23.575  1.00  0.00     0.025 C 
ATOM     25  C   UNL A   1      34.071  16.815  25.440  1.00  0.00     0.025 C 
ATOM     26  C   UNL A   1      32.150  17.624  24.174  1.00  0.00     0.002 C 
ATOM     27  C   UNL A   1      32.549  16.709  25.341  1.00  0.00     0.002 C 
ENDBRANCH  21  23
ENDBRANCH  16  17
ENDBRANCH   9  10
ENDBRANCH   6   8
ENDBRANCH   5   6
ENDBRANCH   4   5
ENDBRANCH   3   4
ENDBRANCH   2   3
ENDBRANCH   1   2
BRANCH   1  28
ATOM     28  C   UNL A   1      32.712  29.614  26.365  1.00  0.00     0.188 C 
BRANCH  28  29
ATOM     29  O   UNL A   1      34.001  30.188  26.575  1.00  0.00    -0.376 OA
BRANCH  29  30
ATOM     30  C   UNL A   1      34.327  30.557  27.910  1.00  0.00     0.202 C 
BRANCH  30  31
ATOM     31  C   UNL A   1      34.566  32.062  28.215  1.00  0.00     0.261 C 
BRANCH  31  32
ATOM     32  O   UNL A   1      35.475  32.310  29.306  1.00  0.00    -0.460 OA
BRANCH  32  33
ATOM     33  C   UNL A   1      36.050  33.551  29.329  1.00  0.00     0.338 C 
ATOM     34  O   UNL A   1      35.468  34.595  29.037  1.00  0.00    -0.246 OA
BRANCH  33  35
ATOM     35  C   UNL A   1      37.516  33.347  29.491  1.00  0.00     0.060 A 
ATOM     36  C   UNL A   1      38.076  32.222  30.070  1.00  0.00     0.016 A 
ATOM     37  C   UNL A   1      38.352  34.412  29.337  1.00  0.00     0.016 A 
ATOM     38  C   UNL A   1      39.323  32.299  30.764  1.00  0.00     0.010 A 
ATOM     39  C   UNL A   1      39.466  34.492  30.195  1.00  0.00     0.010 A 
ATOM     40  C   UNL A   1      39.933  33.507  31.095  1.00  0.00    -0.014 A 
BRANCH  40  41
ATOM     41  C   UNL A   1      40.896  33.686  32.424  1.00  0.00     0.031 A 
ATOM     42  C   UNL A   1      40.642  34.379  33.881  1.00  0.00     0.074 A 
ATOM     43  C   UNL A   1      42.172  33.256  32.283  1.00  0.00     0.049 A 
ATOM     44  N   UNL A   1      40.896  35.599  34.316  1.00  0.00    -0.248 NA
ATOM     45  C   UNL A   1      40.019  33.627  34.992  1.00  0.00     0.031 C 
ATOM     46  C   UNL A   1      43.243  33.343  33.270  1.00  0.00     0.029 A 
ATOM     47  N   UNL A   1      42.853  32.940  31.101  1.00  0.00    -0.354 N 
ATOM     48  C   UNL A   1      40.368  35.692  35.642  1.00  0.00     0.074 A 
ATOM     49  C   UNL A   1      39.499  34.570  35.780  1.00  0.00     0.031 C 
ATOM     50  C   UNL A   1      44.391  33.521  32.589  1.00  0.00     0.029 A 
ATOM     51  C   UNL A   1      44.045  33.657  31.178  1.00  0.00     0.049 A 
ATOM     52  H   UNL A   1      42.554  32.344  30.377  1.00  0.00     0.167 HD
ATOM     53  C   UNL A   1      40.984  36.179  36.780  1.00  0.00     0.034 A 
ATOM     54  C   UNL A   1      44.314  34.724  30.363  1.00  0.00     0.034 A 
ATOM     55  C   UNL A   1      42.393  36.317  36.498  1.00  0.00     0.049 A 
ATOM     56  C   UNL A   1      44.638  35.983  31.160  1.00  0.00     0.074 A 
ATOM     57  C   UNL A   1      43.447  35.424  36.591  1.00  0.00     0.029 A 
ATOM     58  N   UNL A   1      42.794  37.342  35.685  1.00  0.00    -0.354 N 
ATOM     59  N   UNL A   1      44.448  36.127  32.447  1.00  0.00    -0.248 NA
ATOM     60  C   UNL A   1      45.219  37.176  30.554  1.00  0.00     0.031 C 
ATOM     61  C   UNL A   1      44.423  35.837  35.642  1.00  0.00     0.029 A 
ATOM     62  C   UNL A   1      43.985  37.017  35.062  1.00  0.00     0.049 A 
ATOM     63  H   UNL A   1      42.307  38.188  35.564  1.00  0.00     0.167 HD
ATOM     64  C   UNL A   1      44.762  37.411  32.820  1.00  0.00     0.074 A 
ATOM     65  C   UNL A   1      45.317  37.997  31.613  1.00  0.00     0.031 C 
ATOM     66  C   UNL A   1      44.486  37.935  34.054  1.00  0.00     0.034 A 
BRANCH  53  67
ATOM     67  C   UNL A   1      40.433  36.018  38.237  1.00  0.00     0.023 A 
ATOM     68  C   UNL A   1      39.500  34.991  38.518  1.00  0.00     0.012 A 
ATOM     69  C   UNL A   1      40.763  36.848  39.346  1.00  0.00     0.148 A 
ATOM     70  C   UNL A   1      38.834  34.882  39.755  1.00  0.00     0.002 A 
ATOM     71  C   UNL A   1      40.028  36.803  40.547  1.00  0.00     0.091 A 
ATOM     72  F   UNL A   1      41.816  37.676  39.249  1.00  0.00    -0.205 F 
ATOM     73  C   UNL A   1      39.058  35.820  40.753  1.00  0.00     0.022 A 
BRANCH  71  74
ATOM     74  S   UNL A   1      40.138  38.092  41.815  1.00  0.00     0.127 S 
ATOM     75  O   UNL A   1      39.279  39.146  41.268  1.00  0.00    -0.237 OA
ATOM     76  O   UNL A   1      39.601  37.431  43.002  1.00  0.00    -0.237 OA
ATOM     77  O   UNL A   1      41.549  38.458  41.874  1.00  0.00    -0.744 OA
ENDBRANCH  71  74
ENDBRANCH  53  67
BRANCH  54  78
ATOM     78  C   UNL A   1      43.788  34.677  28.940  1.00  0.00     0.023 A 
ATOM     79  C   UNL A   1      42.721  35.560  28.628  1.00  0.00     0.012 A 
ATOM     80  C   UNL A   1      44.393  33.993  27.859  1.00  0.00     0.148 A 
ATOM     81  C   UNL A   1      42.327  35.826  27.312  1.00  0.00     0.002 A 
ATOM     82  C   UNL A   1      44.005  34.277  26.534  1.00  0.00     0.091 A 
ATOM     83  F   UNL A   1      45.405  33.154  28.110  1.00  0.00    -0.205 F 
ATOM     84  C   UNL A   1      42.975  35.191  26.264  1.00  0.00     0.022 A 
BRANCH  82  85
ATOM     85  S   UNL A   1      44.950  33.691  25.101  1.00  0.00     0.127 S 
ATOM     86  O   UNL A   1      44.119  34.155  23.994  1.00  0.00    -0.237 OA
ATOM     87  O   UNL A   1      46.223  34.398  25.249  1.00  0.00    -0.237 OA
ATOM     88  O   UNL A   1      45.046  32.251  25.283  1.00  0.00    -0.744 OA
ENDBRANCH  82  85
ENDBRANCH  54  78
BRANCH  66  89
ATOM     89  C   UNL A   1      44.531  39.414  34.413  1.00  0.00     0.023 A 
ATOM     90  C   UNL A   1      45.469  39.924  35.326  1.00  0.00     0.012 A 
ATOM     91  C   UNL A   1      43.801  40.367  33.650  1.00  0.00     0.148 A 
ATOM     92  C   UNL A   1      45.639  41.299  35.519  1.00  0.00     0.002 A 
ATOM     93  C   UNL A   1      44.090  41.727  33.734  1.00  0.00     0.091 A 
ATOM     94  F   UNL A   1      42.840  39.960  32.806  1.00  0.00    -0.205 F 
ATOM     95  C   UNL A   1      44.975  42.203  34.699  1.00  0.00     0.022 A 
BRANCH  93  96
ATOM     96  S   UNL A   1      43.528  42.837  32.432  1.00  0.00     0.127 S 
ATOM     97  O   UNL A   1      44.279  44.057  32.707  1.00  0.00    -0.237 OA
ATOM     98  O   UNL A   1      43.932  42.139  31.209  1.00  0.00    -0.237 OA
ATOM     99  O   UNL A   1      42.084  42.899  32.629  1.00  0.00    -0.744 OA
ENDBRANCH  93  96
ENDBRANCH  66  89
ENDBRANCH  40  41
ENDBRANCH  33  35
ENDBRANCH  32  33
ENDBRANCH  31  32
ENDBRANCH  30  31
ENDBRANCH  29  30
ENDBRANCH  28  29
ENDBRANCH   1  28
TORSDOF 23
ENDMDL
MODEL 3
REMARK VINA RESULT:      -9.7      3.326      4.749
REMARK SMILES Cc1ccc(NC(=O)NC2CCCC2)cc1/C=C/C(=O)OCCOCCOCCOC(=O)c1ccc(-c2c3nc(c(-c4cccc(S(=O)(=O)[O-])c4F)c4ccc([nH]4)c(-c4cccc(S(=O)(=O)[O-])c4F)c4nc(c(-c5cccc(S(=O)(=O)[O-])c5F)c5ccc2[nH]5)C=C4)C=C3)cc1
REMARK SMILES IDX 25 1 24 2 23 3 22 4 21 5 19 6 20 7 18 8 17 9 16 10 1 11 2 12
REMARK SMILES IDX 3 13 4 14 15 15 5 16 6 17 7 18 8 20 9 21 10 23 11 24 14 25
REMARK SMILES IDX 12 26 13 27 26 28 27 29 28 30 29 31 30 32 31 33 32 34 33 35
REMARK SMILES IDX 34 36 95 37 35 38 94 39 36 40 37 41 38 42 88 43 39 44 93 45
REMARK SMILES IDX 87 46 89 47 40 48 92 49 86 50 85 51 41 53 73 54 53 55 72 56
REMARK SMILES IDX 54 57 57 58 71 59 90 60 55 61 56 62 70 64 91 65 58 66 42 67
REMARK SMILES IDX 43 68 51 69 44 70 46 71 52 72 45 73 47 74 48 75 49 76 50 77
REMARK SMILES IDX 74 78 75 79 83 80 76 81 78 82 84 83 77 84 79 85 80 86 81 87
REMARK SMILES IDX 82 88 59 89 60 90 68 91 61 92 63 93 69 94 62 95 64 96 65 97
REMARK SMILES IDX 66 98 67 99
REMARK H PARENT 6 19 9 22 89 52 57 63
REMARK Flexibility Score: inf
ROOT
ATOM      1  C   UNL A   1      36.756  32.153  30.824  1.00  0.00     0.188 C 
ENDROOT
BRANCH   1   2
ATOM      2  O   UNL A   1      35.999  32.141  29.618  1.00  0.00    -0.376 OA
BRANCH   2   3
ATOM      3  C   UNL A   1      36.665  31.242  28.684  1.00  0.00     0.202 C 
BRANCH   3   4
ATOM      4  C   UNL A   1      35.860  29.877  28.603  1.00  0.00     0.261 C 
BRANCH   4   5
ATOM      5  O   UNL A   1      34.876  29.325  27.591  1.00  0.00    -0.460 OA
BRANCH   5   6
ATOM      6  C   UNL A   1      33.608  29.437  27.147  1.00  0.00     0.330 C 
ATOM      7  O   UNL A   1      32.729  30.251  27.347  1.00  0.00    -0.247 OA
BRANCH   6   8
ATOM      8  C   UNL A   1      33.182  28.444  26.216  1.00  0.00     0.094 C 
ATOM      9  C   UNL A   1      32.231  28.893  25.377  1.00  0.00     0.016 C 
BRANCH   9  10
ATOM     10  C   UNL A   1      31.216  27.923  24.990  1.00  0.00    -0.020 A 
ATOM     11  C   UNL A   1      30.169  29.583  23.344  1.00  0.00     0.045 C 
ATOM     12  C   UNL A   1      30.305  28.210  23.957  1.00  0.00    -0.044 A 
ATOM     13  C   UNL A   1      29.508  27.173  23.468  1.00  0.00     0.006 A 
ATOM     14  C   UNL A   1      29.474  25.941  24.125  1.00  0.00     0.026 A 
ATOM     15  C   UNL A   1      31.208  26.672  25.633  1.00  0.00     0.034 A 
ATOM     16  C   UNL A   1      30.237  25.742  25.279  1.00  0.00     0.043 A 
BRANCH  16  17
ATOM     17  N   UNL A   1      29.944  24.699  26.169  1.00  0.00    -0.308 N 
ATOM     18  C   UNL A   1      30.761  23.697  26.598  1.00  0.00     0.319 C 
ATOM     19  H   UNL A   1      29.030  24.691  26.534  1.00  0.00     0.171 HD
ATOM     20  O   UNL A   1      30.495  23.063  27.622  1.00  0.00    -0.248 OA
ATOM     21  N   UNL A   1      31.824  23.269  25.856  1.00  0.00    -0.335 N 
ATOM     22  H   UNL A   1      32.414  22.625  26.311  1.00  0.00     0.165 HD
BRANCH  21  23
ATOM     23  C   UNL A   1      32.219  23.611  24.509  1.00  0.00     0.083 C 
ATOM     24  C   UNL A   1      33.620  24.184  24.334  1.00  0.00     0.025 C 
ATOM     25  C   UNL A   1      32.241  22.461  23.509  1.00  0.00     0.025 C 
ATOM     26  C   UNL A   1      33.713  24.274  22.807  1.00  0.00     0.002 C 
ATOM     27  C   UNL A   1      32.876  23.101  22.275  1.00  0.00     0.002 C 
ENDBRANCH  21  23
ENDBRANCH  16  17
ENDBRANCH   9  10
ENDBRANCH   6   8
ENDBRANCH   5   6
ENDBRANCH   4   5
ENDBRANCH   3   4
ENDBRANCH   2   3
ENDBRANCH   1   2
BRANCH   1  28
ATOM     28  C   UNL A   1      37.624  33.374  31.081  1.00  0.00     0.188 C 
BRANCH  28  29
ATOM     29  O   UNL A   1      37.105  34.410  31.911  1.00  0.00    -0.376 OA
BRANCH  29  30
ATOM     30  C   UNL A   1      35.736  34.303  32.288  1.00  0.00     0.202 C 
BRANCH  30  31
ATOM     31  C   UNL A   1      35.409  33.969  33.770  1.00  0.00     0.261 C 
BRANCH  31  32
ATOM     32  O   UNL A   1      36.089  32.804  34.279  1.00  0.00    -0.460 OA
BRANCH  32  33
ATOM     33  C   UNL A   1      37.000  33.036  35.274  1.00  0.00     0.338 C 
ATOM     34  O   UNL A   1      36.851  33.857  36.177  1.00  0.00    -0.246 OA
BRANCH  33  35
ATOM     35  C   UNL A   1      38.253  32.333  34.886  1.00  0.00     0.060 A 
ATOM     36  C   UNL A   1      39.368  32.974  34.373  1.00  0.00     0.016 A 
ATOM     37  C   UNL A   1      38.234  30.977  34.748  1.00  0.00     0.016 A 
ATOM     38  C   UNL A   1      40.247  32.302  33.468  1.00  0.00     0.010 A 
ATOM     39  C   UNL A   1      39.000  30.420  33.705  1.00  0.00     0.010 A 
ATOM     40  C   UNL A   1      39.937  31.080  32.877  1.00  0.00    -0.014 A 
BRANCH  40  41
ATOM     41  C   UNL A   1      40.499  30.639  31.388  1.00  0.00     0.031 A 
ATOM     42  C   UNL A   1      40.612  29.193  30.639  1.00  0.00     0.074 A 
ATOM     43  C   UNL A   1      41.049  31.635  30.653  1.00  0.00     0.049 A 
ATOM     44  N   UNL A   1      41.606  28.328  30.570  1.00  0.00    -0.248 NA
ATOM     45  C   UNL A   1      39.474  28.629  29.879  1.00  0.00     0.031 C 
ATOM     46  C   UNL A   1      41.666  31.517  29.337  1.00  0.00     0.029 A 
ATOM     47  N   UNL A   1      41.452  32.905  31.082  1.00  0.00    -0.354 N 
ATOM     48  C   UNL A   1      41.118  27.179  29.872  1.00  0.00     0.074 A 
ATOM     49  C   UNL A   1      39.699  27.314  29.872  1.00  0.00     0.031 C 
ATOM     50  C   UNL A   1      42.662  32.422  29.289  1.00  0.00     0.029 A 
ATOM     51  C   UNL A   1      42.754  33.042  30.606  1.00  0.00     0.049 A 
ATOM     52  H   UNL A   1      40.930  33.556  31.604  1.00  0.00     0.167 HD
ATOM     53  C   UNL A   1      41.705  26.496  28.823  1.00  0.00     0.034 A 
ATOM     54  C   UNL A   1      43.843  33.052  31.438  1.00  0.00     0.034 A 
ATOM     55  C   UNL A   1      42.782  27.310  28.311  1.00  0.00     0.049 A 
ATOM     56  C   UNL A   1      44.856  31.976  31.065  1.00  0.00     0.074 A 
ATOM     57  C   UNL A   1      42.810  28.322  27.365  1.00  0.00     0.029 A 
ATOM     58  N   UNL A   1      43.926  27.413  29.054  1.00  0.00    -0.354 N 
ATOM     59  N   UNL A   1      44.635  30.992  30.230  1.00  0.00    -0.248 NA
ATOM     60  C   UNL A   1      46.210  31.941  31.607  1.00  0.00     0.031 C 
ATOM     61  C   UNL A   1      43.907  29.165  27.696  1.00  0.00     0.029 A 
ATOM     62  C   UNL A   1      44.573  28.602  28.772  1.00  0.00     0.049 A 
ATOM     63  H   UNL A   1      44.244  26.738  29.696  1.00  0.00     0.167 HD
ATOM     64  C   UNL A   1      45.726  30.160  30.197  1.00  0.00     0.074 A 
ATOM     65  C   UNL A   1      46.711  30.846  31.012  1.00  0.00     0.031 C 
ATOM     66  C   UNL A   1      45.735  28.940  29.574  1.00  0.00     0.034 A 
BRANCH  53  67
ATOM     67  C   UNL A   1      40.995  25.405  27.953  1.00  0.00     0.023 A 
ATOM     68  C   UNL A   1      39.607  25.517  27.694  1.00  0.00     0.012 A 
ATOM     69  C   UNL A   1      41.618  24.250  27.400  1.00  0.00     0.148 A 
ATOM     70  C   UNL A   1      38.864  24.498  27.064  1.00  0.00     0.002 A 
ATOM     71  C   UNL A   1      40.861  23.189  26.862  1.00  0.00     0.091 A 
ATOM     72  F   UNL A   1      42.958  24.184  27.371  1.00  0.00    -0.205 F 
ATOM     73  C   UNL A   1      39.480  23.311  26.696  1.00  0.00     0.022 A 
BRANCH  71  74
ATOM     74  S   UNL A   1      41.565  21.555  26.525  1.00  0.00     0.127 S 
ATOM     75  O   UNL A   1      42.237  21.235  27.788  1.00  0.00    -0.237 OA
ATOM     76  O   UNL A   1      40.384  20.740  26.249  1.00  0.00    -0.237 OA
ATOM     77  O   UNL A   1      42.480  21.748  25.407  1.00  0.00    -0.744 OA
ENDBRANCH  71  74
ENDBRANCH  53  67
BRANCH  54  78
ATOM     78  C   UNL A   1      43.682  33.696  32.803  1.00  0.00     0.023 A 
ATOM     79  C   UNL A   1      43.860  32.850  33.929  1.00  0.00     0.012 A 
ATOM     80  C   UNL A   1      43.579  35.085  33.053  1.00  0.00     0.148 A 
ATOM     81  C   UNL A   1      44.019  33.349  35.226  1.00  0.00     0.002 A 
ATOM     82  C   UNL A   1      43.757  35.586  34.358  1.00  0.00     0.091 A 
ATOM     83  F   UNL A   1      43.414  35.917  32.019  1.00  0.00    -0.205 F 
ATOM     84  C   UNL A   1      43.976  34.719  35.441  1.00  0.00     0.022 A 
BRANCH  82  85
ATOM     85  S   UNL A   1      43.963  37.355  34.698  1.00  0.00     0.127 S 
ATOM     86  O   UNL A   1      44.887  37.750  33.639  1.00  0.00    -0.237 OA
ATOM     87  O   UNL A   1      42.601  37.869  34.545  1.00  0.00    -0.237 OA
ATOM     88  O   UNL A   1      44.470  37.416  36.060  1.00  0.00    -0.744 OA
ENDBRANCH  82  85
ENDBRANCH  54  78
BRANCH  66  89
ATOM     89  C   UNL A   1      46.794  27.862  29.765  1.00  0.00     0.023 A 
ATOM     90  C   UNL A   1      46.964  27.204  30.994  1.00  0.00     0.012 A 
ATOM     91  C   UNL A   1      47.469  27.304  28.645  1.00  0.00     0.148 A 
ATOM     92  C   UNL A   1      47.801  26.091  31.126  1.00  0.00     0.002 A 
ATOM     93  C   UNL A   1      48.170  26.106  28.753  1.00  0.00     0.091 A 
ATOM     94  F   UNL A   1      47.409  27.913  27.450  1.00  0.00    -0.205 F 
ATOM     95  C   UNL A   1      48.378  25.519  30.000  1.00  0.00     0.022 A 
BRANCH  93  96
ATOM     96  S   UNL A   1      48.579  25.178  27.265  1.00  0.00     0.127 S 
ATOM     97  O   UNL A   1      49.717  24.371  27.695  1.00  0.00    -0.237 OA
ATOM     98  O   UNL A   1      47.356  24.413  27.008  1.00  0.00    -0.237 OA
ATOM     99  O   UNL A   1      48.849  26.213  26.274  1.00  0.00    -0.744 OA
ENDBRANCH  93  96
ENDBRANCH  66  89
ENDBRANCH  40  41
ENDBRANCH  33  35
ENDBRANCH  32  33
ENDBRANCH  31  32
ENDBRANCH  30  31
ENDBRANCH  29  30
ENDBRANCH  28  29
ENDBRANCH   1  28
TORSDOF 23
ENDMDL
