MODEL 1
REMARK VINA RESULT:     -10.2      0.000      0.000
REMARK SMILES CC(C)(C)c1cc2c(cc1Cl)C=C(C(=O)OCCOCCOCCOC(=O)c1ccc(-c3c4nc(c(-c5cccc(S(=O)(=O)[O-])c5F)c5ccc([nH]5)c(-c5cccc(S(=O)(=O)[O-])c5F)c5nc(c(-c6cccc(S(=O)(=O)[O-])c6F)c6ccc3[nH]6)C=C5)C=C4)cc1)[C@H](C(F)(F)F)O2
REMARK SMILES IDX 21 1 20 2 19 3 18 4 17 5 16 6 14 7 15 8 13 9 5 10 6 11 10 12
REMARK SMILES IDX 7 13 9 14 11 15 8 16 96 17 12 18 91 19 2 20 1 21 3 22 4 23
REMARK SMILES IDX 92 24 93 25 94 26 95 27 22 28 23 29 24 30 25 31 26 32 27 33
REMARK SMILES IDX 28 34 29 35 90 36 30 37 89 38 31 39 32 40 33 41 83 42 34 43
REMARK SMILES IDX 88 44 82 45 84 46 35 47 87 48 81 49 80 50 36 52 68 53 48 54
REMARK SMILES IDX 67 55 49 56 52 57 66 58 85 59 50 60 51 61 65 63 86 64 53 65
REMARK SMILES IDX 37 66 38 67 46 68 39 69 41 70 47 71 40 72 42 73 43 74 44 75
REMARK SMILES IDX 45 76 69 77 70 78 78 79 71 80 73 81 79 82 72 83 74 84 75 85
REMARK SMILES IDX 76 86 77 87 54 88 55 89 63 90 56 91 58 92 64 93 57 94 59 95
REMARK SMILES IDX 60 96 61 97 62 98
REMARK H PARENT 84 51 52 62
REMARK Flexibility Score: inf
ROOT
ATOM      1  C   UNL A   1      41.593  20.620  27.067  1.00  0.00     0.188 C 
ENDROOT
BRANCH   1   2
ATOM      2  C   UNL A   1      41.535  21.843  26.129  1.00  0.00     0.188 C 
BRANCH   2   3
ATOM      3  O   UNL A   1      40.773  22.948  26.552  1.00  0.00    -0.376 OA
BRANCH   3   4
ATOM      4  C   UNL A   1      39.357  22.912  26.575  1.00  0.00     0.202 C 
BRANCH   4   5
ATOM      5  C   UNL A   1      38.468  21.906  25.822  1.00  0.00     0.261 C 
BRANCH   5   6
ATOM      6  O   UNL A   1      37.070  21.944  26.107  1.00  0.00    -0.460 OA
BRANCH   6   7
ATOM      7  C   UNL A   1      36.284  21.233  25.270  1.00  0.00     0.338 C 
ATOM      8  O   UNL A   1      36.477  20.095  24.878  1.00  0.00    -0.246 OA
BRANCH   7   9
ATOM      9  C   UNL A   1      35.069  21.995  24.948  1.00  0.00     0.087 C 
ATOM     10  C   UNL A   1      31.983  25.892  23.979  1.00  0.00    -0.020 A 
ATOM     11  C   UNL A   1      31.931  24.707  24.764  1.00  0.00     0.053 A 
ATOM     12  C   UNL A   1      33.126  26.036  23.164  1.00  0.00     0.045 A 
ATOM     13  C   UNL A   1      32.973  23.779  24.810  1.00  0.00     0.128 A 
ATOM     14  C   UNL A   1      34.173  25.094  23.208  1.00  0.00     0.032 A 
ATOM     15  Cl  UNL A   1      33.397  27.319  22.043  1.00  0.00    -0.084 Cl
ATOM     16  C   UNL A   1      34.110  23.980  24.042  1.00  0.00     0.019 A 
ATOM     17  O   UNL A   1      32.830  22.748  25.698  1.00  0.00    -0.475 OA
ATOM     18  C   UNL A   1      35.248  23.091  24.198  1.00  0.00     0.027 C 
ATOM     19  C   UNL A   1      33.766  21.636  25.604  1.00  0.00     0.316 C 
BRANCH  10  20
ATOM     20  C   UNL A   1      30.800  26.881  24.138  1.00  0.00    -0.012 C 
ATOM     21  C   UNL A   1      31.284  28.138  24.915  1.00  0.00     0.016 C 
ATOM     22  C   UNL A   1      29.677  26.193  24.945  1.00  0.00     0.016 C 
ATOM     23  C   UNL A   1      30.149  27.438  22.855  1.00  0.00     0.016 C 
ENDBRANCH  10  20
BRANCH  19  24
ATOM     24  C   UNL A   1      33.024  20.430  25.002  1.00  0.00     0.430 C 
ATOM     25  F   UNL A   1      33.467  19.252  25.492  1.00  0.00    -0.167 F 
ATOM     26  F   UNL A   1      31.690  20.500  25.203  1.00  0.00    -0.167 F 
ATOM     27  F   UNL A   1      33.196  20.391  23.654  1.00  0.00    -0.167 F 
ENDBRANCH  19  24
ENDBRANCH   7   9
ENDBRANCH   6   7
ENDBRANCH   5   6
ENDBRANCH   4   5
ENDBRANCH   3   4
ENDBRANCH   2   3
ENDBRANCH   1   2
BRANCH   1  28
ATOM     28  O   UNL A   1      41.569  19.305  26.537  1.00  0.00    -0.376 OA
BRANCH  28  29
ATOM     29  C   UNL A   1      42.678  18.448  26.768  1.00  0.00     0.202 C 
BRANCH  29  30
ATOM     30  C   UNL A   1      43.646  18.136  25.622  1.00  0.00     0.261 C 
BRANCH  30  31
ATOM     31  O   UNL A   1      43.717  19.168  24.629  1.00  0.00    -0.460 OA
BRANCH  31  32
ATOM     32  C   UNL A   1      44.961  19.653  24.381  1.00  0.00     0.338 C 
ATOM     33  O   UNL A   1      45.857  19.105  23.762  1.00  0.00    -0.246 OA
BRANCH  32  34
ATOM     34  C   UNL A   1      45.006  21.064  24.808  1.00  0.00     0.060 A 
ATOM     35  C   UNL A   1      45.360  21.401  26.115  1.00  0.00     0.016 A 
ATOM     36  C   UNL A   1      44.686  22.059  23.874  1.00  0.00     0.016 A 
ATOM     37  C   UNL A   1      45.416  22.747  26.480  1.00  0.00     0.010 A 
ATOM     38  C   UNL A   1      44.725  23.403  24.246  1.00  0.00     0.010 A 
ATOM     39  C   UNL A   1      45.111  23.755  25.546  1.00  0.00    -0.014 A 
BRANCH  39  40
ATOM     40  C   UNL A   1      45.388  25.169  25.884  1.00  0.00     0.031 A 
ATOM     41  C   UNL A   1      44.316  26.105  26.344  1.00  0.00     0.074 A 
ATOM     42  C   UNL A   1      46.656  25.602  25.752  1.00  0.00     0.049 A 
ATOM     43  N   UNL A   1      44.442  27.324  26.799  1.00  0.00    -0.248 NA
ATOM     44  C   UNL A   1      42.928  25.625  26.284  1.00  0.00     0.031 C 
ATOM     45  C   UNL A   1      47.766  24.794  25.243  1.00  0.00     0.029 A 
ATOM     46  N   UNL A   1      47.225  26.817  26.031  1.00  0.00    -0.354 N 
ATOM     47  C   UNL A   1      43.157  27.762  27.082  1.00  0.00     0.074 A 
ATOM     48  C   UNL A   1      42.258  26.682  26.726  1.00  0.00     0.031 C 
ATOM     49  C   UNL A   1      48.887  25.530  25.261  1.00  0.00     0.029 A 
ATOM     50  C   UNL A   1      48.574  26.858  25.780  1.00  0.00     0.049 A 
ATOM     51  H   UNL A   1      46.716  27.584  26.377  1.00  0.00     0.167 HD
ATOM     52  C   UNL A   1      42.772  28.947  27.614  1.00  0.00     0.034 A 
ATOM     53  C   UNL A   1      49.469  27.846  25.967  1.00  0.00     0.034 A 
ATOM     54  C   UNL A   1      43.676  30.008  27.974  1.00  0.00     0.049 A 
ATOM     55  C   UNL A   1      49.021  29.138  26.581  1.00  0.00     0.074 A 
ATOM     56  C   UNL A   1      43.383  31.209  28.596  1.00  0.00     0.029 A 
ATOM     57  N   UNL A   1      45.041  30.007  27.732  1.00  0.00    -0.354 N 
ATOM     58  N   UNL A   1      47.826  29.473  27.001  1.00  0.00    -0.248 NA
ATOM     59  C   UNL A   1      50.044  30.175  26.778  1.00  0.00     0.031 C 
ATOM     60  C   UNL A   1      44.569  31.943  28.714  1.00  0.00     0.029 A 
ATOM     61  C   UNL A   1      45.602  31.192  28.178  1.00  0.00     0.049 A 
ATOM     62  H   UNL A   1      45.538  29.272  27.305  1.00  0.00     0.167 HD
ATOM     63  C   UNL A   1      47.953  30.752  27.528  1.00  0.00     0.074 A 
ATOM     64  C   UNL A   1      49.346  31.126  27.388  1.00  0.00     0.031 C 
ATOM     65  C   UNL A   1      46.994  31.543  28.066  1.00  0.00     0.034 A 
BRANCH  52  66
ATOM     66  C   UNL A   1      41.312  29.150  27.912  1.00  0.00     0.023 A 
ATOM     67  C   UNL A   1      40.411  29.283  26.837  1.00  0.00     0.012 A 
ATOM     68  C   UNL A   1      40.817  29.082  29.229  1.00  0.00     0.148 A 
ATOM     69  C   UNL A   1      39.038  29.354  27.066  1.00  0.00     0.002 A 
ATOM     70  C   UNL A   1      39.445  29.127  29.449  1.00  0.00     0.091 A 
ATOM     71  F   UNL A   1      41.695  28.965  30.235  1.00  0.00    -0.205 F 
ATOM     72  C   UNL A   1      38.556  29.266  28.370  1.00  0.00     0.022 A 
BRANCH  70  73
ATOM     73  S   UNL A   1      38.713  28.965  31.081  1.00  0.00     0.127 S 
ATOM     74  O   UNL A   1      37.298  28.790  30.752  1.00  0.00    -0.237 OA
ATOM     75  O   UNL A   1      39.372  27.765  31.597  1.00  0.00    -0.237 OA
ATOM     76  O   UNL A   1      39.036  30.194  31.792  1.00  0.00    -0.744 OA
ENDBRANCH  70  73
ENDBRANCH  52  66
BRANCH  53  77
ATOM     77  C   UNL A   1      50.897  27.585  25.649  1.00  0.00     0.023 A 
ATOM     78  C   UNL A   1      51.758  27.145  26.672  1.00  0.00     0.012 A 
ATOM     79  C   UNL A   1      51.372  27.660  24.325  1.00  0.00     0.148 A 
ATOM     80  C   UNL A   1      53.074  26.785  26.382  1.00  0.00     0.002 A 
ATOM     81  C   UNL A   1      52.671  27.265  24.038  1.00  0.00     0.091 A 
ATOM     82  F   UNL A   1      50.525  28.076  23.373  1.00  0.00    -0.205 F 
ATOM     83  C   UNL A   1      53.526  26.835  25.066  1.00  0.00     0.022 A 
BRANCH  81  84
ATOM     84  S   UNL A   1      53.315  27.191  22.363  1.00  0.00     0.127 S 
ATOM     85  O   UNL A   1      53.256  28.594  21.959  1.00  0.00    -0.237 OA
ATOM     86  O   UNL A   1      54.664  26.670  22.587  1.00  0.00    -0.237 OA
ATOM     87  O   UNL A   1      52.430  26.294  21.634  1.00  0.00    -0.744 OA
ENDBRANCH  81  84
ENDBRANCH  53  77
BRANCH  65  88
ATOM     88  C   UNL A   1      47.399  32.909  28.549  1.00  0.00     0.023 A 
ATOM     89  C   UNL A   1      47.889  33.057  29.862  1.00  0.00     0.012 A 
ATOM     90  C   UNL A   1      47.413  34.011  27.672  1.00  0.00     0.148 A 
ATOM     91  C   UNL A   1      48.380  34.287  30.298  1.00  0.00     0.002 A 
ATOM     92  C   UNL A   1      47.935  35.225  28.103  1.00  0.00     0.091 A 
ATOM     93  F   UNL A   1      46.932  33.844  26.431  1.00  0.00    -0.205 F 
ATOM     94  C   UNL A   1      48.414  35.366  29.416  1.00  0.00     0.022 A 
BRANCH  92  95
ATOM     95  S   UNL A   1      48.090  36.652  27.023  1.00  0.00     0.127 S 
ATOM     96  O   UNL A   1      46.690  36.989  26.771  1.00  0.00    -0.237 OA
ATOM     97  O   UNL A   1      48.803  37.605  27.874  1.00  0.00    -0.237 OA
ATOM     98  O   UNL A   1      48.837  36.199  25.857  1.00  0.00    -0.744 OA
ENDBRANCH  92  95
ENDBRANCH  65  88
ENDBRANCH  39  40
ENDBRANCH  32  34
ENDBRANCH  31  32
ENDBRANCH  30  31
ENDBRANCH  29  30
ENDBRANCH  28  29
ENDBRANCH   1  28
TORSDOF 22
ENDMDL
MODEL 2
REMARK VINA RESULT:     -10.0      1.126      7.604
REMARK SMILES CC(C)(C)c1cc2c(cc1Cl)C=C(C(=O)OCCOCCOCCOC(=O)c1ccc(-c3c4nc(c(-c5cccc(S(=O)(=O)[O-])c5F)c5ccc([nH]5)c(-c5cccc(S(=O)(=O)[O-])c5F)c5nc(c(-c6cccc(S(=O)(=O)[O-])c6F)c6ccc3[nH]6)C=C5)C=C4)cc1)[C@H](C(F)(F)F)O2
REMARK SMILES IDX 21 1 20 2 19 3 18 4 17 5 16 6 14 7 15 8 13 9 5 10 6 11 10 12
REMARK SMILES IDX 7 13 9 14 11 15 8 16 96 17 12 18 91 19 2 20 1 21 3 22 4 23
REMARK SMILES IDX 92 24 93 25 94 26 95 27 22 28 23 29 24 30 25 31 26 32 27 33
REMARK SMILES IDX 28 34 29 35 90 36 30 37 89 38 31 39 32 40 33 41 83 42 34 43
REMARK SMILES IDX 88 44 82 45 84 46 35 47 87 48 81 49 80 50 36 52 68 53 48 54
REMARK SMILES IDX 67 55 49 56 52 57 66 58 85 59 50 60 51 61 65 63 86 64 53 65
REMARK SMILES IDX 37 66 38 67 46 68 39 69 41 70 47 71 40 72 42 73 43 74 44 75
REMARK SMILES IDX 45 76 69 77 70 78 78 79 71 80 73 81 79 82 72 83 74 84 75 85
REMARK SMILES IDX 76 86 77 87 54 88 55 89 63 90 56 91 58 92 64 93 57 94 59 95
REMARK SMILES IDX 60 96 61 97 62 98
REMARK H PARENT 84 51 52 62
REMARK Flexibility Score: inf
ROOT
ATOM      1  C   UNL A   1      40.506  20.864  26.402  1.00  0.00     0.188 C 
ENDROOT
BRANCH   1   2
ATOM      2  C   UNL A   1      40.146  22.242  26.994  1.00  0.00     0.188 C 
BRANCH   2   3
ATOM      3  O   UNL A   1      38.870  22.758  26.700  1.00  0.00    -0.376 OA
BRANCH   3   4
ATOM      4  C   UNL A   1      38.171  22.393  25.523  1.00  0.00     0.202 C 
BRANCH   4   5
ATOM      5  C   UNL A   1      37.141  21.257  25.401  1.00  0.00     0.261 C 
BRANCH   5   6
ATOM      6  O   UNL A   1      35.857  21.487  25.981  1.00  0.00    -0.460 OA
BRANCH   6   7
ATOM      7  C   UNL A   1      34.812  21.433  25.127  1.00  0.00     0.338 C 
ATOM      8  O   UNL A   1      34.492  20.489  24.424  1.00  0.00    -0.246 OA
BRANCH   7   9
ATOM      9  C   UNL A   1      34.018  22.666  25.220  1.00  0.00     0.087 C 
ATOM     10  C   UNL A   1      32.832  27.582  25.495  1.00  0.00    -0.020 A 
ATOM     11  C   UNL A   1      32.426  26.387  26.150  1.00  0.00     0.053 A 
ATOM     12  C   UNL A   1      33.728  27.416  24.418  1.00  0.00     0.045 A 
ATOM     13  C   UNL A   1      32.940  25.130  25.824  1.00  0.00     0.128 A 
ATOM     14  C   UNL A   1      34.239  26.145  24.087  1.00  0.00     0.032 A 
ATOM     15  Cl  UNL A   1      34.300  28.679  23.390  1.00  0.00    -0.084 Cl
ATOM     16  C   UNL A   1      33.866  25.008  24.799  1.00  0.00     0.019 A 
ATOM     17  O   UNL A   1      32.543  24.088  26.617  1.00  0.00    -0.475 OA
ATOM     18  C   UNL A   1      34.503  23.725  24.556  1.00  0.00     0.027 C 
ATOM     19  C   UNL A   1      32.854  22.737  26.169  1.00  0.00     0.316 C 
BRANCH  10  20
ATOM     20  C   UNL A   1      32.264  28.909  26.061  1.00  0.00    -0.012 C 
ATOM     21  C   UNL A   1      31.509  28.618  27.389  1.00  0.00     0.016 C 
ATOM     22  C   UNL A   1      31.272  29.505  25.039  1.00  0.00     0.016 C 
ATOM     23  C   UNL A   1      33.265  30.029  26.415  1.00  0.00     0.016 C 
ENDBRANCH  10  20
BRANCH  19  24
ATOM     24  C   UNL A   1      31.552  22.078  25.680  1.00  0.00     0.430 C 
ATOM     25  F   UNL A   1      31.154  22.548  24.479  1.00  0.00    -0.167 F 
ATOM     26  F   UNL A   1      31.661  20.734  25.598  1.00  0.00    -0.167 F 
ATOM     27  F   UNL A   1      30.541  22.316  26.557  1.00  0.00    -0.167 F 
ENDBRANCH  19  24
ENDBRANCH   7   9
ENDBRANCH   6   7
ENDBRANCH   5   6
ENDBRANCH   4   5
ENDBRANCH   3   4
ENDBRANCH   2   3
ENDBRANCH   1   2
BRANCH   1  28
ATOM     28  O   UNL A   1      41.862  20.492  26.218  1.00  0.00    -0.376 OA
BRANCH  28  29
ATOM     29  C   UNL A   1      42.199  19.112  26.179  1.00  0.00     0.202 C 
BRANCH  29  30
ATOM     30  C   UNL A   1      43.450  18.660  25.417  1.00  0.00     0.261 C 
BRANCH  30  31
ATOM     31  O   UNL A   1      43.770  19.487  24.290  1.00  0.00    -0.460 OA
BRANCH  31  32
ATOM     32  C   UNL A   1      45.053  19.929  24.239  1.00  0.00     0.338 C 
ATOM     33  O   UNL A   1      45.994  19.402  23.671  1.00  0.00    -0.246 OA
BRANCH  32  34
ATOM     34  C   UNL A   1      45.103  21.285  24.818  1.00  0.00     0.060 A 
ATOM     35  C   UNL A   1      45.308  21.467  26.187  1.00  0.00     0.016 A 
ATOM     36  C   UNL A   1      44.940  22.386  23.966  1.00  0.00     0.016 A 
ATOM     37  C   UNL A   1      45.374  22.764  26.699  1.00  0.00     0.010 A 
ATOM     38  C   UNL A   1      44.987  23.681  24.483  1.00  0.00     0.010 A 
ATOM     39  C   UNL A   1      45.226  23.877  25.850  1.00  0.00    -0.014 A 
BRANCH  39  40
ATOM     40  C   UNL A   1      45.517  25.232  26.369  1.00  0.00     0.031 A 
ATOM     41  C   UNL A   1      46.905  25.790  26.409  1.00  0.00     0.074 A 
ATOM     42  C   UNL A   1      44.480  25.959  26.825  1.00  0.00     0.049 A 
ATOM     43  N   UNL A   1      47.284  27.004  26.710  1.00  0.00    -0.248 NA
ATOM     44  C   UNL A   1      48.009  24.878  26.077  1.00  0.00     0.031 C 
ATOM     45  C   UNL A   1      43.097  25.485  26.899  1.00  0.00     0.029 A 
ATOM     46  N   UNL A   1      44.424  27.240  27.308  1.00  0.00    -0.354 N 
ATOM     47  C   UNL A   1      48.667  27.011  26.605  1.00  0.00     0.074 A 
ATOM     48  C   UNL A   1      49.065  25.669  26.232  1.00  0.00     0.031 C 
ATOM     49  C   UNL A   1      42.324  26.469  27.384  1.00  0.00     0.029 A 
ATOM     50  C   UNL A   1      43.156  27.637  27.654  1.00  0.00     0.049 A 
ATOM     51  H   UNL A   1      45.215  27.818  27.398  1.00  0.00     0.167 HD
ATOM     52  C   UNL A   1      49.518  28.051  26.781  1.00  0.00     0.034 A 
ATOM     53  C   UNL A   1      42.705  28.818  28.118  1.00  0.00     0.034 A 
ATOM     54  C   UNL A   1      49.107  29.383  27.141  1.00  0.00     0.049 A 
ATOM     55  C   UNL A   1      43.663  29.960  28.278  1.00  0.00     0.074 A 
ATOM     56  C   UNL A   1      49.891  30.519  27.258  1.00  0.00     0.029 A 
ATOM     57  N   UNL A   1      47.812  29.759  27.458  1.00  0.00    -0.354 N 
ATOM     58  N   UNL A   1      44.946  29.995  28.011  1.00  0.00    -0.248 NA
ATOM     59  C   UNL A   1      43.113  31.230  28.771  1.00  0.00     0.031 C 
ATOM     60  C   UNL A   1      49.071  31.578  27.663  1.00  0.00     0.029 A 
ATOM     61  C   UNL A   1      47.775  31.104  27.785  1.00  0.00     0.049 A 
ATOM     62  H   UNL A   1      47.031  29.158  27.452  1.00  0.00     0.167 HD
ATOM     63  C   UNL A   1      45.355  31.294  28.285  1.00  0.00     0.074 A 
ATOM     64  C   UNL A   1      44.180  32.019  28.725  1.00  0.00     0.031 C 
ATOM     65  C   UNL A   1      46.597  31.827  28.190  1.00  0.00     0.034 A 
BRANCH  52  66
ATOM     66  C   UNL A   1      50.981  27.823  26.519  1.00  0.00     0.023 A 
ATOM     67  C   UNL A   1      51.815  27.464  27.597  1.00  0.00     0.012 A 
ATOM     68  C   UNL A   1      51.502  27.836  25.211  1.00  0.00     0.148 A 
ATOM     69  C   UNL A   1      53.150  27.129  27.378  1.00  0.00     0.002 A 
ATOM     70  C   UNL A   1      52.828  27.476  24.997  1.00  0.00     0.091 A 
ATOM     71  F   UNL A   1      50.690  28.190  24.205  1.00  0.00    -0.205 F 
ATOM     72  C   UNL A   1      53.653  27.126  26.080  1.00  0.00     0.022 A 
BRANCH  70  73
ATOM     73  S   UNL A   1      53.561  27.382  23.361  1.00  0.00     0.127 S 
ATOM     74  O   UNL A   1      54.886  26.840  23.664  1.00  0.00    -0.237 OA
ATOM     75  O   UNL A   1      52.664  26.453  22.673  1.00  0.00    -0.237 OA
ATOM     76  O   UNL A   1      53.553  28.740  22.837  1.00  0.00    -0.744 OA
ENDBRANCH  70  73
ENDBRANCH  52  66
BRANCH  53  77
ATOM     77  C   UNL A   1      41.248  28.979  28.361  1.00  0.00     0.023 A 
ATOM     78  C   UNL A   1      40.390  29.189  27.266  1.00  0.00     0.012 A 
ATOM     79  C   UNL A   1      40.704  28.812  29.649  1.00  0.00     0.148 A 
ATOM     80  C   UNL A   1      39.008  29.232  27.450  1.00  0.00     0.002 A 
ATOM     81  C   UNL A   1      39.326  28.819  29.819  1.00  0.00     0.091 A 
ATOM     82  F   UNL A   1      41.548  28.607  30.669  1.00  0.00    -0.205 F 
ATOM     83  C   UNL A   1      38.477  29.037  28.722  1.00  0.00     0.022 A 
BRANCH  81  84
ATOM     84  S   UNL A   1      38.541  28.472  31.396  1.00  0.00     0.127 S 
ATOM     85  O   UNL A   1      37.165  28.893  31.144  1.00  0.00    -0.237 OA
ATOM     86  O   UNL A   1      38.733  27.026  31.511  1.00  0.00    -0.237 OA
ATOM     87  O   UNL A   1      39.262  29.263  32.383  1.00  0.00    -0.744 OA
ENDBRANCH  81  84
ENDBRANCH  53  77
BRANCH  65  88
ATOM     88  C   UNL A   1      46.774  33.271  28.572  1.00  0.00     0.023 A 
ATOM     89  C   UNL A   1      47.059  33.597  29.912  1.00  0.00     0.012 A 
ATOM     90  C   UNL A   1      46.783  34.282  27.592  1.00  0.00     0.148 A 
ATOM     91  C   UNL A   1      47.343  34.913  30.274  1.00  0.00     0.002 A 
ATOM     92  C   UNL A   1      47.100  35.586  27.954  1.00  0.00     0.091 A 
ATOM     93  F   UNL A   1      46.500  33.944  26.325  1.00  0.00    -0.205 F 
ATOM     94  C   UNL A   1      47.375  35.904  29.294  1.00  0.00     0.022 A 
BRANCH  92  95
ATOM     95  S   UNL A   1      47.239  36.919  26.757  1.00  0.00     0.127 S 
ATOM     96  O   UNL A   1      48.688  37.105  26.687  1.00  0.00    -0.237 OA
ATOM     97  O   UNL A   1      46.643  36.322  25.562  1.00  0.00    -0.237 OA
ATOM     98  O   UNL A   1      46.497  38.042  27.313  1.00  0.00    -0.744 OA
ENDBRANCH  92  95
ENDBRANCH  65  88
ENDBRANCH  39  40
ENDBRANCH  32  34
ENDBRANCH  31  32
ENDBRANCH  30  31
ENDBRANCH  29  30
ENDBRANCH  28  29
ENDBRANCH   1  28
TORSDOF 22
ENDMDL
MODEL 3
REMARK VINA RESULT:      -9.8      5.656      9.627
REMARK SMILES CC(C)(C)c1cc2c(cc1Cl)C=C(C(=O)OCCOCCOCCOC(=O)c1ccc(-c3c4nc(c(-c5cccc(S(=O)(=O)[O-])c5F)c5ccc([nH]5)c(-c5cccc(S(=O)(=O)[O-])c5F)c5nc(c(-c6cccc(S(=O)(=O)[O-])c6F)c6ccc3[nH]6)C=C5)C=C4)cc1)[C@H](C(F)(F)F)O2
REMARK SMILES IDX 21 1 20 2 19 3 18 4 17 5 16 6 14 7 15 8 13 9 5 10 6 11 10 12
REMARK SMILES IDX 7 13 9 14 11 15 8 16 96 17 12 18 91 19 2 20 1 21 3 22 4 23
REMARK SMILES IDX 92 24 93 25 94 26 95 27 22 28 23 29 24 30 25 31 26 32 27 33
REMARK SMILES IDX 28 34 29 35 90 36 30 37 89 38 31 39 32 40 33 41 83 42 34 43
REMARK SMILES IDX 88 44 82 45 84 46 35 47 87 48 81 49 80 50 36 52 68 53 48 54
REMARK SMILES IDX 67 55 49 56 52 57 66 58 85 59 50 60 51 61 65 63 86 64 53 65
REMARK SMILES IDX 37 66 38 67 46 68 39 69 41 70 47 71 40 72 42 73 43 74 44 75
REMARK SMILES IDX 45 76 69 77 70 78 78 79 71 80 73 81 79 82 72 83 74 84 75 85
REMARK SMILES IDX 76 86 77 87 54 88 55 89 63 90 56 91 58 92 64 93 57 94 59 95
REMARK SMILES IDX 60 96 61 97 62 98
REMARK H PARENT 84 51 52 62
REMARK Flexibility Score: inf
ROOT
ATOM      1  C   UNL A   1      42.622  21.245  26.630  1.00  0.00     0.188 C 
ENDROOT
BRANCH   1   2
ATOM      2  C   UNL A   1      41.124  20.996  26.899  1.00  0.00     0.188 C 
BRANCH   2   3
ATOM      3  O   UNL A   1      40.200  21.626  26.043  1.00  0.00    -0.376 OA
BRANCH   3   4
ATOM      4  C   UNL A   1      39.266  22.576  26.525  1.00  0.00     0.202 C 
BRANCH   4   5
ATOM      5  C   UNL A   1      37.976  23.015  25.811  1.00  0.00     0.261 C 
BRANCH   5   6
ATOM      6  O   UNL A   1      37.515  22.184  24.746  1.00  0.00    -0.460 OA
BRANCH   6   7
ATOM      7  C   UNL A   1      36.353  21.534  24.974  1.00  0.00     0.338 C 
ATOM      8  O   UNL A   1      36.219  20.354  25.251  1.00  0.00    -0.246 OA
BRANCH   7   9
ATOM      9  C   UNL A   1      35.228  22.480  24.939  1.00  0.00     0.087 C 
ATOM     10  C   UNL A   1      32.257  26.326  23.518  1.00  0.00    -0.020 A 
ATOM     11  C   UNL A   1      32.751  25.806  24.745  1.00  0.00     0.053 A 
ATOM     12  C   UNL A   1      32.561  25.571  22.366  1.00  0.00     0.045 A 
ATOM     13  C   UNL A   1      33.564  24.673  24.818  1.00  0.00     0.128 A 
ATOM     14  C   UNL A   1      33.375  24.424  22.444  1.00  0.00     0.032 A 
ATOM     15  Cl  UNL A   1      32.003  25.915  20.769  1.00  0.00    -0.084 Cl
ATOM     16  C   UNL A   1      33.895  23.986  23.660  1.00  0.00     0.019 A 
ATOM     17  O   UNL A   1      34.058  24.359  26.055  1.00  0.00    -0.475 OA
ATOM     18  C   UNL A   1      34.852  22.895  23.721  1.00  0.00     0.027 C 
ATOM     19  C   UNL A   1      34.700  23.062  26.220  1.00  0.00     0.316 C 
BRANCH  10  20
ATOM     20  C   UNL A   1      31.475  27.663  23.596  1.00  0.00    -0.012 C 
ATOM     21  C   UNL A   1      32.244  28.753  22.796  1.00  0.00     0.016 C 
ATOM     22  C   UNL A   1      31.377  28.100  25.074  1.00  0.00     0.016 C 
ATOM     23  C   UNL A   1      30.042  27.695  23.027  1.00  0.00     0.016 C 
ENDBRANCH  10  20
BRANCH  19  24
ATOM     24  C   UNL A   1      33.755  22.154  27.027  1.00  0.00     0.430 C 
ATOM     25  F   UNL A   1      34.420  21.235  27.759  1.00  0.00    -0.167 F 
ATOM     26  F   UNL A   1      32.955  22.860  27.855  1.00  0.00    -0.167 F 
ATOM     27  F   UNL A   1      32.922  21.475  26.194  1.00  0.00    -0.167 F 
ENDBRANCH  19  24
ENDBRANCH   7   9
ENDBRANCH   6   7
ENDBRANCH   5   6
ENDBRANCH   4   5
ENDBRANCH   3   4
ENDBRANCH   2   3
ENDBRANCH   1   2
BRANCH   1  28
ATOM     28  O   UNL A   1      43.201  20.877  25.388  1.00  0.00    -0.376 OA
BRANCH  28  29
ATOM     29  C   UNL A   1      43.900  21.859  24.636  1.00  0.00     0.202 C 
BRANCH  29  30
ATOM     30  C   UNL A   1      43.437  23.319  24.681  1.00  0.00     0.261 C 
BRANCH  30  31
ATOM     31  O   UNL A   1      44.514  24.265  24.735  1.00  0.00    -0.460 OA
BRANCH  31  32
ATOM     32  C   UNL A   1      45.203  24.295  25.905  1.00  0.00     0.338 C 
ATOM     33  O   UNL A   1      46.347  23.922  26.097  1.00  0.00    -0.246 OA
BRANCH  32  34
ATOM     34  C   UNL A   1      44.414  25.054  26.893  1.00  0.00     0.060 A 
ATOM     35  C   UNL A   1      43.543  24.398  27.765  1.00  0.00     0.016 A 
ATOM     36  C   UNL A   1      44.554  26.448  26.937  1.00  0.00     0.016 A 
ATOM     37  C   UNL A   1      42.828  25.144  28.703  1.00  0.00     0.010 A 
ATOM     38  C   UNL A   1      43.825  27.194  27.864  1.00  0.00     0.010 A 
ATOM     39  C   UNL A   1      42.974  26.542  28.766  1.00  0.00    -0.014 A 
BRANCH  39  40
ATOM     40  C   UNL A   1      42.383  27.285  29.902  1.00  0.00     0.031 A 
ATOM     41  C   UNL A   1      43.060  27.376  31.234  1.00  0.00     0.074 A 
ATOM     42  C   UNL A   1      41.191  27.877  29.706  1.00  0.00     0.049 A 
ATOM     43  N   UNL A   1      42.722  28.101  32.269  1.00  0.00    -0.248 NA
ATOM     44  C   UNL A   1      44.259  26.552  31.441  1.00  0.00     0.031 C 
ATOM     45  C   UNL A   1      40.410  27.791  28.470  1.00  0.00     0.029 A 
ATOM     46  N   UNL A   1      40.430  28.664  30.531  1.00  0.00    -0.354 N 
ATOM     47  C   UNL A   1      43.662  27.827  33.251  1.00  0.00     0.074 A 
ATOM     48  C   UNL A   1      44.576  26.849  32.695  1.00  0.00     0.031 C 
ATOM     49  C   UNL A   1      39.287  28.511  28.612  1.00  0.00     0.029 A 
ATOM     50  C   UNL A   1      39.270  29.106  29.945  1.00  0.00     0.049 A 
ATOM     51  H   UNL A   1      40.691  28.889  31.452  1.00  0.00     0.167 HD
ATOM     52  C   UNL A   1      43.763  28.365  34.491  1.00  0.00     0.034 A 
ATOM     53  C   UNL A   1      38.305  29.918  30.417  1.00  0.00     0.034 A 
ATOM     54  C   UNL A   1      42.854  29.345  35.026  1.00  0.00     0.049 A 
ATOM     55  C   UNL A   1      38.454  30.519  31.782  1.00  0.00     0.074 A 
ATOM     56  C   UNL A   1      42.927  30.007  36.240  1.00  0.00     0.029 A 
ATOM     57  N   UNL A   1      41.703  29.791  34.397  1.00  0.00    -0.354 N 
ATOM     58  N   UNL A   1      39.440  30.381  32.635  1.00  0.00    -0.248 NA
ATOM     59  C   UNL A   1      37.380  31.412  32.240  1.00  0.00     0.031 C 
ATOM     60  C   UNL A   1      41.809  30.842  36.352  1.00  0.00     0.029 A 
ATOM     61  C   UNL A   1      41.049  30.709  35.202  1.00  0.00     0.049 A 
ATOM     62  H   UNL A   1      41.396  29.499  33.508  1.00  0.00     0.167 HD
ATOM     63  C   UNL A   1      39.116  31.181  33.723  1.00  0.00     0.074 A 
ATOM     64  C   UNL A   1      37.850  31.814  33.416  1.00  0.00     0.031 C 
ATOM     65  C   UNL A   1      39.807  31.360  34.875  1.00  0.00     0.034 A 
BRANCH  52  66
ATOM     66  C   UNL A   1      44.935  27.966  35.344  1.00  0.00     0.023 A 
ATOM     67  C   UNL A   1      46.101  28.758  35.309  1.00  0.00     0.012 A 
ATOM     68  C   UNL A   1      44.844  26.904  36.264  1.00  0.00     0.148 A 
ATOM     69  C   UNL A   1      47.164  28.492  36.170  1.00  0.00     0.002 A 
ATOM     70  C   UNL A   1      45.898  26.661  37.138  1.00  0.00     0.091 A 
ATOM     71  F   UNL A   1      43.729  26.161  36.271  1.00  0.00    -0.205 F 
ATOM     72  C   UNL A   1      47.058  27.452  37.089  1.00  0.00     0.022 A 
BRANCH  70  73
ATOM     73  S   UNL A   1      45.844  25.384  38.400  1.00  0.00     0.127 S 
ATOM     74  O   UNL A   1      47.049  24.614  38.088  1.00  0.00    -0.237 OA
ATOM     75  O   UNL A   1      45.923  26.166  39.634  1.00  0.00    -0.237 OA
ATOM     76  O   UNL A   1      44.588  24.676  38.203  1.00  0.00    -0.744 OA
ENDBRANCH  70  73
ENDBRANCH  52  66
BRANCH  53  77
ATOM     77  C   UNL A   1      37.170  30.270  29.527  1.00  0.00     0.023 A 
ATOM     78  C   UNL A   1      36.346  29.243  29.028  1.00  0.00     0.012 A 
ATOM     79  C   UNL A   1      36.838  31.614  29.270  1.00  0.00     0.148 A 
ATOM     80  C   UNL A   1      35.207  29.551  28.283  1.00  0.00     0.002 A 
ATOM     81  C   UNL A   1      35.683  31.913  28.559  1.00  0.00     0.091 A 
ATOM     82  F   UNL A   1      37.639  32.568  29.764  1.00  0.00    -0.205 F 
ATOM     83  C   UNL A   1      34.872  30.883  28.058  1.00  0.00     0.022 A 
BRANCH  81  84
ATOM     84  S   UNL A   1      35.108  33.596  28.306  1.00  0.00     0.127 S 
ATOM     85  O   UNL A   1      35.973  34.047  27.220  1.00  0.00    -0.237 OA
ATOM     86  O   UNL A   1      33.710  33.378  27.933  1.00  0.00    -0.237 OA
ATOM     87  O   UNL A   1      35.298  34.278  29.579  1.00  0.00    -0.744 OA
ENDBRANCH  81  84
ENDBRANCH  53  77
BRANCH  65  88
ATOM     88  C   UNL A   1      39.217  32.276  35.913  1.00  0.00     0.023 A 
ATOM     89  C   UNL A   1      38.244  31.774  36.799  1.00  0.00     0.012 A 
ATOM     90  C   UNL A   1      39.712  33.582  36.089  1.00  0.00     0.148 A 
ATOM     91  C   UNL A   1      37.766  32.564  37.843  1.00  0.00     0.002 A 
ATOM     92  C   UNL A   1      39.256  34.352  37.152  1.00  0.00     0.091 A 
ATOM     93  F   UNL A   1      40.632  34.037  35.226  1.00  0.00    -0.205 F 
ATOM     94  C   UNL A   1      38.280  33.846  38.027  1.00  0.00     0.022 A 
BRANCH  92  95
ATOM     95  S   UNL A   1      39.907  35.986  37.518  1.00  0.00     0.127 S 
ATOM     96  O   UNL A   1      39.056  36.403  38.631  1.00  0.00    -0.237 OA
ATOM     97  O   UNL A   1      41.291  35.690  37.885  1.00  0.00    -0.237 OA
ATOM     98  O   UNL A   1      39.753  36.766  36.297  1.00  0.00    -0.744 OA
ENDBRANCH  92  95
ENDBRANCH  65  88
ENDBRANCH  39  40
ENDBRANCH  32  34
ENDBRANCH  31  32
ENDBRANCH  30  31
ENDBRANCH  29  30
ENDBRANCH  28  29
ENDBRANCH   1  28
TORSDOF 22
ENDMDL
