MODEL 1
REMARK VINA RESULT:     -10.2      0.000      0.000
REMARK SMILES O=C(OCCOCCOCCOC(=O)C1CCN(C(=O)CSCc2ccccc2)CC1)c1ccc(-c2c3nc(c(-c4cccc(S(=O)(=O)[O-])c4F)c4ccc([nH]4)c(-c4cccc(S(=O)(=O)[O-])c4F)c4nc(c(-c5cccc(S(=O)(=O)[O-])c5F)c5ccc2[nH]5)C=C4)C=C3)cc1
REMARK SMILES IDX 8 1 7 2 6 3 5 4 4 5 3 6 2 7 1 8 32 9 33 10 94 11 34 12 93 13
REMARK SMILES IDX 35 14 36 15 37 16 87 17 38 18 92 19 86 20 88 21 39 22 91 23
REMARK SMILES IDX 85 24 84 25 40 27 72 28 52 29 71 30 53 31 56 32 70 33 89 34
REMARK SMILES IDX 54 35 55 36 69 38 90 39 57 40 41 41 42 42 50 43 43 44 45 45
REMARK SMILES IDX 51 46 44 47 46 48 47 49 48 50 49 51 73 52 74 53 82 54 75 55
REMARK SMILES IDX 77 56 83 57 76 58 78 59 79 60 80 61 81 62 58 63 59 64 67 65
REMARK SMILES IDX 60 66 62 67 68 68 61 69 63 70 64 71 65 72 66 73 9 74 10 75
REMARK SMILES IDX 11 76 12 77 13 78 14 79 15 80 16 81 31 82 17 83 30 84 18 85
REMARK SMILES IDX 19 86 20 87 21 88 22 89 23 90 24 91 25 92 29 93 26 94 28 95
REMARK SMILES IDX 27 96
REMARK H PARENT 88 26 56 37
REMARK Flexibility Score: inf
ROOT
ATOM      1  C   UNL A   1      39.956  21.917  26.621  1.00  0.00     0.188 C 
ENDROOT
BRANCH   1   2
ATOM      2  C   UNL A   1      40.889  21.043  27.460  1.00  0.00     0.188 C 
BRANCH   2   3
ATOM      3  O   UNL A   1      41.891  20.379  26.687  1.00  0.00    -0.376 OA
BRANCH   3   4
ATOM      4  C   UNL A   1      42.397  21.135  25.583  1.00  0.00     0.202 C 
BRANCH   4   5
ATOM      5  C   UNL A   1      43.929  21.252  25.487  1.00  0.00     0.261 C 
BRANCH   5   6
ATOM      6  O   UNL A   1      44.442  22.553  25.821  1.00  0.00    -0.460 OA
BRANCH   6   7
ATOM      7  C   UNL A   1      43.845  23.763  25.662  1.00  0.00     0.338 C 
ATOM      8  O   UNL A   1      43.610  24.152  24.519  1.00  0.00    -0.246 OA
BRANCH   7   9
ATOM      9  C   UNL A   1      43.470  24.656  26.802  1.00  0.00     0.060 A 
ATOM     10  C   UNL A   1      42.766  24.244  27.932  1.00  0.00     0.016 A 
ATOM     11  C   UNL A   1      43.915  25.987  26.764  1.00  0.00     0.016 A 
ATOM     12  C   UNL A   1      42.401  25.124  28.935  1.00  0.00     0.010 A 
ATOM     13  C   UNL A   1      43.612  26.873  27.806  1.00  0.00     0.010 A 
ATOM     14  C   UNL A   1      42.817  26.446  28.878  1.00  0.00    -0.014 A 
BRANCH  14  15
ATOM     15  C   UNL A   1      42.277  27.384  29.879  1.00  0.00     0.031 A 
ATOM     16  C   UNL A   1      42.949  27.441  31.212  1.00  0.00     0.074 A 
ATOM     17  C   UNL A   1      41.297  28.247  29.552  1.00  0.00     0.049 A 
ATOM     18  N   UNL A   1      42.649  28.171  32.247  1.00  0.00    -0.248 NA
ATOM     19  C   UNL A   1      44.147  26.597  31.391  1.00  0.00     0.031 C 
ATOM     20  C   UNL A   1      40.720  28.391  28.217  1.00  0.00     0.029 A 
ATOM     21  N   UNL A   1      40.613  29.170  30.296  1.00  0.00    -0.354 N 
ATOM     22  C   UNL A   1      43.596  27.855  33.210  1.00  0.00     0.074 A 
ATOM     23  C   UNL A   1      44.482  26.866  32.644  1.00  0.00     0.031 C 
ATOM     24  C   UNL A   1      39.740  29.307  28.242  1.00  0.00     0.029 A 
ATOM     25  C   UNL A   1      39.584  29.770  29.606  1.00  0.00     0.049 A 
ATOM     26  H   UNL A   1      40.836  29.383  31.230  1.00  0.00     0.167 HD
ATOM     27  C   UNL A   1      43.707  28.360  34.457  1.00  0.00     0.034 A 
ATOM     28  C   UNL A   1      38.602  30.577  30.042  1.00  0.00     0.034 A 
ATOM     29  C   UNL A   1      42.801  29.338  34.986  1.00  0.00     0.049 A 
ATOM     30  C   UNL A   1      38.661  31.000  31.478  1.00  0.00     0.074 A 
ATOM     31  C   UNL A   1      42.787  29.908  36.243  1.00  0.00     0.029 A 
ATOM     32  N   UNL A   1      41.728  29.874  34.286  1.00  0.00    -0.354 N 
ATOM     33  N   UNL A   1      39.570  30.707  32.377  1.00  0.00    -0.248 NA
ATOM     34  C   UNL A   1      37.608  31.907  31.944  1.00  0.00     0.031 C 
ATOM     35  C   UNL A   1      41.674  30.752  36.318  1.00  0.00     0.029 A 
ATOM     36  C   UNL A   1      41.028  30.749  35.090  1.00  0.00     0.049 A 
ATOM     37  H   UNL A   1      41.500  29.660  33.351  1.00  0.00     0.167 HD
ATOM     38  C   UNL A   1      39.234  31.440  33.501  1.00  0.00     0.074 A 
ATOM     39  C   UNL A   1      38.038  32.192  33.165  1.00  0.00     0.031 C 
ATOM     40  C   UNL A   1      39.860  31.498  34.700  1.00  0.00     0.034 A 
BRANCH  27  41
ATOM     41  C   UNL A   1      44.806  27.818  35.323  1.00  0.00     0.023 A 
ATOM     42  C   UNL A   1      46.044  28.486  35.413  1.00  0.00     0.012 A 
ATOM     43  C   UNL A   1      44.606  26.627  36.046  1.00  0.00     0.148 A 
ATOM     44  C   UNL A   1      47.077  27.959  36.189  1.00  0.00     0.002 A 
ATOM     45  C   UNL A   1      45.622  26.133  36.851  1.00  0.00     0.091 A 
ATOM     46  F   UNL A   1      43.433  25.992  35.915  1.00  0.00    -0.205 F 
ATOM     47  C   UNL A   1      46.864  26.790  36.914  1.00  0.00     0.022 A 
BRANCH  45  48
ATOM     48  S   UNL A   1      45.424  24.668  37.868  1.00  0.00     0.127 S 
ATOM     49  O   UNL A   1      44.494  25.145  38.893  1.00  0.00    -0.237 OA
ATOM     50  O   UNL A   1      44.850  23.718  36.916  1.00  0.00    -0.237 OA
ATOM     51  O   UNL A   1      46.754  24.327  38.351  1.00  0.00    -0.744 OA
ENDBRANCH  45  48
ENDBRANCH  27  41
BRANCH  28  52
ATOM     52  C   UNL A   1      37.512  31.051  29.146  1.00  0.00     0.023 A 
ATOM     53  C   UNL A   1      37.372  32.430  28.897  1.00  0.00     0.012 A 
ATOM     54  C   UNL A   1      36.570  30.154  28.602  1.00  0.00     0.148 A 
ATOM     55  C   UNL A   1      36.290  32.913  28.161  1.00  0.00     0.002 A 
ATOM     56  C   UNL A   1      35.493  30.645  27.871  1.00  0.00     0.091 A 
ATOM     57  F   UNL A   1      36.746  28.844  28.812  1.00  0.00    -0.205 F 
ATOM     58  C   UNL A   1      35.349  32.024  27.653  1.00  0.00     0.022 A 
BRANCH  56  59
ATOM     59  S   UNL A   1      34.215  29.590  27.177  1.00  0.00     0.127 S 
ATOM     60  O   UNL A   1      34.979  28.762  26.243  1.00  0.00    -0.237 OA
ATOM     61  O   UNL A   1      33.745  28.894  28.376  1.00  0.00    -0.237 OA
ATOM     62  O   UNL A   1      33.252  30.485  26.564  1.00  0.00    -0.744 OA
ENDBRANCH  56  59
ENDBRANCH  28  52
BRANCH  40  63
ATOM     63  C   UNL A   1      39.287  32.444  35.712  1.00  0.00     0.023 A 
ATOM     64  C   UNL A   1      38.270  32.015  36.586  1.00  0.00     0.012 A 
ATOM     65  C   UNL A   1      39.817  33.741  35.835  1.00  0.00     0.148 A 
ATOM     66  C   UNL A   1      37.764  32.882  37.550  1.00  0.00     0.002 A 
ATOM     67  C   UNL A   1      39.354  34.576  36.838  1.00  0.00     0.091 A 
ATOM     68  F   UNL A   1      40.768  34.129  34.970  1.00  0.00    -0.205 F 
ATOM     69  C   UNL A   1      38.316  34.155  37.686  1.00  0.00     0.022 A 
BRANCH  67  70
ATOM     70  S   UNL A   1      40.088  36.181  37.160  1.00  0.00     0.127 S 
ATOM     71  O   UNL A   1      39.865  36.870  35.890  1.00  0.00    -0.237 OA
ATOM     72  O   UNL A   1      39.275  36.671  38.273  1.00  0.00    -0.237 OA
ATOM     73  O   UNL A   1      41.482  35.927  37.494  1.00  0.00    -0.744 OA
ENDBRANCH  67  70
ENDBRANCH  40  63
ENDBRANCH  14  15
ENDBRANCH   7   9
ENDBRANCH   6   7
ENDBRANCH   5   6
ENDBRANCH   4   5
ENDBRANCH   3   4
ENDBRANCH   2   3
ENDBRANCH   1   2
BRANCH   1  74
ATOM     74  O   UNL A   1      38.961  21.279  25.826  1.00  0.00    -0.376 OA
BRANCH  74  75
ATOM     75  C   UNL A   1      37.798  22.029  25.496  1.00  0.00     0.202 C 
BRANCH  75  76
ATOM     76  C   UNL A   1      36.420  21.333  25.461  1.00  0.00     0.261 C 
BRANCH  76  77
ATOM     77  O   UNL A   1      35.696  21.473  24.229  1.00  0.00    -0.463 OA
BRANCH  77  78
ATOM     78  C   UNL A   1      35.427  22.759  23.878  1.00  0.00     0.309 C 
ATOM     79  O   UNL A   1      35.885  23.301  22.879  1.00  0.00    -0.252 OA
BRANCH  78  80
ATOM     80  C   UNL A   1      34.390  23.395  24.801  1.00  0.00     0.103 C 
ATOM     81  C   UNL A   1      33.003  22.867  24.417  1.00  0.00     0.037 C 
ATOM     82  C   UNL A   1      34.432  24.925  24.843  1.00  0.00     0.037 C 
ATOM     83  C   UNL A   1      32.533  23.537  23.130  1.00  0.00     0.120 C 
ATOM     84  C   UNL A   1      33.720  25.607  23.670  1.00  0.00     0.120 C 
ATOM     85  N   UNL A   1      32.443  24.958  23.392  1.00  0.00    -0.342 N 
ATOM     86  C   UNL A   1      31.174  25.496  23.581  1.00  0.00     0.232 C 
ATOM     87  O   UNL A   1      30.175  24.772  23.486  1.00  0.00    -0.274 OA
BRANCH  86  88
ATOM     88  C   UNL A   1      31.042  26.950  23.986  1.00  0.00     0.169 C 
BRANCH  88  89
ATOM     89  S   UNL A   1      30.634  27.991  22.531  1.00  0.00    -0.147 SA
BRANCH  89  90
ATOM     90  C   UNL A   1      29.032  28.671  23.047  1.00  0.00     0.105 C 
BRANCH  90  91
ATOM     91  C   UNL A   1      28.719  30.087  22.630  1.00  0.00    -0.038 A 
ATOM     92  C   UNL A   1      28.350  30.345  21.299  1.00  0.00     0.004 A 
ATOM     93  C   UNL A   1      28.777  31.162  23.528  1.00  0.00     0.004 A 
ATOM     94  C   UNL A   1      28.087  31.646  20.868  1.00  0.00     0.000 A 
ATOM     95  C   UNL A   1      28.525  32.465  23.092  1.00  0.00     0.000 A 
ATOM     96  C   UNL A   1      28.181  32.707  21.764  1.00  0.00     0.000 A 
ENDBRANCH  90  91
ENDBRANCH  89  90
ENDBRANCH  88  89
ENDBRANCH  86  88
ENDBRANCH  78  80
ENDBRANCH  77  78
ENDBRANCH  76  77
ENDBRANCH  75  76
ENDBRANCH  74  75
ENDBRANCH   1  74
TORSDOF 24
ENDMDL
MODEL 2
REMARK VINA RESULT:     -10.1      5.596      7.852
REMARK SMILES O=C(OCCOCCOCCOC(=O)C1CCN(C(=O)CSCc2ccccc2)CC1)c1ccc(-c2c3nc(c(-c4cccc(S(=O)(=O)[O-])c4F)c4ccc([nH]4)c(-c4cccc(S(=O)(=O)[O-])c4F)c4nc(c(-c5cccc(S(=O)(=O)[O-])c5F)c5ccc2[nH]5)C=C4)C=C3)cc1
REMARK SMILES IDX 8 1 7 2 6 3 5 4 4 5 3 6 2 7 1 8 32 9 33 10 94 11 34 12 93 13
REMARK SMILES IDX 35 14 36 15 37 16 87 17 38 18 92 19 86 20 88 21 39 22 91 23
REMARK SMILES IDX 85 24 84 25 40 27 72 28 52 29 71 30 53 31 56 32 70 33 89 34
REMARK SMILES IDX 54 35 55 36 69 38 90 39 57 40 41 41 42 42 50 43 43 44 45 45
REMARK SMILES IDX 51 46 44 47 46 48 47 49 48 50 49 51 73 52 74 53 82 54 75 55
REMARK SMILES IDX 77 56 83 57 76 58 78 59 79 60 80 61 81 62 58 63 59 64 67 65
REMARK SMILES IDX 60 66 62 67 68 68 61 69 63 70 64 71 65 72 66 73 9 74 10 75
REMARK SMILES IDX 11 76 12 77 13 78 14 79 15 80 16 81 31 82 17 83 30 84 18 85
REMARK SMILES IDX 19 86 20 87 21 88 22 89 23 90 24 91 25 92 29 93 26 94 28 95
REMARK SMILES IDX 27 96
REMARK H PARENT 88 26 56 37
REMARK Flexibility Score: inf
ROOT
ATOM      1  C   UNL A   1      40.561  21.522  26.840  1.00  0.00     0.188 C 
ENDROOT
BRANCH   1   2
ATOM      2  C   UNL A   1      40.809  20.013  26.834  1.00  0.00     0.188 C 
BRANCH   2   3
ATOM      3  O   UNL A   1      41.840  19.605  27.734  1.00  0.00    -0.376 OA
BRANCH   3   4
ATOM      4  C   UNL A   1      42.651  18.522  27.269  1.00  0.00     0.202 C 
BRANCH   4   5
ATOM      5  C   UNL A   1      42.717  18.331  25.742  1.00  0.00     0.261 C 
BRANCH   5   6
ATOM      6  O   UNL A   1      44.037  18.461  25.189  1.00  0.00    -0.460 OA
BRANCH   6   7
ATOM      7  C   UNL A   1      44.531  19.454  24.405  1.00  0.00     0.338 C 
ATOM      8  O   UNL A   1      45.006  19.152  23.312  1.00  0.00    -0.246 OA
BRANCH   7   9
ATOM      9  C   UNL A   1      44.542  20.895  24.805  1.00  0.00     0.060 A 
ATOM     10  C   UNL A   1      44.604  21.964  23.913  1.00  0.00     0.016 A 
ATOM     11  C   UNL A   1      44.416  21.196  26.171  1.00  0.00     0.016 A 
ATOM     12  C   UNL A   1      44.662  23.279  24.341  1.00  0.00     0.010 A 
ATOM     13  C   UNL A   1      44.405  22.525  26.613  1.00  0.00     0.010 A 
ATOM     14  C   UNL A   1      44.569  23.570  25.694  1.00  0.00    -0.014 A 
BRANCH  14  15
ATOM     15  C   UNL A   1      44.793  24.963  26.118  1.00  0.00     0.031 A 
ATOM     16  C   UNL A   1      46.184  25.502  26.029  1.00  0.00     0.074 A 
ATOM     17  C   UNL A   1      43.756  25.755  26.449  1.00  0.00     0.049 A 
ATOM     18  N   UNL A   1      46.625  26.682  26.354  1.00  0.00    -0.248 NA
ATOM     19  C   UNL A   1      47.209  24.609  25.455  1.00  0.00     0.031 C 
ATOM     20  C   UNL A   1      42.349  25.366  26.375  1.00  0.00     0.029 A 
ATOM     21  N   UNL A   1      43.706  27.044  26.905  1.00  0.00    -0.354 N 
ATOM     22  C   UNL A   1      47.979  26.668  26.057  1.00  0.00     0.074 A 
ATOM     23  C   UNL A   1      48.295  25.362  25.527  1.00  0.00     0.031 C 
ATOM     24  C   UNL A   1      41.576  26.370  26.814  1.00  0.00     0.029 A 
ATOM     25  C   UNL A   1      42.437  27.450  27.252  1.00  0.00     0.049 A 
ATOM     26  H   UNL A   1      44.499  27.624  26.976  1.00  0.00     0.167 HD
ATOM     27  C   UNL A   1      48.871  27.668  26.213  1.00  0.00     0.034 A 
ATOM     28  C   UNL A   1      42.026  28.559  27.890  1.00  0.00     0.034 A 
ATOM     29  C   UNL A   1      48.518  28.950  26.751  1.00  0.00     0.049 A 
ATOM     30  C   UNL A   1      43.067  29.592  28.194  1.00  0.00     0.074 A 
ATOM     31  C   UNL A   1      49.334  30.039  26.988  1.00  0.00     0.029 A 
ATOM     32  N   UNL A   1      47.239  29.306  27.158  1.00  0.00    -0.354 N 
ATOM     33  N   UNL A   1      44.344  29.574  27.895  1.00  0.00    -0.248 NA
ATOM     34  C   UNL A   1      42.611  30.815  28.860  1.00  0.00     0.031 C 
ATOM     35  C   UNL A   1      48.555  31.035  27.585  1.00  0.00     0.029 A 
ATOM     36  C   UNL A   1      47.244  30.587  27.670  1.00  0.00     0.049 A 
ATOM     37  H   UNL A   1      46.444  28.727  27.092  1.00  0.00     0.167 HD
ATOM     38  C   UNL A   1      44.836  30.807  28.281  1.00  0.00     0.074 A 
ATOM     39  C   UNL A   1      43.716  31.547  28.835  1.00  0.00     0.031 C 
ATOM     40  C   UNL A   1      46.096  31.293  28.181  1.00  0.00     0.034 A 
BRANCH  27  41
ATOM     41  C   UNL A   1      50.298  27.381  25.848  1.00  0.00     0.023 A 
ATOM     42  C   UNL A   1      51.233  27.017  26.839  1.00  0.00     0.012 A 
ATOM     43  C   UNL A   1      50.713  27.482  24.507  1.00  0.00     0.148 A 
ATOM     44  C   UNL A   1      52.567  26.788  26.503  1.00  0.00     0.002 A 
ATOM     45  C   UNL A   1      52.031  27.208  24.174  1.00  0.00     0.091 A 
ATOM     46  F   UNL A   1      49.814  27.864  23.590  1.00  0.00    -0.205 F 
ATOM     47  C   UNL A   1      52.964  26.874  25.171  1.00  0.00     0.022 A 
BRANCH  45  48
ATOM     48  S   UNL A   1      52.625  27.234  22.480  1.00  0.00     0.127 S 
ATOM     49  O   UNL A   1      51.436  26.802  21.745  1.00  0.00    -0.237 OA
ATOM     50  O   UNL A   1      52.973  28.644  22.306  1.00  0.00    -0.237 OA
ATOM     51  O   UNL A   1      53.750  26.312  22.431  1.00  0.00    -0.744 OA
ENDBRANCH  45  48
ENDBRANCH  27  41
BRANCH  28  52
ATOM     52  C   UNL A   1      40.601  28.772  28.265  1.00  0.00     0.023 A 
ATOM     53  C   UNL A   1      39.694  29.242  27.296  1.00  0.00     0.012 A 
ATOM     54  C   UNL A   1      40.157  28.584  29.590  1.00  0.00     0.148 A 
ATOM     55  C   UNL A   1      38.383  29.564  27.647  1.00  0.00     0.002 A 
ATOM     56  C   UNL A   1      38.848  28.911  29.932  1.00  0.00     0.091 A 
ATOM     57  F   UNL A   1      41.023  28.093  30.486  1.00  0.00    -0.205 F 
ATOM     58  C   UNL A   1      37.962  29.405  28.963  1.00  0.00     0.022 A 
BRANCH  56  59
ATOM     59  S   UNL A   1      38.202  28.754  31.601  1.00  0.00     0.127 S 
ATOM     60  O   UNL A   1      36.803  29.148  31.422  1.00  0.00    -0.237 OA
ATOM     61  O   UNL A   1      38.413  27.328  31.850  1.00  0.00    -0.237 OA
ATOM     62  O   UNL A   1      38.996  29.650  32.419  1.00  0.00    -0.744 OA
ENDBRANCH  56  59
ENDBRANCH  28  52
BRANCH  40  63
ATOM     63  C   UNL A   1      46.310  32.706  28.634  1.00  0.00     0.023 A 
ATOM     64  C   UNL A   1      46.633  32.978  29.976  1.00  0.00     0.012 A 
ATOM     65  C   UNL A   1      46.256  33.755  27.697  1.00  0.00     0.148 A 
ATOM     66  C   UNL A   1      46.868  34.286  30.388  1.00  0.00     0.002 A 
ATOM     67  C   UNL A   1      46.554  35.045  28.101  1.00  0.00     0.091 A 
ATOM     68  F   UNL A   1      45.920  33.467  26.430  1.00  0.00    -0.205 F 
ATOM     69  C   UNL A   1      46.844  35.316  29.449  1.00  0.00     0.022 A 
BRANCH  67  70
ATOM     70  S   UNL A   1      46.664  36.408  26.940  1.00  0.00     0.127 S 
ATOM     71  O   UNL A   1      45.279  36.526  26.489  1.00  0.00    -0.237 OA
ATOM     72  O   UNL A   1      47.124  37.503  27.795  1.00  0.00    -0.237 OA
ATOM     73  O   UNL A   1      47.618  35.994  25.921  1.00  0.00    -0.744 OA
ENDBRANCH  67  70
ENDBRANCH  40  63
ENDBRANCH  14  15
ENDBRANCH   7   9
ENDBRANCH   6   7
ENDBRANCH   5   6
ENDBRANCH   4   5
ENDBRANCH   3   4
ENDBRANCH   2   3
ENDBRANCH   1   2
BRANCH   1  74
ATOM     74  O   UNL A   1      39.220  21.989  26.735  1.00  0.00    -0.376 OA
BRANCH  74  75
ATOM     75  C   UNL A   1      38.589  21.909  25.462  1.00  0.00     0.202 C 
BRANCH  75  76
ATOM     76  C   UNL A   1      37.432  20.912  25.239  1.00  0.00     0.261 C 
BRANCH  76  77
ATOM     77  O   UNL A   1      36.242  21.475  24.667  1.00  0.00    -0.463 OA
BRANCH  77  78
ATOM     78  C   UNL A   1      35.103  21.203  25.358  1.00  0.00     0.309 C 
ATOM     79  O   UNL A   1      34.467  20.163  25.239  1.00  0.00    -0.252 OA
BRANCH  78  80
ATOM     80  C   UNL A   1      34.790  22.288  26.386  1.00  0.00     0.103 C 
ATOM     81  C   UNL A   1      33.363  22.075  26.904  1.00  0.00     0.037 C 
ATOM     82  C   UNL A   1      35.014  23.718  25.888  1.00  0.00     0.037 C 
ATOM     83  C   UNL A   1      32.358  22.531  25.852  1.00  0.00     0.120 C 
ATOM     84  C   UNL A   1      33.868  24.276  25.038  1.00  0.00     0.120 C 
ATOM     85  N   UNL A   1      32.576  23.945  25.631  1.00  0.00    -0.342 N 
ATOM     86  C   UNL A   1      31.669  24.831  26.203  1.00  0.00     0.232 C 
ATOM     87  O   UNL A   1      30.699  24.399  26.839  1.00  0.00    -0.274 OA
BRANCH  86  88
ATOM     88  C   UNL A   1      31.931  26.321  26.107  1.00  0.00     0.169 C 
BRANCH  88  89
ATOM     89  S   UNL A   1      31.855  26.880  24.362  1.00  0.00    -0.147 SA
BRANCH  89  90
ATOM     90  C   UNL A   1      30.060  26.879  24.089  1.00  0.00     0.105 C 
BRANCH  90  91
ATOM     91  C   UNL A   1      29.481  28.036  23.315  1.00  0.00    -0.038 A 
ATOM     92  C   UNL A   1      28.095  28.262  23.350  1.00  0.00     0.004 A 
ATOM     93  C   UNL A   1      30.280  28.907  22.560  1.00  0.00     0.004 A 
ATOM     94  C   UNL A   1      27.519  29.301  22.619  1.00  0.00     0.000 A 
ATOM     95  C   UNL A   1      29.701  29.939  21.819  1.00  0.00     0.000 A 
ATOM     96  C   UNL A   1      28.323  30.137  21.848  1.00  0.00     0.000 A 
ENDBRANCH  90  91
ENDBRANCH  89  90
ENDBRANCH  88  89
ENDBRANCH  86  88
ENDBRANCH  78  80
ENDBRANCH  77  78
ENDBRANCH  76  77
ENDBRANCH  75  76
ENDBRANCH  74  75
ENDBRANCH   1  74
TORSDOF 24
ENDMDL
MODEL 3
REMARK VINA RESULT:      -9.3      4.998      8.195
REMARK SMILES O=C(OCCOCCOCCOC(=O)C1CCN(C(=O)CSCc2ccccc2)CC1)c1ccc(-c2c3nc(c(-c4cccc(S(=O)(=O)[O-])c4F)c4ccc([nH]4)c(-c4cccc(S(=O)(=O)[O-])c4F)c4nc(c(-c5cccc(S(=O)(=O)[O-])c5F)c5ccc2[nH]5)C=C4)C=C3)cc1
REMARK SMILES IDX 8 1 7 2 6 3 5 4 4 5 3 6 2 7 1 8 32 9 33 10 94 11 34 12 93 13
REMARK SMILES IDX 35 14 36 15 37 16 87 17 38 18 92 19 86 20 88 21 39 22 91 23
REMARK SMILES IDX 85 24 84 25 40 27 72 28 52 29 71 30 53 31 56 32 70 33 89 34
REMARK SMILES IDX 54 35 55 36 69 38 90 39 57 40 41 41 42 42 50 43 43 44 45 45
REMARK SMILES IDX 51 46 44 47 46 48 47 49 48 50 49 51 73 52 74 53 82 54 75 55
REMARK SMILES IDX 77 56 83 57 76 58 78 59 79 60 80 61 81 62 58 63 59 64 67 65
REMARK SMILES IDX 60 66 62 67 68 68 61 69 63 70 64 71 65 72 66 73 9 74 10 75
REMARK SMILES IDX 11 76 12 77 13 78 14 79 15 80 16 81 31 82 17 83 30 84 18 85
REMARK SMILES IDX 19 86 20 87 21 88 22 89 23 90 24 91 25 92 29 93 26 94 28 95
REMARK SMILES IDX 27 96
REMARK H PARENT 88 26 56 37
REMARK Flexibility Score: inf
ROOT
ATOM      1  C   UNL A   1      38.354  21.598  25.300  1.00  0.00     0.188 C 
ENDROOT
BRANCH   1   2
ATOM      2  C   UNL A   1      39.016  22.335  26.465  1.00  0.00     0.188 C 
BRANCH   2   3
ATOM      3  O   UNL A   1      39.967  21.538  27.173  1.00  0.00    -0.376 OA
BRANCH   3   4
ATOM      4  C   UNL A   1      40.484  20.425  26.438  1.00  0.00     0.202 C 
BRANCH   4   5
ATOM      5  C   UNL A   1      41.963  20.516  26.020  1.00  0.00     0.261 C 
BRANCH   5   6
ATOM      6  O   UNL A   1      42.603  21.750  26.384  1.00  0.00    -0.460 OA
BRANCH   6   7
ATOM      7  C   UNL A   1      42.741  22.882  25.644  1.00  0.00     0.338 C 
ATOM      8  O   UNL A   1      42.892  22.768  24.429  1.00  0.00    -0.246 OA
BRANCH   7   9
ATOM      9  C   UNL A   1      42.733  24.258  26.229  1.00  0.00     0.060 A 
ATOM     10  C   UNL A   1      42.584  25.431  25.492  1.00  0.00     0.016 A 
ATOM     11  C   UNL A   1      42.816  24.376  27.626  1.00  0.00     0.016 A 
ATOM     12  C   UNL A   1      42.635  26.683  26.079  1.00  0.00     0.010 A 
ATOM     13  C   UNL A   1      42.800  25.634  28.240  1.00  0.00     0.010 A 
ATOM     14  C   UNL A   1      42.748  26.795  27.457  1.00  0.00    -0.014 A 
BRANCH  14  15
ATOM     15  C   UNL A   1      42.958  28.138  28.026  1.00  0.00     0.031 A 
ATOM     16  C   UNL A   1      41.774  28.841  28.606  1.00  0.00     0.074 A 
ATOM     17  C   UNL A   1      44.198  28.652  28.134  1.00  0.00     0.049 A 
ATOM     18  N   UNL A   1      41.710  30.023  29.145  1.00  0.00    -0.248 NA
ATOM     19  C   UNL A   1      40.499  28.098  28.620  1.00  0.00     0.031 C 
ATOM     20  C   UNL A   1      45.429  27.950  27.772  1.00  0.00     0.029 A 
ATOM     21  N   UNL A   1      44.644  29.866  28.579  1.00  0.00    -0.354 N 
ATOM     22  C   UNL A   1      40.389  30.182  29.536  1.00  0.00     0.074 A 
ATOM     23  C   UNL A   1      39.679  28.979  29.171  1.00  0.00     0.031 C 
ATOM     24  C   UNL A   1      46.484  28.756  27.962  1.00  0.00     0.029 A 
ATOM     25  C   UNL A   1      45.997  30.047  28.404  1.00  0.00     0.049 A 
ATOM     26  H   UNL A   1      44.055  30.542  28.985  1.00  0.00     0.167 HD
ATOM     27  C   UNL A   1      39.830  31.245  30.151  1.00  0.00     0.034 A 
ATOM     28  C   UNL A   1      46.751  31.149  28.552  1.00  0.00     0.034 A 
ATOM     29  C   UNL A   1      40.569  32.427  30.491  1.00  0.00     0.049 A 
ATOM     30  C   UNL A   1      46.069  32.369  29.092  1.00  0.00     0.074 A 
ATOM     31  C   UNL A   1      40.114  33.585  31.089  1.00  0.00     0.029 A 
ATOM     32  N   UNL A   1      41.923  32.606  30.237  1.00  0.00    -0.354 N 
ATOM     33  N   UNL A   1      44.821  32.504  29.472  1.00  0.00    -0.248 NA
ATOM     34  C   UNL A   1      46.899  33.561  29.283  1.00  0.00     0.031 C 
ATOM     35  C   UNL A   1      41.184  34.483  31.150  1.00  0.00     0.029 A 
ATOM     36  C   UNL A   1      42.317  33.865  30.641  1.00  0.00     0.049 A 
ATOM     37  H   UNL A   1      42.514  31.932  29.827  1.00  0.00     0.167 HD
ATOM     38  C   UNL A   1      44.727  33.777  30.004  1.00  0.00     0.074 A 
ATOM     39  C   UNL A   1      46.048  34.370  29.897  1.00  0.00     0.031 C 
ATOM     40  C   UNL A   1      43.652  34.399  30.543  1.00  0.00     0.034 A 
BRANCH  27  41
ATOM     41  C   UNL A   1      38.357  31.181  30.432  1.00  0.00     0.023 A 
ATOM     42  C   UNL A   1      37.882  30.648  31.648  1.00  0.00     0.012 A 
ATOM     43  C   UNL A   1      37.439  31.649  29.474  1.00  0.00     0.148 A 
ATOM     44  C   UNL A   1      36.511  30.554  31.891  1.00  0.00     0.002 A 
ATOM     45  C   UNL A   1      36.079  31.595  29.742  1.00  0.00     0.091 A 
ATOM     46  F   UNL A   1      37.915  32.118  28.312  1.00  0.00    -0.205 F 
ATOM     47  C   UNL A   1      35.612  31.035  30.944  1.00  0.00     0.022 A 
BRANCH  45  48
ATOM     48  S   UNL A   1      34.845  32.242  28.611  1.00  0.00     0.127 S 
ATOM     49  O   UNL A   1      33.982  32.998  29.519  1.00  0.00    -0.237 OA
ATOM     50  O   UNL A   1      35.659  33.064  27.716  1.00  0.00    -0.237 OA
ATOM     51  O   UNL A   1      34.221  31.086  27.986  1.00  0.00    -0.744 OA
ENDBRANCH  45  48
ENDBRANCH  27  41
BRANCH  28  52
ATOM     52  C   UNL A   1      48.201  31.167  28.216  1.00  0.00     0.023 A 
ATOM     53  C   UNL A   1      49.106  30.455  29.026  1.00  0.00     0.012 A 
ATOM     54  C   UNL A   1      48.695  31.941  27.147  1.00  0.00     0.148 A 
ATOM     55  C   UNL A   1      50.481  30.550  28.808  1.00  0.00     0.002 A 
ATOM     56  C   UNL A   1      50.069  32.031  26.938  1.00  0.00     0.091 A 
ATOM     57  F   UNL A   1      47.815  32.573  26.360  1.00  0.00    -0.205 F 
ATOM     58  C   UNL A   1      50.962  31.341  27.770  1.00  0.00     0.022 A 
BRANCH  56  59
ATOM     59  S   UNL A   1      50.799  33.030  25.635  1.00  0.00     0.127 S 
ATOM     60  O   UNL A   1      51.809  33.794  26.369  1.00  0.00    -0.237 OA
ATOM     61  O   UNL A   1      51.333  31.991  24.752  1.00  0.00    -0.237 OA
ATOM     62  O   UNL A   1      49.712  33.814  25.081  1.00  0.00    -0.744 OA
ENDBRANCH  56  59
ENDBRANCH  28  52
BRANCH  40  63
ATOM     63  C   UNL A   1      43.880  35.772  31.100  1.00  0.00     0.023 A 
ATOM     64  C   UNL A   1      44.259  35.936  32.445  1.00  0.00     0.012 A 
ATOM     65  C   UNL A   1      43.783  36.893  30.256  1.00  0.00     0.148 A 
ATOM     66  C   UNL A   1      44.506  37.207  32.953  1.00  0.00     0.002 A 
ATOM     67  C   UNL A   1      44.093  38.149  30.751  1.00  0.00     0.091 A 
ATOM     68  F   UNL A   1      43.394  36.707  28.985  1.00  0.00    -0.205 F 
ATOM     69  C   UNL A   1      44.439  38.311  32.103  1.00  0.00     0.022 A 
BRANCH  67  70
ATOM     70  S   UNL A   1      44.148  39.603  29.702  1.00  0.00     0.127 S 
ATOM     71  O   UNL A   1      42.750  39.730  29.297  1.00  0.00    -0.237 OA
ATOM     72  O   UNL A   1      44.613  40.633  30.631  1.00  0.00    -0.237 OA
ATOM     73  O   UNL A   1      45.083  39.291  28.629  1.00  0.00    -0.744 OA
ENDBRANCH  67  70
ENDBRANCH  40  63
ENDBRANCH  14  15
ENDBRANCH   7   9
ENDBRANCH   6   7
ENDBRANCH   5   6
ENDBRANCH   4   5
ENDBRANCH   3   4
ENDBRANCH   2   3
ENDBRANCH   1   2
BRANCH   1  74
ATOM     74  O   UNL A   1      36.999  21.183  25.442  1.00  0.00    -0.376 OA
BRANCH  74  75
ATOM     75  C   UNL A   1      36.067  22.131  25.949  1.00  0.00     0.202 C 
BRANCH  75  76
ATOM     76  C   UNL A   1      34.744  21.646  26.581  1.00  0.00     0.261 C 
BRANCH  76  77
ATOM     77  O   UNL A   1      33.553  22.043  25.885  1.00  0.00    -0.463 OA
BRANCH  77  78
ATOM     78  C   UNL A   1      33.209  21.231  24.850  1.00  0.00     0.309 C 
ATOM     79  O   UNL A   1      33.764  20.166  24.609  1.00  0.00    -0.252 OA
BRANCH  78  80
ATOM     80  C   UNL A   1      31.971  21.740  24.115  1.00  0.00     0.103 C 
ATOM     81  C   UNL A   1      32.413  22.363  22.786  1.00  0.00     0.037 C 
ATOM     82  C   UNL A   1      31.095  22.692  24.933  1.00  0.00     0.037 C 
ATOM     83  C   UNL A   1      33.046  23.727  23.038  1.00  0.00     0.120 C 
ATOM     84  C   UNL A   1      31.598  24.139  24.968  1.00  0.00     0.120 C 
ATOM     85  N   UNL A   1      32.033  24.567  23.642  1.00  0.00    -0.342 N 
ATOM     86  C   UNL A   1      31.427  25.521  22.831  1.00  0.00     0.232 C 
ATOM     87  O   UNL A   1      31.785  25.652  21.654  1.00  0.00    -0.274 OA
BRANCH  86  88
ATOM     88  C   UNL A   1      30.272  26.333  23.385  1.00  0.00     0.169 C 
BRANCH  88  89
ATOM     89  S   UNL A   1      30.887  27.849  24.214  1.00  0.00    -0.147 SA
BRANCH  89  90
ATOM     90  C   UNL A   1      30.967  28.991  22.805  1.00  0.00     0.105 C 
BRANCH  90  91
ATOM     91  C   UNL A   1      29.839  29.981  22.658  1.00  0.00    -0.038 A 
ATOM     92  C   UNL A   1      29.221  30.138  21.406  1.00  0.00     0.004 A 
ATOM     93  C   UNL A   1      29.375  30.754  23.732  1.00  0.00     0.004 A 
ATOM     94  C   UNL A   1      28.198  31.068  21.222  1.00  0.00     0.000 A 
ATOM     95  C   UNL A   1      28.360  31.694  23.544  1.00  0.00     0.000 A 
ATOM     96  C   UNL A   1      27.771  31.852  22.291  1.00  0.00     0.000 A 
ENDBRANCH  90  91
ENDBRANCH  89  90
ENDBRANCH  88  89
ENDBRANCH  86  88
ENDBRANCH  78  80
ENDBRANCH  77  78
ENDBRANCH  76  77
ENDBRANCH  75  76
ENDBRANCH  74  75
ENDBRANCH   1  74
TORSDOF 24
ENDMDL
