MODEL 1
REMARK VINA RESULT:      -9.9      0.000      0.000
REMARK SMILES CC[N@@H+](Cc1cccc(C)n1)Cc1csc(C(=O)OCCOCCOCCOC(=O)c2ccc(-c3c4nc(c(-c5cccc(S(=O)(=O)[O-])c5F)c5ccc([nH]5)c(-c5cccc(S(=O)(=O)[O-])c5F)c5nc(c(-c6cccc(S(=O)(=O)[O-])c6F)c6ccc3[nH]6)C=C5)C=C4)cc2)n1
REMARK SMILES IDX 23 1 22 2 21 3 20 4 19 5 17 6 18 7 16 8 13 9 14 10 94 11
REMARK SMILES IDX 15 12 12 13 3 14 2 16 1 17 4 18 5 19 6 20 11 21 7 22 9 23
REMARK SMILES IDX 8 24 10 25 24 26 25 27 26 28 27 29 28 30 29 31 30 32 31 33
REMARK SMILES IDX 32 34 93 35 33 36 92 37 34 38 35 39 36 40 86 41 37 42 91 43
REMARK SMILES IDX 85 44 87 45 38 46 90 47 84 48 83 49 39 51 71 52 51 53 70 54
REMARK SMILES IDX 52 55 55 56 69 57 88 58 53 59 54 60 68 62 89 63 56 64 40 65
REMARK SMILES IDX 41 66 49 67 42 68 44 69 50 70 43 71 45 72 46 73 47 74 48 75
REMARK SMILES IDX 72 76 73 77 81 78 74 79 76 80 82 81 75 82 77 83 78 84 79 85
REMARK SMILES IDX 80 86 57 87 58 88 66 89 59 90 61 91 67 92 60 93 62 94 63 95
REMARK SMILES IDX 64 96 65 97
REMARK H PARENT 3 15 87 50 55 61
REMARK Flexibility Score: inf
ROOT
ATOM      1  C   UNL A   1      31.384  28.123  25.850  1.00  0.00     0.188 C 
ENDROOT
BRANCH   1   2
ATOM      2  O   UNL A   1      30.584  26.946  25.840  1.00  0.00    -0.376 OA
BRANCH   2   3
ATOM      3  C   UNL A   1      29.878  26.567  24.670  1.00  0.00     0.202 C 
BRANCH   3   4
ATOM      4  C   UNL A   1      30.075  27.437  23.427  1.00  0.00     0.261 C 
BRANCH   4   5
ATOM      5  O   UNL A   1      30.788  26.769  22.376  1.00  0.00    -0.458 OA
BRANCH   5   6
ATOM      6  C   UNL A   1      32.153  26.814  22.456  1.00  0.00     0.367 C 
ATOM      7  O   UNL A   1      32.820  27.835  22.317  1.00  0.00    -0.243 OA
BRANCH   6   8
ATOM      8  C   UNL A   1      32.678  25.502  22.810  1.00  0.00     0.202 A 
ATOM      9  C   UNL A   1      33.396  23.772  24.016  1.00  0.00     0.106 A 
ATOM     10  C   UNL A   1      33.627  23.276  22.745  1.00  0.00     0.097 A 
ATOM     11  N   UNL A   1      32.888  25.070  24.040  1.00  0.00    -0.229 NA
ATOM     12  S   UNL A   1      33.114  24.404  21.563  1.00  0.00    -0.115 S 
BRANCH   9  13
ATOM     13  C   UNL A   1      33.559  23.006  25.303  1.00  0.00     0.320 C 
BRANCH  13  14
ATOM     14  N   UNL A   1      34.255  21.715  25.184  1.00  0.00    -0.325 N 
ATOM     15  H   UNL A   1      34.464  21.624  24.190  1.00  0.00     0.348 HD
BRANCH  14  16
ATOM     16  C   UNL A   1      35.566  21.648  25.839  1.00  0.00     0.259 C 
ATOM     17  C   UNL A   1      36.264  23.004  25.921  1.00  0.00     0.071 C 
ENDBRANCH  14  16
BRANCH  14  18
ATOM     18  C   UNL A   1      33.381  20.589  25.589  1.00  0.00     0.319 C 
BRANCH  18  19
ATOM     19  C   UNL A   1      33.372  19.387  24.655  1.00  0.00     0.095 A 
ATOM     20  C   UNL A   1      32.557  19.306  23.530  1.00  0.00     0.030 A 
ATOM     21  N   UNL A   1      34.140  18.337  25.054  1.00  0.00    -0.252 NA
ATOM     22  C   UNL A   1      32.529  18.121  22.798  1.00  0.00     0.004 A 
ATOM     23  C   UNL A   1      34.095  17.187  24.343  1.00  0.00     0.038 A 
ATOM     24  C   UNL A   1      33.303  17.043  23.211  1.00  0.00     0.023 A 
ATOM     25  C   UNL A   1      34.929  16.056  24.861  1.00  0.00     0.067 C 
ENDBRANCH  18  19
ENDBRANCH  14  18
ENDBRANCH  13  14
ENDBRANCH   9  13
ENDBRANCH   6   8
ENDBRANCH   5   6
ENDBRANCH   4   5
ENDBRANCH   3   4
ENDBRANCH   2   3
ENDBRANCH   1   2
BRANCH   1  26
ATOM     26  C   UNL A   1      32.156  28.544  27.117  1.00  0.00     0.188 C 
BRANCH  26  27
ATOM     27  O   UNL A   1      32.836  29.784  26.996  1.00  0.00    -0.376 OA
BRANCH  27  28
ATOM     28  C   UNL A   1      32.017  30.938  26.893  1.00  0.00     0.202 C 
BRANCH  28  29
ATOM     29  C   UNL A   1      32.822  32.238  26.804  1.00  0.00     0.261 C 
BRANCH  29  30
ATOM     30  O   UNL A   1      32.392  33.273  27.702  1.00  0.00    -0.460 OA
BRANCH  30  31
ATOM     31  C   UNL A   1      33.337  34.135  28.137  1.00  0.00     0.338 C 
ATOM     32  O   UNL A   1      33.224  35.340  28.277  1.00  0.00    -0.246 OA
BRANCH  31  33
ATOM     33  C   UNL A   1      34.509  33.350  28.571  1.00  0.00     0.060 A 
ATOM     34  C   UNL A   1      34.301  32.177  29.306  1.00  0.00     0.016 A 
ATOM     35  C   UNL A   1      35.805  33.772  28.262  1.00  0.00     0.016 A 
ATOM     36  C   UNL A   1      35.396  31.439  29.762  1.00  0.00     0.010 A 
ATOM     37  C   UNL A   1      36.899  33.038  28.728  1.00  0.00     0.010 A 
ATOM     38  C   UNL A   1      36.701  31.884  29.503  1.00  0.00    -0.014 A 
BRANCH  38  39
ATOM     39  C   UNL A   1      37.856  31.223  30.159  1.00  0.00     0.031 A 
ATOM     40  C   UNL A   1      38.210  31.607  31.569  1.00  0.00     0.074 A 
ATOM     41  C   UNL A   1      38.597  30.310  29.505  1.00  0.00     0.049 A 
ATOM     42  N   UNL A   1      39.157  31.141  32.341  1.00  0.00    -0.248 NA
ATOM     43  C   UNL A   1      37.388  32.658  32.192  1.00  0.00     0.031 C 
ATOM     44  C   UNL A   1      38.381  29.874  28.126  1.00  0.00     0.029 A 
ATOM     45  N   UNL A   1      39.701  29.603  29.914  1.00  0.00    -0.354 N 
ATOM     46  C   UNL A   1      39.056  31.848  33.532  1.00  0.00     0.074 A 
ATOM     47  C   UNL A   1      37.966  32.787  33.377  1.00  0.00     0.031 C 
ATOM     48  C   UNL A   1      39.342  28.994  27.795  1.00  0.00     0.029 A 
ATOM     49  C   UNL A   1      40.241  28.807  28.932  1.00  0.00     0.049 A 
ATOM     50  H   UNL A   1      40.070  29.661  30.825  1.00  0.00     0.167 HD
ATOM     51  C   UNL A   1      39.787  31.714  34.665  1.00  0.00     0.034 A 
ATOM     52  C   UNL A   1      41.339  28.025  28.948  1.00  0.00     0.034 A 
ATOM     53  C   UNL A   1      40.863  30.776  34.829  1.00  0.00     0.049 A 
ATOM     54  C   UNL A   1      42.142  27.897  30.219  1.00  0.00     0.074 A 
ATOM     55  C   UNL A   1      41.622  30.526  35.959  1.00  0.00     0.029 A 
ATOM     56  N   UNL A   1      41.345  29.943  33.831  1.00  0.00    -0.354 N 
ATOM     57  N   UNL A   1      41.928  28.448  31.390  1.00  0.00    -0.248 NA
ATOM     58  C   UNL A   1      43.313  27.008  30.180  1.00  0.00     0.031 C 
ATOM     59  C   UNL A   1      42.575  29.553  35.640  1.00  0.00     0.029 A 
ATOM     60  C   UNL A   1      42.400  29.187  34.314  1.00  0.00     0.049 A 
ATOM     61  H   UNL A   1      40.991  29.897  32.914  1.00  0.00     0.167 HD
ATOM     62  C   UNL A   1      42.917  27.949  32.233  1.00  0.00     0.074 A 
ATOM     63  C   UNL A   1      43.716  27.034  31.444  1.00  0.00     0.031 C 
ATOM     64  C   UNL A   1      43.153  28.236  33.538  1.00  0.00     0.034 A 
BRANCH  51  65
ATOM     65  C   UNL A   1      39.410  32.579  35.836  1.00  0.00     0.023 A 
ATOM     66  C   UNL A   1      38.605  32.037  36.859  1.00  0.00     0.012 A 
ATOM     67  C   UNL A   1      39.882  33.899  35.952  1.00  0.00     0.148 A 
ATOM     68  C   UNL A   1      38.253  32.806  37.968  1.00  0.00     0.002 A 
ATOM     69  C   UNL A   1      39.556  34.648  37.076  1.00  0.00     0.091 A 
ATOM     70  F   UNL A   1      40.622  34.405  34.955  1.00  0.00    -0.205 F 
ATOM     71  C   UNL A   1      38.736  34.107  38.081  1.00  0.00     0.022 A 
BRANCH  69  72
ATOM     72  S   UNL A   1      40.185  36.310  37.340  1.00  0.00     0.127 S 
ATOM     73  O   UNL A   1      40.064  36.887  36.002  1.00  0.00    -0.237 OA
ATOM     74  O   UNL A   1      39.243  36.848  38.323  1.00  0.00    -0.237 OA
ATOM     75  O   UNL A   1      41.544  36.146  37.836  1.00  0.00    -0.744 OA
ENDBRANCH  69  72
ENDBRANCH  51  65
BRANCH  52  76
ATOM     76  C   UNL A   1      41.718  27.250  27.732  1.00  0.00     0.023 A 
ATOM     77  C   UNL A   1      42.314  27.916  26.645  1.00  0.00     0.012 A 
ATOM     78  C   UNL A   1      41.501  25.861  27.653  1.00  0.00     0.148 A 
ATOM     79  C   UNL A   1      42.667  27.217  25.489  1.00  0.00     0.002 A 
ATOM     80  C   UNL A   1      41.900  25.163  26.519  1.00  0.00     0.091 A 
ATOM     81  F   UNL A   1      40.909  25.250  28.689  1.00  0.00    -0.205 F 
ATOM     82  C   UNL A   1      42.469  25.840  25.431  1.00  0.00     0.022 A 
BRANCH  80  83
ATOM     83  S   UNL A   1      41.785  23.373  26.404  1.00  0.00     0.127 S 
ATOM     84  O   UNL A   1      42.501  23.106  25.160  1.00  0.00    -0.237 OA
ATOM     85  O   UNL A   1      42.481  22.945  27.618  1.00  0.00    -0.237 OA
ATOM     86  O   UNL A   1      40.360  23.075  26.394  1.00  0.00    -0.744 OA
ENDBRANCH  80  83
ENDBRANCH  52  76
BRANCH  64  87
ATOM     87  C   UNL A   1      44.307  27.541  34.213  1.00  0.00     0.023 A 
ATOM     88  C   UNL A   1      45.549  28.198  34.319  1.00  0.00     0.012 A 
ATOM     89  C   UNL A   1      44.142  26.277  34.811  1.00  0.00     0.148 A 
ATOM     90  C   UNL A   1      46.616  27.595  34.983  1.00  0.00     0.002 A 
ATOM     91  C   UNL A   1      45.198  25.700  35.510  1.00  0.00     0.091 A 
ATOM     92  F   UNL A   1      42.961  25.653  34.683  1.00  0.00    -0.205 F 
ATOM     93  C   UNL A   1      46.439  26.353  35.589  1.00  0.00     0.022 A 
BRANCH  91  94
ATOM     94  S   UNL A   1      45.020  24.146  36.395  1.00  0.00     0.127 S 
ATOM     95  O   UNL A   1      46.380  23.614  36.345  1.00  0.00    -0.237 OA
ATOM     96  O   UNL A   1      44.585  24.584  37.722  1.00  0.00    -0.237 OA
ATOM     97  O   UNL A   1      44.017  23.388  35.657  1.00  0.00    -0.744 OA
ENDBRANCH  91  94
ENDBRANCH  64  87
ENDBRANCH  38  39
ENDBRANCH  31  33
ENDBRANCH  30  31
ENDBRANCH  29  30
ENDBRANCH  28  29
ENDBRANCH  27  28
ENDBRANCH  26  27
ENDBRANCH   1  26
TORSDOF 25
ENDMDL
MODEL 2
REMARK VINA RESULT:      -9.8      1.846      2.488
REMARK SMILES CC[N@@H+](Cc1cccc(C)n1)Cc1csc(C(=O)OCCOCCOCCOC(=O)c2ccc(-c3c4nc(c(-c5cccc(S(=O)(=O)[O-])c5F)c5ccc([nH]5)c(-c5cccc(S(=O)(=O)[O-])c5F)c5nc(c(-c6cccc(S(=O)(=O)[O-])c6F)c6ccc3[nH]6)C=C5)C=C4)cc2)n1
REMARK SMILES IDX 23 1 22 2 21 3 20 4 19 5 17 6 18 7 16 8 13 9 14 10 94 11
REMARK SMILES IDX 15 12 12 13 3 14 2 16 1 17 4 18 5 19 6 20 11 21 7 22 9 23
REMARK SMILES IDX 8 24 10 25 24 26 25 27 26 28 27 29 28 30 29 31 30 32 31 33
REMARK SMILES IDX 32 34 93 35 33 36 92 37 34 38 35 39 36 40 86 41 37 42 91 43
REMARK SMILES IDX 85 44 87 45 38 46 90 47 84 48 83 49 39 51 71 52 51 53 70 54
REMARK SMILES IDX 52 55 55 56 69 57 88 58 53 59 54 60 68 62 89 63 56 64 40 65
REMARK SMILES IDX 41 66 49 67 42 68 44 69 50 70 43 71 45 72 46 73 47 74 48 75
REMARK SMILES IDX 72 76 73 77 81 78 74 79 76 80 82 81 75 82 77 83 78 84 79 85
REMARK SMILES IDX 80 86 57 87 58 88 66 89 59 90 61 91 67 92 60 93 62 94 63 95
REMARK SMILES IDX 64 96 65 97
REMARK H PARENT 3 15 87 50 55 61
REMARK Flexibility Score: inf
ROOT
ATOM      1  C   UNL A   1      33.100  28.935  25.297  1.00  0.00     0.188 C 
ENDROOT
BRANCH   1   2
ATOM      2  O   UNL A   1      32.035  27.991  25.275  1.00  0.00    -0.376 OA
BRANCH   2   3
ATOM      3  C   UNL A   1      31.524  27.457  26.485  1.00  0.00     0.202 C 
BRANCH   3   4
ATOM      4  C   UNL A   1      30.406  26.419  26.370  1.00  0.00     0.261 C 
BRANCH   4   5
ATOM      5  O   UNL A   1      30.733  25.329  25.496  1.00  0.00    -0.458 OA
BRANCH   5   6
ATOM      6  C   UNL A   1      31.499  24.334  26.039  1.00  0.00     0.367 C 
ATOM      7  O   UNL A   1      31.448  23.987  27.215  1.00  0.00    -0.243 OA
BRANCH   6   8
ATOM      8  C   UNL A   1      32.309  23.703  25.005  1.00  0.00     0.202 A 
ATOM      9  C   UNL A   1      34.066  22.880  23.910  1.00  0.00     0.106 A 
ATOM     10  C   UNL A   1      33.085  22.678  22.954  1.00  0.00     0.097 A 
ATOM     11  N   UNL A   1      33.614  23.508  25.069  1.00  0.00    -0.229 NA
ATOM     12  S   UNL A   1      31.563  23.189  23.546  1.00  0.00    -0.115 S 
BRANCH   9  13
ATOM     13  C   UNL A   1      35.493  22.405  23.821  1.00  0.00     0.320 C 
BRANCH  13  14
ATOM     14  N   UNL A   1      35.825  21.247  24.667  1.00  0.00    -0.325 N 
ATOM     15  H   UNL A   1      36.322  20.608  24.047  1.00  0.00     0.348 HD
BRANCH  14  16
ATOM     16  C   UNL A   1      36.777  21.516  25.750  1.00  0.00     0.259 C 
ATOM     17  C   UNL A   1      37.614  22.770  25.513  1.00  0.00     0.071 C 
ENDBRANCH  14  16
BRANCH  14  18
ATOM     18  C   UNL A   1      34.604  20.571  25.164  1.00  0.00     0.319 C 
BRANCH  18  19
ATOM     19  C   UNL A   1      34.326  19.192  24.582  1.00  0.00     0.095 A 
ATOM     20  C   UNL A   1      35.101  18.074  24.875  1.00  0.00     0.030 A 
ATOM     21  N   UNL A   1      33.325  19.142  23.661  1.00  0.00    -0.252 NA
ATOM     22  C   UNL A   1      34.845  16.879  24.207  1.00  0.00     0.004 A 
ATOM     23  C   UNL A   1      33.093  17.980  23.010  1.00  0.00     0.038 A 
ATOM     24  C   UNL A   1      33.831  16.829  23.256  1.00  0.00     0.023 A 
ATOM     25  C   UNL A   1      32.009  18.005  21.978  1.00  0.00     0.067 C 
ENDBRANCH  18  19
ENDBRANCH  14  18
ENDBRANCH  13  14
ENDBRANCH   9  13
ENDBRANCH   6   8
ENDBRANCH   5   6
ENDBRANCH   4   5
ENDBRANCH   3   4
ENDBRANCH   2   3
ENDBRANCH   1   2
BRANCH   1  26
ATOM     26  C   UNL A   1      33.694  29.424  26.633  1.00  0.00     0.188 C 
BRANCH  26  27
ATOM     27  O   UNL A   1      33.457  30.797  26.904  1.00  0.00    -0.376 OA
BRANCH  27  28
ATOM     28  C   UNL A   1      32.106  31.227  26.820  1.00  0.00     0.202 C 
BRANCH  28  29
ATOM     29  C   UNL A   1      31.917  32.690  27.230  1.00  0.00     0.261 C 
BRANCH  29  30
ATOM     30  O   UNL A   1      33.130  33.455  27.304  1.00  0.00    -0.460 OA
BRANCH  30  31
ATOM     31  C   UNL A   1      33.288  34.246  28.387  1.00  0.00     0.338 C 
ATOM     32  O   UNL A   1      32.558  35.152  28.748  1.00  0.00    -0.246 OA
BRANCH  31  33
ATOM     33  C   UNL A   1      34.428  33.730  29.169  1.00  0.00     0.060 A 
ATOM     34  C   UNL A   1      35.714  34.202  28.880  1.00  0.00     0.016 A 
ATOM     35  C   UNL A   1      34.232  32.780  30.176  1.00  0.00     0.016 A 
ATOM     36  C   UNL A   1      36.812  33.698  29.581  1.00  0.00     0.010 A 
ATOM     37  C   UNL A   1      35.333  32.271  30.868  1.00  0.00     0.010 A 
ATOM     38  C   UNL A   1      36.631  32.706  30.555  1.00  0.00    -0.014 A 
BRANCH  38  39
ATOM     39  C   UNL A   1      37.806  32.023  31.148  1.00  0.00     0.031 A 
ATOM     40  C   UNL A   1      38.381  32.547  32.436  1.00  0.00     0.074 A 
ATOM     41  C   UNL A   1      38.373  30.963  30.543  1.00  0.00     0.049 A 
ATOM     42  N   UNL A   1      39.383  32.092  33.141  1.00  0.00    -0.248 NA
ATOM     43  C   UNL A   1      37.741  33.747  33.002  1.00  0.00     0.031 C 
ATOM     44  C   UNL A   1      37.936  30.378  29.276  1.00  0.00     0.029 A 
ATOM     45  N   UNL A   1      39.460  30.207  30.906  1.00  0.00    -0.354 N 
ATOM     46  C   UNL A   1      39.504  32.952  34.225  1.00  0.00     0.074 A 
ATOM     47  C   UNL A   1      38.484  33.968  34.076  1.00  0.00     0.031 C 
ATOM     48  C   UNL A   1      38.766  29.370  28.955  1.00  0.00     0.029 A 
ATOM     49  C   UNL A   1      39.794  29.242  29.986  1.00  0.00     0.049 A 
ATOM     50  H   UNL A   1      39.955  30.345  31.747  1.00  0.00     0.167 HD
ATOM     51  C   UNL A   1      40.369  32.892  35.265  1.00  0.00     0.034 A 
ATOM     52  C   UNL A   1      40.816  28.362  29.976  1.00  0.00     0.034 A 
ATOM     53  C   UNL A   1      41.376  31.880  35.425  1.00  0.00     0.049 A 
ATOM     54  C   UNL A   1      41.771  28.319  31.143  1.00  0.00     0.074 A 
ATOM     55  C   UNL A   1      42.260  31.703  36.475  1.00  0.00     0.029 A 
ATOM     56  N   UNL A   1      41.647  30.882  34.502  1.00  0.00    -0.354 N 
ATOM     57  N   UNL A   1      41.766  29.034  32.241  1.00  0.00    -0.248 NA
ATOM     58  C   UNL A   1      42.849  27.320  31.084  1.00  0.00     0.031 C 
ATOM     59  C   UNL A   1      43.077  30.606  36.180  1.00  0.00     0.029 A 
ATOM     60  C   UNL A   1      42.692  30.092  34.952  1.00  0.00     0.049 A 
ATOM     61  H   UNL A   1      41.168  30.754  33.652  1.00  0.00     0.167 HD
ATOM     62  C   UNL A   1      42.816  28.551  33.017  1.00  0.00     0.074 A 
ATOM     63  C   UNL A   1      43.422  27.467  32.272  1.00  0.00     0.031 C 
ATOM     64  C   UNL A   1      43.251  28.979  34.229  1.00  0.00     0.034 A 
BRANCH  51  65
ATOM     65  C   UNL A   1      40.229  33.934  36.341  1.00  0.00     0.023 A 
ATOM     66  C   UNL A   1      40.631  35.258  36.073  1.00  0.00     0.012 A 
ATOM     67  C   UNL A   1      39.664  33.622  37.591  1.00  0.00     0.148 A 
ATOM     68  C   UNL A   1      40.498  36.251  37.041  1.00  0.00     0.002 A 
ATOM     69  C   UNL A   1      39.501  34.625  38.540  1.00  0.00     0.091 A 
ATOM     70  F   UNL A   1      39.313  32.352  37.838  1.00  0.00    -0.205 F 
ATOM     71  C   UNL A   1      39.925  35.937  38.270  1.00  0.00     0.022 A 
BRANCH  69  72
ATOM     72  S   UNL A   1      38.713  34.329  40.127  1.00  0.00     0.127 S 
ATOM     73  O   UNL A   1      39.715  33.507  40.805  1.00  0.00    -0.237 OA
ATOM     74  O   UNL A   1      38.573  35.683  40.663  1.00  0.00    -0.237 OA
ATOM     75  O   UNL A   1      37.452  33.665  39.827  1.00  0.00    -0.744 OA
ENDBRANCH  69  72
ENDBRANCH  51  65
BRANCH  52  76
ATOM     76  C   UNL A   1      40.959  27.403  28.844  1.00  0.00     0.023 A 
ATOM     77  C   UNL A   1      40.148  26.253  28.805  1.00  0.00     0.012 A 
ATOM     78  C   UNL A   1      41.882  27.630  27.805  1.00  0.00     0.148 A 
ATOM     79  C   UNL A   1      40.269  25.332  27.764  1.00  0.00     0.002 A 
ATOM     80  C   UNL A   1      41.963  26.734  26.745  1.00  0.00     0.091 A 
ATOM     81  F   UNL A   1      42.662  28.718  27.873  1.00  0.00    -0.205 F 
ATOM     82  C   UNL A   1      41.169  25.578  26.729  1.00  0.00     0.022 A 
BRANCH  80  83
ATOM     83  S   UNL A   1      43.013  27.029  25.317  1.00  0.00     0.127 S 
ATOM     84  O   UNL A   1      42.935  25.750  24.618  1.00  0.00    -0.237 OA
ATOM     85  O   UNL A   1      42.321  28.135  24.654  1.00  0.00    -0.237 OA
ATOM     86  O   UNL A   1      44.318  27.378  25.860  1.00  0.00    -0.744 OA
ENDBRANCH  80  83
ENDBRANCH  52  76
BRANCH  64  87
ATOM     87  C   UNL A   1      44.425  28.263  34.846  1.00  0.00     0.023 A 
ATOM     88  C   UNL A   1      45.725  28.774  34.663  1.00  0.00     0.012 A 
ATOM     89  C   UNL A   1      44.237  27.138  35.672  1.00  0.00     0.148 A 
ATOM     90  C   UNL A   1      46.821  28.159  35.265  1.00  0.00     0.002 A 
ATOM     91  C   UNL A   1      45.329  26.555  36.305  1.00  0.00     0.091 A 
ATOM     92  F   UNL A   1      42.995  26.650  35.820  1.00  0.00    -0.205 F 
ATOM     93  C   UNL A   1      46.623  27.058  36.096  1.00  0.00     0.022 A 
BRANCH  91  94
ATOM     94  S   UNL A   1      45.145  25.192  37.462  1.00  0.00     0.127 S 
ATOM     95  O   UNL A   1      44.377  25.814  38.539  1.00  0.00    -0.237 OA
ATOM     96  O   UNL A   1      44.402  24.207  36.676  1.00  0.00    -0.237 OA
ATOM     97  O   UNL A   1      46.500  24.783  37.806  1.00  0.00    -0.744 OA
ENDBRANCH  91  94
ENDBRANCH  64  87
ENDBRANCH  38  39
ENDBRANCH  31  33
ENDBRANCH  30  31
ENDBRANCH  29  30
ENDBRANCH  28  29
ENDBRANCH  27  28
ENDBRANCH  26  27
ENDBRANCH   1  26
TORSDOF 25
ENDMDL
MODEL 3
REMARK VINA RESULT:      -9.8      2.352      8.694
REMARK SMILES CC[N@@H+](Cc1cccc(C)n1)Cc1csc(C(=O)OCCOCCOCCOC(=O)c2ccc(-c3c4nc(c(-c5cccc(S(=O)(=O)[O-])c5F)c5ccc([nH]5)c(-c5cccc(S(=O)(=O)[O-])c5F)c5nc(c(-c6cccc(S(=O)(=O)[O-])c6F)c6ccc3[nH]6)C=C5)C=C4)cc2)n1
REMARK SMILES IDX 23 1 22 2 21 3 20 4 19 5 17 6 18 7 16 8 13 9 14 10 94 11
REMARK SMILES IDX 15 12 12 13 3 14 2 16 1 17 4 18 5 19 6 20 11 21 7 22 9 23
REMARK SMILES IDX 8 24 10 25 24 26 25 27 26 28 27 29 28 30 29 31 30 32 31 33
REMARK SMILES IDX 32 34 93 35 33 36 92 37 34 38 35 39 36 40 86 41 37 42 91 43
REMARK SMILES IDX 85 44 87 45 38 46 90 47 84 48 83 49 39 51 71 52 51 53 70 54
REMARK SMILES IDX 52 55 55 56 69 57 88 58 53 59 54 60 68 62 89 63 56 64 40 65
REMARK SMILES IDX 41 66 49 67 42 68 44 69 50 70 43 71 45 72 46 73 47 74 48 75
REMARK SMILES IDX 72 76 73 77 81 78 74 79 76 80 82 81 75 82 77 83 78 84 79 85
REMARK SMILES IDX 80 86 57 87 58 88 66 89 59 90 61 91 67 92 60 93 62 94 63 95
REMARK SMILES IDX 64 96 65 97
REMARK H PARENT 3 15 87 50 55 61
REMARK Flexibility Score: inf
ROOT
ATOM      1  C   UNL A   1      33.028  26.804  26.373  1.00  0.00     0.188 C 
ENDROOT
BRANCH   1   2
ATOM      2  O   UNL A   1      32.711  25.416  26.382  1.00  0.00    -0.376 OA
BRANCH   2   3
ATOM      3  C   UNL A   1      33.727  24.447  26.182  1.00  0.00     0.202 C 
BRANCH   3   4
ATOM      4  C   UNL A   1      33.359  22.987  26.456  1.00  0.00     0.261 C 
BRANCH   4   5
ATOM      5  O   UNL A   1      32.082  22.615  25.917  1.00  0.00    -0.458 OA
BRANCH   5   6
ATOM      6  C   UNL A   1      32.076  22.220  24.607  1.00  0.00     0.367 C 
ATOM      7  O   UNL A   1      32.089  21.050  24.239  1.00  0.00    -0.243 OA
BRANCH   6   8
ATOM      8  C   UNL A   1      31.965  23.381  23.734  1.00  0.00     0.202 A 
ATOM      9  C   UNL A   1      31.229  25.282  22.834  1.00  0.00     0.106 A 
ATOM     10  C   UNL A   1      32.264  25.000  21.960  1.00  0.00     0.097 A 
ATOM     11  N   UNL A   1      31.041  24.321  23.826  1.00  0.00    -0.229 NA
ATOM     12  S   UNL A   1      33.075  23.571  22.438  1.00  0.00    -0.115 S 
BRANCH   9  13
ATOM     13  C   UNL A   1      30.398  26.539  22.840  1.00  0.00     0.320 C 
BRANCH  13  14
ATOM     14  N   UNL A   1      31.146  27.788  23.048  1.00  0.00    -0.325 N 
ATOM     15  H   UNL A   1      30.949  28.050  24.014  1.00  0.00     0.348 HD
BRANCH  14  16
ATOM     16  C   UNL A   1      32.607  27.657  22.997  1.00  0.00     0.259 C 
ATOM     17  C   UNL A   1      33.327  29.003  22.965  1.00  0.00     0.071 C 
ENDBRANCH  14  16
BRANCH  14  18
ATOM     18  C   UNL A   1      30.660  28.866  22.157  1.00  0.00     0.319 C 
BRANCH  18  19
ATOM     19  C   UNL A   1      29.506  29.702  22.694  1.00  0.00     0.095 A 
ATOM     20  C   UNL A   1      28.253  29.170  22.979  1.00  0.00     0.030 A 
ATOM     21  N   UNL A   1      29.747  31.039  22.775  1.00  0.00    -0.252 NA
ATOM     22  C   UNL A   1      27.223  30.029  23.356  1.00  0.00     0.004 A 
ATOM     23  C   UNL A   1      28.737  31.864  23.130  1.00  0.00     0.038 A 
ATOM     24  C   UNL A   1      27.463  31.396  23.427  1.00  0.00     0.023 A 
ATOM     25  C   UNL A   1      29.056  33.327  23.156  1.00  0.00     0.067 C 
ENDBRANCH  18  19
ENDBRANCH  14  18
ENDBRANCH  13  14
ENDBRANCH   9  13
ENDBRANCH   6   8
ENDBRANCH   5   6
ENDBRANCH   4   5
ENDBRANCH   3   4
ENDBRANCH   2   3
ENDBRANCH   1   2
BRANCH   1  26
ATOM     26  C   UNL A   1      31.990  27.853  26.819  1.00  0.00     0.188 C 
BRANCH  26  27
ATOM     27  O   UNL A   1      32.401  29.196  26.615  1.00  0.00    -0.376 OA
BRANCH  27  28
ATOM     28  C   UNL A   1      31.459  30.048  25.978  1.00  0.00     0.202 C 
BRANCH  28  29
ATOM     29  C   UNL A   1      31.520  31.492  26.484  1.00  0.00     0.261 C 
BRANCH  29  30
ATOM     30  O   UNL A   1      32.807  32.117  26.363  1.00  0.00    -0.460 OA
BRANCH  30  31
ATOM     31  C   UNL A   1      33.191  32.925  27.375  1.00  0.00     0.338 C 
ATOM     32  O   UNL A   1      32.575  33.870  27.835  1.00  0.00    -0.246 OA
BRANCH  31  33
ATOM     33  C   UNL A   1      34.434  32.378  27.952  1.00  0.00     0.060 A 
ATOM     34  C   UNL A   1      34.457  31.039  28.359  1.00  0.00     0.016 A 
ATOM     35  C   UNL A   1      35.568  33.183  28.100  1.00  0.00     0.016 A 
ATOM     36  C   UNL A   1      35.610  30.510  28.944  1.00  0.00     0.010 A 
ATOM     37  C   UNL A   1      36.716  32.655  28.695  1.00  0.00     0.010 A 
ATOM     38  C   UNL A   1      36.734  31.324  29.146  1.00  0.00    -0.014 A 
BRANCH  38  39
ATOM     39  C   UNL A   1      37.877  30.829  29.951  1.00  0.00     0.031 A 
ATOM     40  C   UNL A   1      38.822  29.832  29.338  1.00  0.00     0.074 A 
ATOM     41  C   UNL A   1      38.063  31.239  31.219  1.00  0.00     0.049 A 
ATOM     42  N   UNL A   1      39.896  29.289  29.847  1.00  0.00    -0.248 NA
ATOM     43  C   UNL A   1      38.513  29.388  27.968  1.00  0.00     0.031 C 
ATOM     44  C   UNL A   1      37.202  32.175  31.941  1.00  0.00     0.029 A 
ATOM     45  N   UNL A   1      39.031  30.898  32.131  1.00  0.00    -0.354 N 
ATOM     46  C   UNL A   1      40.385  28.430  28.871  1.00  0.00     0.074 A 
ATOM     47  C   UNL A   1      39.481  28.511  27.744  1.00  0.00     0.031 C 
ATOM     48  C   UNL A   1      37.665  32.310  33.196  1.00  0.00     0.029 A 
ATOM     49  C   UNL A   1      38.850  31.469  33.368  1.00  0.00     0.049 A 
ATOM     50  H   UNL A   1      39.783  30.298  31.919  1.00  0.00     0.167 HD
ATOM     51  C   UNL A   1      41.499  27.661  28.897  1.00  0.00     0.034 A 
ATOM     52  C   UNL A   1      39.555  31.325  34.508  1.00  0.00     0.034 A 
ATOM     53  C   UNL A   1      42.407  27.585  30.008  1.00  0.00     0.049 A 
ATOM     54  C   UNL A   1      40.788  30.456  34.514  1.00  0.00     0.074 A 
ATOM     55  C   UNL A   1      43.593  26.878  30.104  1.00  0.00     0.029 A 
ATOM     56  N   UNL A   1      42.224  28.224  31.224  1.00  0.00    -0.354 N 
ATOM     57  N   UNL A   1      41.329  29.783  33.528  1.00  0.00    -0.248 NA
ATOM     58  C   UNL A   1      41.528  30.360  35.782  1.00  0.00     0.031 C 
ATOM     59  C   UNL A   1      44.120  27.078  31.385  1.00  0.00     0.029 A 
ATOM     60  C   UNL A   1      43.268  27.920  32.082  1.00  0.00     0.049 A 
ATOM     61  H   UNL A   1      41.463  28.808  31.446  1.00  0.00     0.167 HD
ATOM     62  C   UNL A   1      42.488  29.211  34.045  1.00  0.00     0.074 A 
ATOM     63  C   UNL A   1      42.582  29.635  35.427  1.00  0.00     0.031 C 
ATOM     64  C   UNL A   1      43.382  28.393  33.436  1.00  0.00     0.034 A 
BRANCH  51  65
ATOM     65  C   UNL A   1      41.821  26.870  27.658  1.00  0.00     0.023 A 
ATOM     66  C   UNL A   1      42.343  27.539  26.532  1.00  0.00     0.012 A 
ATOM     67  C   UNL A   1      41.654  25.474  27.618  1.00  0.00     0.148 A 
ATOM     68  C   UNL A   1      42.669  26.834  25.375  1.00  0.00     0.002 A 
ATOM     69  C   UNL A   1      42.014  24.772  26.473  1.00  0.00     0.091 A 
ATOM     70  F   UNL A   1      41.130  24.859  28.688  1.00  0.00    -0.205 F 
ATOM     71  C   UNL A   1      42.514  25.451  25.349  1.00  0.00     0.022 A 
BRANCH  69  72
ATOM     72  S   UNL A   1      41.911  22.982  26.370  1.00  0.00     0.127 S 
ATOM     73  O   UNL A   1      40.465  22.774  26.298  1.00  0.00    -0.237 OA
ATOM     74  O   UNL A   1      42.629  22.699  25.127  1.00  0.00    -0.237 OA
ATOM     75  O   UNL A   1      42.561  22.476  27.570  1.00  0.00    -0.744 OA
ENDBRANCH  69  72
ENDBRANCH  51  65
BRANCH  52  76
ATOM     76  C   UNL A   1      39.146  32.068  35.734  1.00  0.00     0.023 A 
ATOM     77  C   UNL A   1      39.538  33.411  35.892  1.00  0.00     0.012 A 
ATOM     78  C   UNL A   1      38.364  31.457  36.733  1.00  0.00     0.148 A 
ATOM     79  C   UNL A   1      39.180  34.127  37.035  1.00  0.00     0.002 A 
ATOM     80  C   UNL A   1      37.969  32.191  37.846  1.00  0.00     0.091 A 
ATOM     81  F   UNL A   1      38.021  30.171  36.575  1.00  0.00    -0.205 F 
ATOM     82  C   UNL A   1      38.387  33.520  38.006  1.00  0.00     0.022 A 
BRANCH  80  83
ATOM     83  S   UNL A   1      36.857  31.524  39.090  1.00  0.00     0.127 S 
ATOM     84  O   UNL A   1      37.713  31.494  40.272  1.00  0.00    -0.237 OA
ATOM     85  O   UNL A   1      35.797  32.533  39.123  1.00  0.00    -0.237 OA
ATOM     86  O   UNL A   1      36.434  30.228  38.578  1.00  0.00    -0.744 OA
ENDBRANCH  80  83
ENDBRANCH  52  76
BRANCH  64  87
ATOM     87  C   UNL A   1      44.561  27.916  34.246  1.00  0.00     0.023 A 
ATOM     88  C   UNL A   1      45.763  28.651  34.224  1.00  0.00     0.012 A 
ATOM     89  C   UNL A   1      44.456  26.792  35.088  1.00  0.00     0.148 A 
ATOM     90  C   UNL A   1      46.850  28.258  35.003  1.00  0.00     0.002 A 
ATOM     91  C   UNL A   1      45.529  26.430  35.895  1.00  0.00     0.091 A 
ATOM     92  F   UNL A   1      43.313  26.089  35.081  1.00  0.00    -0.205 F 
ATOM     93  C   UNL A   1      46.730  27.156  35.848  1.00  0.00     0.022 A 
BRANCH  91  94
ATOM     94  S   UNL A   1      45.421  25.080  37.076  1.00  0.00     0.127 S 
ATOM     95  O   UNL A   1      45.148  23.939  36.203  1.00  0.00    -0.237 OA
ATOM     96  O   UNL A   1      46.753  25.079  37.681  1.00  0.00    -0.237 OA
ATOM     97  O   UNL A   1      44.348  25.445  37.992  1.00  0.00    -0.744 OA
ENDBRANCH  91  94
ENDBRANCH  64  87
ENDBRANCH  38  39
ENDBRANCH  31  33
ENDBRANCH  30  31
ENDBRANCH  29  30
ENDBRANCH  28  29
ENDBRANCH  27  28
ENDBRANCH  26  27
ENDBRANCH   1  26
TORSDOF 25
ENDMDL
