MODEL 1
REMARK VINA RESULT:      -9.8      0.000      0.000
REMARK SMILES CCCCCNC(=O)N1Cc2nc[nH]c2C[C@@H]1C(=O)OCCOCCOCCOC(=O)c1ccc(-c2c3nc(c(-c4cccc(S(=O)(=O)[O-])c4F)c4ccc([nH]4)c(-c4cccc(S(=O)(=O)[O-])c4F)c4nc(c(-c5cccc(S(=O)(=O)[O-])c5F)c5ccc2[nH]5)C=C4)C=C3)cc1
REMARK SMILES IDX 24 1 23 2 22 3 21 4 20 5 18 6 19 7 17 8 9 9 10 10 11 11
REMARK SMILES IDX 16 12 12 13 15 14 13 15 14 16 7 18 6 19 8 21 5 22 4 23 3 24
REMARK SMILES IDX 2 25 1 26 25 27 26 28 27 29 28 30 29 31 30 32 31 33 32 34
REMARK SMILES IDX 33 35 94 36 34 37 93 38 35 39 36 40 37 41 87 42 38 43 92 44
REMARK SMILES IDX 86 45 88 46 39 47 91 48 85 49 84 50 40 52 72 53 52 54 71 55
REMARK SMILES IDX 53 56 56 57 70 58 89 59 54 60 55 61 69 63 90 64 57 65 41 66
REMARK SMILES IDX 42 67 50 68 43 69 45 70 51 71 44 72 46 73 47 74 48 75 49 76
REMARK SMILES IDX 73 77 74 78 82 79 75 80 77 81 83 82 76 83 78 84 79 85 80 86
REMARK SMILES IDX 81 87 58 88 59 89 67 90 60 91 62 92 68 93 61 94 63 95 64 96
REMARK SMILES IDX 65 97 66 98
REMARK H PARENT 14 17 6 20 88 51 56 62
REMARK Flexibility Score: inf
ROOT
ATOM      1  C   UNL A   1      34.278  32.951  27.928  1.00  0.00     0.188 C 
ENDROOT
BRANCH   1   2
ATOM      2  O   UNL A   1      34.398  31.556  28.162  1.00  0.00    -0.376 OA
BRANCH   2   3
ATOM      3  C   UNL A   1      33.436  30.667  27.612  1.00  0.00     0.202 C 
BRANCH   3   4
ATOM      4  C   UNL A   1      33.925  29.492  26.766  1.00  0.00     0.261 C 
BRANCH   4   5
ATOM      5  O   UNL A   1      33.294  28.241  27.119  1.00  0.00    -0.462 OA
BRANCH   5   6
ATOM      6  C   UNL A   1      31.962  28.180  26.905  1.00  0.00     0.329 C 
ATOM      7  O   UNL A   1      31.136  28.285  27.814  1.00  0.00    -0.250 OA
BRANCH   6   8
ATOM      8  C   UNL A   1      31.503  28.163  25.437  1.00  0.00     0.203 C 
ATOM      9  N   UNL A   1      31.950  27.315  24.276  1.00  0.00    -0.305 N 
ATOM     10  C   UNL A   1      30.958  27.290  23.151  1.00  0.00     0.180 C 
ATOM     11  C   UNL A   1      30.298  28.632  22.972  1.00  0.00     0.081 A 
ATOM     12  C   UNL A   1      31.341  29.668  25.020  1.00  0.00     0.093 C 
ATOM     13  N   UNL A   1      29.350  28.942  22.027  1.00  0.00    -0.240 NA
ATOM     14  C   UNL A   1      30.474  29.697  23.824  1.00  0.00     0.042 A 
ATOM     15  C   UNL A   1      29.010  30.191  22.276  1.00  0.00     0.197 A 
ATOM     16  N   UNL A   1      29.668  30.695  23.368  1.00  0.00    -0.348 N 
ATOM     17  H   UNL A   1      29.577  31.599  23.747  1.00  0.00     0.167 HD
BRANCH   9  18
ATOM     18  C   UNL A   1      33.247  27.282  23.808  1.00  0.00     0.318 C 
ATOM     19  N   UNL A   1      34.019  26.203  24.134  1.00  0.00    -0.338 N 
ATOM     20  H   UNL A   1      34.738  25.994  23.494  1.00  0.00     0.165 HD
ATOM     21  O   UNL A   1      33.640  28.051  22.933  1.00  0.00    -0.249 OA
BRANCH  19  22
ATOM     22  C   UNL A   1      33.940  25.318  25.280  1.00  0.00     0.117 C 
BRANCH  22  23
ATOM     23  C   UNL A   1      33.616  23.847  25.003  1.00  0.00     0.021 C 
BRANCH  23  24
ATOM     24  C   UNL A   1      32.297  23.274  25.558  1.00  0.00     0.002 C 
BRANCH  24  25
ATOM     25  C   UNL A   1      30.954  23.793  25.012  1.00  0.00    -0.003 C 
ATOM     26  C   UNL A   1      30.722  23.683  23.519  1.00  0.00     0.004 C 
ENDBRANCH  24  25
ENDBRANCH  23  24
ENDBRANCH  22  23
ENDBRANCH  19  22
ENDBRANCH   9  18
ENDBRANCH   6   8
ENDBRANCH   5   6
ENDBRANCH   4   5
ENDBRANCH   3   4
ENDBRANCH   2   3
ENDBRANCH   1   2
BRANCH   1  27
ATOM     27  C   UNL A   1      34.792  33.847  29.044  1.00  0.00     0.188 C 
BRANCH  27  28
ATOM     28  O   UNL A   1      33.914  34.177  30.101  1.00  0.00    -0.376 OA
BRANCH  28  29
ATOM     29  C   UNL A   1      34.371  34.046  31.438  1.00  0.00     0.202 C 
BRANCH  29  30
ATOM     30  C   UNL A   1      34.831  32.743  32.088  1.00  0.00     0.261 C 
BRANCH  30  31
ATOM     31  O   UNL A   1      36.214  32.687  32.211  1.00  0.00    -0.460 OA
BRANCH  31  32
ATOM     32  C   UNL A   1      36.678  31.422  32.264  1.00  0.00     0.338 C 
ATOM     33  O   UNL A   1      36.833  30.738  33.269  1.00  0.00    -0.246 OA
BRANCH  32  34
ATOM     34  C   UNL A   1      37.011  31.085  30.877  1.00  0.00     0.060 A 
ATOM     35  C   UNL A   1      36.776  29.766  30.523  1.00  0.00     0.016 A 
ATOM     36  C   UNL A   1      37.963  31.897  30.225  1.00  0.00     0.016 A 
ATOM     37  C   UNL A   1      37.821  29.133  29.912  1.00  0.00     0.010 A 
ATOM     38  C   UNL A   1      38.992  31.275  29.616  1.00  0.00     0.010 A 
ATOM     39  C   UNL A   1      38.962  29.893  29.656  1.00  0.00    -0.014 A 
BRANCH  39  40
ATOM     40  C   UNL A   1      40.230  29.241  29.565  1.00  0.00     0.031 A 
ATOM     41  C   UNL A   1      40.790  29.022  30.898  1.00  0.00     0.074 A 
ATOM     42  C   UNL A   1      40.678  28.741  28.401  1.00  0.00     0.049 A 
ATOM     43  N   UNL A   1      41.513  29.868  31.554  1.00  0.00    -0.248 NA
ATOM     44  C   UNL A   1      40.176  27.969  31.725  1.00  0.00     0.031 C 
ATOM     45  C   UNL A   1      39.992  28.544  27.121  1.00  0.00     0.029 A 
ATOM     46  N   UNL A   1      41.880  28.173  28.189  1.00  0.00    -0.354 N 
ATOM     47  C   UNL A   1      41.641  29.276  32.799  1.00  0.00     0.074 A 
ATOM     48  C   UNL A   1      40.501  28.419  32.938  1.00  0.00     0.031 C 
ATOM     49  C   UNL A   1      40.717  27.677  26.370  1.00  0.00     0.029 A 
ATOM     50  C   UNL A   1      41.949  27.359  27.075  1.00  0.00     0.049 A 
ATOM     51  H   UNL A   1      42.651  28.327  28.782  1.00  0.00     0.167 HD
ATOM     52  C   UNL A   1      42.852  29.197  33.412  1.00  0.00     0.034 A 
ATOM     53  C   UNL A   1      42.902  26.413  26.884  1.00  0.00     0.034 A 
ATOM     54  C   UNL A   1      43.822  30.035  32.738  1.00  0.00     0.049 A 
ATOM     55  C   UNL A   1      44.020  26.726  27.828  1.00  0.00     0.074 A 
ATOM     56  C   UNL A   1      43.889  31.381  32.433  1.00  0.00     0.029 A 
ATOM     57  N   UNL A   1      44.690  29.405  31.871  1.00  0.00    -0.354 N 
ATOM     58  N   UNL A   1      44.740  27.817  27.757  1.00  0.00    -0.248 NA
ATOM     59  C   UNL A   1      43.988  26.095  29.143  1.00  0.00     0.031 C 
ATOM     60  C   UNL A   1      44.438  31.437  31.117  1.00  0.00     0.029 A 
ATOM     61  C   UNL A   1      44.742  30.135  30.710  1.00  0.00     0.049 A 
ATOM     62  H   UNL A   1      45.187  28.576  32.054  1.00  0.00     0.167 HD
ATOM     63  C   UNL A   1      44.886  28.240  29.077  1.00  0.00     0.074 A 
ATOM     64  C   UNL A   1      44.478  27.092  29.888  1.00  0.00     0.031 C 
ATOM     65  C   UNL A   1      45.002  29.567  29.397  1.00  0.00     0.034 A 
BRANCH  52  66
ATOM     66  C   UNL A   1      43.265  28.084  34.348  1.00  0.00     0.023 A 
ATOM     67  C   UNL A   1      43.737  28.482  35.614  1.00  0.00     0.012 A 
ATOM     68  C   UNL A   1      43.426  26.715  34.014  1.00  0.00     0.148 A 
ATOM     69  C   UNL A   1      44.385  27.586  36.469  1.00  0.00     0.002 A 
ATOM     70  C   UNL A   1      43.999  25.812  34.896  1.00  0.00     0.091 A 
ATOM     71  F   UNL A   1      43.156  26.268  32.788  1.00  0.00    -0.205 F 
ATOM     72  C   UNL A   1      44.511  26.249  36.114  1.00  0.00     0.022 A 
BRANCH  70  73
ATOM     73  S   UNL A   1      44.143  24.066  34.483  1.00  0.00     0.127 S 
ATOM     74  O   UNL A   1      42.741  23.662  34.436  1.00  0.00    -0.237 OA
ATOM     75  O   UNL A   1      44.819  24.120  33.187  1.00  0.00    -0.237 OA
ATOM     76  O   UNL A   1      44.945  23.470  35.546  1.00  0.00    -0.744 OA
ENDBRANCH  70  73
ENDBRANCH  52  66
BRANCH  53  77
ATOM     77  C   UNL A   1      42.735  25.080  26.251  1.00  0.00     0.023 A 
ATOM     78  C   UNL A   1      43.678  24.622  25.311  1.00  0.00     0.012 A 
ATOM     79  C   UNL A   1      41.786  24.150  26.740  1.00  0.00     0.148 A 
ATOM     80  C   UNL A   1      43.681  23.287  24.881  1.00  0.00     0.002 A 
ATOM     81  C   UNL A   1      41.779  22.832  26.296  1.00  0.00     0.091 A 
ATOM     82  F   UNL A   1      40.950  24.530  27.714  1.00  0.00    -0.205 F 
ATOM     83  C   UNL A   1      42.733  22.392  25.371  1.00  0.00     0.022 A 
BRANCH  81  84
ATOM     84  S   UNL A   1      40.582  21.630  26.895  1.00  0.00     0.127 S 
ATOM     85  O   UNL A   1      39.313  22.239  26.496  1.00  0.00    -0.237 OA
ATOM     86  O   UNL A   1      40.951  20.434  26.144  1.00  0.00    -0.237 OA
ATOM     87  O   UNL A   1      40.779  21.559  28.338  1.00  0.00    -0.744 OA
ENDBRANCH  81  84
ENDBRANCH  53  77
BRANCH  65  88
ATOM     88  C   UNL A   1      45.154  30.564  28.266  1.00  0.00     0.023 A 
ATOM     89  C   UNL A   1      44.065  30.960  27.457  1.00  0.00     0.012 A 
ATOM     90  C   UNL A   1      46.364  31.267  28.146  1.00  0.00     0.148 A 
ATOM     91  C   UNL A   1      44.183  32.014  26.545  1.00  0.00     0.002 A 
ATOM     92  C   UNL A   1      46.466  32.345  27.270  1.00  0.00     0.091 A 
ATOM     93  F   UNL A   1      47.391  30.893  28.925  1.00  0.00    -0.205 F 
ATOM     94  C   UNL A   1      45.380  32.716  26.462  1.00  0.00     0.022 A 
BRANCH  92  95
ATOM     95  S   UNL A   1      47.936  33.371  27.210  1.00  0.00     0.127 S 
ATOM     96  O   UNL A   1      48.552  32.948  25.954  1.00  0.00    -0.237 OA
ATOM     97  O   UNL A   1      47.376  34.724  27.191  1.00  0.00    -0.237 OA
ATOM     98  O   UNL A   1      48.693  33.059  28.415  1.00  0.00    -0.744 OA
ENDBRANCH  92  95
ENDBRANCH  65  88
ENDBRANCH  39  40
ENDBRANCH  32  34
ENDBRANCH  31  32
ENDBRANCH  30  31
ENDBRANCH  29  30
ENDBRANCH  28  29
ENDBRANCH  27  28
ENDBRANCH   1  27
TORSDOF 25
ENDMDL
MODEL 2
REMARK VINA RESULT:      -9.5      2.652      7.400
REMARK SMILES CCCCCNC(=O)N1Cc2nc[nH]c2C[C@@H]1C(=O)OCCOCCOCCOC(=O)c1ccc(-c2c3nc(c(-c4cccc(S(=O)(=O)[O-])c4F)c4ccc([nH]4)c(-c4cccc(S(=O)(=O)[O-])c4F)c4nc(c(-c5cccc(S(=O)(=O)[O-])c5F)c5ccc2[nH]5)C=C4)C=C3)cc1
REMARK SMILES IDX 24 1 23 2 22 3 21 4 20 5 18 6 19 7 17 8 9 9 10 10 11 11
REMARK SMILES IDX 16 12 12 13 15 14 13 15 14 16 7 18 6 19 8 21 5 22 4 23 3 24
REMARK SMILES IDX 2 25 1 26 25 27 26 28 27 29 28 30 29 31 30 32 31 33 32 34
REMARK SMILES IDX 33 35 94 36 34 37 93 38 35 39 36 40 37 41 87 42 38 43 92 44
REMARK SMILES IDX 86 45 88 46 39 47 91 48 85 49 84 50 40 52 72 53 52 54 71 55
REMARK SMILES IDX 53 56 56 57 70 58 89 59 54 60 55 61 69 63 90 64 57 65 41 66
REMARK SMILES IDX 42 67 50 68 43 69 45 70 51 71 44 72 46 73 47 74 48 75 49 76
REMARK SMILES IDX 73 77 74 78 82 79 75 80 77 81 83 82 76 83 78 84 79 85 80 86
REMARK SMILES IDX 81 87 58 88 59 89 67 90 60 91 62 92 68 93 61 94 63 95 64 96
REMARK SMILES IDX 65 97 66 98
REMARK H PARENT 14 17 6 20 88 51 56 62
REMARK Flexibility Score: inf
ROOT
ATOM      1  C   UNL A   1      35.540  32.498  28.025  1.00  0.00     0.188 C 
ENDROOT
BRANCH   1   2
ATOM      2  O   UNL A   1      35.320  31.114  27.804  1.00  0.00    -0.376 OA
BRANCH   2   3
ATOM      3  C   UNL A   1      33.994  30.630  27.639  1.00  0.00     0.202 C 
BRANCH   3   4
ATOM      4  C   UNL A   1      33.685  29.732  26.444  1.00  0.00     0.261 C 
BRANCH   4   5
ATOM      5  O   UNL A   1      32.375  29.128  26.515  1.00  0.00    -0.462 OA
BRANCH   5   6
ATOM      6  C   UNL A   1      32.225  27.978  25.822  1.00  0.00     0.329 C 
ATOM      7  O   UNL A   1      32.816  26.939  26.122  1.00  0.00    -0.250 OA
BRANCH   6   8
ATOM      8  C   UNL A   1      31.128  27.965  24.744  1.00  0.00     0.203 C 
ATOM      9  N   UNL A   1      30.331  26.827  24.164  1.00  0.00    -0.305 N 
ATOM     10  C   UNL A   1      29.070  27.277  23.487  1.00  0.00     0.180 C 
ATOM     11  C   UNL A   1      29.274  28.581  22.761  1.00  0.00     0.081 A 
ATOM     12  C   UNL A   1      31.613  28.955  23.626  1.00  0.00     0.093 C 
ATOM     13  N   UNL A   1      28.320  29.257  22.038  1.00  0.00    -0.240 NA
ATOM     14  C   UNL A   1      30.423  29.332  22.835  1.00  0.00     0.042 A 
ATOM     15  C   UNL A   1      28.911  30.365  21.638  1.00  0.00     0.197 A 
ATOM     16  N   UNL A   1      30.198  30.459  22.103  1.00  0.00    -0.348 N 
ATOM     17  H   UNL A   1      30.832  31.193  21.940  1.00  0.00     0.167 HD
BRANCH   9  18
ATOM     18  C   UNL A   1      30.897  25.750  23.515  1.00  0.00     0.318 C 
ATOM     19  N   UNL A   1      30.829  24.527  24.121  1.00  0.00    -0.338 N 
ATOM     20  H   UNL A   1      30.847  23.756  23.509  1.00  0.00     0.165 HD
ATOM     21  O   UNL A   1      31.235  25.810  22.334  1.00  0.00    -0.249 OA
BRANCH  19  22
ATOM     22  C   UNL A   1      30.733  24.194  25.528  1.00  0.00     0.117 C 
BRANCH  22  23
ATOM     23  C   UNL A   1      31.011  22.740  25.920  1.00  0.00     0.021 C 
BRANCH  23  24
ATOM     24  C   UNL A   1      32.336  22.101  25.460  1.00  0.00     0.002 C 
BRANCH  24  25
ATOM     25  C   UNL A   1      32.304  20.828  24.595  1.00  0.00    -0.003 C 
ATOM     26  C   UNL A   1      32.739  19.532  25.248  1.00  0.00     0.004 C 
ENDBRANCH  24  25
ENDBRANCH  23  24
ENDBRANCH  22  23
ENDBRANCH  19  22
ENDBRANCH   9  18
ENDBRANCH   6   8
ENDBRANCH   5   6
ENDBRANCH   4   5
ENDBRANCH   3   4
ENDBRANCH   2   3
ENDBRANCH   1   2
BRANCH   1  27
ATOM     27  C   UNL A   1      34.837  33.086  29.238  1.00  0.00     0.188 C 
BRANCH  27  28
ATOM     28  O   UNL A   1      35.377  32.833  30.519  1.00  0.00    -0.376 OA
BRANCH  28  29
ATOM     29  C   UNL A   1      36.751  33.102  30.749  1.00  0.00     0.202 C 
BRANCH  29  30
ATOM     30  C   UNL A   1      37.801  32.061  31.132  1.00  0.00     0.261 C 
BRANCH  30  31
ATOM     31  O   UNL A   1      37.970  31.106  30.136  1.00  0.00    -0.460 OA
BRANCH  31  32
ATOM     32  C   UNL A   1      37.338  29.948  30.416  1.00  0.00     0.338 C 
ATOM     33  O   UNL A   1      36.508  29.758  31.296  1.00  0.00    -0.246 OA
BRANCH  32  34
ATOM     34  C   UNL A   1      37.912  28.972  29.484  1.00  0.00     0.060 A 
ATOM     35  C   UNL A   1      38.142  27.716  30.022  1.00  0.00     0.016 A 
ATOM     36  C   UNL A   1      38.631  29.478  28.381  1.00  0.00     0.016 A 
ATOM     37  C   UNL A   1      39.393  27.212  29.809  1.00  0.00     0.010 A 
ATOM     38  C   UNL A   1      39.863  28.979  28.165  1.00  0.00     0.010 A 
ATOM     39  C   UNL A   1      40.262  27.977  29.030  1.00  0.00    -0.014 A 
BRANCH  39  40
ATOM     40  C   UNL A   1      41.672  27.841  29.217  1.00  0.00     0.031 A 
ATOM     41  C   UNL A   1      42.215  26.835  28.305  1.00  0.00     0.074 A 
ATOM     42  C   UNL A   1      42.361  28.699  29.988  1.00  0.00     0.049 A 
ATOM     43  N   UNL A   1      42.278  25.567  28.540  1.00  0.00    -0.248 NA
ATOM     44  C   UNL A   1      42.321  27.200  26.881  1.00  0.00     0.031 C 
ATOM     45  C   UNL A   1      41.961  29.975  30.587  1.00  0.00     0.029 A 
ATOM     46  N   UNL A   1      43.671  28.623  30.287  1.00  0.00    -0.354 N 
ATOM     47  C   UNL A   1      42.697  25.040  27.331  1.00  0.00     0.074 A 
ATOM     48  C   UNL A   1      42.283  25.983  26.335  1.00  0.00     0.031 C 
ATOM     49  C   UNL A   1      43.079  30.653  30.951  1.00  0.00     0.029 A 
ATOM     50  C   UNL A   1      44.240  29.809  30.708  1.00  0.00     0.049 A 
ATOM     51  H   UNL A   1      44.185  27.787  30.212  1.00  0.00     0.167 HD
ATOM     52  C   UNL A   1      43.702  24.127  27.279  1.00  0.00     0.034 A 
ATOM     53  C   UNL A   1      45.573  30.060  30.694  1.00  0.00     0.034 A 
ATOM     54  C   UNL A   1      44.006  23.625  28.604  1.00  0.00     0.049 A 
ATOM     55  C   UNL A   1      46.261  28.738  30.572  1.00  0.00     0.074 A 
ATOM     56  C   UNL A   1      43.272  22.994  29.589  1.00  0.00     0.029 A 
ATOM     57  N   UNL A   1      45.102  24.172  29.237  1.00  0.00    -0.354 N 
ATOM     58  N   UNL A   1      46.197  27.804  31.486  1.00  0.00    -0.248 NA
ATOM     59  C   UNL A   1      46.573  28.262  29.228  1.00  0.00     0.031 C 
ATOM     60  C   UNL A   1      43.718  23.575  30.814  1.00  0.00     0.029 A 
ATOM     61  C   UNL A   1      44.744  24.478  30.527  1.00  0.00     0.049 A 
ATOM     62  H   UNL A   1      45.989  24.315  28.835  1.00  0.00     0.167 HD
ATOM     63  C   UNL A   1      46.028  26.615  30.778  1.00  0.00     0.074 A 
ATOM     64  C   UNL A   1      46.356  26.952  29.392  1.00  0.00     0.031 C 
ATOM     65  C   UNL A   1      45.327  25.561  31.301  1.00  0.00     0.034 A 
BRANCH  52  66
ATOM     66  C   UNL A   1      44.668  23.982  26.125  1.00  0.00     0.023 A 
ATOM     67  C   UNL A   1      44.732  22.708  25.527  1.00  0.00     0.012 A 
ATOM     68  C   UNL A   1      45.654  24.920  25.727  1.00  0.00     0.148 A 
ATOM     69  C   UNL A   1      45.752  22.370  24.632  1.00  0.00     0.002 A 
ATOM     70  C   UNL A   1      46.619  24.605  24.781  1.00  0.00     0.091 A 
ATOM     71  F   UNL A   1      45.778  26.094  26.343  1.00  0.00    -0.205 F 
ATOM     72  C   UNL A   1      46.693  23.319  24.254  1.00  0.00     0.022 A 
BRANCH  70  73
ATOM     73  S   UNL A   1      47.829  25.823  24.241  1.00  0.00     0.127 S 
ATOM     74  O   UNL A   1      48.809  25.758  25.322  1.00  0.00    -0.237 OA
ATOM     75  O   UNL A   1      48.272  25.262  22.966  1.00  0.00    -0.237 OA
ATOM     76  O   UNL A   1      47.100  27.080  24.115  1.00  0.00    -0.744 OA
ENDBRANCH  70  73
ENDBRANCH  52  66
BRANCH  53  77
ATOM     77  C   UNL A   1      46.245  31.347  30.382  1.00  0.00     0.023 A 
ATOM     78  C   UNL A   1      47.217  31.866  31.260  1.00  0.00     0.012 A 
ATOM     79  C   UNL A   1      46.114  31.954  29.110  1.00  0.00     0.148 A 
ATOM     80  C   UNL A   1      48.034  32.941  30.880  1.00  0.00     0.002 A 
ATOM     81  C   UNL A   1      46.911  33.035  28.745  1.00  0.00     0.091 A 
ATOM     82  F   UNL A   1      45.276  31.413  28.218  1.00  0.00    -0.205 F 
ATOM     83  C   UNL A   1      47.882  33.526  29.626  1.00  0.00     0.022 A 
BRANCH  81  84
ATOM     84  S   UNL A   1      46.763  33.829  27.138  1.00  0.00     0.127 S 
ATOM     85  O   UNL A   1      45.376  34.296  27.156  1.00  0.00    -0.237 OA
ATOM     86  O   UNL A   1      47.767  34.885  27.228  1.00  0.00    -0.237 OA
ATOM     87  O   UNL A   1      47.027  32.786  26.154  1.00  0.00    -0.744 OA
ENDBRANCH  81  84
ENDBRANCH  53  77
BRANCH  65  88
ATOM     88  C   UNL A   1      44.891  25.643  32.751  1.00  0.00     0.023 A 
ATOM     89  C   UNL A   1      43.769  26.400  33.160  1.00  0.00     0.012 A 
ATOM     90  C   UNL A   1      45.492  24.783  33.685  1.00  0.00     0.148 A 
ATOM     91  C   UNL A   1      43.272  26.314  34.465  1.00  0.00     0.002 A 
ATOM     92  C   UNL A   1      44.969  24.666  34.970  1.00  0.00     0.091 A 
ATOM     93  F   UNL A   1      46.549  24.060  33.286  1.00  0.00    -0.205 F 
ATOM     94  C   UNL A   1      43.864  25.436  35.366  1.00  0.00     0.022 A 
BRANCH  92  95
ATOM     95  S   UNL A   1      45.602  23.459  36.136  1.00  0.00     0.127 S 
ATOM     96  O   UNL A   1      47.047  23.604  35.971  1.00  0.00    -0.237 OA
ATOM     97  O   UNL A   1      45.080  23.949  37.413  1.00  0.00    -0.237 OA
ATOM     98  O   UNL A   1      45.050  22.175  35.723  1.00  0.00    -0.744 OA
ENDBRANCH  92  95
ENDBRANCH  65  88
ENDBRANCH  39  40
ENDBRANCH  32  34
ENDBRANCH  31  32
ENDBRANCH  30  31
ENDBRANCH  29  30
ENDBRANCH  28  29
ENDBRANCH  27  28
ENDBRANCH   1  27
TORSDOF 25
ENDMDL
MODEL 3
REMARK VINA RESULT:      -9.5      2.144      4.085
REMARK SMILES CCCCCNC(=O)N1Cc2nc[nH]c2C[C@@H]1C(=O)OCCOCCOCCOC(=O)c1ccc(-c2c3nc(c(-c4cccc(S(=O)(=O)[O-])c4F)c4ccc([nH]4)c(-c4cccc(S(=O)(=O)[O-])c4F)c4nc(c(-c5cccc(S(=O)(=O)[O-])c5F)c5ccc2[nH]5)C=C4)C=C3)cc1
REMARK SMILES IDX 24 1 23 2 22 3 21 4 20 5 18 6 19 7 17 8 9 9 10 10 11 11
REMARK SMILES IDX 16 12 12 13 15 14 13 15 14 16 7 18 6 19 8 21 5 22 4 23 3 24
REMARK SMILES IDX 2 25 1 26 25 27 26 28 27 29 28 30 29 31 30 32 31 33 32 34
REMARK SMILES IDX 33 35 94 36 34 37 93 38 35 39 36 40 37 41 87 42 38 43 92 44
REMARK SMILES IDX 86 45 88 46 39 47 91 48 85 49 84 50 40 52 72 53 52 54 71 55
REMARK SMILES IDX 53 56 56 57 70 58 89 59 54 60 55 61 69 63 90 64 57 65 41 66
REMARK SMILES IDX 42 67 50 68 43 69 45 70 51 71 44 72 46 73 47 74 48 75 49 76
REMARK SMILES IDX 73 77 74 78 82 79 75 80 77 81 83 82 76 83 78 84 79 85 80 86
REMARK SMILES IDX 81 87 58 88 59 89 67 90 60 91 62 92 68 93 61 94 63 95 64 96
REMARK SMILES IDX 65 97 66 98
REMARK H PARENT 14 17 6 20 88 51 56 62
REMARK Flexibility Score: inf
ROOT
ATOM      1  C   UNL A   1      32.502  28.611  24.581  1.00  0.00     0.188 C 
ENDROOT
BRANCH   1   2
ATOM      2  O   UNL A   1      32.406  28.159  23.239  1.00  0.00    -0.376 OA
BRANCH   2   3
ATOM      3  C   UNL A   1      33.353  27.223  22.743  1.00  0.00     0.202 C 
BRANCH   3   4
ATOM      4  C   UNL A   1      33.014  25.735  22.806  1.00  0.00     0.261 C 
BRANCH   4   5
ATOM      5  O   UNL A   1      34.174  24.901  23.022  1.00  0.00    -0.462 OA
BRANCH   5   6
ATOM      6  C   UNL A   1      34.467  24.634  24.313  1.00  0.00     0.329 C 
ATOM      7  O   UNL A   1      34.312  25.459  25.215  1.00  0.00    -0.250 OA
BRANCH   6   8
ATOM      8  C   UNL A   1      34.828  23.176  24.647  1.00  0.00     0.203 C 
ATOM      9  N   UNL A   1      33.993  22.061  25.216  1.00  0.00    -0.305 N 
ATOM     10  C   UNL A   1      34.576  20.702  24.964  1.00  0.00     0.180 C 
ATOM     11  C   UNL A   1      36.079  20.724  25.061  1.00  0.00     0.081 A 
ATOM     12  C   UNL A   1      36.248  23.227  25.313  1.00  0.00     0.093 C 
ATOM     13  N   UNL A   1      36.912  19.645  24.891  1.00  0.00    -0.240 NA
ATOM     14  C   UNL A   1      36.824  21.870  25.214  1.00  0.00     0.042 A 
ATOM     15  C   UNL A   1      38.133  20.131  24.998  1.00  0.00     0.197 A 
ATOM     16  N   UNL A   1      38.131  21.488  25.193  1.00  0.00    -0.348 N 
ATOM     17  H   UNL A   1      38.918  22.070  25.298  1.00  0.00     0.167 HD
BRANCH   9  18
ATOM     18  C   UNL A   1      33.369  22.123  26.444  1.00  0.00     0.318 C 
ATOM     19  N   UNL A   1      32.017  21.925  26.488  1.00  0.00    -0.338 N 
ATOM     20  H   UNL A   1      31.674  21.570  27.341  1.00  0.00     0.165 HD
ATOM     21  O   UNL A   1      34.005  22.110  27.497  1.00  0.00    -0.249 OA
BRANCH  19  22
ATOM     22  C   UNL A   1      31.012  22.159  25.469  1.00  0.00     0.117 C 
BRANCH  22  23
ATOM     23  C   UNL A   1      30.797  23.608  25.023  1.00  0.00     0.021 C 
BRANCH  23  24
ATOM     24  C   UNL A   1      30.846  24.716  26.093  1.00  0.00     0.002 C 
BRANCH  24  25
ATOM     25  C   UNL A   1      30.419  26.148  25.723  1.00  0.00    -0.003 C 
ATOM     26  C   UNL A   1      29.586  26.324  24.470  1.00  0.00     0.004 C 
ENDBRANCH  24  25
ENDBRANCH  23  24
ENDBRANCH  22  23
ENDBRANCH  19  22
ENDBRANCH   9  18
ENDBRANCH   6   8
ENDBRANCH   5   6
ENDBRANCH   4   5
ENDBRANCH   3   4
ENDBRANCH   2   3
ENDBRANCH   1   2
BRANCH   1  27
ATOM     27  C   UNL A   1      31.602  29.781  24.942  1.00  0.00     0.188 C 
BRANCH  27  28
ATOM     28  O   UNL A   1      31.496  30.156  26.300  1.00  0.00    -0.376 OA
BRANCH  28  29
ATOM     29  C   UNL A   1      32.610  29.957  27.155  1.00  0.00     0.202 C 
BRANCH  29  30
ATOM     30  C   UNL A   1      33.784  30.921  27.312  1.00  0.00     0.261 C 
BRANCH  30  31
ATOM     31  O   UNL A   1      34.606  30.566  28.375  1.00  0.00    -0.460 OA
BRANCH  31  32
ATOM     32  C   UNL A   1      35.875  30.318  27.989  1.00  0.00     0.338 C 
ATOM     33  O   UNL A   1      36.249  29.980  26.873  1.00  0.00    -0.246 OA
BRANCH  32  34
ATOM     34  C   UNL A   1      36.676  30.480  29.206  1.00  0.00     0.060 A 
ATOM     35  C   UNL A   1      37.612  31.501  29.158  1.00  0.00     0.016 A 
ATOM     36  C   UNL A   1      36.810  29.354  30.045  1.00  0.00     0.016 A 
ATOM     37  C   UNL A   1      38.878  31.146  29.528  1.00  0.00     0.010 A 
ATOM     38  C   UNL A   1      38.058  29.006  30.417  1.00  0.00     0.010 A 
ATOM     39  C   UNL A   1      39.068  29.837  29.971  1.00  0.00    -0.014 A 
BRANCH  39  40
ATOM     40  C   UNL A   1      40.355  29.233  29.833  1.00  0.00     0.031 A 
ATOM     41  C   UNL A   1      40.943  28.974  31.147  1.00  0.00     0.074 A 
ATOM     42  C   UNL A   1      40.802  28.800  28.642  1.00  0.00     0.049 A 
ATOM     43  N   UNL A   1      41.646  29.813  31.831  1.00  0.00    -0.248 NA
ATOM     44  C   UNL A   1      40.376  27.865  31.936  1.00  0.00     0.031 C 
ATOM     45  C   UNL A   1      40.103  28.636  27.364  1.00  0.00     0.029 A 
ATOM     46  N   UNL A   1      42.018  28.282  28.389  1.00  0.00    -0.354 N 
ATOM     47  C   UNL A   1      41.814  29.172  33.046  1.00  0.00     0.074 A 
ATOM     48  C   UNL A   1      40.705  28.272  33.163  1.00  0.00     0.031 C 
ATOM     49  C   UNL A   1      40.845  27.827  26.565  1.00  0.00     0.029 A 
ATOM     50  C   UNL A   1      42.098  27.521  27.239  1.00  0.00     0.049 A 
ATOM     51  H   UNL A   1      42.792  28.435  28.977  1.00  0.00     0.167 HD
ATOM     52  C   UNL A   1      43.035  29.107  33.638  1.00  0.00     0.034 A 
ATOM     53  C   UNL A   1      43.078  26.617  26.992  1.00  0.00     0.034 A 
ATOM     54  C   UNL A   1      43.967  30.006  32.989  1.00  0.00     0.049 A 
ATOM     55  C   UNL A   1      44.199  26.926  27.934  1.00  0.00     0.074 A 
ATOM     56  C   UNL A   1      43.984  31.366  32.743  1.00  0.00     0.029 A 
ATOM     57  N   UNL A   1      44.842  29.445  32.083  1.00  0.00    -0.354 N 
ATOM     58  N   UNL A   1      44.881  28.042  27.902  1.00  0.00    -0.248 NA
ATOM     59  C   UNL A   1      44.208  26.237  29.220  1.00  0.00     0.031 C 
ATOM     60  C   UNL A   1      44.512  31.498  31.423  1.00  0.00     0.029 A 
ATOM     61  C   UNL A   1      44.852  30.227  30.955  1.00  0.00     0.049 A 
ATOM     62  H   UNL A   1      45.369  28.625  32.222  1.00  0.00     0.167 HD
ATOM     63  C   UNL A   1      45.033  28.411  29.238  1.00  0.00     0.074 A 
ATOM     64  C   UNL A   1      44.676  27.215  30.003  1.00  0.00     0.031 C 
ATOM     65  C   UNL A   1      45.110  29.726  29.615  1.00  0.00     0.034 A 
BRANCH  52  66
ATOM     66  C   UNL A   1      43.499  27.968  34.518  1.00  0.00     0.023 A 
ATOM     67  C   UNL A   1      43.988  28.328  35.790  1.00  0.00     0.012 A 
ATOM     68  C   UNL A   1      43.690  26.620  34.124  1.00  0.00     0.148 A 
ATOM     69  C   UNL A   1      44.678  27.415  36.593  1.00  0.00     0.002 A 
ATOM     70  C   UNL A   1      44.307  25.698  34.955  1.00  0.00     0.091 A 
ATOM     71  F   UNL A   1      43.407  26.217  32.886  1.00  0.00    -0.205 F 
ATOM     72  C   UNL A   1      44.833  26.098  36.180  1.00  0.00     0.022 A 
BRANCH  70  73
ATOM     73  S   UNL A   1      44.490  23.975  34.466  1.00  0.00     0.127 S 
ATOM     74  O   UNL A   1      43.107  23.605  34.184  1.00  0.00    -0.237 OA
ATOM     75  O   UNL A   1      45.357  24.087  33.293  1.00  0.00    -0.237 OA
ATOM     76  O   UNL A   1      45.113  23.303  35.601  1.00  0.00    -0.744 OA
ENDBRANCH  70  73
ENDBRANCH  52  66
BRANCH  53  77
ATOM     77  C   UNL A   1      42.945  25.308  26.304  1.00  0.00     0.023 A 
ATOM     78  C   UNL A   1      43.713  25.034  25.156  1.00  0.00     0.012 A 
ATOM     79  C   UNL A   1      42.246  24.232  26.902  1.00  0.00     0.148 A 
ATOM     80  C   UNL A   1      43.790  23.736  24.629  1.00  0.00     0.002 A 
ATOM     81  C   UNL A   1      42.307  22.950  26.365  1.00  0.00     0.091 A 
ATOM     82  F   UNL A   1      41.599  24.441  28.055  1.00  0.00    -0.205 F 
ATOM     83  C   UNL A   1      43.088  22.695  25.231  1.00  0.00     0.022 A 
BRANCH  81  84
ATOM     84  S   UNL A   1      41.426  21.565  27.100  1.00  0.00     0.127 S 
ATOM     85  O   UNL A   1      41.548  20.541  26.063  1.00  0.00    -0.237 OA
ATOM     86  O   UNL A   1      42.210  21.313  28.306  1.00  0.00    -0.237 OA
ATOM     87  O   UNL A   1      40.062  22.033  27.318  1.00  0.00    -0.744 OA
ENDBRANCH  81  84
ENDBRANCH  53  77
BRANCH  65  88
ATOM     88  C   UNL A   1      45.212  30.776  28.527  1.00  0.00     0.023 A 
ATOM     89  C   UNL A   1      44.071  31.332  27.906  1.00  0.00     0.012 A 
ATOM     90  C   UNL A   1      46.463  31.362  28.271  1.00  0.00     0.148 A 
ATOM     91  C   UNL A   1      44.176  32.428  27.043  1.00  0.00     0.002 A 
ATOM     92  C   UNL A   1      46.560  32.480  27.447  1.00  0.00     0.091 A 
ATOM     93  F   UNL A   1      47.541  30.835  28.873  1.00  0.00    -0.205 F 
ATOM     94  C   UNL A   1      45.420  33.011  26.824  1.00  0.00     0.022 A 
BRANCH  92  95
ATOM     95  S   UNL A   1      48.110  33.356  27.230  1.00  0.00     0.127 S 
ATOM     96  O   UNL A   1      48.220  33.424  25.774  1.00  0.00    -0.237 OA
ATOM     97  O   UNL A   1      47.842  34.639  27.882  1.00  0.00    -0.237 OA
ATOM     98  O   UNL A   1      49.124  32.550  27.898  1.00  0.00    -0.744 OA
ENDBRANCH  92  95
ENDBRANCH  65  88
ENDBRANCH  39  40
ENDBRANCH  32  34
ENDBRANCH  31  32
ENDBRANCH  30  31
ENDBRANCH  29  30
ENDBRANCH  28  29
ENDBRANCH  27  28
ENDBRANCH   1  27
TORSDOF 25
ENDMDL
