MODEL 1
REMARK VINA RESULT:      -9.0      0.000      0.000
REMARK SMILES CCCC[C@H](C(=O)OCCOCCOCCOC(=O)c1ccc(-c2c3nc(c(-c4cccc(S(=O)(=O)[O-])c4F)c4ccc([nH]4)c(-c4cccc(S(=O)(=O)[O-])c4F)c4nc(c(-c5cccc(S(=O)(=O)[O-])c5F)c5ccc2[nH]5)C=C4)C=C3)cc1)[C@H](C)O
REMARK SMILES IDX 12 1 11 2 10 3 9 4 8 5 6 6 7 7 5 8 4 9 3 10 2 11 1 12 83 13
REMARK SMILES IDX 84 14 85 15 13 17 14 18 15 19 16 20 17 21 18 22 19 23 20 24
REMARK SMILES IDX 21 25 82 26 22 27 81 28 23 29 24 30 25 31 75 32 26 33 80 34
REMARK SMILES IDX 74 35 76 36 27 37 79 38 73 39 72 40 28 42 60 43 40 44 59 45
REMARK SMILES IDX 41 46 44 47 58 48 77 49 42 50 43 51 57 53 78 54 45 55 29 56
REMARK SMILES IDX 30 57 38 58 31 59 33 60 39 61 32 62 34 63 35 64 36 65 37 66
REMARK SMILES IDX 61 67 62 68 70 69 63 70 65 71 71 72 64 73 66 74 67 75 68 76
REMARK SMILES IDX 69 77 46 78 47 79 55 80 48 81 50 82 56 83 49 84 51 85 52 86
REMARK SMILES IDX 53 87 54 88
REMARK H PARENT 85 16 76 41 44 52
REMARK Flexibility Score: inf
ROOT
ATOM      1  C   UNL A   1      33.866  28.050  22.370  1.00  0.00     0.188 C 
ENDROOT
BRANCH   1   2
ATOM      2  O   UNL A   1      33.462  26.977  21.543  1.00  0.00    -0.376 OA
BRANCH   2   3
ATOM      3  C   UNL A   1      32.531  26.047  22.066  1.00  0.00     0.202 C 
BRANCH   3   4
ATOM      4  C   UNL A   1      32.896  24.557  22.086  1.00  0.00     0.261 C 
BRANCH   4   5
ATOM      5  O   UNL A   1      32.800  23.924  23.368  1.00  0.00    -0.463 OA
BRANCH   5   6
ATOM      6  C   UNL A   1      31.588  23.445  23.766  1.00  0.00     0.311 C 
ATOM      7  O   UNL A   1      30.517  23.845  23.344  1.00  0.00    -0.252 OA
BRANCH   6   8
ATOM      8  C   UNL A   1      31.819  22.333  24.792  1.00  0.00     0.127 C 
BRANCH   8   9
ATOM      9  C   UNL A   1      33.172  21.602  24.608  1.00  0.00     0.018 C 
BRANCH   9  10
ATOM     10  C   UNL A   1      33.176  20.133  24.155  1.00  0.00     0.001 C 
BRANCH  10  11
ATOM     11  C   UNL A   1      32.748  19.094  25.191  1.00  0.00    -0.003 C 
ATOM     12  C   UNL A   1      33.431  17.751  25.025  1.00  0.00     0.004 C 
ENDBRANCH  10  11
ENDBRANCH   9  10
ENDBRANCH   8   9
BRANCH   8  13
ATOM     13  C   UNL A   1      31.486  22.760  26.233  1.00  0.00     0.125 C 
ATOM     14  C   UNL A   1      31.796  24.236  26.506  1.00  0.00     0.039 C 
BRANCH  13  15
ATOM     15  O   UNL A   1      32.288  22.004  27.147  1.00  0.00    -0.393 OA
ATOM     16  H   UNL A   1      32.793  21.336  26.656  1.00  0.00     0.210 HD
ENDBRANCH  13  15
ENDBRANCH   8  13
ENDBRANCH   6   8
ENDBRANCH   5   6
ENDBRANCH   4   5
ENDBRANCH   3   4
ENDBRANCH   2   3
ENDBRANCH   1   2
BRANCH   1  17
ATOM     17  C   UNL A   1      33.301  27.933  23.808  1.00  0.00     0.188 C 
BRANCH  17  18
ATOM     18  O   UNL A   1      31.900  27.996  24.034  1.00  0.00    -0.376 OA
BRANCH  18  19
ATOM     19  C   UNL A   1      31.418  28.855  25.054  1.00  0.00     0.202 C 
BRANCH  19  20
ATOM     20  C   UNL A   1      32.244  30.091  25.457  1.00  0.00     0.261 C 
BRANCH  20  21
ATOM     21  O   UNL A   1      32.544  30.234  26.859  1.00  0.00    -0.460 OA
BRANCH  21  22
ATOM     22  C   UNL A   1      33.102  31.415  27.244  1.00  0.00     0.338 C 
ATOM     23  O   UNL A   1      32.557  32.501  27.288  1.00  0.00    -0.246 OA
BRANCH  22  24
ATOM     24  C   UNL A   1      34.449  31.162  27.815  1.00  0.00     0.060 A 
ATOM     25  C   UNL A   1      34.777  29.863  28.239  1.00  0.00     0.016 A 
ATOM     26  C   UNL A   1      35.377  32.194  27.947  1.00  0.00     0.016 A 
ATOM     27  C   UNL A   1      36.039  29.590  28.778  1.00  0.00     0.010 A 
ATOM     28  C   UNL A   1      36.627  31.926  28.519  1.00  0.00     0.010 A 
ATOM     29  C   UNL A   1      36.964  30.627  28.945  1.00  0.00    -0.014 A 
BRANCH  29  30
ATOM     30  C   UNL A   1      38.243  30.402  29.670  1.00  0.00     0.031 A 
ATOM     31  C   UNL A   1      39.240  29.431  29.102  1.00  0.00     0.074 A 
ATOM     32  C   UNL A   1      38.487  30.999  30.851  1.00  0.00     0.049 A 
ATOM     33  N   UNL A   1      40.345  28.974  29.631  1.00  0.00    -0.248 NA
ATOM     34  C   UNL A   1      38.948  28.902  27.760  1.00  0.00     0.031 C 
ATOM     35  C   UNL A   1      37.616  31.975  31.503  1.00  0.00     0.029 A 
ATOM     36  N   UNL A   1      39.528  30.832  31.735  1.00  0.00    -0.354 N 
ATOM     37  C   UNL A   1      40.860  28.071  28.708  1.00  0.00     0.074 A 
ATOM     38  C   UNL A   1      39.950  28.053  27.582  1.00  0.00     0.031 C 
ATOM     39  C   UNL A   1      38.131  32.282  32.707  1.00  0.00     0.029 A 
ATOM     40  C   UNL A   1      39.344  31.496  32.927  1.00  0.00     0.049 A 
ATOM     41  H   UNL A   1      40.325  30.291  31.535  1.00  0.00     0.167 HD
ATOM     42  C   UNL A   1      41.988  27.326  28.789  1.00  0.00     0.034 A 
ATOM     43  C   UNL A   1      40.045  31.439  34.078  1.00  0.00     0.034 A 
ATOM     44  C   UNL A   1      42.896  27.348  29.904  1.00  0.00     0.049 A 
ATOM     45  C   UNL A   1      41.267  30.557  34.164  1.00  0.00     0.074 A 
ATOM     46  C   UNL A   1      44.095  26.670  30.048  1.00  0.00     0.029 A 
ATOM     47  N   UNL A   1      42.697  28.058  31.076  1.00  0.00    -0.354 N 
ATOM     48  N   UNL A   1      41.812  29.805  33.239  1.00  0.00    -0.248 NA
ATOM     49  C   UNL A   1      41.983  30.533  35.451  1.00  0.00     0.031 C 
ATOM     50  C   UNL A   1      44.598  26.937  31.325  1.00  0.00     0.029 A 
ATOM     51  C   UNL A   1      43.733  27.813  31.961  1.00  0.00     0.049 A 
ATOM     52  H   UNL A   1      41.931  28.651  31.254  1.00  0.00     0.167 HD
ATOM     53  C   UNL A   1      42.946  29.242  33.820  1.00  0.00     0.074 A 
ATOM     54  C   UNL A   1      43.024  29.760  35.169  1.00  0.00     0.031 C 
ATOM     55  C   UNL A   1      43.832  28.364  33.288  1.00  0.00     0.034 A 
BRANCH  42  56
ATOM     56  C   UNL A   1      42.311  26.416  27.634  1.00  0.00     0.023 A 
ATOM     57  C   UNL A   1      43.117  26.884  26.577  1.00  0.00     0.012 A 
ATOM     58  C   UNL A   1      41.870  25.078  27.628  1.00  0.00     0.148 A 
ATOM     59  C   UNL A   1      43.455  26.043  25.517  1.00  0.00     0.002 A 
ATOM     60  C   UNL A   1      42.249  24.233  26.592  1.00  0.00     0.091 A 
ATOM     61  F   UNL A   1      41.089  24.659  28.633  1.00  0.00    -0.205 F 
ATOM     62  C   UNL A   1      43.030  24.717  25.530  1.00  0.00     0.022 A 
BRANCH  60  63
ATOM     63  S   UNL A   1      41.820  22.489  26.556  1.00  0.00     0.127 S 
ATOM     64  O   UNL A   1      42.207  22.063  27.901  1.00  0.00    -0.237 OA
ATOM     65  O   UNL A   1      40.377  22.533  26.321  1.00  0.00    -0.237 OA
ATOM     66  O   UNL A   1      42.598  21.905  25.472  1.00  0.00    -0.744 OA
ENDBRANCH  60  63
ENDBRANCH  42  56
BRANCH  43  67
ATOM     67  C   UNL A   1      39.608  32.237  35.261  1.00  0.00     0.023 A 
ATOM     68  C   UNL A   1      38.791  31.640  36.240  1.00  0.00     0.012 A 
ATOM     69  C   UNL A   1      39.993  33.584  35.416  1.00  0.00     0.148 A 
ATOM     70  C   UNL A   1      38.339  32.376  37.336  1.00  0.00     0.002 A 
ATOM     71  C   UNL A   1      39.585  34.296  36.539  1.00  0.00     0.091 A 
ATOM     72  F   UNL A   1      40.751  34.141  34.462  1.00  0.00    -0.205 F 
ATOM     73  C   UNL A   1      38.744  33.700  37.491  1.00  0.00     0.022 A 
BRANCH  71  74
ATOM     74  S   UNL A   1      40.144  35.969  36.878  1.00  0.00     0.127 S 
ATOM     75  O   UNL A   1      41.554  35.755  37.194  1.00  0.00    -0.237 OA
ATOM     76  O   UNL A   1      39.895  36.635  35.598  1.00  0.00    -0.237 OA
ATOM     77  O   UNL A   1      39.317  36.447  37.977  1.00  0.00    -0.744 OA
ENDBRANCH  71  74
ENDBRANCH  43  67
BRANCH  55  78
ATOM     78  C   UNL A   1      44.988  27.914  34.147  1.00  0.00     0.023 A 
ATOM     79  C   UNL A   1      46.192  28.648  34.143  1.00  0.00     0.012 A 
ATOM     80  C   UNL A   1      44.851  26.822  35.027  1.00  0.00     0.148 A 
ATOM     81  C   UNL A   1      47.249  28.285  34.978  1.00  0.00     0.002 A 
ATOM     82  C   UNL A   1      45.889  26.496  35.892  1.00  0.00     0.091 A 
ATOM     83  F   UNL A   1      43.704  26.128  35.009  1.00  0.00    -0.205 F 
ATOM     84  C   UNL A   1      47.093  27.218  35.860  1.00  0.00     0.022 A 
BRANCH  82  85
ATOM     85  S   UNL A   1      45.751  25.200  37.130  1.00  0.00     0.127 S 
ATOM     86  O   UNL A   1      47.050  25.286  37.797  1.00  0.00    -0.237 OA
ATOM     87  O   UNL A   1      44.619  25.662  37.934  1.00  0.00    -0.237 OA
ATOM     88  O   UNL A   1      45.511  23.965  36.398  1.00  0.00    -0.744 OA
ENDBRANCH  82  85
ENDBRANCH  55  78
ENDBRANCH  29  30
ENDBRANCH  22  24
ENDBRANCH  21  22
ENDBRANCH  20  21
ENDBRANCH  19  20
ENDBRANCH  18  19
ENDBRANCH  17  18
ENDBRANCH   1  17
TORSDOF 25
ENDMDL
MODEL 2
REMARK VINA RESULT:      -8.0      1.796      2.171
REMARK SMILES CCCC[C@H](C(=O)OCCOCCOCCOC(=O)c1ccc(-c2c3nc(c(-c4cccc(S(=O)(=O)[O-])c4F)c4ccc([nH]4)c(-c4cccc(S(=O)(=O)[O-])c4F)c4nc(c(-c5cccc(S(=O)(=O)[O-])c5F)c5ccc2[nH]5)C=C4)C=C3)cc1)[C@H](C)O
REMARK SMILES IDX 12 1 11 2 10 3 9 4 8 5 6 6 7 7 5 8 4 9 3 10 2 11 1 12 83 13
REMARK SMILES IDX 84 14 85 15 13 17 14 18 15 19 16 20 17 21 18 22 19 23 20 24
REMARK SMILES IDX 21 25 82 26 22 27 81 28 23 29 24 30 25 31 75 32 26 33 80 34
REMARK SMILES IDX 74 35 76 36 27 37 79 38 73 39 72 40 28 42 60 43 40 44 59 45
REMARK SMILES IDX 41 46 44 47 58 48 77 49 42 50 43 51 57 53 78 54 45 55 29 56
REMARK SMILES IDX 30 57 38 58 31 59 33 60 39 61 32 62 34 63 35 64 36 65 37 66
REMARK SMILES IDX 61 67 62 68 70 69 63 70 65 71 71 72 64 73 66 74 67 75 68 76
REMARK SMILES IDX 69 77 46 78 47 79 55 80 48 81 50 82 56 83 49 84 51 85 52 86
REMARK SMILES IDX 53 87 54 88
REMARK H PARENT 85 16 76 41 44 52
REMARK Flexibility Score: inf
ROOT
ATOM      1  C   UNL A   1      33.361  27.806  22.472  1.00  0.00     0.188 C 
ENDROOT
BRANCH   1   2
ATOM      2  O   UNL A   1      32.499  26.699  22.294  1.00  0.00    -0.376 OA
BRANCH   2   3
ATOM      3  C   UNL A   1      31.702  26.293  23.392  1.00  0.00     0.202 C 
BRANCH   3   4
ATOM      4  C   UNL A   1      31.292  24.819  23.511  1.00  0.00     0.261 C 
BRANCH   4   5
ATOM      5  O   UNL A   1      32.351  23.920  23.860  1.00  0.00    -0.463 OA
BRANCH   5   6
ATOM      6  C   UNL A   1      32.534  23.612  25.176  1.00  0.00     0.311 C 
ATOM      7  O   UNL A   1      32.026  24.219  26.102  1.00  0.00    -0.252 OA
BRANCH   6   8
ATOM      8  C   UNL A   1      33.448  22.387  25.265  1.00  0.00     0.127 C 
BRANCH   8   9
ATOM      9  C   UNL A   1      34.699  22.621  26.149  1.00  0.00     0.018 C 
BRANCH   9  10
ATOM     10  C   UNL A   1      36.004  21.883  25.813  1.00  0.00     0.001 C 
BRANCH  10  11
ATOM     11  C   UNL A   1      36.282  21.616  24.334  1.00  0.00    -0.003 C 
ATOM     12  C   UNL A   1      36.680  22.855  23.557  1.00  0.00     0.004 C 
ENDBRANCH  10  11
ENDBRANCH   9  10
ENDBRANCH   8   9
BRANCH   8  13
ATOM     13  C   UNL A   1      32.683  21.078  25.531  1.00  0.00     0.125 C 
ATOM     14  C   UNL A   1      32.722  20.111  24.343  1.00  0.00     0.039 C 
BRANCH  13  15
ATOM     15  O   UNL A   1      31.302  21.377  25.762  1.00  0.00    -0.393 OA
ATOM     16  H   UNL A   1      30.751  20.817  25.193  1.00  0.00     0.210 HD
ENDBRANCH  13  15
ENDBRANCH   8  13
ENDBRANCH   6   8
ENDBRANCH   5   6
ENDBRANCH   4   5
ENDBRANCH   3   4
ENDBRANCH   2   3
ENDBRANCH   1   2
BRANCH   1  17
ATOM     17  C   UNL A   1      33.540  28.182  23.964  1.00  0.00     0.188 C 
BRANCH  17  18
ATOM     18  O   UNL A   1      32.674  27.635  24.949  1.00  0.00    -0.376 OA
BRANCH  18  19
ATOM     19  C   UNL A   1      32.155  28.498  25.948  1.00  0.00     0.202 C 
BRANCH  19  20
ATOM     20  C   UNL A   1      32.671  29.947  26.038  1.00  0.00     0.261 C 
BRANCH  20  21
ATOM     21  O   UNL A   1      32.997  30.432  27.354  1.00  0.00    -0.460 OA
BRANCH  21  22
ATOM     22  C   UNL A   1      33.738  31.572  27.416  1.00  0.00     0.338 C 
ATOM     23  O   UNL A   1      33.382  32.694  27.113  1.00  0.00    -0.246 OA
BRANCH  22  24
ATOM     24  C   UNL A   1      35.018  31.293  28.117  1.00  0.00     0.060 A 
ATOM     25  C   UNL A   1      35.156  30.090  28.831  1.00  0.00     0.016 A 
ATOM     26  C   UNL A   1      36.068  32.209  28.086  1.00  0.00     0.016 A 
ATOM     27  C   UNL A   1      36.348  29.793  29.499  1.00  0.00     0.010 A 
ATOM     28  C   UNL A   1      37.248  31.926  28.784  1.00  0.00     0.010 A 
ATOM     29  C   UNL A   1      37.395  30.723  29.501  1.00  0.00    -0.014 A 
BRANCH  29  30
ATOM     30  C   UNL A   1      38.604  30.512  30.340  1.00  0.00     0.031 A 
ATOM     31  C   UNL A   1      39.632  29.509  29.897  1.00  0.00     0.074 A 
ATOM     32  C   UNL A   1      38.754  31.151  31.515  1.00  0.00     0.049 A 
ATOM     33  N   UNL A   1      40.681  29.061  30.534  1.00  0.00    -0.248 NA
ATOM     34  C   UNL A   1      39.449  28.933  28.555  1.00  0.00     0.031 C 
ATOM     35  C   UNL A   1      37.844  32.160  32.054  1.00  0.00     0.029 A 
ATOM     36  N   UNL A   1      39.713  31.006  32.491  1.00  0.00    -0.354 N 
ATOM     37  C   UNL A   1      41.261  28.119  29.693  1.00  0.00     0.074 A 
ATOM     38  C   UNL A   1      40.451  28.068  28.494  1.00  0.00     0.031 C 
ATOM     39  C   UNL A   1      38.258  32.507  33.285  1.00  0.00     0.029 A 
ATOM     40  C   UNL A   1      39.437  31.716  33.638  1.00  0.00     0.049 A 
ATOM     41  H   UNL A   1      40.517  30.449  32.381  1.00  0.00     0.167 HD
ATOM     42  C   UNL A   1      42.368  27.366  29.898  1.00  0.00     0.034 A 
ATOM     43  C   UNL A   1      40.036  31.696  34.846  1.00  0.00     0.034 A 
ATOM     44  C   UNL A   1      43.178  27.420  31.086  1.00  0.00     0.049 A 
ATOM     45  C   UNL A   1      41.234  30.805  35.069  1.00  0.00     0.074 A 
ATOM     46  C   UNL A   1      44.350  26.736  31.357  1.00  0.00     0.029 A 
ATOM     47  N   UNL A   1      42.889  28.177  32.209  1.00  0.00    -0.354 N 
ATOM     48  N   UNL A   1      41.846  30.013  34.223  1.00  0.00    -0.248 NA
ATOM     49  C   UNL A   1      41.837  30.822  36.413  1.00  0.00     0.031 C 
ATOM     50  C   UNL A   1      44.746  27.046  32.661  1.00  0.00     0.029 A 
ATOM     51  C   UNL A   1      43.842  27.954  33.188  1.00  0.00     0.049 A 
ATOM     52  H   UNL A   1      42.119  28.784  32.299  1.00  0.00     0.167 HD
ATOM     53  C   UNL A   1      42.918  29.461  34.919  1.00  0.00     0.074 A 
ATOM     54  C   UNL A   1      42.888  30.028  36.250  1.00  0.00     0.031 C 
ATOM     55  C   UNL A   1      43.835  28.554  34.498  1.00  0.00     0.034 A 
BRANCH  42  56
ATOM     56  C   UNL A   1      42.776  26.410  28.809  1.00  0.00     0.023 A 
ATOM     57  C   UNL A   1      42.126  25.166  28.686  1.00  0.00     0.012 A 
ATOM     58  C   UNL A   1      43.761  26.773  27.868  1.00  0.00     0.148 A 
ATOM     59  C   UNL A   1      42.469  24.285  27.661  1.00  0.00     0.002 A 
ATOM     60  C   UNL A   1      44.064  25.910  26.823  1.00  0.00     0.091 A 
ATOM     61  F   UNL A   1      44.381  27.952  28.014  1.00  0.00    -0.205 F 
ATOM     62  C   UNL A   1      43.429  24.660  26.725  1.00  0.00     0.022 A 
BRANCH  60  63
ATOM     63  S   UNL A   1      45.228  26.333  25.521  1.00  0.00     0.127 S 
ATOM     64  O   UNL A   1      45.148  25.153  24.660  1.00  0.00    -0.237 OA
ATOM     65  O   UNL A   1      44.629  27.542  24.956  1.00  0.00    -0.237 OA
ATOM     66  O   UNL A   1      46.511  26.538  26.178  1.00  0.00    -0.744 OA
ENDBRANCH  60  63
ENDBRANCH  42  56
BRANCH  43  67
ATOM     67  C   UNL A   1      39.510  32.542  35.957  1.00  0.00     0.023 A 
ATOM     68  C   UNL A   1      38.431  32.080  36.734  1.00  0.00     0.012 A 
ATOM     69  C   UNL A   1      40.071  33.804  36.242  1.00  0.00     0.148 A 
ATOM     70  C   UNL A   1      37.899  32.869  37.754  1.00  0.00     0.002 A 
ATOM     71  C   UNL A   1      39.571  34.562  37.295  1.00  0.00     0.091 A 
ATOM     72  F   UNL A   1      41.082  34.237  35.476  1.00  0.00    -0.205 F 
ATOM     73  C   UNL A   1      38.475  34.105  38.042  1.00  0.00     0.022 A 
BRANCH  71  74
ATOM     74  S   UNL A   1      40.317  36.114  37.808  1.00  0.00     0.127 S 
ATOM     75  O   UNL A   1      41.294  35.664  38.795  1.00  0.00    -0.237 OA
ATOM     76  O   UNL A   1      40.889  36.602  36.552  1.00  0.00    -0.237 OA
ATOM     77  O   UNL A   1      39.224  36.925  38.327  1.00  0.00    -0.744 OA
ENDBRANCH  71  74
ENDBRANCH  43  67
BRANCH  55  78
ATOM     78  C   UNL A   1      44.907  28.125  35.469  1.00  0.00     0.023 A 
ATOM     79  C   UNL A   1      46.173  28.743  35.433  1.00  0.00     0.012 A 
ATOM     80  C   UNL A   1      44.631  27.177  36.475  1.00  0.00     0.148 A 
ATOM     81  C   UNL A   1      47.156  28.405  36.364  1.00  0.00     0.002 A 
ATOM     82  C   UNL A   1      45.598  26.882  37.431  1.00  0.00     0.091 A 
ATOM     83  F   UNL A   1      43.425  26.591  36.487  1.00  0.00    -0.205 F 
ATOM     84  C   UNL A   1      46.864  27.485  37.369  1.00  0.00     0.022 A 
BRANCH  82  85
ATOM     85  S   UNL A   1      45.287  25.783  38.818  1.00  0.00     0.127 S 
ATOM     86  O   UNL A   1      46.578  25.798  39.505  1.00  0.00    -0.237 OA
ATOM     87  O   UNL A   1      44.210  26.476  39.525  1.00  0.00    -0.237 OA
ATOM     88  O   UNL A   1      44.908  24.500  38.242  1.00  0.00    -0.744 OA
ENDBRANCH  82  85
ENDBRANCH  55  78
ENDBRANCH  29  30
ENDBRANCH  22  24
ENDBRANCH  21  22
ENDBRANCH  20  21
ENDBRANCH  19  20
ENDBRANCH  18  19
ENDBRANCH  17  18
ENDBRANCH   1  17
TORSDOF 25
ENDMDL
MODEL 3
REMARK VINA RESULT:      -7.6      6.387     12.999
REMARK SMILES CCCC[C@H](C(=O)OCCOCCOCCOC(=O)c1ccc(-c2c3nc(c(-c4cccc(S(=O)(=O)[O-])c4F)c4ccc([nH]4)c(-c4cccc(S(=O)(=O)[O-])c4F)c4nc(c(-c5cccc(S(=O)(=O)[O-])c5F)c5ccc2[nH]5)C=C4)C=C3)cc1)[C@H](C)O
REMARK SMILES IDX 12 1 11 2 10 3 9 4 8 5 6 6 7 7 5 8 4 9 3 10 2 11 1 12 83 13
REMARK SMILES IDX 84 14 85 15 13 17 14 18 15 19 16 20 17 21 18 22 19 23 20 24
REMARK SMILES IDX 21 25 82 26 22 27 81 28 23 29 24 30 25 31 75 32 26 33 80 34
REMARK SMILES IDX 74 35 76 36 27 37 79 38 73 39 72 40 28 42 60 43 40 44 59 45
REMARK SMILES IDX 41 46 44 47 58 48 77 49 42 50 43 51 57 53 78 54 45 55 29 56
REMARK SMILES IDX 30 57 38 58 31 59 33 60 39 61 32 62 34 63 35 64 36 65 37 66
REMARK SMILES IDX 61 67 62 68 70 69 63 70 65 71 71 72 64 73 66 74 67 75 68 76
REMARK SMILES IDX 69 77 46 78 47 79 55 80 48 81 50 82 56 83 49 84 51 85 52 86
REMARK SMILES IDX 53 87 54 88
REMARK H PARENT 85 16 76 41 44 52
REMARK Flexibility Score: inf
ROOT
ATOM      1  C   UNL A   1      37.211  33.516  37.191  1.00  0.00     0.188 C 
ENDROOT
BRANCH   1   2
ATOM      2  O   UNL A   1      37.982  33.264  36.032  1.00  0.00    -0.376 OA
BRANCH   2   3
ATOM      3  C   UNL A   1      37.587  32.197  35.189  1.00  0.00     0.202 C 
BRANCH   3   4
ATOM      4  C   UNL A   1      36.693  32.496  33.978  1.00  0.00     0.261 C 
BRANCH   4   5
ATOM      5  O   UNL A   1      37.387  32.671  32.737  1.00  0.00    -0.463 OA
BRANCH   5   6
ATOM      6  C   UNL A   1      37.026  33.709  31.932  1.00  0.00     0.311 C 
ATOM      7  O   UNL A   1      36.143  34.508  32.194  1.00  0.00    -0.252 OA
BRANCH   6   8
ATOM      8  C   UNL A   1      37.921  33.697  30.691  1.00  0.00     0.127 C 
BRANCH   8   9
ATOM      9  C   UNL A   1      37.126  33.637  29.363  1.00  0.00     0.018 C 
BRANCH   9  10
ATOM     10  C   UNL A   1      35.776  32.901  29.329  1.00  0.00     0.001 C 
BRANCH  10  11
ATOM     11  C   UNL A   1      35.725  31.598  28.533  1.00  0.00    -0.003 C 
ATOM     12  C   UNL A   1      34.488  31.462  27.668  1.00  0.00     0.004 C 
ENDBRANCH  10  11
ENDBRANCH   9  10
ENDBRANCH   8   9
BRANCH   8  13
ATOM     13  C   UNL A   1      39.045  34.748  30.745  1.00  0.00     0.125 C 
ATOM     14  C   UNL A   1      40.093  34.559  29.643  1.00  0.00     0.039 C 
BRANCH  13  15
ATOM     15  O   UNL A   1      39.743  34.630  31.989  1.00  0.00    -0.393 OA
ATOM     16  H   UNL A   1      39.667  35.463  32.481  1.00  0.00     0.210 HD
ENDBRANCH  13  15
ENDBRANCH   8  13
ENDBRANCH   6   8
ENDBRANCH   5   6
ENDBRANCH   4   5
ENDBRANCH   3   4
ENDBRANCH   2   3
ENDBRANCH   1   2
BRANCH   1  17
ATOM     17  C   UNL A   1      37.671  32.667  38.402  1.00  0.00     0.188 C 
BRANCH  17  18
ATOM     18  O   UNL A   1      38.305  33.287  39.512  1.00  0.00    -0.376 OA
BRANCH  18  19
ATOM     19  C   UNL A   1      37.612  33.329  40.749  1.00  0.00     0.202 C 
BRANCH  19  20
ATOM     20  C   UNL A   1      37.953  34.430  41.771  1.00  0.00     0.261 C 
BRANCH  20  21
ATOM     21  O   UNL A   1      38.142  35.758  41.246  1.00  0.00    -0.460 OA
BRANCH  21  22
ATOM     22  C   UNL A   1      39.387  36.292  41.375  1.00  0.00     0.338 C 
ATOM     23  O   UNL A   1      39.918  36.671  42.400  1.00  0.00    -0.246 OA
BRANCH  22  24
ATOM     24  C   UNL A   1      40.118  36.160  40.088  1.00  0.00     0.060 A 
ATOM     25  C   UNL A   1      39.460  36.496  38.893  1.00  0.00     0.016 A 
ATOM     26  C   UNL A   1      41.432  35.697  40.054  1.00  0.00     0.016 A 
ATOM     27  C   UNL A   1      40.120  36.387  37.664  1.00  0.00     0.010 A 
ATOM     28  C   UNL A   1      42.080  35.555  38.821  1.00  0.00     0.010 A 
ATOM     29  C   UNL A   1      41.429  35.890  37.618  1.00  0.00    -0.014 A 
BRANCH  29  30
ATOM     30  C   UNL A   1      42.092  35.602  36.320  1.00  0.00     0.031 A 
ATOM     31  C   UNL A   1      42.785  36.721  35.593  1.00  0.00     0.074 A 
ATOM     32  C   UNL A   1      42.022  34.381  35.759  1.00  0.00     0.049 A 
ATOM     33  N   UNL A   1      43.301  36.734  34.391  1.00  0.00    -0.248 NA
ATOM     34  C   UNL A   1      42.910  37.995  36.318  1.00  0.00     0.031 C 
ATOM     35  C   UNL A   1      41.399  33.205  36.364  1.00  0.00     0.029 A 
ATOM     36  N   UNL A   1      42.444  33.942  34.525  1.00  0.00    -0.354 N 
ATOM     37  C   UNL A   1      43.772  38.027  34.197  1.00  0.00     0.074 A 
ATOM     38  C   UNL A   1      43.490  38.766  35.410  1.00  0.00     0.031 C 
ATOM     39  C   UNL A   1      41.432  32.192  35.480  1.00  0.00     0.029 A 
ATOM     40  C   UNL A   1      42.042  32.658  34.235  1.00  0.00     0.049 A 
ATOM     41  H   UNL A   1      42.981  34.492  33.910  1.00  0.00     0.167 HD
ATOM     42  C   UNL A   1      44.386  38.552  33.110  1.00  0.00     0.034 A 
ATOM     43  C   UNL A   1      42.113  31.956  33.086  1.00  0.00     0.034 A 
ATOM     44  C   UNL A   1      44.674  37.817  31.907  1.00  0.00     0.049 A 
ATOM     45  C   UNL A   1      42.751  32.582  31.869  1.00  0.00     0.074 A 
ATOM     46  C   UNL A   1      45.345  38.250  30.776  1.00  0.00     0.029 A 
ATOM     47  N   UNL A   1      44.285  36.510  31.663  1.00  0.00    -0.354 N 
ATOM     48  N   UNL A   1      43.306  33.763  31.739  1.00  0.00    -0.248 NA
ATOM     49  C   UNL A   1      42.790  31.767  30.643  1.00  0.00     0.031 C 
ATOM     50  C   UNL A   1      45.323  37.219  29.832  1.00  0.00     0.029 A 
ATOM     51  C   UNL A   1      44.674  36.129  30.390  1.00  0.00     0.049 A 
ATOM     52  H   UNL A   1      43.803  35.935  32.302  1.00  0.00     0.167 HD
ATOM     53  C   UNL A   1      43.782  33.822  30.433  1.00  0.00     0.074 A 
ATOM     54  C   UNL A   1      43.475  32.548  29.817  1.00  0.00     0.031 C 
ATOM     55  C   UNL A   1      44.405  34.845  29.796  1.00  0.00     0.034 A 
BRANCH  42  56
ATOM     56  C   UNL A   1      44.795  39.999  33.166  1.00  0.00     0.023 A 
ATOM     57  C   UNL A   1      46.106  40.344  33.553  1.00  0.00     0.012 A 
ATOM     58  C   UNL A   1      43.901  41.014  32.773  1.00  0.00     0.148 A 
ATOM     59  C   UNL A   1      46.511  41.678  33.577  1.00  0.00     0.002 A 
ATOM     60  C   UNL A   1      44.325  42.337  32.754  1.00  0.00     0.091 A 
ATOM     61  F   UNL A   1      42.653  40.667  32.427  1.00  0.00    -0.205 F 
ATOM     62  C   UNL A   1      45.625  42.672  33.168  1.00  0.00     0.022 A 
BRANCH  60  63
ATOM     63  S   UNL A   1      43.287  43.682  32.170  1.00  0.00     0.127 S 
ATOM     64  O   UNL A   1      44.215  44.812  32.219  1.00  0.00    -0.237 OA
ATOM     65  O   UNL A   1      42.940  43.235  30.820  1.00  0.00    -0.237 OA
ATOM     66  O   UNL A   1      42.166  43.757  33.095  1.00  0.00    -0.744 OA
ENDBRANCH  60  63
ENDBRANCH  42  56
BRANCH  43  67
ATOM     67  C   UNL A   1      41.557  30.573  33.017  1.00  0.00     0.023 A 
ATOM     68  C   UNL A   1      42.308  29.494  33.521  1.00  0.00     0.012 A 
ATOM     69  C   UNL A   1      40.291  30.323  32.448  1.00  0.00     0.148 A 
ATOM     70  C   UNL A   1      41.824  28.189  33.434  1.00  0.00     0.002 A 
ATOM     71  C   UNL A   1      39.791  29.026  32.414  1.00  0.00     0.091 A 
ATOM     72  F   UNL A   1      39.602  31.360  31.952  1.00  0.00    -0.205 F 
ATOM     73  C   UNL A   1      40.562  27.955  32.891  1.00  0.00     0.022 A 
BRANCH  71  74
ATOM     74  S   UNL A   1      38.136  28.643  31.833  1.00  0.00     0.127 S 
ATOM     75  O   UNL A   1      38.361  27.419  31.068  1.00  0.00    -0.237 OA
ATOM     76  O   UNL A   1      37.411  28.458  33.091  1.00  0.00    -0.237 OA
ATOM     77  O   UNL A   1      37.712  29.801  31.057  1.00  0.00    -0.744 OA
ENDBRANCH  71  74
ENDBRANCH  43  67
BRANCH  55  78
ATOM     78  C   UNL A   1      44.826  34.638  28.362  1.00  0.00     0.023 A 
ATOM     79  C   UNL A   1      43.901  34.855  27.321  1.00  0.00     0.012 A 
ATOM     80  C   UNL A   1      46.161  34.319  28.041  1.00  0.00     0.148 A 
ATOM     81  C   UNL A   1      44.289  34.730  25.986  1.00  0.00     0.002 A 
ATOM     82  C   UNL A   1      46.553  34.246  26.709  1.00  0.00     0.091 A 
ATOM     83  F   UNL A   1      47.025  34.105  29.043  1.00  0.00    -0.205 F 
ATOM     84  C   UNL A   1      45.616  34.438  25.681  1.00  0.00     0.022 A 
BRANCH  82  85
ATOM     85  S   UNL A   1      48.259  33.969  26.213  1.00  0.00     0.127 S 
ATOM     86  O   UNL A   1      48.352  32.511  26.269  1.00  0.00    -0.237 OA
ATOM     87  O   UNL A   1      48.282  34.531  24.863  1.00  0.00    -0.237 OA
ATOM     88  O   UNL A   1      49.082  34.680  27.181  1.00  0.00    -0.744 OA
ENDBRANCH  82  85
ENDBRANCH  55  78
ENDBRANCH  29  30
ENDBRANCH  22  24
ENDBRANCH  21  22
ENDBRANCH  20  21
ENDBRANCH  19  20
ENDBRANCH  18  19
ENDBRANCH  17  18
ENDBRANCH   1  17
TORSDOF 25
ENDMDL
