MODEL 1
REMARK VINA RESULT:     -11.8      0.000      0.000
REMARK SMILES COc1ccc(NC(=O)N[C@@H]2C=C[C@H](C(=O)OCCOCCOCCOC(=O)c3ccc(-c4c5nc(c(-c6cccc(S(=O)(=O)[O-])c6F)c6ccc([nH]6)c(-c6cccc(S(=O)(=O)[O-])c6F)c6nc(c(-c7cccc(S(=O)(=O)[O-])c7F)c7ccc4[nH]7)C=C6)C=C5)cc3)C2)c(C)c1
REMARK SMILES IDX 21 1 20 2 19 3 18 4 17 5 15 6 16 7 14 8 11 9 12 10 92 11
REMARK SMILES IDX 13 12 10 13 7 14 8 15 9 17 6 19 3 20 4 21 95 22 5 23 93 24
REMARK SMILES IDX 94 25 2 26 1 27 22 28 23 29 24 30 25 31 26 32 27 33 28 34
REMARK SMILES IDX 29 35 30 36 91 37 31 38 90 39 32 40 33 41 34 42 84 43 35 44
REMARK SMILES IDX 89 45 83 46 85 47 36 48 88 49 82 50 81 51 37 53 69 54 49 55
REMARK SMILES IDX 68 56 50 57 53 58 67 59 86 60 51 61 52 62 66 64 87 65 54 66
REMARK SMILES IDX 38 67 39 68 47 69 40 70 42 71 48 72 41 73 43 74 44 75 45 76
REMARK SMILES IDX 46 77 70 78 71 79 79 80 72 81 74 82 80 83 73 84 75 85 76 86
REMARK SMILES IDX 77 87 78 88 55 89 56 90 64 91 57 92 59 93 65 94 58 95 60 96
REMARK SMILES IDX 61 97 62 98 63 99
REMARK H PARENT 7 16 10 18 85 52 53 63
REMARK Flexibility Score: inf
ROOT
ATOM      1  C   UNL A   1      33.201  29.026  24.155  1.00  0.00     0.188 C 
ENDROOT
BRANCH   1   2
ATOM      2  O   UNL A   1      32.570  29.052  22.898  1.00  0.00    -0.376 OA
BRANCH   2   3
ATOM      3  C   UNL A   1      33.286  28.193  22.022  1.00  0.00     0.202 C 
BRANCH   3   4
ATOM      4  C   UNL A   1      33.351  26.632  22.329  1.00  0.00     0.261 C 
BRANCH   4   5
ATOM      5  O   UNL A   1      34.059  25.629  23.672  1.00  0.00    -0.463 OA
BRANCH   5   6
ATOM      6  C   UNL A   1      34.022  25.380  25.196  1.00  0.00     0.312 C 
ATOM      7  O   UNL A   1      35.018  24.821  25.669  1.00  0.00    -0.252 OA
BRANCH   6   8
ATOM      8  C   UNL A   1      32.895  25.921  26.441  1.00  0.00     0.124 C 
ATOM      9  C   UNL A   1      30.824  24.705  25.816  1.00  0.00     0.107 C 
ATOM     10  C   UNL A   1      30.393  26.056  26.134  1.00  0.00    -0.006 C 
ATOM     11  C   UNL A   1      32.039  24.682  26.751  1.00  0.00     0.048 C 
ATOM     12  C   UNL A   1      31.500  26.727  26.525  1.00  0.00    -0.014 C 
BRANCH   9  13
ATOM     13  N   UNL A   1      30.950  24.422  24.369  1.00  0.00    -0.332 N 
ATOM     14  N   UNL A   1      32.296  23.012  22.756  1.00  0.00    -0.308 N 
ATOM     15  C   UNL A   1      31.351  23.898  23.221  1.00  0.00     0.319 C 
ATOM     16  H   UNL A   1      32.206  22.868  21.786  1.00  0.00     0.171 HD
ATOM     17  O   UNL A   1      30.587  24.417  22.385  1.00  0.00    -0.248 OA
ATOM     18  H   UNL A   1      30.278  25.054  24.026  1.00  0.00     0.165 HD
BRANCH  14  19
ATOM     19  C   UNL A   1      33.397  22.227  23.315  1.00  0.00     0.046 A 
ATOM     20  C   UNL A   1      36.786  21.805  24.640  1.00  0.00     0.119 A 
ATOM     21  C   UNL A   1      36.425  22.823  23.238  1.00  0.00     0.048 A 
ATOM     22  C   UNL A   1      35.464  20.907  25.421  1.00  0.00     0.052 A 
ATOM     23  C   UNL A   1      34.798  22.995  22.590  1.00  0.00     0.030 A 
ATOM     24  C   UNL A   1      33.743  21.039  24.782  1.00  0.00    -0.024 A 
ATOM     25  C   UNL A   1      33.093  20.062  25.754  1.00  0.00     0.047 C 
BRANCH  20  26
ATOM     26  O   UNL A   1      38.093  21.605  25.038  1.00  0.00    -0.497 OA
ATOM     27  C   UNL A   1      38.551  22.499  26.063  1.00  0.00     0.278 C 
ENDBRANCH  20  26
ENDBRANCH  14  19
ENDBRANCH   9  13
ENDBRANCH   6   8
ENDBRANCH   5   6
ENDBRANCH   4   5
ENDBRANCH   3   4
ENDBRANCH   2   3
ENDBRANCH   1   2
BRANCH   1  28
ATOM     28  C   UNL A   1      32.418  29.762  25.207  1.00  0.00     0.188 C 
BRANCH  28  29
ATOM     29  O   UNL A   1      33.187  30.126  26.333  1.00  0.00    -0.376 OA
BRANCH  29  30
ATOM     30  C   UNL A   1      32.755  30.829  27.453  1.00  0.00     0.202 C 
BRANCH  30  31
ATOM     31  C   UNL A   1      33.890  31.755  27.729  1.00  0.00     0.261 C 
BRANCH  31  32
ATOM     32  O   UNL A   1      33.413  33.163  27.642  1.00  0.00    -0.460 OA
BRANCH  32  33
ATOM     33  C   UNL A   1      33.629  34.120  28.621  1.00  0.00     0.338 C 
ATOM     34  O   UNL A   1      32.751  34.918  28.934  1.00  0.00    -0.246 OA
BRANCH  33  35
ATOM     35  C   UNL A   1      34.986  34.102  29.343  1.00  0.00     0.060 A 
ATOM     36  C   UNL A   1      36.181  34.013  28.640  1.00  0.00     0.016 A 
ATOM     37  C   UNL A   1      35.115  33.945  30.719  1.00  0.00     0.016 A 
ATOM     38  C   UNL A   1      37.359  33.511  29.284  1.00  0.00     0.010 A 
ATOM     39  C   UNL A   1      36.232  33.219  31.267  1.00  0.00     0.010 A 
ATOM     40  C   UNL A   1      37.367  32.778  30.501  1.00  0.00    -0.014 A 
BRANCH  40  41
ATOM     41  C   UNL A   1      38.648  31.564  31.096  1.00  0.00     0.031 A 
ATOM     42  C   UNL A   1      38.812  29.571  30.219  1.00  0.00     0.074 A 
ATOM     43  C   UNL A   1      39.790  32.211  32.164  1.00  0.00     0.049 A 
ATOM     44  N   UNL A   1      39.679  28.534  30.546  1.00  0.00    -0.248 NA
ATOM     45  C   UNL A   1      38.081  28.717  29.045  1.00  0.00     0.031 C 
ATOM     46  C   UNL A   1      41.376  32.245  32.147  1.00  0.00     0.029 A 
ATOM     47  N   UNL A   1      39.864  33.059  33.378  1.00  0.00    -0.354 N 
ATOM     48  C   UNL A   1      40.168  27.961  29.417  1.00  0.00     0.074 A 
ATOM     49  C   UNL A   1      39.063  28.008  28.516  1.00  0.00     0.031 C 
ATOM     50  C   UNL A   1      42.004  32.782  33.191  1.00  0.00     0.029 A 
ATOM     51  C   UNL A   1      41.018  33.083  34.136  1.00  0.00     0.049 A 
ATOM     52  H   UNL A   1      39.088  33.604  33.644  1.00  0.00     0.167 HD
ATOM     53  C   UNL A   1      41.511  27.715  29.303  1.00  0.00     0.034 A 
ATOM     54  C   UNL A   1      41.190  33.049  35.478  1.00  0.00     0.034 A 
ATOM     55  C   UNL A   1      42.388  28.203  30.492  1.00  0.00     0.049 A 
ATOM     56  C   UNL A   1      41.914  31.680  35.728  1.00  0.00     0.074 A 
ATOM     57  C   UNL A   1      43.579  28.927  30.618  1.00  0.00     0.029 A 
ATOM     58  N   UNL A   1      41.950  28.135  31.847  1.00  0.00    -0.354 N 
ATOM     59  N   UNL A   1      42.467  30.937  34.765  1.00  0.00    -0.248 NA
ATOM     60  C   UNL A   1      42.008  30.997  37.011  1.00  0.00     0.031 C 
ATOM     61  C   UNL A   1      43.772  29.367  31.984  1.00  0.00     0.029 A 
ATOM     62  C   UNL A   1      42.820  28.770  32.786  1.00  0.00     0.049 A 
ATOM     63  H   UNL A   1      41.115  27.687  32.114  1.00  0.00     0.167 HD
ATOM     64  C   UNL A   1      42.663  29.630  35.178  1.00  0.00     0.074 A 
ATOM     65  C   UNL A   1      42.501  29.790  36.643  1.00  0.00     0.031 C 
ATOM     66  C   UNL A   1      42.725  28.542  34.286  1.00  0.00     0.034 A 
BRANCH  53  67
ATOM     67  C   UNL A   1      41.986  27.344  27.879  1.00  0.00     0.023 A 
ATOM     68  C   UNL A   1      41.601  28.114  26.777  1.00  0.00     0.012 A 
ATOM     69  C   UNL A   1      42.791  26.208  27.549  1.00  0.00     0.148 A 
ATOM     70  C   UNL A   1      41.908  27.735  25.455  1.00  0.00     0.002 A 
ATOM     71  C   UNL A   1      42.923  25.725  26.247  1.00  0.00     0.091 A 
ATOM     72  F   UNL A   1      43.594  25.660  28.473  1.00  0.00    -0.205 F 
ATOM     73  C   UNL A   1      42.510  26.510  25.183  1.00  0.00     0.022 A 
BRANCH  71  74
ATOM     74  S   UNL A   1      43.479  24.034  25.932  1.00  0.00     0.127 S 
ATOM     75  O   UNL A   1      44.911  24.101  26.238  1.00  0.00    -0.237 OA
ATOM     76  O   UNL A   1      42.696  23.247  26.878  1.00  0.00    -0.237 OA
ATOM     77  O   UNL A   1      43.199  23.805  24.517  1.00  0.00    -0.744 OA
ENDBRANCH  71  74
ENDBRANCH  53  67
BRANCH  54  78
ATOM     78  C   UNL A   1      40.228  33.980  36.229  1.00  0.00     0.023 A 
ATOM     79  C   UNL A   1      39.079  33.323  36.774  1.00  0.00     0.012 A 
ATOM     80  C   UNL A   1      40.566  35.207  36.848  1.00  0.00     0.148 A 
ATOM     81  C   UNL A   1      38.424  33.761  37.943  1.00  0.00     0.002 A 
ATOM     82  C   UNL A   1      40.001  35.556  38.106  1.00  0.00     0.091 A 
ATOM     83  F   UNL A   1      41.512  35.966  36.277  1.00  0.00    -0.205 F 
ATOM     84  C   UNL A   1      38.947  34.825  38.658  1.00  0.00     0.022 A 
BRANCH  82  85
ATOM     85  S   UNL A   1      40.678  36.820  39.217  1.00  0.00     0.127 S 
ATOM     86  O   UNL A   1      39.695  37.900  39.149  1.00  0.00    -0.237 OA
ATOM     87  O   UNL A   1      40.685  36.146  40.517  1.00  0.00    -0.237 OA
ATOM     88  O   UNL A   1      41.963  37.170  38.633  1.00  0.00    -0.744 OA
ENDBRANCH  82  85
ENDBRANCH  54  78
BRANCH  66  89
ATOM     89  C   UNL A   1      42.704  27.047  34.703  1.00  0.00     0.023 A 
ATOM     90  C   UNL A   1      41.701  26.483  35.502  1.00  0.00     0.012 A 
ATOM     91  C   UNL A   1      43.712  26.127  34.271  1.00  0.00     0.148 A 
ATOM     92  C   UNL A   1      41.712  25.138  35.899  1.00  0.00     0.002 A 
ATOM     93  C   UNL A   1      43.657  24.767  34.563  1.00  0.00     0.091 A 
ATOM     94  F   UNL A   1      44.808  26.560  33.643  1.00  0.00    -0.205 F 
ATOM     95  C   UNL A   1      42.674  24.273  35.410  1.00  0.00     0.022 A 
BRANCH  93  96
ATOM     96  S   UNL A   1      44.834  23.588  33.882  1.00  0.00     0.127 S 
ATOM     97  O   UNL A   1      44.602  23.744  32.446  1.00  0.00    -0.237 OA
ATOM     98  O   UNL A   1      46.111  24.127  34.354  1.00  0.00    -0.237 OA
ATOM     99  O   UNL A   1      44.486  22.290  34.439  1.00  0.00    -0.744 OA
ENDBRANCH  93  96
ENDBRANCH  66  89
ENDBRANCH  40  41
ENDBRANCH  33  35
ENDBRANCH  32  33
ENDBRANCH  31  32
ENDBRANCH  30  31
ENDBRANCH  29  30
ENDBRANCH  28  29
ENDBRANCH   1  28
TORSDOF 23
ENDMDL
MODEL 2
REMARK VINA RESULT:     -11.3      1.524      2.007
REMARK SMILES COc1ccc(NC(=O)N[C@@H]2C=C[C@H](C(=O)OCCOCCOCCOC(=O)c3ccc(-c4c5nc(c(-c6cccc(S(=O)(=O)[O-])c6F)c6ccc([nH]6)c(-c6cccc(S(=O)(=O)[O-])c6F)c6nc(c(-c7cccc(S(=O)(=O)[O-])c7F)c7ccc4[nH]7)C=C6)C=C5)cc3)C2)c(C)c1
REMARK SMILES IDX 21 1 20 2 19 3 18 4 17 5 15 6 16 7 14 8 11 9 12 10 92 11
REMARK SMILES IDX 13 12 10 13 7 14 8 15 9 17 6 19 3 20 4 21 95 22 5 23 93 24
REMARK SMILES IDX 94 25 2 26 1 27 22 28 23 29 24 30 25 31 26 32 27 33 28 34
REMARK SMILES IDX 29 35 30 36 91 37 31 38 90 39 32 40 33 41 34 42 84 43 35 44
REMARK SMILES IDX 89 45 83 46 85 47 36 48 88 49 82 50 81 51 37 53 69 54 49 55
REMARK SMILES IDX 68 56 50 57 53 58 67 59 86 60 51 61 52 62 66 64 87 65 54 66
REMARK SMILES IDX 38 67 39 68 47 69 40 70 42 71 48 72 41 73 43 74 44 75 45 76
REMARK SMILES IDX 46 77 70 78 71 79 79 80 72 81 74 82 80 83 73 84 75 85 76 86
REMARK SMILES IDX 77 87 78 88 55 89 56 90 64 91 57 92 59 93 65 94 58 95 60 96
REMARK SMILES IDX 61 97 62 98 63 99
REMARK H PARENT 7 16 10 18 85 52 53 63
REMARK Flexibility Score: inf
ROOT
ATOM      1  C   UNL A   1      33.576  28.872  24.563  1.00  0.00     0.188 C 
ENDROOT
BRANCH   1   2
ATOM      2  O   UNL A   1      32.852  28.884  23.356  1.00  0.00    -0.376 OA
BRANCH   2   3
ATOM      3  C   UNL A   1      33.617  28.205  22.372  1.00  0.00     0.202 C 
BRANCH   3   4
ATOM      4  C   UNL A   1      33.880  26.642  22.519  1.00  0.00     0.261 C 
BRANCH   4   5
ATOM      5  O   UNL A   1      34.248  25.541  23.919  1.00  0.00    -0.463 OA
BRANCH   5   6
ATOM      6  C   UNL A   1      33.965  25.291  25.418  1.00  0.00     0.312 C 
ATOM      7  O   UNL A   1      34.870  24.730  26.044  1.00  0.00    -0.252 OA
BRANCH   6   8
ATOM      8  C   UNL A   1      32.653  25.834  26.465  1.00  0.00     0.124 C 
ATOM      9  C   UNL A   1      30.721  24.565  25.561  1.00  0.00     0.107 C 
ATOM     10  C   UNL A   1      30.225  25.914  25.779  1.00  0.00    -0.006 C 
ATOM     11  C   UNL A   1      31.781  24.584  26.669  1.00  0.00     0.048 C 
ATOM     12  C   UNL A   1      31.248  26.613  26.319  1.00  0.00    -0.014 C 
BRANCH   9  13
ATOM     13  N   UNL A   1      31.070  24.256  24.156  1.00  0.00    -0.332 N 
ATOM     14  N   UNL A   1      32.028  22.393  22.737  1.00  0.00    -0.308 N 
ATOM     15  C   UNL A   1      31.478  23.608  23.075  1.00  0.00     0.319 C 
ATOM     16  H   UNL A   1      32.131  22.305  21.762  1.00  0.00     0.171 HD
ATOM     17  O   UNL A   1      31.251  24.415  22.154  1.00  0.00    -0.248 OA
ATOM     18  H   UNL A   1      30.849  25.123  23.745  1.00  0.00     0.165 HD
BRANCH  14  19
ATOM     19  C   UNL A   1      32.501  21.198  23.437  1.00  0.00     0.046 A 
ATOM     20  C   UNL A   1      33.745  17.757  23.584  1.00  0.00     0.119 A 
ATOM     21  C   UNL A   1      32.447  18.261  22.491  1.00  0.00     0.048 A 
ATOM     22  C   UNL A   1      34.453  18.950  24.695  1.00  0.00     0.052 A 
ATOM     23  C   UNL A   1      31.835  19.910  22.450  1.00  0.00     0.030 A 
ATOM     24  C   UNL A   1      33.847  20.688  24.706  1.00  0.00    -0.024 A 
ATOM     25  C   UNL A   1      34.731  21.202  25.836  1.00  0.00     0.047 C 
BRANCH  20  26
ATOM     26  O   UNL A   1      34.109  16.427  23.666  1.00  0.00    -0.497 OA
ATOM     27  C   UNL A   1      33.527  15.714  24.768  1.00  0.00     0.278 C 
ENDBRANCH  20  26
ENDBRANCH  14  19
ENDBRANCH   9  13
ENDBRANCH   6   8
ENDBRANCH   5   6
ENDBRANCH   4   5
ENDBRANCH   3   4
ENDBRANCH   2   3
ENDBRANCH   1   2
BRANCH   1  28
ATOM     28  C   UNL A   1      32.943  29.732  25.622  1.00  0.00     0.188 C 
BRANCH  28  29
ATOM     29  O   UNL A   1      33.832  30.105  26.652  1.00  0.00    -0.376 OA
BRANCH  29  30
ATOM     30  C   UNL A   1      33.632  31.087  27.618  1.00  0.00     0.202 C 
BRANCH  30  31
ATOM     31  C   UNL A   1      35.000  31.647  27.817  1.00  0.00     0.261 C 
BRANCH  31  32
ATOM     32  O   UNL A   1      34.998  33.095  27.466  1.00  0.00    -0.460 OA
BRANCH  32  33
ATOM     33  C   UNL A   1      35.230  34.117  28.373  1.00  0.00     0.338 C 
ATOM     34  O   UNL A   1      34.499  35.101  28.421  1.00  0.00    -0.246 OA
BRANCH  33  35
ATOM     35  C   UNL A   1      36.396  33.939  29.359  1.00  0.00     0.060 A 
ATOM     36  C   UNL A   1      37.717  34.047  28.946  1.00  0.00     0.016 A 
ATOM     37  C   UNL A   1      36.235  33.444  30.648  1.00  0.00     0.016 A 
ATOM     38  C   UNL A   1      38.761  33.419  29.701  1.00  0.00     0.010 A 
ATOM     39  C   UNL A   1      37.255  32.622  31.245  1.00  0.00     0.010 A 
ATOM     40  C   UNL A   1      38.558  32.404  30.675  1.00  0.00    -0.014 A 
BRANCH  40  41
ATOM     41  C   UNL A   1      39.763  31.100  31.236  1.00  0.00     0.031 A 
ATOM     42  C   UNL A   1      39.718  29.084  30.399  1.00  0.00     0.074 A 
ATOM     43  C   UNL A   1      41.006  31.670  32.231  1.00  0.00     0.049 A 
ATOM     44  N   UNL A   1      40.513  27.984  30.709  1.00  0.00    -0.248 NA
ATOM     45  C   UNL A   1      38.862  28.270  29.283  1.00  0.00     0.031 C 
ATOM     46  C   UNL A   1      42.587  31.572  32.136  1.00  0.00     0.029 A 
ATOM     47  N   UNL A   1      41.210  32.533  33.420  1.00  0.00    -0.354 N 
ATOM     48  C   UNL A   1      40.896  27.351  29.571  1.00  0.00     0.074 A 
ATOM     49  C   UNL A   1      39.755  27.471  28.724  1.00  0.00     0.031 C 
ATOM     50  C   UNL A   1      43.309  32.076  33.136  1.00  0.00     0.029 A 
ATOM     51  C   UNL A   1      42.400  32.476  34.120  1.00  0.00     0.049 A 
ATOM     52  H   UNL A   1      40.497  33.146  33.711  1.00  0.00     0.167 HD
ATOM     53  C   UNL A   1      42.207  26.991  29.398  1.00  0.00     0.034 A 
ATOM     54  C   UNL A   1      42.636  32.454  35.453  1.00  0.00     0.034 A 
ATOM     55  C   UNL A   1      43.180  27.429  30.531  1.00  0.00     0.049 A 
ATOM     56  C   UNL A   1      43.256  31.034  35.700  1.00  0.00     0.074 A 
ATOM     57  C   UNL A   1      44.431  28.053  30.582  1.00  0.00     0.029 A 
ATOM     58  N   UNL A   1      42.806  27.424  31.907  1.00  0.00    -0.354 N 
ATOM     59  N   UNL A   1      43.697  30.229  34.729  1.00  0.00    -0.248 NA
ATOM     60  C   UNL A   1      43.358  30.372  36.993  1.00  0.00     0.031 C 
ATOM     61  C   UNL A   1      44.728  28.502  31.927  1.00  0.00     0.029 A 
ATOM     62  C   UNL A   1      43.772  28.002  32.787  1.00  0.00     0.049 A 
ATOM     63  H   UNL A   1      41.951  27.052  32.225  1.00  0.00     0.167 HD
ATOM     64  C   UNL A   1      43.806  28.919  35.163  1.00  0.00     0.074 A 
ATOM     65  C   UNL A   1      43.731  29.121  36.630  1.00  0.00     0.031 C 
ATOM     66  C   UNL A   1      43.733  27.812  34.295  1.00  0.00     0.034 A 
BRANCH  53  67
ATOM     67  C   UNL A   1      42.578  26.554  27.962  1.00  0.00     0.023 A 
ATOM     68  C   UNL A   1      42.367  27.415  26.879  1.00  0.00     0.012 A 
ATOM     69  C   UNL A   1      43.106  25.275  27.601  1.00  0.00     0.148 A 
ATOM     70  C   UNL A   1      42.572  27.005  25.547  1.00  0.00     0.002 A 
ATOM     71  C   UNL A   1      43.118  24.802  26.288  1.00  0.00     0.091 A 
ATOM     72  F   UNL A   1      43.772  24.541  28.505  1.00  0.00    -0.205 F 
ATOM     73  C   UNL A   1      42.884  25.682  25.245  1.00  0.00     0.022 A 
BRANCH  71  74
ATOM     74  S   UNL A   1      43.280  23.037  25.934  1.00  0.00     0.127 S 
ATOM     75  O   UNL A   1      44.658  22.749  26.342  1.00  0.00    -0.237 OA
ATOM     76  O   UNL A   1      42.261  22.434  26.786  1.00  0.00    -0.237 OA
ATOM     77  O   UNL A   1      43.066  22.923  24.494  1.00  0.00    -0.744 OA
ENDBRANCH  71  74
ENDBRANCH  53  67
BRANCH  54  78
ATOM     78  C   UNL A   1      41.792  33.476  36.227  1.00  0.00     0.023 A 
ATOM     79  C   UNL A   1      40.584  32.944  36.781  1.00  0.00     0.012 A 
ATOM     80  C   UNL A   1      42.272  34.650  36.855  1.00  0.00     0.148 A 
ATOM     81  C   UNL A   1      39.997  33.437  37.964  1.00  0.00     0.002 A 
ATOM     82  C   UNL A   1      41.765  35.045  38.125  1.00  0.00     0.091 A 
ATOM     83  F   UNL A   1      43.289  35.307  36.279  1.00  0.00    -0.205 F 
ATOM     84  C   UNL A   1      40.643  34.428  38.683  1.00  0.00     0.022 A 
BRANCH  82  85
ATOM     85  S   UNL A   1      42.591  36.212  39.240  1.00  0.00     0.127 S 
ATOM     86  O   UNL A   1      42.493  37.488  38.535  1.00  0.00    -0.237 OA
ATOM     87  O   UNL A   1      41.757  36.166  40.442  1.00  0.00    -0.237 OA
ATOM     88  O   UNL A   1      43.954  35.713  39.346  1.00  0.00    -0.744 OA
ENDBRANCH  82  85
ENDBRANCH  54  78
BRANCH  66  89
ATOM     89  C   UNL A   1      43.611  26.333  34.748  1.00  0.00     0.023 A 
ATOM     90  C   UNL A   1      42.384  25.679  34.924  1.00  0.00     0.012 A 
ATOM     91  C   UNL A   1      44.763  25.520  34.995  1.00  0.00     0.148 A 
ATOM     92  C   UNL A   1      42.287  24.351  35.366  1.00  0.00     0.002 A 
ATOM     93  C   UNL A   1      44.668  24.168  35.315  1.00  0.00     0.091 A 
ATOM     94  F   UNL A   1      45.985  26.057  35.023  1.00  0.00    -0.205 F 
ATOM     95  C   UNL A   1      43.427  23.587  35.536  1.00  0.00     0.022 A 
BRANCH  93  96
ATOM     96  S   UNL A   1      46.117  23.111  35.463  1.00  0.00     0.127 S 
ATOM     97  O   UNL A   1      46.704  23.597  36.711  1.00  0.00    -0.237 OA
ATOM     98  O   UNL A   1      45.514  21.780  35.552  1.00  0.00    -0.237 OA
ATOM     99  O   UNL A   1      46.913  23.333  34.265  1.00  0.00    -0.744 OA
ENDBRANCH  93  96
ENDBRANCH  66  89
ENDBRANCH  40  41
ENDBRANCH  33  35
ENDBRANCH  32  33
ENDBRANCH  31  32
ENDBRANCH  30  31
ENDBRANCH  29  30
ENDBRANCH  28  29
ENDBRANCH   1  28
TORSDOF 23
ENDMDL
MODEL 3
REMARK VINA RESULT:     -10.6      4.957     10.681
REMARK SMILES COc1ccc(NC(=O)N[C@@H]2C=C[C@H](C(=O)OCCOCCOCCOC(=O)c3ccc(-c4c5nc(c(-c6cccc(S(=O)(=O)[O-])c6F)c6ccc([nH]6)c(-c6cccc(S(=O)(=O)[O-])c6F)c6nc(c(-c7cccc(S(=O)(=O)[O-])c7F)c7ccc4[nH]7)C=C6)C=C5)cc3)C2)c(C)c1
REMARK SMILES IDX 21 1 20 2 19 3 18 4 17 5 15 6 16 7 14 8 11 9 12 10 92 11
REMARK SMILES IDX 13 12 10 13 7 14 8 15 9 17 6 19 3 20 4 21 95 22 5 23 93 24
REMARK SMILES IDX 94 25 2 26 1 27 22 28 23 29 24 30 25 31 26 32 27 33 28 34
REMARK SMILES IDX 29 35 30 36 91 37 31 38 90 39 32 40 33 41 34 42 84 43 35 44
REMARK SMILES IDX 89 45 83 46 85 47 36 48 88 49 82 50 81 51 37 53 69 54 49 55
REMARK SMILES IDX 68 56 50 57 53 58 67 59 86 60 51 61 52 62 66 64 87 65 54 66
REMARK SMILES IDX 38 67 39 68 47 69 40 70 42 71 48 72 41 73 43 74 44 75 45 76
REMARK SMILES IDX 46 77 70 78 71 79 79 80 72 81 74 82 80 83 73 84 75 85 76 86
REMARK SMILES IDX 77 87 78 88 55 89 56 90 64 91 57 92 59 93 65 94 58 95 60 96
REMARK SMILES IDX 61 97 62 98 63 99
REMARK H PARENT 7 16 10 18 85 52 53 63
REMARK Flexibility Score: inf
ROOT
ATOM      1  C   UNL A   1      36.011  21.093  24.965  1.00  0.00     0.188 C 
ENDROOT
BRANCH   1   2
ATOM      2  O   UNL A   1      35.369  22.339  25.080  1.00  0.00    -0.376 OA
BRANCH   2   3
ATOM      3  C   UNL A   1      35.054  22.552  26.449  1.00  0.00     0.202 C 
BRANCH   3   4
ATOM      4  C   UNL A   1      33.956  23.634  26.845  1.00  0.00     0.261 C 
BRANCH   4   5
ATOM      5  O   UNL A   1      33.610  25.343  26.326  1.00  0.00    -0.463 OA
BRANCH   5   6
ATOM      6  C   UNL A   1      33.023  26.207  25.187  1.00  0.00     0.312 C 
ATOM      7  O   UNL A   1      32.621  27.326  25.521  1.00  0.00    -0.252 OA
BRANCH   6   8
ATOM      8  C   UNL A   1      32.991  25.970  23.439  1.00  0.00     0.124 C 
ATOM      9  C   UNL A   1      30.998  24.517  23.159  1.00  0.00     0.107 C 
ATOM     10  C   UNL A   1      32.017  23.941  22.296  1.00  0.00    -0.006 C 
ATOM     11  C   UNL A   1      31.496  25.965  23.078  1.00  0.00     0.048 C 
ATOM     12  C   UNL A   1      33.099  24.746  22.394  1.00  0.00    -0.014 C 
BRANCH   9  13
ATOM     13  N   UNL A   1      30.825  23.825  24.455  1.00  0.00    -0.332 N 
ATOM     14  N   UNL A   1      31.430  21.662  25.620  1.00  0.00    -0.308 N 
ATOM     15  C   UNL A   1      30.911  22.920  25.419  1.00  0.00     0.319 C 
ATOM     16  H   UNL A   1      31.304  21.367  26.551  1.00  0.00     0.171 HD
ATOM     17  O   UNL A   1      30.328  23.464  26.376  1.00  0.00    -0.248 OA
ATOM     18  H   UNL A   1      30.259  24.488  24.913  1.00  0.00     0.165 HD
BRANCH  14  19
ATOM     19  C   UNL A   1      32.119  20.646  24.823  1.00  0.00     0.046 A 
ATOM     20  C   UNL A   1      33.230  17.230  24.112  1.00  0.00     0.119 A 
ATOM     21  C   UNL A   1      33.268  17.931  25.736  1.00  0.00     0.048 A 
ATOM     22  C   UNL A   1      32.674  18.229  22.750  1.00  0.00     0.052 A 
ATOM     23  C   UNL A   1      32.761  19.584  26.063  1.00  0.00     0.030 A 
ATOM     24  C   UNL A   1      32.141  19.968  23.028  1.00  0.00    -0.024 A 
ATOM     25  C   UNL A   1      31.846  20.323  21.576  1.00  0.00     0.047 C 
BRANCH  20  26
ATOM     26  O   UNL A   1      33.751  15.971  23.884  1.00  0.00    -0.497 OA
ATOM     27  C   UNL A   1      34.662  15.507  24.892  1.00  0.00     0.278 C 
ENDBRANCH  20  26
ENDBRANCH  14  19
ENDBRANCH   9  13
ENDBRANCH   6   8
ENDBRANCH   5   6
ENDBRANCH   4   5
ENDBRANCH   3   4
ENDBRANCH   2   3
ENDBRANCH   1   2
BRANCH   1  28
ATOM     28  C   UNL A   1      37.508  21.206  25.053  1.00  0.00     0.188 C 
BRANCH  28  29
ATOM     29  O   UNL A   1      38.179  19.974  24.901  1.00  0.00    -0.376 OA
BRANCH  29  30
ATOM     30  C   UNL A   1      39.144  19.434  25.746  1.00  0.00     0.202 C 
BRANCH  30  31
ATOM     31  C   UNL A   1      39.957  20.623  26.131  1.00  0.00     0.261 C 
BRANCH  31  32
ATOM     32  O   UNL A   1      41.355  20.195  26.415  1.00  0.00    -0.460 OA
BRANCH  32  33
ATOM     33  C   UNL A   1      42.472  20.985  26.191  1.00  0.00     0.338 C 
ATOM     34  O   UNL A   1      43.135  20.870  25.165  1.00  0.00    -0.246 OA
BRANCH  33  35
ATOM     35  C   UNL A   1      42.809  22.054  27.243  1.00  0.00     0.060 A 
ATOM     36  C   UNL A   1      41.813  22.696  27.968  1.00  0.00     0.016 A 
ATOM     37  C   UNL A   1      44.075  22.610  27.386  1.00  0.00     0.016 A 
ATOM     38  C   UNL A   1      42.064  23.980  28.553  1.00  0.00     0.010 A 
ATOM     39  C   UNL A   1      44.224  23.992  27.764  1.00  0.00     0.010 A 
ATOM     40  C   UNL A   1      43.142  24.835  28.199  1.00  0.00    -0.014 A 
BRANCH  40  41
ATOM     41  C   UNL A   1      43.236  26.687  28.369  1.00  0.00     0.031 A 
ATOM     42  C   UNL A   1      41.437  27.922  28.307  1.00  0.00     0.074 A 
ATOM     43  C   UNL A   1      44.759  27.278  28.810  1.00  0.00     0.049 A 
ATOM     44  N   UNL A   1      41.315  29.305  28.391  1.00  0.00    -0.248 NA
ATOM     45  C   UNL A   1      39.835  27.695  28.157  1.00  0.00     0.031 C 
ATOM     46  C   UNL A   1      45.245  28.213  29.996  1.00  0.00     0.029 A 
ATOM     47  N   UNL A   1      46.190  27.123  28.452  1.00  0.00    -0.354 N 
ATOM     48  C   UNL A   1      40.283  29.634  29.209  1.00  0.00     0.074 A 
ATOM     49  C   UNL A   1      39.313  28.624  28.940  1.00  0.00     0.031 C 
ATOM     50  C   UNL A   1      46.530  28.562  30.035  1.00  0.00     0.029 A 
ATOM     51  C   UNL A   1      47.112  28.064  28.866  1.00  0.00     0.049 A 
ATOM     52  H   UNL A   1      46.482  26.349  27.918  1.00  0.00     0.167 HD
ATOM     53  C   UNL A   1      40.455  30.590  30.175  1.00  0.00     0.034 A 
ATOM     54  C   UNL A   1      48.136  28.647  28.197  1.00  0.00     0.034 A 
ATOM     55  C   UNL A   1      41.892  31.174  30.296  1.00  0.00     0.049 A 
ATOM     56  C   UNL A   1      47.713  30.154  28.105  1.00  0.00     0.074 A 
ATOM     57  C   UNL A   1      42.780  31.422  31.349  1.00  0.00     0.029 A 
ATOM     58  N   UNL A   1      42.720  31.412  29.160  1.00  0.00    -0.354 N 
ATOM     59  N   UNL A   1      46.720  30.700  28.814  1.00  0.00    -0.248 NA
ATOM     60  C   UNL A   1      48.279  31.134  27.189  1.00  0.00     0.031 C 
ATOM     61  C   UNL A   1      44.113  31.684  30.847  1.00  0.00     0.029 A 
ATOM     62  C   UNL A   1      44.059  31.804  29.472  1.00  0.00     0.049 A 
ATOM     63  H   UNL A   1      42.396  31.316  28.235  1.00  0.00     0.167 HD
ATOM     64  C   UNL A   1      46.298  31.896  28.262  1.00  0.00     0.074 A 
ATOM     65  C   UNL A   1      47.428  32.177  27.344  1.00  0.00     0.031 C 
ATOM     66  C   UNL A   1      45.001  32.415  28.449  1.00  0.00     0.034 A 
BRANCH  53  67
ATOM     67  C   UNL A   1      39.322  30.665  31.225  1.00  0.00     0.023 A 
ATOM     68  C   UNL A   1      38.017  30.990  30.841  1.00  0.00     0.012 A 
ATOM     69  C   UNL A   1      39.488  30.465  32.631  1.00  0.00     0.148 A 
ATOM     70  C   UNL A   1      36.988  31.193  31.783  1.00  0.00     0.002 A 
ATOM     71  C   UNL A   1      38.535  30.859  33.571  1.00  0.00     0.091 A 
ATOM     72  F   UNL A   1      40.511  29.729  33.092  1.00  0.00    -0.205 F 
ATOM     73  C   UNL A   1      37.259  31.193  33.149  1.00  0.00     0.022 A 
BRANCH  71  74
ATOM     74  S   UNL A   1      38.978  31.089  35.309  1.00  0.00     0.127 S 
ATOM     75  O   UNL A   1      37.723  31.555  35.905  1.00  0.00    -0.237 OA
ATOM     76  O   UNL A   1      39.384  29.752  35.726  1.00  0.00    -0.237 OA
ATOM     77  O   UNL A   1      40.026  32.106  35.296  1.00  0.00    -0.744 OA
ENDBRANCH  71  74
ENDBRANCH  53  67
BRANCH  54  78
ATOM     78  C   UNL A   1      48.961  27.645  27.378  1.00  0.00     0.023 A 
ATOM     79  C   UNL A   1      48.559  27.532  26.008  1.00  0.00     0.012 A 
ATOM     80  C   UNL A   1      50.292  27.242  27.646  1.00  0.00     0.148 A 
ATOM     81  C   UNL A   1      49.453  27.208  24.968  1.00  0.00     0.002 A 
ATOM     82  C   UNL A   1      51.218  27.067  26.580  1.00  0.00     0.091 A 
ATOM     83  F   UNL A   1      50.678  27.145  28.926  1.00  0.00    -0.205 F 
ATOM     84  C   UNL A   1      50.802  27.068  25.248  1.00  0.00     0.022 A 
BRANCH  82  85
ATOM     85  S   UNL A   1      53.019  27.027  26.786  1.00  0.00     0.127 S 
ATOM     86  O   UNL A   1      53.515  26.776  25.435  1.00  0.00    -0.237 OA
ATOM     87  O   UNL A   1      53.327  28.378  27.257  1.00  0.00    -0.237 OA
ATOM     88  O   UNL A   1      53.258  25.923  27.704  1.00  0.00    -0.744 OA
ENDBRANCH  82  85
ENDBRANCH  54  78
BRANCH  66  89
ATOM     89  C   UNL A   1      44.403  33.616  27.670  1.00  0.00     0.023 A 
ATOM     90  C   UNL A   1      43.858  33.507  26.383  1.00  0.00     0.012 A 
ATOM     91  C   UNL A   1      44.345  34.931  28.233  1.00  0.00     0.148 A 
ATOM     92  C   UNL A   1      43.350  34.607  25.676  1.00  0.00     0.002 A 
ATOM     93  C   UNL A   1      43.731  35.997  27.582  1.00  0.00     0.091 A 
ATOM     94  F   UNL A   1      44.971  35.210  29.379  1.00  0.00    -0.205 F 
ATOM     95  C   UNL A   1      43.262  35.847  26.284  1.00  0.00     0.022 A 
BRANCH  93  96
ATOM     96  S   UNL A   1      43.514  37.604  28.362  1.00  0.00     0.127 S 
ATOM     97  O   UNL A   1      42.523  38.222  27.481  1.00  0.00    -0.237 OA
ATOM     98  O   UNL A   1      43.006  37.234  29.684  1.00  0.00    -0.237 OA
ATOM     99  O   UNL A   1      44.825  38.235  28.375  1.00  0.00    -0.744 OA
ENDBRANCH  93  96
ENDBRANCH  66  89
ENDBRANCH  40  41
ENDBRANCH  33  35
ENDBRANCH  32  33
ENDBRANCH  31  32
ENDBRANCH  30  31
ENDBRANCH  29  30
ENDBRANCH  28  29
ENDBRANCH   1  28
TORSDOF 23
ENDMDL
