MODEL 1
REMARK VINA RESULT:      -9.1      0.000      0.000
REMARK SMILES COc1ccc(/C=C2/C(=O)N(c3ccccc3)C(=O)N=C2OCCOCCOCCOC(=O)c2ccc(-c3c4nc(c(-c5cccc(S(=O)(=O)[O-])c5F)c5ccc([nH]5)c(-c5cccc(S(=O)(=O)[O-])c5F)c5nc(c(-c6cccc(S(=O)(=O)[O-])c6F)c6ccc3[nH]6)C=C5)C=C4)cc2)cc1C(=O)[O-]
REMARK SMILES IDX 27 1 26 2 25 3 24 4 23 5 22 6 21 7 7 8 8 9 9 10 10 11 11 12
REMARK SMILES IDX 20 13 18 14 19 15 6 16 3 17 4 18 98 19 5 20 97 21 2 22 1 23
REMARK SMILES IDX 99 24 100 25 101 26 12 27 13 28 17 29 14 30 16 31 15 32
REMARK SMILES IDX 28 33 29 34 30 35 31 36 32 37 33 38 34 39 35 40 96 41 36 42
REMARK SMILES IDX 95 43 37 44 38 45 39 46 89 47 40 48 94 49 88 50 90 51 41 52
REMARK SMILES IDX 93 53 87 54 86 55 42 57 74 58 54 59 73 60 55 61 58 62 72 63
REMARK SMILES IDX 91 64 56 65 57 66 71 68 92 69 59 70 43 71 44 72 52 73 45 74
REMARK SMILES IDX 47 75 53 76 46 77 48 78 49 79 50 80 51 81 75 82 76 83 84 84
REMARK SMILES IDX 77 85 79 86 85 87 78 88 80 89 81 90 82 91 83 92 60 93 61 94
REMARK SMILES IDX 69 95 62 96 64 97 70 98 63 99 65 100 66 101 67 102 68 103
REMARK H PARENT 90 56 58 67
REMARK Flexibility Score: inf
ROOT
ATOM      1  C   UNL A   1      45.851  24.558  25.601  1.00  0.00     0.188 C 
ENDROOT
BRANCH   1   2
ATOM      2  C   UNL A   1      44.642  23.632  25.827  1.00  0.00     0.188 C 
BRANCH   2   3
ATOM      3  O   UNL A   1      43.318  24.131  25.737  1.00  0.00    -0.376 OA
BRANCH   3   4
ATOM      4  C   UNL A   1      42.240  23.277  25.397  1.00  0.00     0.201 C 
BRANCH   4   5
ATOM      5  C   UNL A   1      41.743  22.261  26.428  1.00  0.00     0.260 C 
BRANCH   5   6
ATOM      6  O   UNL A   1      40.495  22.606  27.064  1.00  0.00    -0.475 OA
BRANCH   6   7
ATOM      7  C   UNL A   1      39.350  22.498  26.359  1.00  0.00     0.231 C 
ATOM      8  C   UNL A   1      38.820  24.995  26.699  1.00  0.00     0.027 C 
ATOM      9  C   UNL A   1      38.515  23.714  26.362  1.00  0.00     0.103 C 
ATOM     10  C   UNL A   1      37.077  23.446  25.984  1.00  0.00     0.272 C 
ATOM     11  O   UNL A   1      36.246  24.355  25.998  1.00  0.00    -0.268 OA
ATOM     12  N   UNL A   1      36.786  22.122  25.679  1.00  0.00    -0.226 N 
ATOM     13  N   UNL A   1      39.022  21.365  25.877  1.00  0.00    -0.156 NA
ATOM     14  C   UNL A   1      37.747  21.131  25.448  1.00  0.00     0.358 C 
ATOM     15  O   UNL A   1      37.484  20.066  24.921  1.00  0.00    -0.245 OA
BRANCH   8  16
ATOM     16  C   UNL A   1      40.036  25.715  27.181  1.00  0.00    -0.024 A 
ATOM     17  C   UNL A   1      42.391  27.178  27.937  1.00  0.00     0.127 A 
ATOM     18  C   UNL A   1      41.833  26.198  28.763  1.00  0.00     0.048 A 
ATOM     19  C   UNL A   1      41.810  27.384  26.682  1.00  0.00     0.040 A 
ATOM     20  C   UNL A   1      40.722  25.443  28.359  1.00  0.00     0.012 A 
ATOM     21  C   UNL A   1      40.618  26.688  26.343  1.00  0.00     0.022 A 
BRANCH  17  22
ATOM     22  O   UNL A   1      43.596  27.644  28.388  1.00  0.00    -0.496 OA
ATOM     23  C   UNL A   1      43.655  28.043  29.754  1.00  0.00     0.278 C 
ENDBRANCH  17  22
BRANCH  19  24
ATOM     24  C   UNL A   1      42.439  28.114  25.555  1.00  0.00     0.075 C 
ATOM     25  O   UNL A   1      42.926  27.580  24.574  1.00  0.00    -0.545 OA
ATOM     26  O   UNL A   1      42.404  29.451  25.633  1.00  0.00    -0.545 OA
ENDBRANCH  19  24
ENDBRANCH   8  16
BRANCH  12  27
ATOM     27  C   UNL A   1      35.428  21.737  25.489  1.00  0.00     0.054 A 
ATOM     28  C   UNL A   1      34.672  21.318  26.592  1.00  0.00     0.027 A 
ATOM     29  C   UNL A   1      34.874  21.686  24.208  1.00  0.00     0.027 A 
ATOM     30  C   UNL A   1      33.364  20.867  26.411  1.00  0.00     0.002 A 
ATOM     31  C   UNL A   1      33.580  21.190  24.031  1.00  0.00     0.002 A 
ATOM     32  C   UNL A   1      32.827  20.782  25.131  1.00  0.00     0.000 A 
ENDBRANCH  12  27
ENDBRANCH   6   7
ENDBRANCH   5   6
ENDBRANCH   4   5
ENDBRANCH   3   4
ENDBRANCH   2   3
ENDBRANCH   1   2
BRANCH   1  33
ATOM     33  O   UNL A   1      46.666  24.751  26.743  1.00  0.00    -0.376 OA
BRANCH  33  34
ATOM     34  C   UNL A   1      46.621  26.062  27.288  1.00  0.00     0.202 C 
BRANCH  34  35
ATOM     35  C   UNL A   1      46.087  27.141  26.335  1.00  0.00     0.261 C 
BRANCH  35  36
ATOM     36  O   UNL A   1      46.124  28.499  26.817  1.00  0.00    -0.460 OA
BRANCH  36  37
ATOM     37  C   UNL A   1      46.234  29.505  25.917  1.00  0.00     0.338 C 
ATOM     38  O   UNL A   1      46.475  29.386  24.729  1.00  0.00    -0.246 OA
BRANCH  37  39
ATOM     39  C   UNL A   1      45.798  30.769  26.575  1.00  0.00     0.060 A 
ATOM     40  C   UNL A   1      46.626  31.898  26.493  1.00  0.00     0.016 A 
ATOM     41  C   UNL A   1      44.564  30.861  27.228  1.00  0.00     0.016 A 
ATOM     42  C   UNL A   1      46.234  33.103  27.094  1.00  0.00     0.010 A 
ATOM     43  C   UNL A   1      44.182  32.063  27.843  1.00  0.00     0.010 A 
ATOM     44  C   UNL A   1      45.026  33.185  27.806  1.00  0.00    -0.014 A 
BRANCH  44  45
ATOM     45  C   UNL A   1      44.764  34.369  28.671  1.00  0.00     0.031 A 
ATOM     46  C   UNL A   1      45.124  34.277  30.133  1.00  0.00     0.074 A 
ATOM     47  C   UNL A   1      44.224  35.508  28.196  1.00  0.00     0.049 A 
ATOM     48  N   UNL A   1      45.093  35.201  31.057  1.00  0.00    -0.248 NA
ATOM     49  C   UNL A   1      45.561  32.956  30.617  1.00  0.00     0.031 C 
ATOM     50  C   UNL A   1      43.760  35.720  26.827  1.00  0.00     0.029 A 
ATOM     51  N   UNL A   1      43.995  36.716  28.816  1.00  0.00    -0.354 N 
ATOM     52  C   UNL A   1      45.440  34.563  32.242  1.00  0.00     0.074 A 
ATOM     53  C   UNL A   1      45.714  33.180  31.913  1.00  0.00     0.031 C 
ATOM     54  C   UNL A   1      43.362  36.999  26.694  1.00  0.00     0.029 A 
ATOM     55  C   UNL A   1      43.514  37.694  27.972  1.00  0.00     0.049 A 
ATOM     56  H   UNL A   1      44.162  36.867  29.774  1.00  0.00     0.167 HD
ATOM     57  C   UNL A   1      45.509  35.071  33.495  1.00  0.00     0.034 A 
ATOM     58  C   UNL A   1      43.253  38.999  28.202  1.00  0.00     0.034 A 
ATOM     59  C   UNL A   1      45.257  36.444  33.833  1.00  0.00     0.049 A 
ATOM     60  C   UNL A   1      43.452  39.565  29.592  1.00  0.00     0.074 A 
ATOM     61  C   UNL A   1      45.343  37.053  35.073  1.00  0.00     0.029 A 
ATOM     62  N   UNL A   1      44.854  37.420  32.938  1.00  0.00    -0.354 N 
ATOM     63  N   UNL A   1      43.933  38.986  30.666  1.00  0.00    -0.248 NA
ATOM     64  C   UNL A   1      43.087  40.978  29.794  1.00  0.00     0.031 C 
ATOM     65  C   UNL A   1      44.963  38.391  34.933  1.00  0.00     0.029 A 
ATOM     66  C   UNL A   1      44.679  38.624  33.598  1.00  0.00     0.049 A 
ATOM     67  H   UNL A   1      44.713  37.278  31.974  1.00  0.00     0.167 HD
ATOM     68  C   UNL A   1      43.940  39.963  31.658  1.00  0.00     0.074 A 
ATOM     69  C   UNL A   1      43.471  41.187  31.044  1.00  0.00     0.031 C 
ATOM     70  C   UNL A   1      44.271  39.852  32.970  1.00  0.00     0.034 A 
BRANCH  57  71
ATOM     71  C   UNL A   1      45.859  34.127  34.614  1.00  0.00     0.023 A 
ATOM     72  C   UNL A   1      47.200  33.965  35.009  1.00  0.00     0.012 A 
ATOM     73  C   UNL A   1      44.840  33.459  35.321  1.00  0.00     0.148 A 
ATOM     74  C   UNL A   1      47.525  33.132  36.079  1.00  0.00     0.002 A 
ATOM     75  C   UNL A   1      45.167  32.668  36.414  1.00  0.00     0.091 A 
ATOM     76  F   UNL A   1      43.572  33.611  34.911  1.00  0.00    -0.205 F 
ATOM     77  C   UNL A   1      46.510  32.494  36.788  1.00  0.00     0.022 A 
BRANCH  75  78
ATOM     78  S   UNL A   1      43.926  31.874  37.442  1.00  0.00     0.127 S 
ATOM     79  O   UNL A   1      43.151  31.134  36.447  1.00  0.00    -0.237 OA
ATOM     80  O   UNL A   1      44.745  31.040  38.321  1.00  0.00    -0.237 OA
ATOM     81  O   UNL A   1      43.209  32.949  38.113  1.00  0.00    -0.744 OA
ENDBRANCH  75  78
ENDBRANCH  57  71
BRANCH  58  82
ATOM     82  C   UNL A   1      42.839  39.911  27.089  1.00  0.00     0.023 A 
ATOM     83  C   UNL A   1      41.464  40.077  26.814  1.00  0.00     0.012 A 
ATOM     84  C   UNL A   1      43.777  40.576  26.279  1.00  0.00     0.148 A 
ATOM     85  C   UNL A   1      41.037  40.843  25.729  1.00  0.00     0.002 A 
ATOM     86  C   UNL A   1      43.341  41.393  25.239  1.00  0.00     0.091 A 
ATOM     87  F   UNL A   1      45.081  40.381  26.522  1.00  0.00    -0.205 F 
ATOM     88  C   UNL A   1      41.975  41.511  24.948  1.00  0.00     0.022 A 
BRANCH  86  89
ATOM     89  S   UNL A   1      44.485  42.389  24.275  1.00  0.00     0.127 S 
ATOM     90  O   UNL A   1      43.753  42.559  23.024  1.00  0.00    -0.237 OA
ATOM     91  O   UNL A   1      44.604  43.600  25.087  1.00  0.00    -0.237 OA
ATOM     92  O   UNL A   1      45.706  41.598  24.200  1.00  0.00    -0.744 OA
ENDBRANCH  86  89
ENDBRANCH  58  82
BRANCH  70  93
ATOM     93  C   UNL A   1      44.166  41.085  33.835  1.00  0.00     0.023 A 
ATOM     94  C   UNL A   1      42.918  41.466  34.367  1.00  0.00     0.012 A 
ATOM     95  C   UNL A   1      45.315  41.826  34.177  1.00  0.00     0.148 A 
ATOM     96  C   UNL A   1      42.807  42.589  35.188  1.00  0.00     0.002 A 
ATOM     97  C   UNL A   1      45.205  42.915  35.037  1.00  0.00     0.091 A 
ATOM     98  F   UNL A   1      46.494  41.463  33.654  1.00  0.00    -0.205 F 
ATOM     99  C   UNL A   1      43.950  43.307  35.530  1.00  0.00     0.022 A 
BRANCH  97 100
ATOM    100  S   UNL A   1      46.640  43.831  35.610  1.00  0.00     0.127 S 
ATOM    101  O   UNL A   1      46.731  44.898  34.614  1.00  0.00    -0.237 OA
ATOM    102  O   UNL A   1      46.221  44.275  36.940  1.00  0.00    -0.237 OA
ATOM    103  O   UNL A   1      47.743  42.879  35.615  1.00  0.00    -0.744 OA
ENDBRANCH  97 100
ENDBRANCH  70  93
ENDBRANCH  44  45
ENDBRANCH  37  39
ENDBRANCH  36  37
ENDBRANCH  35  36
ENDBRANCH  34  35
ENDBRANCH  33  34
ENDBRANCH   1  33
TORSDOF 23
ENDMDL
MODEL 2
REMARK VINA RESULT:      -8.7      6.795     17.045
REMARK SMILES COc1ccc(/C=C2/C(=O)N(c3ccccc3)C(=O)N=C2OCCOCCOCCOC(=O)c2ccc(-c3c4nc(c(-c5cccc(S(=O)(=O)[O-])c5F)c5ccc([nH]5)c(-c5cccc(S(=O)(=O)[O-])c5F)c5nc(c(-c6cccc(S(=O)(=O)[O-])c6F)c6ccc3[nH]6)C=C5)C=C4)cc2)cc1C(=O)[O-]
REMARK SMILES IDX 27 1 26 2 25 3 24 4 23 5 22 6 21 7 7 8 8 9 9 10 10 11 11 12
REMARK SMILES IDX 20 13 18 14 19 15 6 16 3 17 4 18 98 19 5 20 97 21 2 22 1 23
REMARK SMILES IDX 99 24 100 25 101 26 12 27 13 28 17 29 14 30 16 31 15 32
REMARK SMILES IDX 28 33 29 34 30 35 31 36 32 37 33 38 34 39 35 40 96 41 36 42
REMARK SMILES IDX 95 43 37 44 38 45 39 46 89 47 40 48 94 49 88 50 90 51 41 52
REMARK SMILES IDX 93 53 87 54 86 55 42 57 74 58 54 59 73 60 55 61 58 62 72 63
REMARK SMILES IDX 91 64 56 65 57 66 71 68 92 69 59 70 43 71 44 72 52 73 45 74
REMARK SMILES IDX 47 75 53 76 46 77 48 78 49 79 50 80 51 81 75 82 76 83 84 84
REMARK SMILES IDX 77 85 79 86 85 87 78 88 80 89 81 90 82 91 83 92 60 93 61 94
REMARK SMILES IDX 69 95 62 96 64 97 70 98 63 99 65 100 66 101 67 102 68 103
REMARK H PARENT 90 56 58 67
REMARK Flexibility Score: inf
ROOT
ATOM      1  C   UNL A   1      42.285  40.590  27.778  1.00  0.00     0.188 C 
ENDROOT
BRANCH   1   2
ATOM      2  C   UNL A   1      43.073  40.793  26.472  1.00  0.00     0.188 C 
BRANCH   2   3
ATOM      3  O   UNL A   1      42.655  41.751  25.514  1.00  0.00    -0.376 OA
BRANCH   3   4
ATOM      4  C   UNL A   1      41.553  41.494  24.662  1.00  0.00     0.201 C 
BRANCH   4   5
ATOM      5  C   UNL A   1      41.504  42.163  23.286  1.00  0.00     0.260 C 
BRANCH   5   6
ATOM      6  O   UNL A   1      42.791  42.367  22.668  1.00  0.00    -0.475 OA
BRANCH   6   7
ATOM      7  C   UNL A   1      42.844  42.813  21.396  1.00  0.00     0.231 C 
ATOM      8  C   UNL A   1      45.408  43.024  21.500  1.00  0.00     0.027 C 
ATOM      9  C   UNL A   1      44.183  43.252  20.959  1.00  0.00     0.103 C 
ATOM     10  C   UNL A   1      44.144  44.152  19.746  1.00  0.00     0.272 C 
ATOM     11  O   UNL A   1      45.181  44.645  19.298  1.00  0.00    -0.268 OA
ATOM     12  N   UNL A   1      42.875  44.396  19.235  1.00  0.00    -0.226 N 
ATOM     13  N   UNL A   1      41.761  42.942  20.738  1.00  0.00    -0.156 NA
ATOM     14  C   UNL A   1      41.725  43.680  19.589  1.00  0.00     0.358 C 
ATOM     15  O   UNL A   1      40.696  43.722  18.942  1.00  0.00    -0.245 OA
BRANCH   8  16
ATOM     16  C   UNL A   1      45.934  42.286  22.686  1.00  0.00    -0.024 A 
ATOM     17  C   UNL A   1      46.897  41.012  25.077  1.00  0.00     0.127 A 
ATOM     18  C   UNL A   1      47.151  40.488  23.806  1.00  0.00     0.048 A 
ATOM     19  C   UNL A   1      46.213  42.229  25.157  1.00  0.00     0.040 A 
ATOM     20  C   UNL A   1      46.734  41.149  22.642  1.00  0.00     0.012 A 
ATOM     21  C   UNL A   1      45.701  42.821  23.970  1.00  0.00     0.022 A 
BRANCH  17  22
ATOM     22  O   UNL A   1      47.572  40.365  26.074  1.00  0.00    -0.496 OA
ATOM     23  C   UNL A   1      47.831  38.978  25.874  1.00  0.00     0.278 C 
ENDBRANCH  17  22
BRANCH  19  24
ATOM     24  C   UNL A   1      46.144  43.097  26.357  1.00  0.00     0.075 C 
ATOM     25  O   UNL A   1      45.110  43.528  26.837  1.00  0.00    -0.545 OA
ATOM     26  O   UNL A   1      47.313  43.363  26.954  1.00  0.00    -0.545 OA
ENDBRANCH  19  24
ENDBRANCH   8  16
BRANCH  12  27
ATOM     27  C   UNL A   1      42.717  45.372  18.210  1.00  0.00     0.054 A 
ATOM     28  C   UNL A   1      43.164  46.681  18.432  1.00  0.00     0.027 A 
ATOM     29  C   UNL A   1      42.041  45.060  17.027  1.00  0.00     0.027 A 
ATOM     30  C   UNL A   1      42.949  47.665  17.466  1.00  0.00     0.002 A 
ATOM     31  C   UNL A   1      41.789  46.062  16.087  1.00  0.00     0.002 A 
ATOM     32  C   UNL A   1      42.243  47.362  16.307  1.00  0.00     0.000 A 
ENDBRANCH  12  27
ENDBRANCH   6   7
ENDBRANCH   5   6
ENDBRANCH   4   5
ENDBRANCH   3   4
ENDBRANCH   2   3
ENDBRANCH   1   2
BRANCH   1  33
ATOM     33  O   UNL A   1      41.650  39.329  27.892  1.00  0.00    -0.376 OA
BRANCH  33  34
ATOM     34  C   UNL A   1      41.958  38.415  26.848  1.00  0.00     0.202 C 
BRANCH  34  35
ATOM     35  C   UNL A   1      43.039  37.380  27.192  1.00  0.00     0.261 C 
BRANCH  35  36
ATOM     36  O   UNL A   1      42.884  36.682  28.444  1.00  0.00    -0.460 OA
BRANCH  36  37
ATOM     37  C   UNL A   1      42.453  35.399  28.423  1.00  0.00     0.338 C 
ATOM     38  O   UNL A   1      41.294  35.028  28.464  1.00  0.00    -0.246 OA
BRANCH  37  39
ATOM     39  C   UNL A   1      43.618  34.520  28.124  1.00  0.00     0.060 A 
ATOM     40  C   UNL A   1      43.777  34.021  26.824  1.00  0.00     0.016 A 
ATOM     41  C   UNL A   1      44.576  34.224  29.101  1.00  0.00     0.016 A 
ATOM     42  C   UNL A   1      44.871  33.199  26.514  1.00  0.00     0.010 A 
ATOM     43  C   UNL A   1      45.660  33.389  28.793  1.00  0.00     0.010 A 
ATOM     44  C   UNL A   1      45.801  32.846  27.506  1.00  0.00    -0.014 A 
BRANCH  44  45
ATOM     45  C   UNL A   1      46.781  31.757  27.237  1.00  0.00     0.031 A 
ATOM     46  C   UNL A   1      48.201  32.141  26.906  1.00  0.00     0.074 A 
ATOM     47  C   UNL A   1      46.445  30.453  27.283  1.00  0.00     0.049 A 
ATOM     48  N   UNL A   1      49.253  31.382  26.741  1.00  0.00    -0.248 NA
ATOM     49  C   UNL A   1      48.463  33.579  26.719  1.00  0.00     0.031 C 
ATOM     50  C   UNL A   1      45.102  29.931  27.518  1.00  0.00     0.029 A 
ATOM     51  N   UNL A   1      47.223  29.324  27.154  1.00  0.00    -0.354 N 
ATOM     52  C   UNL A   1      50.283  32.237  26.367  1.00  0.00     0.074 A 
ATOM     53  C   UNL A   1      49.739  33.578  26.365  1.00  0.00     0.031 C 
ATOM     54  C   UNL A   1      45.159  28.587  27.579  1.00  0.00     0.029 A 
ATOM     55  C   UNL A   1      46.536  28.147  27.361  1.00  0.00     0.049 A 
ATOM     56  H   UNL A   1      48.182  29.355  26.934  1.00  0.00     0.167 HD
ATOM     57  C   UNL A   1      51.561  31.937  26.037  1.00  0.00     0.034 A 
ATOM     58  C   UNL A   1      46.976  26.870  27.395  1.00  0.00     0.034 A 
ATOM     59  C   UNL A   1      52.118  30.613  26.051  1.00  0.00     0.049 A 
ATOM     60  C   UNL A   1      48.439  26.579  27.135  1.00  0.00     0.074 A 
ATOM     61  C   UNL A   1      53.416  30.225  25.768  1.00  0.00     0.029 A 
ATOM     62  N   UNL A   1      51.413  29.459  26.347  1.00  0.00    -0.354 N 
ATOM     63  N   UNL A   1      49.432  27.413  26.939  1.00  0.00    -0.248 NA
ATOM     64  C   UNL A   1      48.843  25.162  27.120  1.00  0.00     0.031 C 
ATOM     65  C   UNL A   1      53.489  28.832  25.864  1.00  0.00     0.029 A 
ATOM     66  C   UNL A   1      52.245  28.358  26.246  1.00  0.00     0.049 A 
ATOM     67  H   UNL A   1      50.460  29.427  26.594  1.00  0.00     0.167 HD
ATOM     68  C   UNL A   1      50.572  26.625  26.793  1.00  0.00     0.074 A 
ATOM     69  C   UNL A   1      50.158  25.251  26.981  1.00  0.00     0.031 C 
ATOM     70  C   UNL A   1      51.841  27.000  26.495  1.00  0.00     0.034 A 
BRANCH  57  71
ATOM     71  C   UNL A   1      52.456  33.069  25.609  1.00  0.00     0.023 A 
ATOM     72  C   UNL A   1      52.964  33.969  26.564  1.00  0.00     0.012 A 
ATOM     73  C   UNL A   1      52.850  33.189  24.261  1.00  0.00     0.148 A 
ATOM     74  C   UNL A   1      53.835  34.988  26.181  1.00  0.00     0.002 A 
ATOM     75  C   UNL A   1      53.754  34.177  23.895  1.00  0.00     0.091 A 
ATOM     76  F   UNL A   1      52.334  32.334  23.366  1.00  0.00    -0.205 F 
ATOM     77  C   UNL A   1      54.239  35.084  24.851  1.00  0.00     0.022 A 
BRANCH  75  78
ATOM     78  S   UNL A   1      54.399  34.330  22.226  1.00  0.00     0.127 S 
ATOM     79  O   UNL A   1      54.953  35.683  22.248  1.00  0.00    -0.237 OA
ATOM     80  O   UNL A   1      55.397  33.262  22.184  1.00  0.00    -0.237 OA
ATOM     81  O   UNL A   1      53.262  34.139  21.334  1.00  0.00    -0.744 OA
ENDBRANCH  75  78
ENDBRANCH  57  71
BRANCH  58  82
ATOM     82  C   UNL A   1      46.056  25.746  27.757  1.00  0.00     0.023 A 
ATOM     83  C   UNL A   1      45.827  25.460  29.121  1.00  0.00     0.012 A 
ATOM     84  C   UNL A   1      45.445  24.936  26.782  1.00  0.00     0.148 A 
ATOM     85  C   UNL A   1      45.051  24.364  29.503  1.00  0.00     0.002 A 
ATOM     86  C   UNL A   1      44.618  23.886  27.171  1.00  0.00     0.091 A 
ATOM     87  F   UNL A   1      45.700  25.190  25.491  1.00  0.00    -0.205 F 
ATOM     88  C   UNL A   1      44.437  23.584  28.529  1.00  0.00     0.022 A 
BRANCH  86  89
ATOM     89  S   UNL A   1      43.688  22.920  25.975  1.00  0.00     0.127 S 
ATOM     90  O   UNL A   1      42.825  22.122  26.839  1.00  0.00    -0.237 OA
ATOM     91  O   UNL A   1      42.999  23.957  25.206  1.00  0.00    -0.237 OA
ATOM     92  O   UNL A   1      44.693  22.185  25.218  1.00  0.00    -0.744 OA
ENDBRANCH  86  89
ENDBRANCH  58  82
BRANCH  70  93
ATOM     93  C   UNL A   1      52.890  25.920  26.375  1.00  0.00     0.023 A 
ATOM     94  C   UNL A   1      52.897  25.067  25.254  1.00  0.00     0.012 A 
ATOM     95  C   UNL A   1      53.910  25.795  27.340  1.00  0.00     0.148 A 
ATOM     96  C   UNL A   1      53.872  24.079  25.116  1.00  0.00     0.002 A 
ATOM     97  C   UNL A   1      54.910  24.842  27.170  1.00  0.00     0.091 A 
ATOM     98  F   UNL A   1      53.885  26.603  28.409  1.00  0.00    -0.205 F 
ATOM     99  C   UNL A   1      54.883  23.973  26.067  1.00  0.00     0.022 A 
BRANCH  97 100
ATOM    100  S   UNL A   1      56.304  24.706  28.295  1.00  0.00     0.127 S 
ATOM    101  O   UNL A   1      56.517  23.260  28.334  1.00  0.00    -0.237 OA
ATOM    102  O   UNL A   1      57.348  25.457  27.595  1.00  0.00    -0.237 OA
ATOM    103  O   UNL A   1      55.866  25.312  29.546  1.00  0.00    -0.744 OA
ENDBRANCH  97 100
ENDBRANCH  70  93
ENDBRANCH  44  45
ENDBRANCH  37  39
ENDBRANCH  36  37
ENDBRANCH  35  36
ENDBRANCH  34  35
ENDBRANCH  33  34
ENDBRANCH   1  33
TORSDOF 23
ENDMDL
MODEL 3
REMARK VINA RESULT:      -8.3      5.647     13.436
REMARK SMILES COc1ccc(/C=C2/C(=O)N(c3ccccc3)C(=O)N=C2OCCOCCOCCOC(=O)c2ccc(-c3c4nc(c(-c5cccc(S(=O)(=O)[O-])c5F)c5ccc([nH]5)c(-c5cccc(S(=O)(=O)[O-])c5F)c5nc(c(-c6cccc(S(=O)(=O)[O-])c6F)c6ccc3[nH]6)C=C5)C=C4)cc2)cc1C(=O)[O-]
REMARK SMILES IDX 27 1 26 2 25 3 24 4 23 5 22 6 21 7 7 8 8 9 9 10 10 11 11 12
REMARK SMILES IDX 20 13 18 14 19 15 6 16 3 17 4 18 98 19 5 20 97 21 2 22 1 23
REMARK SMILES IDX 99 24 100 25 101 26 12 27 13 28 17 29 14 30 16 31 15 32
REMARK SMILES IDX 28 33 29 34 30 35 31 36 32 37 33 38 34 39 35 40 96 41 36 42
REMARK SMILES IDX 95 43 37 44 38 45 39 46 89 47 40 48 94 49 88 50 90 51 41 52
REMARK SMILES IDX 93 53 87 54 86 55 42 57 74 58 54 59 73 60 55 61 58 62 72 63
REMARK SMILES IDX 91 64 56 65 57 66 71 68 92 69 59 70 43 71 44 72 52 73 45 74
REMARK SMILES IDX 47 75 53 76 46 77 48 78 49 79 50 80 51 81 75 82 76 83 84 84
REMARK SMILES IDX 77 85 79 86 85 87 78 88 80 89 81 90 82 91 83 92 60 93 61 94
REMARK SMILES IDX 69 95 62 96 64 97 70 98 63 99 65 100 66 101 67 102 68 103
REMARK H PARENT 90 56 58 67
REMARK Flexibility Score: inf
ROOT
ATOM      1  C   UNL A   1      48.851  34.358  37.242  1.00  0.00     0.188 C 
ENDROOT
BRANCH   1   2
ATOM      2  C   UNL A   1      48.458  34.828  35.830  1.00  0.00     0.188 C 
BRANCH   2   3
ATOM      3  O   UNL A   1      47.096  35.012  35.479  1.00  0.00    -0.376 OA
BRANCH   3   4
ATOM      4  C   UNL A   1      46.204  35.680  36.354  1.00  0.00     0.201 C 
BRANCH   4   5
ATOM      5  C   UNL A   1      45.585  37.009  35.913  1.00  0.00     0.260 C 
BRANCH   5   6
ATOM      6  O   UNL A   1      44.162  36.964  35.683  1.00  0.00    -0.475 OA
BRANCH   6   7
ATOM      7  C   UNL A   1      43.707  36.807  34.424  1.00  0.00     0.231 C 
ATOM      8  C   UNL A   1      41.852  35.207  35.217  1.00  0.00     0.027 C 
ATOM      9  C   UNL A   1      42.644  35.793  34.282  1.00  0.00     0.103 C 
ATOM     10  C   UNL A   1      42.477  35.305  32.861  1.00  0.00     0.272 C 
ATOM     11  O   UNL A   1      41.667  34.416  32.596  1.00  0.00    -0.268 OA
ATOM     12  N   UNL A   1      43.324  35.897  31.932  1.00  0.00    -0.226 N 
ATOM     13  N   UNL A   1      44.292  37.417  33.471  1.00  0.00    -0.156 NA
ATOM     14  C   UNL A   1      44.086  37.047  32.172  1.00  0.00     0.358 C 
ATOM     15  O   UNL A   1      44.598  37.698  31.280  1.00  0.00    -0.245 OA
BRANCH   8  16
ATOM     16  C   UNL A   1      41.694  35.301  36.698  1.00  0.00    -0.024 A 
ATOM     17  C   UNL A   1      41.447  35.302  39.562  1.00  0.00     0.127 A 
ATOM     18  C   UNL A   1      40.978  36.361  38.780  1.00  0.00     0.048 A 
ATOM     19  C   UNL A   1      41.983  34.191  38.904  1.00  0.00     0.040 A 
ATOM     20  C   UNL A   1      41.044  36.324  37.379  1.00  0.00     0.012 A 
ATOM     21  C   UNL A   1      42.144  34.226  37.492  1.00  0.00     0.022 A 
BRANCH  17  22
ATOM     22  O   UNL A   1      41.093  35.404  40.879  1.00  0.00    -0.496 OA
ATOM     23  C   UNL A   1      39.855  36.052  41.159  1.00  0.00     0.278 C 
ENDBRANCH  17  22
BRANCH  19  24
ATOM     24  C   UNL A   1      42.216  32.860  39.518  1.00  0.00     0.075 C 
ATOM     25  O   UNL A   1      41.886  31.801  39.012  1.00  0.00    -0.545 OA
ATOM     26  O   UNL A   1      42.880  32.861  40.681  1.00  0.00    -0.545 OA
ENDBRANCH  19  24
ENDBRANCH   8  16
BRANCH  12  27
ATOM     27  C   UNL A   1      43.371  35.378  30.607  1.00  0.00     0.054 A 
ATOM     28  C   UNL A   1      44.459  34.585  30.218  1.00  0.00     0.027 A 
ATOM     29  C   UNL A   1      42.394  35.724  29.671  1.00  0.00     0.027 A 
ATOM     30  C   UNL A   1      44.555  34.130  28.902  1.00  0.00     0.002 A 
ATOM     31  C   UNL A   1      42.523  35.304  28.345  1.00  0.00     0.002 A 
ATOM     32  C   UNL A   1      43.602  34.508  27.962  1.00  0.00     0.000 A 
ENDBRANCH  12  27
ENDBRANCH   6   7
ENDBRANCH   5   6
ENDBRANCH   4   5
ENDBRANCH   3   4
ENDBRANCH   2   3
ENDBRANCH   1   2
BRANCH   1  33
ATOM     33  O   UNL A   1      48.635  32.979  37.484  1.00  0.00    -0.376 OA
BRANCH  33  34
ATOM     34  C   UNL A   1      49.764  32.151  37.236  1.00  0.00     0.202 C 
BRANCH  34  35
ATOM     35  C   UNL A   1      49.495  30.643  37.337  1.00  0.00     0.261 C 
BRANCH  35  36
ATOM     36  O   UNL A   1      48.118  30.228  37.233  1.00  0.00    -0.460 OA
BRANCH  36  37
ATOM     37  C   UNL A   1      47.851  28.941  36.909  1.00  0.00     0.338 C 
ATOM     38  O   UNL A   1      48.354  27.953  37.412  1.00  0.00    -0.246 OA
BRANCH  37  39
ATOM     39  C   UNL A   1      46.681  28.925  35.986  1.00  0.00     0.060 A 
ATOM     40  C   UNL A   1      46.574  29.923  35.008  1.00  0.00     0.016 A 
ATOM     41  C   UNL A   1      45.719  27.911  36.049  1.00  0.00     0.016 A 
ATOM     42  C   UNL A   1      45.488  29.926  34.120  1.00  0.00     0.010 A 
ATOM     43  C   UNL A   1      44.625  27.924  35.170  1.00  0.00     0.010 A 
ATOM     44  C   UNL A   1      44.485  28.947  34.218  1.00  0.00    -0.014 A 
BRANCH  44  45
ATOM     45  C   UNL A   1      43.210  29.126  33.470  1.00  0.00     0.031 A 
ATOM     46  C   UNL A   1      42.121  29.954  34.105  1.00  0.00     0.074 A 
ATOM     47  C   UNL A   1      43.000  28.583  32.255  1.00  0.00     0.049 A 
ATOM     48  N   UNL A   1      40.974  30.342  33.611  1.00  0.00    -0.248 NA
ATOM     49  C   UNL A   1      42.354  30.387  35.494  1.00  0.00     0.031 C 
ATOM     50  C   UNL A   1      43.927  27.703  31.548  1.00  0.00     0.029 A 
ATOM     51  N   UNL A   1      41.938  28.712  31.388  1.00  0.00    -0.354 N 
ATOM     52  C   UNL A   1      40.321  31.004  34.644  1.00  0.00     0.074 A 
ATOM     53  C   UNL A   1      41.215  30.998  35.782  1.00  0.00     0.031 C 
ATOM     54  C   UNL A   1      43.423  27.423  30.332  1.00  0.00     0.029 A 
ATOM     55  C   UNL A   1      42.125  28.078  30.179  1.00  0.00     0.049 A 
ATOM     56  H   UNL A   1      41.120  29.212  31.612  1.00  0.00     0.167 HD
ATOM     57  C   UNL A   1      39.084  31.553  34.656  1.00  0.00     0.034 A 
ATOM     58  C   UNL A   1      41.349  28.054  29.073  1.00  0.00     0.034 A 
ATOM     59  C   UNL A   1      38.193  31.582  33.529  1.00  0.00     0.049 A 
ATOM     60  C   UNL A   1      40.019  28.778  29.080  1.00  0.00     0.074 A 
ATOM     61  C   UNL A   1      36.935  32.153  33.443  1.00  0.00     0.029 A 
ATOM     62  N   UNL A   1      38.453  31.003  32.298  1.00  0.00    -0.354 N 
ATOM     63  N   UNL A   1      39.487  29.533  30.011  1.00  0.00    -0.248 NA
ATOM     64  C   UNL A   1      39.190  28.659  27.868  1.00  0.00     0.031 C 
ATOM     65  C   UNL A   1      36.422  31.894  32.169  1.00  0.00     0.029 A 
ATOM     66  C   UNL A   1      37.377  31.197  31.450  1.00  0.00     0.049 A 
ATOM     67  H   UNL A   1      39.281  30.526  32.062  1.00  0.00     0.167 HD
ATOM     68  C   UNL A   1      38.276  29.986  29.493  1.00  0.00     0.074 A 
ATOM     69  C   UNL A   1      38.178  29.469  28.144  1.00  0.00     0.031 C 
ATOM     70  C   UNL A   1      37.312  30.732  30.089  1.00  0.00     0.034 A 
BRANCH  57  71
ATOM     71  C   UNL A   1      38.602  32.162  35.945  1.00  0.00     0.023 A 
ATOM     72  C   UNL A   1      38.728  33.547  36.164  1.00  0.00     0.012 A 
ATOM     73  C   UNL A   1      37.954  31.362  36.907  1.00  0.00     0.148 A 
ATOM     74  C   UNL A   1      38.236  34.125  37.334  1.00  0.00     0.002 A 
ATOM     75  C   UNL A   1      37.426  31.951  38.048  1.00  0.00     0.091 A 
ATOM     76  F   UNL A   1      37.867  30.042  36.687  1.00  0.00    -0.205 F 
ATOM     77  C   UNL A   1      37.575  33.330  38.269  1.00  0.00     0.022 A 
BRANCH  75  78
ATOM     78  S   UNL A   1      36.486  31.029  39.269  1.00  0.00     0.127 S 
ATOM     79  O   UNL A   1      36.200  29.790  38.545  1.00  0.00    -0.237 OA
ATOM     80  O   UNL A   1      37.451  30.890  40.358  1.00  0.00    -0.237 OA
ATOM     81  O   UNL A   1      35.322  31.846  39.584  1.00  0.00    -0.744 OA
ENDBRANCH  75  78
ENDBRANCH  57  71
BRANCH  58  82
ATOM     82  C   UNL A   1      41.814  27.385  27.818  1.00  0.00     0.023 A 
ATOM     83  C   UNL A   1      42.182  28.182  26.712  1.00  0.00     0.012 A 
ATOM     84  C   UNL A   1      41.857  25.985  27.688  1.00  0.00     0.148 A 
ATOM     85  C   UNL A   1      42.533  27.599  25.493  1.00  0.00     0.002 A 
ATOM     86  C   UNL A   1      42.272  25.410  26.490  1.00  0.00     0.091 A 
ATOM     87  F   UNL A   1      41.468  25.236  28.729  1.00  0.00    -0.205 F 
ATOM     88  C   UNL A   1      42.589  26.214  25.385  1.00  0.00     0.022 A 
BRANCH  86  89
ATOM     89  S   UNL A   1      42.497  23.636  26.318  1.00  0.00     0.127 S 
ATOM     90  O   UNL A   1      41.118  23.164  26.250  1.00  0.00    -0.237 OA
ATOM     91  O   UNL A   1      43.245  23.537  25.064  1.00  0.00    -0.237 OA
ATOM     92  O   UNL A   1      43.254  23.234  27.497  1.00  0.00    -0.744 OA
ENDBRANCH  86  89
ENDBRANCH  58  82
BRANCH  70  93
ATOM     93  C   UNL A   1      36.075  31.064  29.290  1.00  0.00     0.023 A 
ATOM     94  C   UNL A   1      35.337  30.032  28.675  1.00  0.00     0.012 A 
ATOM     95  C   UNL A   1      35.604  32.390  29.205  1.00  0.00     0.148 A 
ATOM     96  C   UNL A   1      34.179  30.318  27.952  1.00  0.00     0.002 A 
ATOM     97  C   UNL A   1      34.420  32.661  28.526  1.00  0.00     0.091 A 
ATOM     98  F   UNL A   1      36.322  33.364  29.782  1.00  0.00    -0.205 F 
ATOM     99  C   UNL A   1      33.715  31.629  27.886  1.00  0.00     0.022 A 
BRANCH  97 100
ATOM    100  S   UNL A   1      33.700  34.306  28.479  1.00  0.00     0.127 S 
ATOM    101  O   UNL A   1      32.722  34.175  27.401  1.00  0.00    -0.237 OA
ATOM    102  O   UNL A   1      33.117  34.433  29.816  1.00  0.00    -0.237 OA
ATOM    103  O   UNL A   1      34.806  35.218  28.219  1.00  0.00    -0.744 OA
ENDBRANCH  97 100
ENDBRANCH  70  93
ENDBRANCH  44  45
ENDBRANCH  37  39
ENDBRANCH  36  37
ENDBRANCH  35  36
ENDBRANCH  34  35
ENDBRANCH  33  34
ENDBRANCH   1  33
TORSDOF 23
ENDMDL
