MODEL 1
REMARK VINA RESULT:     -11.1      0.000      0.000
REMARK SMILES CSCc1ccc(C(=O)Nc2cc(C)c(C(=O)OCCOCCOCCOC(=O)c3ccc(-c4c5nc(c(-c6cccc(S(=O)(=O)[O-])c6F)c6ccc([nH]6)c(-c6cccc(S(=O)(=O)[O-])c6F)c6nc(c(-c7cccc(S(=O)(=O)[O-])c7F)c7ccc4[nH]7)C=C6)C=C5)cc3)s2)cc1
REMARK SMILES IDX 22 1 21 2 20 3 19 4 18 5 16 6 17 7 15 8 11 9 12 10 93 11
REMARK SMILES IDX 13 12 14 13 10 14 8 15 9 16 7 18 4 19 5 20 95 21 6 22 94 23
REMARK SMILES IDX 3 24 2 25 1 26 23 27 24 28 25 29 26 30 27 31 28 32 29 33
REMARK SMILES IDX 30 34 31 35 92 36 32 37 91 38 33 39 34 40 35 41 85 42 36 43
REMARK SMILES IDX 90 44 84 45 86 46 37 47 89 48 83 49 82 50 38 52 70 53 50 54
REMARK SMILES IDX 69 55 51 56 54 57 68 58 87 59 52 60 53 61 67 63 88 64 55 65
REMARK SMILES IDX 39 66 40 67 48 68 41 69 43 70 49 71 42 72 44 73 45 74 46 75
REMARK SMILES IDX 47 76 71 77 72 78 80 79 73 80 75 81 81 82 74 83 76 84 77 85
REMARK SMILES IDX 78 86 79 87 56 88 57 89 65 90 58 91 60 92 66 93 59 94 61 95
REMARK SMILES IDX 62 96 63 97 64 98
REMARK H PARENT 10 17 86 51 54 62
REMARK Flexibility Score: inf
ROOT
ATOM      1  C   UNL A   1      41.942  21.442  26.371  1.00  0.00     0.188 C 
ENDROOT
BRANCH   1   2
ATOM      2  O   UNL A   1      40.827  21.097  27.181  1.00  0.00    -0.376 OA
BRANCH   2   3
ATOM      3  C   UNL A   1      39.676  20.644  26.492  1.00  0.00     0.202 C 
BRANCH   3   4
ATOM      4  C   UNL A   1      38.914  21.740  25.737  1.00  0.00     0.261 C 
BRANCH   4   5
ATOM      5  O   UNL A   1      37.522  21.850  26.070  1.00  0.00    -0.459 OA
BRANCH   5   6
ATOM      6  C   UNL A   1      36.629  21.112  25.358  1.00  0.00     0.348 C 
ATOM      7  O   UNL A   1      36.871  19.995  24.917  1.00  0.00    -0.245 OA
BRANCH   6   8
ATOM      8  C   UNL A   1      35.364  21.831  25.270  1.00  0.00     0.117 A 
ATOM      9  C   UNL A   1      33.070  22.588  25.757  1.00  0.00     0.096 A 
ATOM     10  C   UNL A   1      33.536  23.096  24.575  1.00  0.00     0.042 A 
ATOM     11  S   UNL A   1      34.198  21.590  26.527  1.00  0.00    -0.111 S 
ATOM     12  C   UNL A   1      34.916  22.775  24.345  1.00  0.00    -0.023 A 
ATOM     13  C   UNL A   1      35.680  23.369  23.204  1.00  0.00     0.046 C 
BRANCH   9  14
ATOM     14  N   UNL A   1      31.789  22.679  26.232  1.00  0.00    -0.314 N 
ATOM     15  C   UNL A   1      31.028  23.795  26.494  1.00  0.00     0.256 C 
ATOM     16  O   UNL A   1      30.077  23.671  27.271  1.00  0.00    -0.269 OA
ATOM     17  H   UNL A   1      31.345  21.818  26.411  1.00  0.00     0.171 HD
BRANCH  15  18
ATOM     18  C   UNL A   1      31.161  25.072  25.721  1.00  0.00     0.040 A 
ATOM     19  C   UNL A   1      31.259  27.647  24.538  1.00  0.00    -0.038 A 
ATOM     20  C   UNL A   1      31.964  27.373  25.718  1.00  0.00     0.005 A 
ATOM     21  C   UNL A   1      30.487  26.626  23.968  1.00  0.00     0.005 A 
ATOM     22  C   UNL A   1      31.913  26.103  26.301  1.00  0.00     0.014 A 
ATOM     23  C   UNL A   1      30.435  25.354  24.556  1.00  0.00     0.014 A 
BRANCH  19  24
ATOM     24  C   UNL A   1      31.398  28.992  23.869  1.00  0.00     0.104 C 
BRANCH  24  25
ATOM     25  S   UNL A   1      29.853  29.920  23.712  1.00  0.00    -0.161 SA
ATOM     26  C   UNL A   1      29.547  29.675  21.954  1.00  0.00     0.085 C 
ENDBRANCH  24  25
ENDBRANCH  19  24
ENDBRANCH  15  18
ENDBRANCH   9  14
ENDBRANCH   6   8
ENDBRANCH   5   6
ENDBRANCH   4   5
ENDBRANCH   3   4
ENDBRANCH   2   3
ENDBRANCH   1   2
BRANCH   1  27
ATOM     27  C   UNL A   1      42.704  20.199  25.864  1.00  0.00     0.188 C 
BRANCH  27  28
ATOM     28  O   UNL A   1      43.705  20.376  24.865  1.00  0.00    -0.376 OA
BRANCH  28  29
ATOM     29  C   UNL A   1      44.637  21.439  25.052  1.00  0.00     0.202 C 
BRANCH  29  30
ATOM     30  C   UNL A   1      44.561  22.611  24.067  1.00  0.00     0.261 C 
BRANCH  30  31
ATOM     31  O   UNL A   1      43.617  23.625  24.468  1.00  0.00    -0.460 OA
BRANCH  31  32
ATOM     32  C   UNL A   1      44.172  24.787  24.887  1.00  0.00     0.338 C 
ATOM     33  O   UNL A   1      45.278  25.219  24.602  1.00  0.00    -0.246 OA
BRANCH  32  34
ATOM     34  C   UNL A   1      43.216  25.578  25.681  1.00  0.00     0.060 A 
ATOM     35  C   UNL A   1      43.408  26.957  25.786  1.00  0.00     0.016 A 
ATOM     36  C   UNL A   1      42.291  24.938  26.506  1.00  0.00     0.016 A 
ATOM     37  C   UNL A   1      42.744  27.683  26.771  1.00  0.00     0.010 A 
ATOM     38  C   UNL A   1      41.608  25.678  27.483  1.00  0.00     0.010 A 
ATOM     39  C   UNL A   1      41.885  27.042  27.671  1.00  0.00    -0.014 A 
BRANCH  39  40
ATOM     40  C   UNL A   1      41.414  27.784  28.876  1.00  0.00     0.031 A 
ATOM     41  C   UNL A   1      40.099  28.530  28.841  1.00  0.00     0.074 A 
ATOM     42  C   UNL A   1      42.098  27.708  30.033  1.00  0.00     0.049 A 
ATOM     43  N   UNL A   1      39.498  29.184  29.803  1.00  0.00    -0.248 NA
ATOM     44  C   UNL A   1      39.344  28.514  27.576  1.00  0.00     0.031 C 
ATOM     45  C   UNL A   1      43.343  26.965  30.232  1.00  0.00     0.029 A 
ATOM     46  N   UNL A   1      41.846  28.270  31.262  1.00  0.00    -0.354 N 
ATOM     47  C   UNL A   1      38.305  29.652  29.262  1.00  0.00     0.074 A 
ATOM     48  C   UNL A   1      38.264  29.216  27.885  1.00  0.00     0.031 C 
ATOM     49  C   UNL A   1      43.751  27.125  31.500  1.00  0.00     0.029 A 
ATOM     50  C   UNL A   1      42.835  28.030  32.188  1.00  0.00     0.049 A 
ATOM     51  H   UNL A   1      41.036  28.792  31.460  1.00  0.00     0.167 HD
ATOM     52  C   UNL A   1      37.323  30.370  29.855  1.00  0.00     0.034 A 
ATOM     53  C   UNL A   1      43.012  28.520  33.430  1.00  0.00     0.034 A 
ATOM     54  C   UNL A   1      37.354  30.823  31.218  1.00  0.00     0.049 A 
ATOM     55  C   UNL A   1      41.984  29.456  34.006  1.00  0.00     0.074 A 
ATOM     56  C   UNL A   1      36.396  31.550  31.904  1.00  0.00     0.029 A 
ATOM     57  N   UNL A   1      38.407  30.622  32.094  1.00  0.00    -0.354 N 
ATOM     58  N   UNL A   1      40.823  29.810  33.513  1.00  0.00    -0.248 NA
ATOM     59  C   UNL A   1      42.289  30.054  35.315  1.00  0.00     0.031 C 
ATOM     60  C   UNL A   1      36.893  31.828  33.183  1.00  0.00     0.029 A 
ATOM     61  C   UNL A   1      38.147  31.251  33.299  1.00  0.00     0.049 A 
ATOM     62  H   UNL A   1      39.221  30.107  31.889  1.00  0.00     0.167 HD
ATOM     63  C   UNL A   1      40.246  30.648  34.460  1.00  0.00     0.074 A 
ATOM     64  C   UNL A   1      41.178  30.733  35.566  1.00  0.00     0.031 C 
ATOM     65  C   UNL A   1      39.059  31.300  34.411  1.00  0.00     0.034 A 
BRANCH  52  66
ATOM     66  C   UNL A   1      36.117  30.724  29.029  1.00  0.00     0.023 A 
ATOM     67  C   UNL A   1      35.382  29.703  28.398  1.00  0.00     0.012 A 
ATOM     68  C   UNL A   1      35.672  32.057  28.945  1.00  0.00     0.148 A 
ATOM     69  C   UNL A   1      34.220  30.005  27.688  1.00  0.00     0.002 A 
ATOM     70  C   UNL A   1      34.500  32.347  28.257  1.00  0.00     0.091 A 
ATOM     71  F   UNL A   1      36.406  33.013  29.532  1.00  0.00    -0.205 F 
ATOM     72  C   UNL A   1      33.774  31.323  27.627  1.00  0.00     0.022 A 
BRANCH  70  73
ATOM     73  S   UNL A   1      33.821  34.007  28.159  1.00  0.00     0.127 S 
ATOM     74  O   UNL A   1      33.905  34.442  29.553  1.00  0.00    -0.237 OA
ATOM     75  O   UNL A   1      34.759  34.672  27.256  1.00  0.00    -0.237 OA
ATOM     76  O   UNL A   1      32.470  33.860  27.635  1.00  0.00    -0.744 OA
ENDBRANCH  70  73
ENDBRANCH  52  66
BRANCH  53  77
ATOM     77  C   UNL A   1      44.235  28.160  34.204  1.00  0.00     0.023 A 
ATOM     78  C   UNL A   1      45.419  28.903  34.039  1.00  0.00     0.012 A 
ATOM     79  C   UNL A   1      44.222  27.086  35.116  1.00  0.00     0.148 A 
ATOM     80  C   UNL A   1      46.570  28.573  34.757  1.00  0.00     0.002 A 
ATOM     81  C   UNL A   1      45.351  26.805  35.876  1.00  0.00     0.091 A 
ATOM     82  F   UNL A   1      43.102  26.358  35.231  1.00  0.00    -0.205 F 
ATOM     83  C   UNL A   1      46.532  27.535  35.686  1.00  0.00     0.022 A 
BRANCH  81  84
ATOM     84  S   UNL A   1      45.315  25.582  37.192  1.00  0.00     0.127 S 
ATOM     85  O   UNL A   1      44.687  24.444  36.529  1.00  0.00    -0.237 OA
ATOM     86  O   UNL A   1      46.735  25.410  37.498  1.00  0.00    -0.237 OA
ATOM     87  O   UNL A   1      44.549  26.202  38.266  1.00  0.00    -0.744 OA
ENDBRANCH  81  84
ENDBRANCH  53  77
BRANCH  65  88
ATOM     88  C   UNL A   1      38.682  32.160  35.589  1.00  0.00     0.023 A 
ATOM     89  C   UNL A   1      37.774  31.667  36.546  1.00  0.00     0.012 A 
ATOM     90  C   UNL A   1      39.282  33.418  35.788  1.00  0.00     0.148 A 
ATOM     91  C   UNL A   1      37.445  32.426  37.669  1.00  0.00     0.002 A 
ATOM     92  C   UNL A   1      38.986  34.149  36.933  1.00  0.00     0.091 A 
ATOM     93  F   UNL A   1      40.129  33.880  34.856  1.00  0.00    -0.205 F 
ATOM     94  C   UNL A   1      38.060  33.660  37.869  1.00  0.00     0.022 A 
BRANCH  92  95
ATOM     95  S   UNL A   1      39.807  35.701  37.315  1.00  0.00     0.127 S 
ATOM     96  O   UNL A   1      39.065  36.150  38.492  1.00  0.00    -0.237 OA
ATOM     97  O   UNL A   1      41.180  35.272  37.587  1.00  0.00    -0.237 OA
ATOM     98  O   UNL A   1      39.662  36.529  36.125  1.00  0.00    -0.744 OA
ENDBRANCH  92  95
ENDBRANCH  65  88
ENDBRANCH  39  40
ENDBRANCH  32  34
ENDBRANCH  31  32
ENDBRANCH  30  31
ENDBRANCH  29  30
ENDBRANCH  28  29
ENDBRANCH  27  28
ENDBRANCH   1  27
TORSDOF 24
ENDMDL
MODEL 2
REMARK VINA RESULT:     -10.9      1.757      2.034
REMARK SMILES CSCc1ccc(C(=O)Nc2cc(C)c(C(=O)OCCOCCOCCOC(=O)c3ccc(-c4c5nc(c(-c6cccc(S(=O)(=O)[O-])c6F)c6ccc([nH]6)c(-c6cccc(S(=O)(=O)[O-])c6F)c6nc(c(-c7cccc(S(=O)(=O)[O-])c7F)c7ccc4[nH]7)C=C6)C=C5)cc3)s2)cc1
REMARK SMILES IDX 22 1 21 2 20 3 19 4 18 5 16 6 17 7 15 8 11 9 12 10 93 11
REMARK SMILES IDX 13 12 14 13 10 14 8 15 9 16 7 18 4 19 5 20 95 21 6 22 94 23
REMARK SMILES IDX 3 24 2 25 1 26 23 27 24 28 25 29 26 30 27 31 28 32 29 33
REMARK SMILES IDX 30 34 31 35 92 36 32 37 91 38 33 39 34 40 35 41 85 42 36 43
REMARK SMILES IDX 90 44 84 45 86 46 37 47 89 48 83 49 82 50 38 52 70 53 50 54
REMARK SMILES IDX 69 55 51 56 54 57 68 58 87 59 52 60 53 61 67 63 88 64 55 65
REMARK SMILES IDX 39 66 40 67 48 68 41 69 43 70 49 71 42 72 44 73 45 74 46 75
REMARK SMILES IDX 47 76 71 77 72 78 80 79 73 80 75 81 81 82 74 83 76 84 77 85
REMARK SMILES IDX 78 86 79 87 56 88 57 89 65 90 58 91 60 92 66 93 59 94 61 95
REMARK SMILES IDX 62 96 63 97 64 98
REMARK H PARENT 10 17 86 51 54 62
REMARK Flexibility Score: inf
ROOT
ATOM      1  C   UNL A   1      42.331  20.990  26.370  1.00  0.00     0.188 C 
ENDROOT
BRANCH   1   2
ATOM      2  O   UNL A   1      41.373  20.386  27.229  1.00  0.00    -0.376 OA
BRANCH   2   3
ATOM      3  C   UNL A   1      40.044  20.342  26.741  1.00  0.00     0.202 C 
BRANCH   3   4
ATOM      4  C   UNL A   1      39.642  21.546  25.881  1.00  0.00     0.261 C 
BRANCH   4   5
ATOM      5  O   UNL A   1      38.247  21.886  25.928  1.00  0.00    -0.459 OA
BRANCH   5   6
ATOM      6  C   UNL A   1      37.376  21.131  25.209  1.00  0.00     0.348 C 
ATOM      7  O   UNL A   1      37.664  20.049  24.712  1.00  0.00    -0.245 OA
BRANCH   6   8
ATOM      8  C   UNL A   1      36.071  21.782  25.187  1.00  0.00     0.117 A 
ATOM      9  C   UNL A   1      33.794  22.470  25.830  1.00  0.00     0.096 A 
ATOM     10  C   UNL A   1      34.124  22.903  24.574  1.00  0.00     0.042 A 
ATOM     11  S   UNL A   1      35.039  21.590  26.562  1.00  0.00    -0.111 S 
ATOM     12  C   UNL A   1      35.492  22.628  24.239  1.00  0.00    -0.023 A 
ATOM     13  C   UNL A   1      36.117  23.163  22.990  1.00  0.00     0.046 C 
BRANCH   9  14
ATOM     14  N   UNL A   1      32.558  22.540  26.415  1.00  0.00    -0.314 N 
ATOM     15  C   UNL A   1      31.667  23.587  26.459  1.00  0.00     0.256 C 
ATOM     16  O   UNL A   1      30.814  23.576  27.350  1.00  0.00    -0.269 OA
ATOM     17  H   UNL A   1      32.263  21.719  26.873  1.00  0.00     0.171 HD
BRANCH  15  18
ATOM     18  C   UNL A   1      31.545  24.599  25.361  1.00  0.00     0.040 A 
ATOM     19  C   UNL A   1      31.054  26.662  23.478  1.00  0.00    -0.038 A 
ATOM     20  C   UNL A   1      31.510  26.963  24.768  1.00  0.00     0.005 A 
ATOM     21  C   UNL A   1      30.825  25.320  23.146  1.00  0.00     0.005 A 
ATOM     22  C   UNL A   1      31.749  25.945  25.696  1.00  0.00     0.014 A 
ATOM     23  C   UNL A   1      31.063  24.300  24.079  1.00  0.00     0.014 A 
BRANCH  19  24
ATOM     24  C   UNL A   1      30.890  27.761  22.458  1.00  0.00     0.104 C 
BRANCH  24  25
ATOM     25  S   UNL A   1      29.885  29.160  23.011  1.00  0.00    -0.161 SA
ATOM     26  C   UNL A   1      28.272  28.359  23.049  1.00  0.00     0.085 C 
ENDBRANCH  24  25
ENDBRANCH  19  24
ENDBRANCH  15  18
ENDBRANCH   9  14
ENDBRANCH   6   8
ENDBRANCH   5   6
ENDBRANCH   4   5
ENDBRANCH   3   4
ENDBRANCH   2   3
ENDBRANCH   1   2
BRANCH   1  27
ATOM     27  C   UNL A   1      43.217  19.946  25.657  1.00  0.00     0.188 C 
BRANCH  27  28
ATOM     28  O   UNL A   1      44.177  20.404  24.708  1.00  0.00    -0.376 OA
BRANCH  28  29
ATOM     29  C   UNL A   1      44.801  21.663  24.962  1.00  0.00     0.202 C 
BRANCH  29  30
ATOM     30  C   UNL A   1      44.581  22.769  23.924  1.00  0.00     0.261 C 
BRANCH  30  31
ATOM     31  O   UNL A   1      43.717  23.822  24.396  1.00  0.00    -0.460 OA
BRANCH  31  32
ATOM     32  C   UNL A   1      44.355  24.865  24.979  1.00  0.00     0.338 C 
ATOM     33  O   UNL A   1      45.523  25.189  24.831  1.00  0.00    -0.246 OA
BRANCH  32  34
ATOM     34  C   UNL A   1      43.422  25.683  25.774  1.00  0.00     0.060 A 
ATOM     35  C   UNL A   1      43.701  27.039  25.954  1.00  0.00     0.016 A 
ATOM     36  C   UNL A   1      42.424  25.070  26.533  1.00  0.00     0.016 A 
ATOM     37  C   UNL A   1      43.049  27.762  26.947  1.00  0.00     0.010 A 
ATOM     38  C   UNL A   1      41.752  25.810  27.518  1.00  0.00     0.010 A 
ATOM     39  C   UNL A   1      42.112  27.142  27.782  1.00  0.00    -0.014 A 
BRANCH  39  40
ATOM     40  C   UNL A   1      41.643  27.858  29.003  1.00  0.00     0.031 A 
ATOM     41  C   UNL A   1      40.377  28.683  28.959  1.00  0.00     0.074 A 
ATOM     42  C   UNL A   1      42.281  27.691  30.178  1.00  0.00     0.049 A 
ATOM     43  N   UNL A   1      39.782  29.331  29.929  1.00  0.00    -0.248 NA
ATOM     44  C   UNL A   1      39.669  28.768  27.670  1.00  0.00     0.031 C 
ATOM     45  C   UNL A   1      43.471  26.865  30.384  1.00  0.00     0.029 A 
ATOM     46  N   UNL A   1      42.019  28.213  31.421  1.00  0.00    -0.354 N 
ATOM     47  C   UNL A   1      38.639  29.893  29.371  1.00  0.00     0.074 A 
ATOM     48  C   UNL A   1      38.621  29.520  27.975  1.00  0.00     0.031 C 
ATOM     49  C   UNL A   1      43.843  26.945  31.670  1.00  0.00     0.029 A 
ATOM     50  C   UNL A   1      42.957  27.874  32.368  1.00  0.00     0.049 A 
ATOM     51  H   UNL A   1      41.234  28.775  31.616  1.00  0.00     0.167 HD
ATOM     52  C   UNL A   1      37.681  30.643  29.963  1.00  0.00     0.034 A 
ATOM     53  C   UNL A   1      43.120  28.298  33.636  1.00  0.00     0.034 A 
ATOM     54  C   UNL A   1      37.690  31.034  31.346  1.00  0.00     0.049 A 
ATOM     55  C   UNL A   1      42.129  29.269  34.220  1.00  0.00     0.074 A 
ATOM     56  C   UNL A   1      36.753  31.787  32.032  1.00  0.00     0.029 A 
ATOM     57  N   UNL A   1      38.698  30.731  32.246  1.00  0.00    -0.354 N 
ATOM     58  N   UNL A   1      41.009  29.714  33.705  1.00  0.00    -0.248 NA
ATOM     59  C   UNL A   1      42.422  29.790  35.564  1.00  0.00     0.031 C 
ATOM     60  C   UNL A   1      37.219  31.979  33.337  1.00  0.00     0.029 A 
ATOM     61  C   UNL A   1      38.432  31.323  33.468  1.00  0.00     0.049 A 
ATOM     62  H   UNL A   1      39.486  30.177  32.045  1.00  0.00     0.167 HD
ATOM     63  C   UNL A   1      40.449  30.544  34.670  1.00  0.00     0.074 A 
ATOM     64  C   UNL A   1      41.344  30.524  35.809  1.00  0.00     0.031 C 
ATOM     65  C   UNL A   1      39.305  31.268  34.612  1.00  0.00     0.034 A 
BRANCH  52  66
ATOM     66  C   UNL A   1      36.528  31.105  29.115  1.00  0.00     0.023 A 
ATOM     67  C   UNL A   1      36.366  32.478  28.848  1.00  0.00     0.012 A 
ATOM     68  C   UNL A   1      35.656  30.172  28.522  1.00  0.00     0.148 A 
ATOM     69  C   UNL A   1      35.346  32.918  28.005  1.00  0.00     0.002 A 
ATOM     70  C   UNL A   1      34.658  30.616  27.663  1.00  0.00     0.091 A 
ATOM     71  F   UNL A   1      35.816  28.874  28.815  1.00  0.00    -0.205 F 
ATOM     72  C   UNL A   1      34.500  31.988  27.405  1.00  0.00     0.022 A 
BRANCH  70  73
ATOM     73  S   UNL A   1      33.547  29.493  26.809  1.00  0.00     0.127 S 
ATOM     74  O   UNL A   1      32.900  28.810  27.929  1.00  0.00    -0.237 OA
ATOM     75  O   UNL A   1      32.681  30.414  26.075  1.00  0.00    -0.237 OA
ATOM     76  O   UNL A   1      34.389  28.650  25.971  1.00  0.00    -0.744 OA
ENDBRANCH  70  73
ENDBRANCH  52  66
BRANCH  53  77
ATOM     77  C   UNL A   1      44.291  27.831  34.433  1.00  0.00     0.023 A 
ATOM     78  C   UNL A   1      45.521  28.508  34.342  1.00  0.00     0.012 A 
ATOM     79  C   UNL A   1      44.182  26.721  35.294  1.00  0.00     0.148 A 
ATOM     80  C   UNL A   1      46.624  28.078  35.082  1.00  0.00     0.002 A 
ATOM     81  C   UNL A   1      45.264  26.339  36.076  1.00  0.00     0.091 A 
ATOM     82  F   UNL A   1      43.018  26.057  35.337  1.00  0.00    -0.205 F 
ATOM     83  C   UNL A   1      46.492  27.004  35.960  1.00  0.00     0.022 A 
BRANCH  81  84
ATOM     84  S   UNL A   1      45.109  25.064  37.333  1.00  0.00     0.127 S 
ATOM     85  O   UNL A   1      45.567  23.877  36.617  1.00  0.00    -0.237 OA
ATOM     86  O   UNL A   1      46.016  25.542  38.377  1.00  0.00    -0.237 OA
ATOM     87  O   UNL A   1      43.704  25.078  37.718  1.00  0.00    -0.744 OA
ENDBRANCH  81  84
ENDBRANCH  53  77
BRANCH  65  88
ATOM     88  C   UNL A   1      38.938  32.097  35.814  1.00  0.00     0.023 A 
ATOM     89  C   UNL A   1      39.330  33.449  35.870  1.00  0.00     0.012 A 
ATOM     90  C   UNL A   1      38.146  31.562  36.848  1.00  0.00     0.148 A 
ATOM     91  C   UNL A   1      38.963  34.249  36.952  1.00  0.00     0.002 A 
ATOM     92  C   UNL A   1      37.743  32.378  37.899  1.00  0.00     0.091 A 
ATOM     93  F   UNL A   1      37.800  30.267  36.787  1.00  0.00    -0.205 F 
ATOM     94  C   UNL A   1      38.160  33.718  37.959  1.00  0.00     0.022 A 
BRANCH  92  95
ATOM     95  S   UNL A   1      36.630  31.799  39.185  1.00  0.00     0.127 S 
ATOM     96  O   UNL A   1      37.361  32.160  40.399  1.00  0.00    -0.237 OA
ATOM     97  O   UNL A   1      35.426  32.596  38.940  1.00  0.00    -0.237 OA
ATOM     98  O   UNL A   1      36.462  30.372  38.952  1.00  0.00    -0.744 OA
ENDBRANCH  92  95
ENDBRANCH  65  88
ENDBRANCH  39  40
ENDBRANCH  32  34
ENDBRANCH  31  32
ENDBRANCH  30  31
ENDBRANCH  29  30
ENDBRANCH  28  29
ENDBRANCH  27  28
ENDBRANCH   1  27
TORSDOF 24
ENDMDL
MODEL 3
REMARK VINA RESULT:     -10.4      2.125      8.808
REMARK SMILES CSCc1ccc(C(=O)Nc2cc(C)c(C(=O)OCCOCCOCCOC(=O)c3ccc(-c4c5nc(c(-c6cccc(S(=O)(=O)[O-])c6F)c6ccc([nH]6)c(-c6cccc(S(=O)(=O)[O-])c6F)c6nc(c(-c7cccc(S(=O)(=O)[O-])c7F)c7ccc4[nH]7)C=C6)C=C5)cc3)s2)cc1
REMARK SMILES IDX 22 1 21 2 20 3 19 4 18 5 16 6 17 7 15 8 11 9 12 10 93 11
REMARK SMILES IDX 13 12 14 13 10 14 8 15 9 16 7 18 4 19 5 20 95 21 6 22 94 23
REMARK SMILES IDX 3 24 2 25 1 26 23 27 24 28 25 29 26 30 27 31 28 32 29 33
REMARK SMILES IDX 30 34 31 35 92 36 32 37 91 38 33 39 34 40 35 41 85 42 36 43
REMARK SMILES IDX 90 44 84 45 86 46 37 47 89 48 83 49 82 50 38 52 70 53 50 54
REMARK SMILES IDX 69 55 51 56 54 57 68 58 87 59 52 60 53 61 67 63 88 64 55 65
REMARK SMILES IDX 39 66 40 67 48 68 41 69 43 70 49 71 42 72 44 73 45 74 46 75
REMARK SMILES IDX 47 76 71 77 72 78 80 79 73 80 75 81 81 82 74 83 76 84 77 85
REMARK SMILES IDX 78 86 79 87 56 88 57 89 65 90 58 91 60 92 66 93 59 94 61 95
REMARK SMILES IDX 62 96 63 97 64 98
REMARK H PARENT 10 17 86 51 54 62
REMARK Flexibility Score: inf
ROOT
ATOM      1  C   UNL A   1      32.592  27.293  26.321  1.00  0.00     0.188 C 
ENDROOT
BRANCH   1   2
ATOM      2  O   UNL A   1      31.719  26.372  26.960  1.00  0.00    -0.376 OA
BRANCH   2   3
ATOM      3  C   UNL A   1      30.364  26.412  26.547  1.00  0.00     0.202 C 
BRANCH   3   4
ATOM      4  C   UNL A   1      29.712  25.036  26.372  1.00  0.00     0.261 C 
BRANCH   4   5
ATOM      5  O   UNL A   1      30.380  23.958  27.045  1.00  0.00    -0.459 OA
BRANCH   5   6
ATOM      6  C   UNL A   1      30.854  22.926  26.298  1.00  0.00     0.348 C 
ATOM      7  O   UNL A   1      30.378  21.798  26.320  1.00  0.00    -0.245 OA
BRANCH   6   8
ATOM      8  C   UNL A   1      31.945  23.398  25.454  1.00  0.00     0.117 A 
ATOM      9  C   UNL A   1      33.180  24.296  23.520  1.00  0.00     0.096 A 
ATOM     10  C   UNL A   1      34.022  23.857  24.506  1.00  0.00     0.042 A 
ATOM     11  S   UNL A   1      31.549  24.087  23.916  1.00  0.00    -0.111 S 
ATOM     12  C   UNL A   1      33.319  23.458  25.692  1.00  0.00    -0.023 A 
ATOM     13  C   UNL A   1      34.043  23.110  26.954  1.00  0.00     0.046 C 
BRANCH   9  14
ATOM     14  N   UNL A   1      33.542  24.694  22.261  1.00  0.00    -0.314 N 
ATOM     15  C   UNL A   1      32.910  25.562  21.400  1.00  0.00     0.256 C 
ATOM     16  O   UNL A   1      33.179  25.475  20.199  1.00  0.00    -0.269 OA
ATOM     17  H   UNL A   1      34.378  24.300  21.920  1.00  0.00     0.171 HD
BRANCH  15  18
ATOM     18  C   UNL A   1      32.103  26.732  21.872  1.00  0.00     0.040 A 
ATOM     19  C   UNL A   1      30.746  28.912  23.076  1.00  0.00    -0.038 A 
ATOM     20  C   UNL A   1      32.134  28.948  22.888  1.00  0.00     0.005 A 
ATOM     21  C   UNL A   1      30.046  27.766  22.676  1.00  0.00     0.005 A 
ATOM     22  C   UNL A   1      32.802  27.871  22.296  1.00  0.00     0.014 A 
ATOM     23  C   UNL A   1      30.718  26.686  22.085  1.00  0.00     0.014 A 
BRANCH  19  24
ATOM     24  C   UNL A   1      30.026  30.117  23.628  1.00  0.00     0.104 C 
BRANCH  24  25
ATOM     25  S   UNL A   1      29.153  31.107  22.391  1.00  0.00    -0.161 SA
ATOM     26  C   UNL A   1      27.661  31.487  23.327  1.00  0.00     0.085 C 
ENDBRANCH  24  25
ENDBRANCH  19  24
ENDBRANCH  15  18
ENDBRANCH   9  14
ENDBRANCH   6   8
ENDBRANCH   5   6
ENDBRANCH   4   5
ENDBRANCH   3   4
ENDBRANCH   2   3
ENDBRANCH   1   2
BRANCH   1  27
ATOM     27  C   UNL A   1      32.632  28.657  27.042  1.00  0.00     0.188 C 
BRANCH  27  28
ATOM     28  O   UNL A   1      32.635  29.843  26.252  1.00  0.00    -0.376 OA
BRANCH  28  29
ATOM     29  C   UNL A   1      31.511  30.714  26.371  1.00  0.00     0.202 C 
BRANCH  29  30
ATOM     30  C   UNL A   1      31.805  32.208  26.552  1.00  0.00     0.261 C 
BRANCH  30  31
ATOM     31  O   UNL A   1      32.356  32.522  27.847  1.00  0.00    -0.460 OA
BRANCH  31  32
ATOM     32  C   UNL A   1      33.411  33.372  27.826  1.00  0.00     0.338 C 
ATOM     33  O   UNL A   1      33.373  34.590  27.752  1.00  0.00    -0.246 OA
BRANCH  32  34
ATOM     34  C   UNL A   1      34.680  32.650  28.021  1.00  0.00     0.060 A 
ATOM     35  C   UNL A   1      34.643  31.348  28.523  1.00  0.00     0.016 A 
ATOM     36  C   UNL A   1      35.894  33.332  27.943  1.00  0.00     0.016 A 
ATOM     37  C   UNL A   1      35.799  30.759  29.027  1.00  0.00     0.010 A 
ATOM     38  C   UNL A   1      37.061  32.726  28.431  1.00  0.00     0.010 A 
ATOM     39  C   UNL A   1      37.008  31.463  29.045  1.00  0.00    -0.014 A 
BRANCH  39  40
ATOM     40  C   UNL A   1      38.150  30.923  29.837  1.00  0.00     0.031 A 
ATOM     41  C   UNL A   1      39.077  29.896  29.228  1.00  0.00     0.074 A 
ATOM     42  C   UNL A   1      38.428  31.421  31.057  1.00  0.00     0.049 A 
ATOM     43  N   UNL A   1      40.154  29.352  29.739  1.00  0.00    -0.248 NA
ATOM     44  C   UNL A   1      38.780  29.444  27.857  1.00  0.00     0.031 C 
ATOM     45  C   UNL A   1      37.664  32.466  31.739  1.00  0.00     0.029 A 
ATOM     46  N   UNL A   1      39.429  31.108  31.945  1.00  0.00    -0.354 N 
ATOM     47  C   UNL A   1      40.656  28.502  28.760  1.00  0.00     0.074 A 
ATOM     48  C   UNL A   1      39.768  28.593  27.623  1.00  0.00     0.031 C 
ATOM     49  C   UNL A   1      38.215  32.699  32.940  1.00  0.00     0.029 A 
ATOM     50  C   UNL A   1      39.332  31.781  33.141  1.00  0.00     0.049 A 
ATOM     51  H   UNL A   1      40.148  30.465  31.744  1.00  0.00     0.167 HD
ATOM     52  C   UNL A   1      41.762  27.723  28.792  1.00  0.00     0.034 A 
ATOM     53  C   UNL A   1      40.027  31.642  34.287  1.00  0.00     0.034 A 
ATOM     54  C   UNL A   1      42.648  27.612  29.917  1.00  0.00     0.049 A 
ATOM     55  C   UNL A   1      41.150  30.643  34.350  1.00  0.00     0.074 A 
ATOM     56  C   UNL A   1      43.799  26.851  30.033  1.00  0.00     0.029 A 
ATOM     57  N   UNL A   1      42.468  28.252  31.131  1.00  0.00    -0.354 N 
ATOM     58  N   UNL A   1      41.665  29.919  33.386  1.00  0.00    -0.248 NA
ATOM     59  C   UNL A   1      41.794  30.447  35.658  1.00  0.00     0.031 C 
ATOM     60  C   UNL A   1      44.289  26.996  31.335  1.00  0.00     0.029 A 
ATOM     61  C   UNL A   1      43.457  27.868  32.020  1.00  0.00     0.049 A 
ATOM     62  H   UNL A   1      41.743  28.887  31.332  1.00  0.00     0.167 HD
ATOM     63  C   UNL A   1      42.708  29.203  33.963  1.00  0.00     0.074 A 
ATOM     64  C   UNL A   1      42.766  29.597  35.356  1.00  0.00     0.031 C 
ATOM     65  C   UNL A   1      43.534  28.292  33.393  1.00  0.00     0.034 A 
BRANCH  52  66
ATOM     66  C   UNL A   1      42.085  26.913  27.566  1.00  0.00     0.023 A 
ATOM     67  C   UNL A   1      42.714  27.532  26.469  1.00  0.00     0.012 A 
ATOM     68  C   UNL A   1      41.835  25.528  27.536  1.00  0.00     0.148 A 
ATOM     69  C   UNL A   1      43.086  26.781  25.353  1.00  0.00     0.002 A 
ATOM     70  C   UNL A   1      42.230  24.783  26.432  1.00  0.00     0.091 A 
ATOM     71  F   UNL A   1      41.209  24.971  28.582  1.00  0.00    -0.205 F 
ATOM     72  C   UNL A   1      42.855  25.408  25.339  1.00  0.00     0.022 A 
BRANCH  70  73
ATOM     73  S   UNL A   1      42.015  23.002  26.339  1.00  0.00     0.127 S 
ATOM     74  O   UNL A   1      42.595  22.704  25.029  1.00  0.00    -0.237 OA
ATOM     75  O   UNL A   1      42.806  22.535  27.476  1.00  0.00    -0.237 OA
ATOM     76  O   UNL A   1      40.583  22.762  26.451  1.00  0.00    -0.744 OA
ENDBRANCH  70  73
ENDBRANCH  52  66
BRANCH  53  77
ATOM     77  C   UNL A   1      39.656  32.450  35.484  1.00  0.00     0.023 A 
ATOM     78  C   UNL A   1      38.960  31.853  36.551  1.00  0.00     0.012 A 
ATOM     79  C   UNL A   1      40.007  33.813  35.573  1.00  0.00     0.148 A 
ATOM     80  C   UNL A   1      38.607  32.601  37.676  1.00  0.00     0.002 A 
ATOM     81  C   UNL A   1      39.711  34.534  36.722  1.00  0.00     0.091 A 
ATOM     82  F   UNL A   1      40.631  34.381  34.531  1.00  0.00    -0.205 F 
ATOM     83  C   UNL A   1      38.996  33.936  37.769  1.00  0.00     0.022 A 
BRANCH  81  84
ATOM     84  S   UNL A   1      40.318  36.208  36.961  1.00  0.00     0.127 S 
ATOM     85  O   UNL A   1      39.556  36.642  38.127  1.00  0.00    -0.237 OA
ATOM     86  O   UNL A   1      41.745  35.992  37.203  1.00  0.00    -0.237 OA
ATOM     87  O   UNL A   1      40.028  36.899  35.711  1.00  0.00    -0.744 OA
ENDBRANCH  81  84
ENDBRANCH  53  77
BRANCH  65  88
ATOM     88  C   UNL A   1      44.585  27.657  34.264  1.00  0.00     0.023 A 
ATOM     89  C   UNL A   1      45.843  28.277  34.399  1.00  0.00     0.012 A 
ATOM     90  C   UNL A   1      44.304  26.494  35.006  1.00  0.00     0.148 A 
ATOM     91  C   UNL A   1      46.816  27.732  35.237  1.00  0.00     0.002 A 
ATOM     92  C   UNL A   1      45.261  25.983  35.875  1.00  0.00     0.091 A 
ATOM     93  F   UNL A   1      43.109  25.906  34.850  1.00  0.00    -0.205 F 
ATOM     94  C   UNL A   1      46.521  26.594  35.983  1.00  0.00     0.022 A 
BRANCH  92  95
ATOM     95  S   UNL A   1      44.929  24.578  36.945  1.00  0.00     0.127 S 
ATOM     96  O   UNL A   1      44.701  23.510  35.975  1.00  0.00    -0.237 OA
ATOM     97  O   UNL A   1      46.177  24.457  37.702  1.00  0.00    -0.237 OA
ATOM     98  O   UNL A   1      43.774  24.957  37.748  1.00  0.00    -0.744 OA
ENDBRANCH  92  95
ENDBRANCH  65  88
ENDBRANCH  39  40
ENDBRANCH  32  34
ENDBRANCH  31  32
ENDBRANCH  30  31
ENDBRANCH  29  30
ENDBRANCH  28  29
ENDBRANCH  27  28
ENDBRANCH   1  27
TORSDOF 24
ENDMDL
