MODEL 1
REMARK VINA RESULT:      -9.4      0.000      0.000
REMARK SMILES CO[C@H]1C[C@@H](C(=O)OCCOCCOCCOC(=O)c2ccc(-c3c4nc(c(-c5cccc(S(=O)(=O)[O-])c5F)c5ccc([nH]5)c(-c5cccc(S(=O)(=O)[O-])c5F)c5nc(c(-c6cccc(S(=O)(=O)[O-])c6F)c6ccc3[nH]6)C=C5)C=C4)cc2)N(C(=O)Nc2cc(C)cc(F)c2)C1
REMARK SMILES IDX 13 1 12 2 11 3 10 4 9 5 8 6 6 7 7 8 5 9 3 10 4 11 95 12
REMARK SMILES IDX 83 13 2 14 1 15 84 16 85 17 86 18 87 20 88 21 94 22 89 23
REMARK SMILES IDX 92 24 90 25 91 26 93 27 14 28 15 29 16 30 17 31 18 32 19 33
REMARK SMILES IDX 20 34 21 35 82 36 22 37 81 38 23 39 24 40 25 41 75 42 26 43
REMARK SMILES IDX 80 44 74 45 76 46 27 47 79 48 73 49 72 50 28 52 60 53 40 54
REMARK SMILES IDX 59 55 41 56 44 57 58 58 77 59 42 60 43 61 57 63 78 64 45 65
REMARK SMILES IDX 29 66 30 67 38 68 31 69 33 70 39 71 32 72 34 73 35 74 36 75
REMARK SMILES IDX 37 76 61 77 62 78 70 79 63 80 65 81 71 82 64 83 66 84 67 85
REMARK SMILES IDX 68 86 69 87 46 88 47 89 55 90 48 91 50 92 56 93 49 94 51 95
REMARK SMILES IDX 52 96 53 97 54 98
REMARK H PARENT 86 19 76 51 44 62
REMARK Flexibility Score: inf
ROOT
ATOM      1  C   UNL A   1      34.835  33.983  28.969  1.00  0.00     0.188 C 
ENDROOT
BRANCH   1   2
ATOM      2  C   UNL A   1      33.982  33.135  28.006  1.00  0.00     0.188 C 
BRANCH   2   3
ATOM      3  O   UNL A   1      34.028  31.751  28.368  1.00  0.00    -0.376 OA
BRANCH   3   4
ATOM      4  C   UNL A   1      34.822  30.933  27.508  1.00  0.00     0.202 C 
BRANCH   4   5
ATOM      5  C   UNL A   1      34.286  29.513  27.307  1.00  0.00     0.261 C 
BRANCH   5   6
ATOM      6  O   UNL A   1      33.586  29.241  26.068  1.00  0.00    -0.462 OA
BRANCH   6   7
ATOM      7  C   UNL A   1      32.267  29.562  25.970  1.00  0.00     0.329 C 
ATOM      8  O   UNL A   1      31.781  30.657  26.215  1.00  0.00    -0.250 OA
BRANCH   7   9
ATOM      9  C   UNL A   1      31.469  28.459  25.300  1.00  0.00     0.199 C 
ATOM     10  C   UNL A   1      31.949  26.075  25.677  1.00  0.00     0.140 C 
ATOM     11  C   UNL A   1      31.404  27.333  26.353  1.00  0.00     0.071 C 
ATOM     12  C   UNL A   1      32.750  26.596  24.490  1.00  0.00     0.154 C 
ATOM     13  N   UNL A   1      32.173  27.882  24.145  1.00  0.00    -0.308 N 
BRANCH  10  14
ATOM     14  O   UNL A   1      32.818  25.340  26.538  1.00  0.00    -0.380 OA
ATOM     15  C   UNL A   1      33.457  24.238  25.915  1.00  0.00     0.195 C 
ENDBRANCH  10  14
BRANCH  13  16
ATOM     16  C   UNL A   1      32.207  28.290  22.838  1.00  0.00     0.322 C 
ATOM     17  O   UNL A   1      33.274  28.471  22.248  1.00  0.00    -0.248 OA
ATOM     18  N   UNL A   1      31.068  28.306  22.100  1.00  0.00    -0.308 N 
ATOM     19  H   UNL A   1      31.122  27.803  21.255  1.00  0.00     0.171 HD
BRANCH  18  20
ATOM     20  C   UNL A   1      29.829  28.917  22.335  1.00  0.00     0.046 A 
ATOM     21  C   UNL A   1      29.729  30.286  22.063  1.00  0.00     0.029 A 
ATOM     22  C   UNL A   1      28.757  28.255  22.923  1.00  0.00     0.065 A 
ATOM     23  C   UNL A   1      28.523  30.974  22.257  1.00  0.00    -0.046 A 
ATOM     24  C   UNL A   1      27.567  28.946  23.138  1.00  0.00     0.125 A 
ATOM     25  C   UNL A   1      28.411  32.437  21.951  1.00  0.00     0.044 C 
ATOM     26  C   UNL A   1      27.428  30.281  22.775  1.00  0.00     0.042 A 
ATOM     27  F   UNL A   1      26.520  28.308  23.680  1.00  0.00    -0.207 F 
ENDBRANCH  18  20
ENDBRANCH  13  16
ENDBRANCH   7   9
ENDBRANCH   6   7
ENDBRANCH   5   6
ENDBRANCH   4   5
ENDBRANCH   3   4
ENDBRANCH   2   3
ENDBRANCH   1   2
BRANCH   1  28
ATOM     28  O   UNL A   1      35.181  33.395  30.226  1.00  0.00    -0.376 OA
BRANCH  28  29
ATOM     29  C   UNL A   1      36.564  33.276  30.514  1.00  0.00     0.202 C 
BRANCH  29  30
ATOM     30  C   UNL A   1      36.917  32.628  31.858  1.00  0.00     0.261 C 
BRANCH  30  31
ATOM     31  O   UNL A   1      36.913  31.190  31.850  1.00  0.00    -0.460 OA
BRANCH  31  32
ATOM     32  C   UNL A   1      37.886  30.617  32.607  1.00  0.00     0.338 C 
ATOM     33  O   UNL A   1      37.733  30.026  33.663  1.00  0.00    -0.246 OA
BRANCH  32  34
ATOM     34  C   UNL A   1      39.201  30.710  31.933  1.00  0.00     0.060 A 
ATOM     35  C   UNL A   1      40.302  31.150  32.683  1.00  0.00     0.016 A 
ATOM     36  C   UNL A   1      39.325  30.500  30.559  1.00  0.00     0.016 A 
ATOM     37  C   UNL A   1      41.506  31.464  32.047  1.00  0.00     0.010 A 
ATOM     38  C   UNL A   1      40.528  30.826  29.921  1.00  0.00     0.010 A 
ATOM     39  C   UNL A   1      41.603  31.365  30.653  1.00  0.00    -0.014 A 
BRANCH  39  40
ATOM     40  C   UNL A   1      42.711  32.045  29.934  1.00  0.00     0.031 A 
ATOM     41  C   UNL A   1      43.935  31.234  29.585  1.00  0.00     0.074 A 
ATOM     42  C   UNL A   1      42.660  33.348  29.607  1.00  0.00     0.049 A 
ATOM     43  N   UNL A   1      45.057  31.616  29.031  1.00  0.00    -0.248 NA
ATOM     44  C   UNL A   1      43.886  29.799  29.912  1.00  0.00     0.031 C 
ATOM     45  C   UNL A   1      41.531  34.240  29.852  1.00  0.00     0.029 A 
ATOM     46  N   UNL A   1      43.606  34.150  29.016  1.00  0.00    -0.354 N 
ATOM     47  C   UNL A   1      45.859  30.482  28.980  1.00  0.00     0.074 A 
ATOM     48  C   UNL A   1      45.100  29.398  29.564  1.00  0.00     0.031 C 
ATOM     49  C   UNL A   1      41.859  35.478  29.439  1.00  0.00     0.029 A 
ATOM     50  C   UNL A   1      43.229  35.470  28.925  1.00  0.00     0.049 A 
ATOM     51  H   UNL A   1      44.472  33.813  28.689  1.00  0.00     0.167 HD
ATOM     52  C   UNL A   1      47.110  30.345  28.481  1.00  0.00     0.034 A 
ATOM     53  C   UNL A   1      43.917  36.546  28.494  1.00  0.00     0.034 A 
ATOM     54  C   UNL A   1      47.857  31.406  27.861  1.00  0.00     0.049 A 
ATOM     55  C   UNL A   1      45.326  36.375  27.977  1.00  0.00     0.074 A 
ATOM     56  C   UNL A   1      49.105  31.345  27.268  1.00  0.00     0.029 A 
ATOM     57  N   UNL A   1      47.430  32.720  27.763  1.00  0.00    -0.354 N 
ATOM     58  N   UNL A   1      46.025  35.276  27.823  1.00  0.00    -0.248 NA
ATOM     59  C   UNL A   1      46.031  37.594  27.549  1.00  0.00     0.031 C 
ATOM     60  C   UNL A   1      49.445  32.630  26.831  1.00  0.00     0.029 A 
ATOM     61  C   UNL A   1      48.398  33.486  27.137  1.00  0.00     0.049 A 
ATOM     62  H   UNL A   1      46.566  33.059  28.091  1.00  0.00     0.167 HD
ATOM     63  C   UNL A   1      47.229  35.665  27.242  1.00  0.00     0.074 A 
ATOM     64  C   UNL A   1      47.161  37.099  27.060  1.00  0.00     0.031 C 
ATOM     65  C   UNL A   1      48.299  34.903  26.900  1.00  0.00     0.034 A 
BRANCH  52  66
ATOM     66  C   UNL A   1      47.745  28.984  28.563  1.00  0.00     0.023 A 
ATOM     67  C   UNL A   1      48.598  28.675  29.642  1.00  0.00     0.012 A 
ATOM     68  C   UNL A   1      47.468  27.998  27.596  1.00  0.00     0.148 A 
ATOM     69  C   UNL A   1      49.191  27.417  29.739  1.00  0.00     0.002 A 
ATOM     70  C   UNL A   1      48.030  26.734  27.721  1.00  0.00     0.091 A 
ATOM     71  F   UNL A   1      46.677  28.320  26.562  1.00  0.00    -0.205 F 
ATOM     72  C   UNL A   1      48.899  26.445  28.786  1.00  0.00     0.022 A 
BRANCH  70  73
ATOM     73  S   UNL A   1      47.650  25.398  26.582  1.00  0.00     0.127 S 
ATOM     74  O   UNL A   1      48.179  25.922  25.325  1.00  0.00    -0.237 OA
ATOM     75  O   UNL A   1      48.413  24.282  27.144  1.00  0.00    -0.237 OA
ATOM     76  O   UNL A   1      46.205  25.228  26.638  1.00  0.00    -0.744 OA
ENDBRANCH  70  73
ENDBRANCH  52  66
BRANCH  53  77
ATOM     77  C   UNL A   1      43.273  37.891  28.484  1.00  0.00     0.023 A 
ATOM     78  C   UNL A   1      42.464  38.255  27.389  1.00  0.00     0.012 A 
ATOM     79  C   UNL A   1      43.451  38.806  29.541  1.00  0.00     0.148 A 
ATOM     80  C   UNL A   1      41.867  39.515  27.333  1.00  0.00     0.002 A 
ATOM     81  C   UNL A   1      42.811  40.040  29.502  1.00  0.00     0.091 A 
ATOM     82  F   UNL A   1      44.242  38.450  30.562  1.00  0.00    -0.205 F 
ATOM     83  C   UNL A   1      42.032  40.403  28.392  1.00  0.00     0.022 A 
BRANCH  81  84
ATOM     84  S   UNL A   1      42.873  41.206  30.867  1.00  0.00     0.127 S 
ATOM     85  O   UNL A   1      41.783  42.120  30.532  1.00  0.00    -0.237 OA
ATOM     86  O   UNL A   1      42.616  40.338  32.017  1.00  0.00    -0.237 OA
ATOM     87  O   UNL A   1      44.211  41.781  30.836  1.00  0.00    -0.744 OA
ENDBRANCH  81  84
ENDBRANCH  53  77
BRANCH  65  88
ATOM     88  C   UNL A   1      49.482  35.587  26.260  1.00  0.00     0.023 A 
ATOM     89  C   UNL A   1      49.555  35.686  24.856  1.00  0.00     0.012 A 
ATOM     90  C   UNL A   1      50.471  36.208  27.048  1.00  0.00     0.148 A 
ATOM     91  C   UNL A   1      50.608  36.369  24.248  1.00  0.00     0.002 A 
ATOM     92  C   UNL A   1      51.493  36.926  26.435  1.00  0.00     0.091 A 
ATOM     93  F   UNL A   1      50.396  36.090  28.382  1.00  0.00    -0.205 F 
ATOM     94  C   UNL A   1      51.569  36.998  25.035  1.00  0.00     0.022 A 
BRANCH  92  95
ATOM     95  S   UNL A   1      52.718  37.848  27.374  1.00  0.00     0.127 S 
ATOM     96  O   UNL A   1      53.875  36.956  27.312  1.00  0.00    -0.237 OA
ATOM     97  O   UNL A   1      52.853  39.077  26.591  1.00  0.00    -0.237 OA
ATOM     98  O   UNL A   1      52.144  38.040  28.699  1.00  0.00    -0.744 OA
ENDBRANCH  92  95
ENDBRANCH  65  88
ENDBRANCH  39  40
ENDBRANCH  32  34
ENDBRANCH  31  32
ENDBRANCH  30  31
ENDBRANCH  29  30
ENDBRANCH  28  29
ENDBRANCH   1  28
TORSDOF 23
ENDMDL
MODEL 2
REMARK VINA RESULT:      -9.2      6.684     12.263
REMARK SMILES CO[C@H]1C[C@@H](C(=O)OCCOCCOCCOC(=O)c2ccc(-c3c4nc(c(-c5cccc(S(=O)(=O)[O-])c5F)c5ccc([nH]5)c(-c5cccc(S(=O)(=O)[O-])c5F)c5nc(c(-c6cccc(S(=O)(=O)[O-])c6F)c6ccc3[nH]6)C=C5)C=C4)cc2)N(C(=O)Nc2cc(C)cc(F)c2)C1
REMARK SMILES IDX 13 1 12 2 11 3 10 4 9 5 8 6 6 7 7 8 5 9 3 10 4 11 95 12
REMARK SMILES IDX 83 13 2 14 1 15 84 16 85 17 86 18 87 20 88 21 94 22 89 23
REMARK SMILES IDX 92 24 90 25 91 26 93 27 14 28 15 29 16 30 17 31 18 32 19 33
REMARK SMILES IDX 20 34 21 35 82 36 22 37 81 38 23 39 24 40 25 41 75 42 26 43
REMARK SMILES IDX 80 44 74 45 76 46 27 47 79 48 73 49 72 50 28 52 60 53 40 54
REMARK SMILES IDX 59 55 41 56 44 57 58 58 77 59 42 60 43 61 57 63 78 64 45 65
REMARK SMILES IDX 29 66 30 67 38 68 31 69 33 70 39 71 32 72 34 73 35 74 36 75
REMARK SMILES IDX 37 76 61 77 62 78 70 79 63 80 65 81 71 82 64 83 66 84 67 85
REMARK SMILES IDX 68 86 69 87 46 88 47 89 55 90 48 91 50 92 56 93 49 94 51 95
REMARK SMILES IDX 52 96 53 97 54 98
REMARK H PARENT 86 19 76 51 44 62
REMARK Flexibility Score: inf
ROOT
ATOM      1  C   UNL A   1      46.280  20.795  24.994  1.00  0.00     0.188 C 
ENDROOT
BRANCH   1   2
ATOM      2  C   UNL A   1      46.052  19.456  24.268  1.00  0.00     0.188 C 
BRANCH   2   3
ATOM      3  O   UNL A   1      45.314  18.547  25.091  1.00  0.00    -0.376 OA
BRANCH   3   4
ATOM      4  C   UNL A   1      43.922  18.458  24.786  1.00  0.00     0.202 C 
BRANCH   4   5
ATOM      5  C   UNL A   1      43.008  19.199  25.766  1.00  0.00     0.261 C 
BRANCH   5   6
ATOM      6  O   UNL A   1      42.598  20.540  25.399  1.00  0.00    -0.462 OA
BRANCH   6   7
ATOM      7  C   UNL A   1      41.624  21.153  26.126  1.00  0.00     0.329 C 
ATOM      8  O   UNL A   1      40.726  20.588  26.734  1.00  0.00    -0.250 OA
BRANCH   7   9
ATOM      9  C   UNL A   1      41.898  22.637  26.292  1.00  0.00     0.199 C 
ATOM     10  C   UNL A   1      43.273  23.522  28.132  1.00  0.00     0.140 C 
ATOM     11  C   UNL A   1      43.339  22.706  26.841  1.00  0.00     0.071 C 
ATOM     12  C   UNL A   1      41.807  23.464  28.545  1.00  0.00     0.154 C 
ATOM     13  N   UNL A   1      41.051  23.251  27.324  1.00  0.00    -0.308 N 
BRANCH  10  14
ATOM     14  O   UNL A   1      44.070  22.949  29.167  1.00  0.00    -0.380 OA
ATOM     15  C   UNL A   1      43.840  23.504  30.451  1.00  0.00     0.195 C 
ENDBRANCH  10  14
BRANCH  13  16
ATOM     16  C   UNL A   1      39.784  23.764  27.236  1.00  0.00     0.322 C 
ATOM     17  O   UNL A   1      38.848  23.095  26.795  1.00  0.00    -0.248 OA
ATOM     18  N   UNL A   1      39.487  24.951  27.823  1.00  0.00    -0.308 N 
ATOM     19  H   UNL A   1      38.721  24.922  28.440  1.00  0.00     0.171 HD
BRANCH  18  20
ATOM     20  C   UNL A   1      40.086  26.213  27.698  1.00  0.00     0.046 A 
ATOM     21  C   UNL A   1      40.020  27.065  28.807  1.00  0.00     0.029 A 
ATOM     22  C   UNL A   1      40.627  26.681  26.505  1.00  0.00     0.065 A 
ATOM     23  C   UNL A   1      40.603  28.339  28.774  1.00  0.00    -0.046 A 
ATOM     24  C   UNL A   1      41.183  27.957  26.466  1.00  0.00     0.125 A 
ATOM     25  C   UNL A   1      40.547  29.245  29.966  1.00  0.00     0.044 C 
ATOM     26  C   UNL A   1      41.214  28.770  27.595  1.00  0.00     0.042 A 
ATOM     27  F   UNL A   1      41.730  28.406  25.328  1.00  0.00    -0.207 F 
ENDBRANCH  18  20
ENDBRANCH  13  16
ENDBRANCH   7   9
ENDBRANCH   6   7
ENDBRANCH   5   6
ENDBRANCH   4   5
ENDBRANCH   3   4
ENDBRANCH   2   3
ENDBRANCH   1   2
BRANCH   1  28
ATOM     28  O   UNL A   1      45.676  21.959  24.422  1.00  0.00    -0.376 OA
BRANCH  28  29
ATOM     29  C   UNL A   1      46.538  23.051  24.143  1.00  0.00     0.202 C 
BRANCH  29  30
ATOM     30  C   UNL A   1      46.468  24.229  25.122  1.00  0.00     0.261 C 
BRANCH  30  31
ATOM     31  O   UNL A   1      45.898  25.431  24.575  1.00  0.00    -0.460 OA
BRANCH  31  32
ATOM     32  C   UNL A   1      46.479  26.580  25.010  1.00  0.00     0.338 C 
ATOM     33  O   UNL A   1      47.206  27.317  24.365  1.00  0.00    -0.246 OA
BRANCH  32  34
ATOM     34  C   UNL A   1      46.037  26.907  26.384  1.00  0.00     0.060 A 
ATOM     35  C   UNL A   1      44.711  26.620  26.742  1.00  0.00     0.016 A 
ATOM     36  C   UNL A   1      46.865  27.608  27.262  1.00  0.00     0.016 A 
ATOM     37  C   UNL A   1      44.185  27.106  27.941  1.00  0.00     0.010 A 
ATOM     38  C   UNL A   1      46.333  28.104  28.458  1.00  0.00     0.010 A 
ATOM     39  C   UNL A   1      44.976  27.906  28.775  1.00  0.00    -0.014 A 
BRANCH  39  40
ATOM     40  C   UNL A   1      44.342  28.736  29.832  1.00  0.00     0.031 A 
ATOM     41  C   UNL A   1      44.076  30.190  29.531  1.00  0.00     0.074 A 
ATOM     42  C   UNL A   1      44.022  28.236  31.038  1.00  0.00     0.049 A 
ATOM     43  N   UNL A   1      43.606  31.130  30.311  1.00  0.00    -0.248 NA
ATOM     44  C   UNL A   1      44.389  30.645  28.166  1.00  0.00     0.031 C 
ATOM     45  C   UNL A   1      44.191  26.846  31.453  1.00  0.00     0.029 A 
ATOM     46  N   UNL A   1      43.505  28.861  32.147  1.00  0.00    -0.354 N 
ATOM     47  C   UNL A   1      43.605  32.291  29.547  1.00  0.00     0.074 A 
ATOM     48  C   UNL A   1      44.126  31.941  28.243  1.00  0.00     0.031 C 
ATOM     49  C   UNL A   1      43.810  26.728  32.739  1.00  0.00     0.029 A 
ATOM     50  C   UNL A   1      43.396  28.038  33.243  1.00  0.00     0.049 A 
ATOM     51  H   UNL A   1      43.238  29.809  32.157  1.00  0.00     0.167 HD
ATOM     52  C   UNL A   1      43.196  33.535  29.888  1.00  0.00     0.034 A 
ATOM     53  C   UNL A   1      43.023  28.314  34.509  1.00  0.00     0.034 A 
ATOM     54  C   UNL A   1      42.638  33.884  31.166  1.00  0.00     0.049 A 
ATOM     55  C   UNL A   1      42.606  29.719  34.876  1.00  0.00     0.074 A 
ATOM     56  C   UNL A   1      42.136  35.104  31.580  1.00  0.00     0.029 A 
ATOM     57  N   UNL A   1      42.520  33.016  32.239  1.00  0.00    -0.354 N 
ATOM     58  N   UNL A   1      42.495  30.778  34.110  1.00  0.00    -0.248 NA
ATOM     59  C   UNL A   1      42.238  29.959  36.281  1.00  0.00     0.031 C 
ATOM     60  C   UNL A   1      41.733  34.981  32.915  1.00  0.00     0.029 A 
ATOM     61  C   UNL A   1      41.969  33.678  33.323  1.00  0.00     0.049 A 
ATOM     62  H   UNL A   1      42.787  32.068  32.232  1.00  0.00     0.167 HD
ATOM     63  C   UNL A   1      42.005  31.793  34.927  1.00  0.00     0.074 A 
ATOM     64  C   UNL A   1      41.829  31.220  36.245  1.00  0.00     0.031 C 
ATOM     65  C   UNL A   1      41.736  33.086  34.616  1.00  0.00     0.034 A 
BRANCH  52  66
ATOM     66  C   UNL A   1      43.314  34.615  28.846  1.00  0.00     0.023 A 
ATOM     67  C   UNL A   1      42.191  34.962  28.069  1.00  0.00     0.012 A 
ATOM     68  C   UNL A   1      44.525  35.310  28.663  1.00  0.00     0.148 A 
ATOM     69  C   UNL A   1      42.280  35.963  27.103  1.00  0.00     0.002 A 
ATOM     70  C   UNL A   1      44.595  36.336  27.728  1.00  0.00     0.091 A 
ATOM     71  F   UNL A   1      45.591  34.947  29.392  1.00  0.00    -0.205 F 
ATOM     72  C   UNL A   1      43.477  36.656  26.940  1.00  0.00     0.022 A 
BRANCH  70  73
ATOM     73  S   UNL A   1      46.073  37.331  27.503  1.00  0.00     0.127 S 
ATOM     74  O   UNL A   1      45.629  38.299  26.503  1.00  0.00    -0.237 OA
ATOM     75  O   UNL A   1      46.280  37.889  28.840  1.00  0.00    -0.237 OA
ATOM     76  O   UNL A   1      47.111  36.406  27.069  1.00  0.00    -0.744 OA
ENDBRANCH  70  73
ENDBRANCH  52  66
BRANCH  53  77
ATOM     77  C   UNL A   1      42.975  27.227  35.529  1.00  0.00     0.023 A 
ATOM     78  C   UNL A   1      41.794  26.473  35.672  1.00  0.00     0.012 A 
ATOM     79  C   UNL A   1      44.082  26.934  36.351  1.00  0.00     0.148 A 
ATOM     80  C   UNL A   1      41.705  25.466  36.634  1.00  0.00     0.002 A 
ATOM     81  C   UNL A   1      44.003  25.896  37.273  1.00  0.00     0.091 A 
ATOM     82  F   UNL A   1      45.188  27.678  36.216  1.00  0.00    -0.205 F 
ATOM     83  C   UNL A   1      42.810  25.172  37.427  1.00  0.00     0.022 A 
BRANCH  81  84
ATOM     84  S   UNL A   1      45.407  25.368  38.260  1.00  0.00     0.127 S 
ATOM     85  O   UNL A   1      44.898  24.147  38.880  1.00  0.00    -0.237 OA
ATOM     86  O   UNL A   1      46.433  25.157  37.238  1.00  0.00    -0.237 OA
ATOM     87  O   UNL A   1      45.686  26.470  39.172  1.00  0.00    -0.744 OA
ENDBRANCH  81  84
ENDBRANCH  53  77
BRANCH  65  88
ATOM     88  C   UNL A   1      41.187  33.978  35.701  1.00  0.00     0.023 A 
ATOM     89  C   UNL A   1      39.797  34.025  35.930  1.00  0.00     0.012 A 
ATOM     90  C   UNL A   1      42.050  34.698  36.551  1.00  0.00     0.148 A 
ATOM     91  C   UNL A   1      39.275  34.794  36.969  1.00  0.00     0.002 A 
ATOM     92  C   UNL A   1      41.525  35.427  37.613  1.00  0.00     0.091 A 
ATOM     93  F   UNL A   1      43.369  34.656  36.309  1.00  0.00    -0.205 F 
ATOM     94  C   UNL A   1      40.137  35.485  37.817  1.00  0.00     0.022 A 
BRANCH  92  95
ATOM     95  S   UNL A   1      42.568  36.267  38.812  1.00  0.00     0.127 S 
ATOM     96  O   UNL A   1      43.028  37.426  38.048  1.00  0.00    -0.237 OA
ATOM     97  O   UNL A   1      41.624  36.580  39.885  1.00  0.00    -0.237 OA
ATOM     98  O   UNL A   1      43.602  35.309  39.182  1.00  0.00    -0.744 OA
ENDBRANCH  92  95
ENDBRANCH  65  88
ENDBRANCH  39  40
ENDBRANCH  32  34
ENDBRANCH  31  32
ENDBRANCH  30  31
ENDBRANCH  29  30
ENDBRANCH  28  29
ENDBRANCH   1  28
TORSDOF 23
ENDMDL
MODEL 3
REMARK VINA RESULT:      -9.1      6.583      8.886
REMARK SMILES CO[C@H]1C[C@@H](C(=O)OCCOCCOCCOC(=O)c2ccc(-c3c4nc(c(-c5cccc(S(=O)(=O)[O-])c5F)c5ccc([nH]5)c(-c5cccc(S(=O)(=O)[O-])c5F)c5nc(c(-c6cccc(S(=O)(=O)[O-])c6F)c6ccc3[nH]6)C=C5)C=C4)cc2)N(C(=O)Nc2cc(C)cc(F)c2)C1
REMARK SMILES IDX 13 1 12 2 11 3 10 4 9 5 8 6 6 7 7 8 5 9 3 10 4 11 95 12
REMARK SMILES IDX 83 13 2 14 1 15 84 16 85 17 86 18 87 20 88 21 94 22 89 23
REMARK SMILES IDX 92 24 90 25 91 26 93 27 14 28 15 29 16 30 17 31 18 32 19 33
REMARK SMILES IDX 20 34 21 35 82 36 22 37 81 38 23 39 24 40 25 41 75 42 26 43
REMARK SMILES IDX 80 44 74 45 76 46 27 47 79 48 73 49 72 50 28 52 60 53 40 54
REMARK SMILES IDX 59 55 41 56 44 57 58 58 77 59 42 60 43 61 57 63 78 64 45 65
REMARK SMILES IDX 29 66 30 67 38 68 31 69 33 70 39 71 32 72 34 73 35 74 36 75
REMARK SMILES IDX 37 76 61 77 62 78 70 79 63 80 65 81 71 82 64 83 66 84 67 85
REMARK SMILES IDX 68 86 69 87 46 88 47 89 55 90 48 91 50 92 56 93 49 94 51 95
REMARK SMILES IDX 52 96 53 97 54 98
REMARK H PARENT 86 19 76 51 44 62
REMARK Flexibility Score: inf
ROOT
ATOM      1  C   UNL A   1      31.704  32.070  27.178  1.00  0.00     0.188 C 
ENDROOT
BRANCH   1   2
ATOM      2  C   UNL A   1      31.008  31.539  25.910  1.00  0.00     0.188 C 
BRANCH   2   3
ATOM      3  O   UNL A   1      31.709  30.410  25.378  1.00  0.00    -0.376 OA
BRANCH   3   4
ATOM      4  C   UNL A   1      31.647  29.232  26.183  1.00  0.00     0.202 C 
BRANCH   4   5
ATOM      5  C   UNL A   1      31.501  27.929  25.394  1.00  0.00     0.261 C 
BRANCH   5   6
ATOM      6  O   UNL A   1      32.519  26.917  25.597  1.00  0.00    -0.462 OA
BRANCH   6   7
ATOM      7  C   UNL A   1      32.145  25.686  26.042  1.00  0.00     0.329 C 
ATOM      8  O   UNL A   1      31.118  25.432  26.654  1.00  0.00    -0.250 OA
BRANCH   7   9
ATOM      9  C   UNL A   1      33.049  24.595  25.497  1.00  0.00     0.199 C 
ATOM     10  C   UNL A   1      33.753  24.527  23.140  1.00  0.00     0.140 C 
ATOM     11  C   UNL A   1      33.923  25.306  24.443  1.00  0.00     0.071 C 
ATOM     12  C   UNL A   1      32.459  23.744  23.331  1.00  0.00     0.154 C 
ATOM     13  N   UNL A   1      32.302  23.565  24.762  1.00  0.00    -0.308 N 
BRANCH  10  14
ATOM     14  O   UNL A   1      33.610  25.392  22.014  1.00  0.00    -0.380 OA
ATOM     15  C   UNL A   1      32.998  26.635  22.311  1.00  0.00     0.195 C 
ENDBRANCH  10  14
BRANCH  13  16
ATOM     16  C   UNL A   1      31.664  22.441  25.220  1.00  0.00     0.322 C 
ATOM     17  O   UNL A   1      30.610  22.514  25.854  1.00  0.00    -0.248 OA
ATOM     18  N   UNL A   1      32.068  21.214  24.808  1.00  0.00    -0.308 N 
ATOM     19  H   UNL A   1      31.355  20.657  24.419  1.00  0.00     0.171 HD
BRANCH  18  20
ATOM     20  C   UNL A   1      33.329  20.601  24.844  1.00  0.00     0.046 A 
ATOM     21  C   UNL A   1      34.433  21.423  25.096  1.00  0.00     0.029 A 
ATOM     22  C   UNL A   1      33.530  19.261  24.530  1.00  0.00     0.065 A 
ATOM     23  C   UNL A   1      35.728  20.892  25.162  1.00  0.00    -0.046 A 
ATOM     24  C   UNL A   1      34.820  18.740  24.571  1.00  0.00     0.125 A 
ATOM     25  C   UNL A   1      36.909  21.770  25.449  1.00  0.00     0.044 C 
ATOM     26  C   UNL A   1      35.911  19.529  24.923  1.00  0.00     0.042 A 
ATOM     27  F   UNL A   1      35.019  17.444  24.296  1.00  0.00    -0.207 F 
ENDBRANCH  18  20
ENDBRANCH  13  16
ENDBRANCH   7   9
ENDBRANCH   6   7
ENDBRANCH   5   6
ENDBRANCH   4   5
ENDBRANCH   3   4
ENDBRANCH   2   3
ENDBRANCH   1   2
BRANCH   1  28
ATOM     28  O   UNL A   1      31.938  33.479  27.253  1.00  0.00    -0.376 OA
BRANCH  28  29
ATOM     29  C   UNL A   1      33.159  33.891  27.844  1.00  0.00     0.202 C 
BRANCH  29  30
ATOM     30  C   UNL A   1      33.959  32.800  28.564  1.00  0.00     0.261 C 
BRANCH  30  31
ATOM     31  O   UNL A   1      35.033  32.236  27.793  1.00  0.00    -0.460 OA
BRANCH  31  32
ATOM     32  C   UNL A   1      35.147  30.884  27.886  1.00  0.00     0.338 C 
ATOM     33  O   UNL A   1      34.331  30.058  27.512  1.00  0.00    -0.246 OA
BRANCH  32  34
ATOM     34  C   UNL A   1      36.472  30.502  28.426  1.00  0.00     0.060 A 
ATOM     35  C   UNL A   1      36.569  29.317  29.171  1.00  0.00     0.016 A 
ATOM     36  C   UNL A   1      37.569  31.359  28.322  1.00  0.00     0.016 A 
ATOM     37  C   UNL A   1      37.735  29.028  29.884  1.00  0.00     0.010 A 
ATOM     38  C   UNL A   1      38.733  31.073  29.046  1.00  0.00     0.010 A 
ATOM     39  C   UNL A   1      38.799  29.938  29.876  1.00  0.00    -0.014 A 
BRANCH  39  40
ATOM     40  C   UNL A   1      39.866  29.846  30.906  1.00  0.00     0.031 A 
ATOM     41  C   UNL A   1      40.998  28.876  30.673  1.00  0.00     0.074 A 
ATOM     42  C   UNL A   1      39.839  30.580  32.032  1.00  0.00     0.049 A 
ATOM     43  N   UNL A   1      41.999  28.561  31.454  1.00  0.00    -0.248 NA
ATOM     44  C   UNL A   1      40.994  28.161  29.385  1.00  0.00     0.031 C 
ATOM     45  C   UNL A   1      38.828  31.577  32.371  1.00  0.00     0.029 A 
ATOM     46  N   UNL A   1      40.687  30.574  33.113  1.00  0.00    -0.354 N 
ATOM     47  C   UNL A   1      42.719  27.587  30.772  1.00  0.00     0.074 A 
ATOM     48  C   UNL A   1      42.038  27.357  29.517  1.00  0.00     0.031 C 
ATOM     49  C   UNL A   1      39.098  32.069  33.595  1.00  0.00     0.029 A 
ATOM     50  C   UNL A   1      40.285  31.404  34.133  1.00  0.00     0.049 A 
ATOM     51  H   UNL A   1      41.505  30.027  33.155  1.00  0.00     0.167 HD
ATOM     52  C   UNL A   1      43.852  26.947  31.145  1.00  0.00     0.034 A 
ATOM     53  C   UNL A   1      40.804  31.591  35.363  1.00  0.00     0.034 A 
ATOM     54  C   UNL A   1      44.559  27.198  32.371  1.00  0.00     0.049 A 
ATOM     55  C   UNL A   1      42.048  30.837  35.772  1.00  0.00     0.074 A 
ATOM     56  C   UNL A   1      45.751  26.646  32.804  1.00  0.00     0.029 A 
ATOM     57  N   UNL A   1      44.135  28.065  33.364  1.00  0.00    -0.354 N 
ATOM     58  N   UNL A   1      42.785  30.010  35.069  1.00  0.00    -0.248 NA
ATOM     59  C   UNL A   1      42.546  31.065  37.138  1.00  0.00     0.031 C 
ATOM     60  C   UNL A   1      46.037  27.162  34.074  1.00  0.00     0.029 A 
ATOM     61  C   UNL A   1      45.031  28.051  34.420  1.00  0.00     0.049 A 
ATOM     62  H   UNL A   1      43.317  28.612  33.326  1.00  0.00     0.167 HD
ATOM     63  C   UNL A   1      43.852  29.656  35.889  1.00  0.00     0.074 A 
ATOM     64  C   UNL A   1      43.674  30.366  37.138  1.00  0.00     0.031 C 
ATOM     65  C   UNL A   1      44.882  28.809  35.635  1.00  0.00     0.034 A 
BRANCH  52  66
ATOM     66  C   UNL A   1      44.416  25.923  30.197  1.00  0.00     0.023 A 
ATOM     67  C   UNL A   1      44.043  24.570  30.328  1.00  0.00     0.012 A 
ATOM     68  C   UNL A   1      45.283  26.305  29.155  1.00  0.00     0.148 A 
ATOM     69  C   UNL A   1      44.549  23.608  29.456  1.00  0.00     0.002 A 
ATOM     70  C   UNL A   1      45.751  25.347  28.264  1.00  0.00     0.091 A 
ATOM     71  F   UNL A   1      45.648  27.592  29.064  1.00  0.00    -0.205 F 
ATOM     72  C   UNL A   1      45.394  23.997  28.419  1.00  0.00     0.022 A 
BRANCH  70  73
ATOM     73  S   UNL A   1      46.783  25.769  26.856  1.00  0.00     0.127 S 
ATOM     74  O   UNL A   1      47.998  26.248  27.512  1.00  0.00    -0.237 OA
ATOM     75  O   UNL A   1      46.926  24.481  26.177  1.00  0.00    -0.237 OA
ATOM     76  O   UNL A   1      46.037  26.767  26.103  1.00  0.00    -0.744 OA
ENDBRANCH  70  73
ENDBRANCH  52  66
BRANCH  53  77
ATOM     77  C   UNL A   1      40.181  32.571  36.297  1.00  0.00     0.023 A 
ATOM     78  C   UNL A   1      39.071  32.174  37.068  1.00  0.00     0.012 A 
ATOM     79  C   UNL A   1      40.675  33.885  36.430  1.00  0.00     0.148 A 
ATOM     80  C   UNL A   1      38.446  33.074  37.933  1.00  0.00     0.002 A 
ATOM     81  C   UNL A   1      40.079  34.760  37.332  1.00  0.00     0.091 A 
ATOM     82  F   UNL A   1      41.717  34.251  35.672  1.00  0.00    -0.205 F 
ATOM     83  C   UNL A   1      38.954  34.362  38.071  1.00  0.00     0.022 A 
BRANCH  81  84
ATOM     84  S   UNL A   1      40.729  36.401  37.662  1.00  0.00     0.127 S 
ATOM     85  O   UNL A   1      39.568  37.074  38.242  1.00  0.00    -0.237 OA
ATOM     86  O   UNL A   1      41.808  36.114  38.608  1.00  0.00    -0.237 OA
ATOM     87  O   UNL A   1      41.179  36.915  36.376  1.00  0.00    -0.744 OA
ENDBRANCH  81  84
ENDBRANCH  53  77
BRANCH  65  88
ATOM     88  C   UNL A   1      45.926  28.619  36.707  1.00  0.00     0.023 A 
ATOM     89  C   UNL A   1      47.084  29.422  36.703  1.00  0.00     0.012 A 
ATOM     90  C   UNL A   1      45.720  27.712  37.765  1.00  0.00     0.148 A 
ATOM     91  C   UNL A   1      48.031  29.305  37.721  1.00  0.00     0.002 A 
ATOM     92  C   UNL A   1      46.646  27.633  38.799  1.00  0.00     0.091 A 
ATOM     93  F   UNL A   1      44.621  26.942  37.744  1.00  0.00    -0.205 F 
ATOM     94  C   UNL A   1      47.808  28.421  38.773  1.00  0.00     0.022 A 
BRANCH  92  95
ATOM     95  S   UNL A   1      46.391  26.592  40.243  1.00  0.00     0.127 S 
ATOM     96  O   UNL A   1      45.110  27.088  40.745  1.00  0.00    -0.237 OA
ATOM     97  O   UNL A   1      46.338  25.252  39.659  1.00  0.00    -0.237 OA
ATOM     98  O   UNL A   1      47.537  26.825  41.111  1.00  0.00    -0.744 OA
ENDBRANCH  92  95
ENDBRANCH  65  88
ENDBRANCH  39  40
ENDBRANCH  32  34
ENDBRANCH  31  32
ENDBRANCH  30  31
ENDBRANCH  29  30
ENDBRANCH  28  29
ENDBRANCH   1  28
TORSDOF 23
ENDMDL
