MODEL 1
REMARK VINA RESULT:     -10.7      0.000      0.000
REMARK SMILES O=C(OCCOCCOCCOC(=O)[C@H]1CN(C(=O)C[C@H]2NC(=O)c3ccccc32)C[C@@H]1c1ccc(F)cc1)c1ccc(-c2c3nc(c(-c4cccc(S(=O)(=O)[O-])c4F)c4ccc([nH]4)c(-c4cccc(S(=O)(=O)[O-])c4F)c4nc(c(-c5cccc(S(=O)(=O)[O-])c5F)c5ccc2[nH]5)C=C4)C=C3)cc1
REMARK SMILES IDX 7 1 6 2 5 3 4 4 3 5 2 6 1 7 40 8 41 9 102 10 42 11 101 12
REMARK SMILES IDX 43 13 44 14 45 15 95 16 46 17 100 18 94 19 96 20 47 21 99 22
REMARK SMILES IDX 93 23 92 24 48 26 80 27 60 28 79 29 61 30 64 31 78 32 97 33
REMARK SMILES IDX 62 34 63 35 77 37 98 38 65 39 49 40 50 41 58 42 51 43 53 44
REMARK SMILES IDX 59 45 52 46 54 47 55 48 56 49 57 50 81 51 82 52 90 53 83 54
REMARK SMILES IDX 85 55 91 56 84 57 86 58 87 59 88 60 89 61 66 62 67 63 75 64
REMARK SMILES IDX 68 65 70 66 76 67 69 68 71 69 72 70 73 71 74 72 8 73 9 74
REMARK SMILES IDX 10 75 11 76 12 77 13 78 14 79 15 80 16 81 32 82 17 83 31 84
REMARK SMILES IDX 33 85 34 86 39 87 35 88 38 89 36 90 37 91 18 92 19 93 20 94
REMARK SMILES IDX 21 95 22 96 30 97 23 98 25 100 29 101 24 102 26 103 28 104
REMARK SMILES IDX 27 105
REMARK H PARENT 96 25 64 36 22 99
REMARK Flexibility Score: inf
ROOT
ATOM      1  C   UNL A   1      47.219  22.943  37.116  1.00  0.00     0.188 C 
ENDROOT
BRANCH   1   2
ATOM      2  O   UNL A   1      46.304  22.844  38.210  1.00  0.00    -0.376 OA
BRANCH   2   3
ATOM      3  C   UNL A   1      46.098  24.075  38.911  1.00  0.00     0.202 C 
BRANCH   3   4
ATOM      4  C   UNL A   1      47.209  25.127  38.749  1.00  0.00     0.261 C 
BRANCH   4   5
ATOM      5  O   UNL A   1      46.736  26.403  38.296  1.00  0.00    -0.460 OA
BRANCH   5   6
ATOM      6  C   UNL A   1      47.026  27.053  37.141  1.00  0.00     0.338 C 
ATOM      7  O   UNL A   1      48.195  27.391  36.955  1.00  0.00    -0.246 OA
BRANCH   6   8
ATOM      8  C   UNL A   1      46.009  27.422  36.099  1.00  0.00     0.060 A 
ATOM      9  C   UNL A   1      45.995  28.605  35.355  1.00  0.00     0.016 A 
ATOM     10  C   UNL A   1      45.017  26.472  35.807  1.00  0.00     0.016 A 
ATOM     11  C   UNL A   1      45.025  28.880  34.400  1.00  0.00     0.010 A 
ATOM     12  C   UNL A   1      44.046  26.729  34.832  1.00  0.00     0.010 A 
ATOM     13  C   UNL A   1      44.037  27.951  34.133  1.00  0.00    -0.014 A 
BRANCH  13  14
ATOM     14  C   UNL A   1      42.891  28.355  33.293  1.00  0.00     0.031 A 
ATOM     15  C   UNL A   1      41.835  29.176  33.966  1.00  0.00     0.074 A 
ATOM     16  C   UNL A   1      42.832  28.097  31.970  1.00  0.00     0.049 A 
ATOM     17  N   UNL A   1      40.722  29.633  33.474  1.00  0.00    -0.248 NA
ATOM     18  C   UNL A   1      42.101  29.601  35.356  1.00  0.00     0.031 C 
ATOM     19  C   UNL A   1      43.913  27.551  31.154  1.00  0.00     0.029 A 
ATOM     20  N   UNL A   1      41.803  28.218  31.071  1.00  0.00    -0.354 N 
ATOM     21  C   UNL A   1      40.169  30.411  34.479  1.00  0.00     0.074 A 
ATOM     22  C   UNL A   1      41.029  30.322  35.632  1.00  0.00     0.031 C 
ATOM     23  C   UNL A   1      43.450  27.211  29.941  1.00  0.00     0.029 A 
ATOM     24  C   UNL A   1      42.050  27.583  29.868  1.00  0.00     0.049 A 
ATOM     25  H   UNL A   1      40.971  28.707  31.264  1.00  0.00     0.167 HD
ATOM     26  C   UNL A   1      39.061  31.176  34.412  1.00  0.00     0.034 A 
ATOM     27  C   UNL A   1      41.234  27.341  28.826  1.00  0.00     0.034 A 
ATOM     28  C   UNL A   1      38.234  31.235  33.244  1.00  0.00     0.049 A 
ATOM     29  C   UNL A   1      39.899  28.014  28.859  1.00  0.00     0.074 A 
ATOM     30  C   UNL A   1      37.076  31.957  33.049  1.00  0.00     0.029 A 
ATOM     31  N   UNL A   1      38.472  30.518  32.078  1.00  0.00    -0.354 N 
ATOM     32  N   UNL A   1      39.397  28.775  29.803  1.00  0.00    -0.248 NA
ATOM     33  C   UNL A   1      39.065  27.900  27.659  1.00  0.00     0.031 C 
ATOM     34  C   UNL A   1      36.581  31.631  31.784  1.00  0.00     0.029 A 
ATOM     35  C   UNL A   1      37.462  30.752  31.168  1.00  0.00     0.049 A 
ATOM     36  H   UNL A   1      39.247  29.930  31.924  1.00  0.00     0.167 HD
ATOM     37  C   UNL A   1      38.226  29.297  29.285  1.00  0.00     0.074 A 
ATOM     38  C   UNL A   1      38.078  28.738  27.953  1.00  0.00     0.031 C 
ATOM     39  C   UNL A   1      37.368  30.183  29.846  1.00  0.00     0.034 A 
BRANCH  26  40
ATOM     40  C   UNL A   1      38.696  31.976  35.626  1.00  0.00     0.023 A 
ATOM     41  C   UNL A   1      38.990  33.355  35.686  1.00  0.00     0.012 A 
ATOM     42  C   UNL A   1      38.045  31.358  36.708  1.00  0.00     0.148 A 
ATOM     43  C   UNL A   1      38.658  34.101  36.817  1.00  0.00     0.002 A 
ATOM     44  C   UNL A   1      37.673  32.118  37.809  1.00  0.00     0.091 A 
ATOM     45  F   UNL A   1      37.815  30.040  36.644  1.00  0.00    -0.205 F 
ATOM     46  C   UNL A   1      37.990  33.484  37.872  1.00  0.00     0.022 A 
BRANCH  44  47
ATOM     47  S   UNL A   1      36.746  31.433  39.184  1.00  0.00     0.127 S 
ATOM     48  O   UNL A   1      37.729  31.503  40.266  1.00  0.00    -0.237 OA
ATOM     49  O   UNL A   1      35.639  32.380  39.302  1.00  0.00    -0.237 OA
ATOM     50  O   UNL A   1      36.364  30.086  38.784  1.00  0.00    -0.744 OA
ENDBRANCH  44  47
ENDBRANCH  26  40
BRANCH  27  51
ATOM     51  C   UNL A   1      41.697  26.560  27.640  1.00  0.00     0.023 A 
ATOM     52  C   UNL A   1      42.219  27.237  26.523  1.00  0.00     0.012 A 
ATOM     53  C   UNL A   1      41.656  25.151  27.623  1.00  0.00     0.148 A 
ATOM     54  C   UNL A   1      42.695  26.527  25.418  1.00  0.00     0.002 A 
ATOM     55  C   UNL A   1      42.183  24.446  26.541  1.00  0.00     0.091 A 
ATOM     56  F   UNL A   1      41.095  24.525  28.663  1.00  0.00    -0.205 F 
ATOM     57  C   UNL A   1      42.690  25.136  25.431  1.00  0.00     0.022 A 
BRANCH  55  58
ATOM     58  S   UNL A   1      42.313  22.651  26.495  1.00  0.00     0.127 S 
ATOM     59  O   UNL A   1      43.365  22.435  25.504  1.00  0.00    -0.237 OA
ATOM     60  O   UNL A   1      42.698  22.355  27.876  1.00  0.00    -0.237 OA
ATOM     61  O   UNL A   1      40.998  22.167  26.102  1.00  0.00    -0.744 OA
ENDBRANCH  55  58
ENDBRANCH  27  51
BRANCH  39  62
ATOM     62  C   UNL A   1      36.205  30.629  29.014  1.00  0.00     0.023 A 
ATOM     63  C   UNL A   1      35.324  29.676  28.473  1.00  0.00     0.012 A 
ATOM     64  C   UNL A   1      35.917  32.003  28.898  1.00  0.00     0.148 A 
ATOM     65  C   UNL A   1      34.172  30.087  27.811  1.00  0.00     0.002 A 
ATOM     66  C   UNL A   1      34.735  32.402  28.296  1.00  0.00     0.091 A 
ATOM     67  F   UNL A   1      36.788  32.886  29.408  1.00  0.00    -0.205 F 
ATOM     68  C   UNL A   1      33.867  31.446  27.740  1.00  0.00     0.022 A 
BRANCH  66  69
ATOM     69  S   UNL A   1      34.198  34.113  28.279  1.00  0.00     0.127 S 
ATOM     70  O   UNL A   1      34.581  34.557  29.620  1.00  0.00    -0.237 OA
ATOM     71  O   UNL A   1      35.004  34.677  27.195  1.00  0.00    -0.237 OA
ATOM     72  O   UNL A   1      32.765  34.087  28.020  1.00  0.00    -0.744 OA
ENDBRANCH  66  69
ENDBRANCH  39  62
ENDBRANCH  13  14
ENDBRANCH   6   8
ENDBRANCH   5   6
ENDBRANCH   4   5
ENDBRANCH   3   4
ENDBRANCH   2   3
ENDBRANCH   1   2
BRANCH   1  73
ATOM     73  C   UNL A   1      47.718  21.593  36.597  1.00  0.00     0.188 C 
BRANCH  73  74
ATOM     74  O   UNL A   1      47.152  20.412  37.150  1.00  0.00    -0.376 OA
BRANCH  74  75
ATOM     75  C   UNL A   1      45.869  20.018  36.680  1.00  0.00     0.202 C 
BRANCH  75  76
ATOM     76  C   UNL A   1      45.437  18.539  36.776  1.00  0.00     0.261 C 
BRANCH  76  77
ATOM     77  O   UNL A   1      44.724  18.135  37.970  1.00  0.00    -0.463 OA
BRANCH  77  78
ATOM     78  C   UNL A   1      44.289  16.859  37.919  1.00  0.00     0.311 C 
ATOM     79  O   UNL A   1      44.127  16.245  36.861  1.00  0.00    -0.252 OA
BRANCH  78  80
ATOM     80  C   UNL A   1      44.029  16.135  39.219  1.00  0.00     0.128 C 
ATOM     81  C   UNL A   1      45.343  16.155  39.971  1.00  0.00     0.135 C 
ATOM     82  C   UNL A   1      43.003  16.415  40.338  1.00  0.00     0.055 C 
ATOM     83  N   UNL A   1      45.176  17.045  41.102  1.00  0.00    -0.341 N 
ATOM     84  C   UNL A   1      43.774  17.266  41.372  1.00  0.00     0.128 C 
BRANCH  82  85
ATOM     85  C   UNL A   1      42.467  15.145  41.056  1.00  0.00    -0.042 A 
ATOM     86  C   UNL A   1      41.973  14.063  40.292  1.00  0.00     0.007 A 
ATOM     87  C   UNL A   1      42.426  14.987  42.451  1.00  0.00     0.007 A 
ATOM     88  C   UNL A   1      41.427  12.918  40.879  1.00  0.00     0.039 A 
ATOM     89  C   UNL A   1      41.842  13.860  43.040  1.00  0.00     0.039 A 
ATOM     90  C   UNL A   1      41.338  12.841  42.253  1.00  0.00     0.123 A 
ATOM     91  F   UNL A   1      40.750  11.778  42.816  1.00  0.00    -0.207 F 
ENDBRANCH  82  85
BRANCH  83  92
ATOM     92  C   UNL A   1      46.137  17.517  41.972  1.00  0.00     0.225 C 
ATOM     93  O   UNL A   1      46.560  16.835  42.906  1.00  0.00    -0.275 OA
BRANCH  92  94
ATOM     94  C   UNL A   1      46.611  18.948  41.796  1.00  0.00     0.130 C 
BRANCH  94  95
ATOM     95  C   UNL A   1      47.379  19.257  40.502  1.00  0.00     0.123 C 
ATOM     96  N   UNL A   1      47.389  20.685  40.242  1.00  0.00    -0.345 N 
ATOM     97  C   UNL A   1      48.845  18.946  40.482  1.00  0.00    -0.012 A 
ATOM     98  C   UNL A   1      48.647  21.236  40.315  1.00  0.00     0.252 C 
ATOM     99  H   UNL A   1      46.579  21.204  40.034  1.00  0.00     0.164 HD
ATOM    100  C   UNL A   1      49.579  20.131  40.548  1.00  0.00     0.045 A 
ATOM    101  C   UNL A   1      49.516  17.739  40.411  1.00  0.00     0.007 A 
ATOM    102  O   UNL A   1      48.934  22.408  40.131  1.00  0.00    -0.269 OA
ATOM    103  C   UNL A   1      50.947  20.158  40.734  1.00  0.00     0.014 A 
ATOM    104  C   UNL A   1      50.898  17.733  40.639  1.00  0.00     0.000 A 
ATOM    105  C   UNL A   1      51.603  18.932  40.834  1.00  0.00     0.001 A 
ENDBRANCH  94  95
ENDBRANCH  92  94
ENDBRANCH  83  92
ENDBRANCH  78  80
ENDBRANCH  77  78
ENDBRANCH  76  77
ENDBRANCH  75  76
ENDBRANCH  74  75
ENDBRANCH  73  74
ENDBRANCH   1  73
TORSDOF 24
ENDMDL
MODEL 2
REMARK VINA RESULT:     -10.5      6.519     11.801
REMARK SMILES O=C(OCCOCCOCCOC(=O)[C@H]1CN(C(=O)C[C@H]2NC(=O)c3ccccc32)C[C@@H]1c1ccc(F)cc1)c1ccc(-c2c3nc(c(-c4cccc(S(=O)(=O)[O-])c4F)c4ccc([nH]4)c(-c4cccc(S(=O)(=O)[O-])c4F)c4nc(c(-c5cccc(S(=O)(=O)[O-])c5F)c5ccc2[nH]5)C=C4)C=C3)cc1
REMARK SMILES IDX 7 1 6 2 5 3 4 4 3 5 2 6 1 7 40 8 41 9 102 10 42 11 101 12
REMARK SMILES IDX 43 13 44 14 45 15 95 16 46 17 100 18 94 19 96 20 47 21 99 22
REMARK SMILES IDX 93 23 92 24 48 26 80 27 60 28 79 29 61 30 64 31 78 32 97 33
REMARK SMILES IDX 62 34 63 35 77 37 98 38 65 39 49 40 50 41 58 42 51 43 53 44
REMARK SMILES IDX 59 45 52 46 54 47 55 48 56 49 57 50 81 51 82 52 90 53 83 54
REMARK SMILES IDX 85 55 91 56 84 57 86 58 87 59 88 60 89 61 66 62 67 63 75 64
REMARK SMILES IDX 68 65 70 66 76 67 69 68 71 69 72 70 73 71 74 72 8 73 9 74
REMARK SMILES IDX 10 75 11 76 12 77 13 78 14 79 15 80 16 81 32 82 17 83 31 84
REMARK SMILES IDX 33 85 34 86 39 87 35 88 38 89 36 90 37 91 18 92 19 93 20 94
REMARK SMILES IDX 21 95 22 96 30 97 23 98 25 100 29 101 24 102 26 103 28 104
REMARK SMILES IDX 27 105
REMARK H PARENT 96 25 64 36 22 99
REMARK Flexibility Score: inf
ROOT
ATOM      1  C   UNL A   1      48.504  25.957  28.425  1.00  0.00     0.188 C 
ENDROOT
BRANCH   1   2
ATOM      2  O   UNL A   1      49.667  26.636  28.906  1.00  0.00    -0.376 OA
BRANCH   2   3
ATOM      3  C   UNL A   1      50.857  26.352  28.164  1.00  0.00     0.202 C 
BRANCH   3   4
ATOM      4  C   UNL A   1      51.816  27.539  27.965  1.00  0.00     0.261 C 
BRANCH   4   5
ATOM      5  O   UNL A   1      51.184  28.709  27.429  1.00  0.00    -0.460 OA
BRANCH   5   6
ATOM      6  C   UNL A   1      50.727  29.803  28.089  1.00  0.00     0.338 C 
ATOM      7  O   UNL A   1      51.496  30.756  28.216  1.00  0.00    -0.246 OA
BRANCH   6   8
ATOM      8  C   UNL A   1      49.362  29.909  28.708  1.00  0.00     0.060 A 
ATOM      9  C   UNL A   1      48.157  29.571  28.086  1.00  0.00     0.016 A 
ATOM     10  C   UNL A   1      49.295  30.332  30.044  1.00  0.00     0.016 A 
ATOM     11  C   UNL A   1      46.926  29.690  28.719  1.00  0.00     0.010 A 
ATOM     12  C   UNL A   1      48.063  30.436  30.700  1.00  0.00     0.010 A 
ATOM     13  C   UNL A   1      46.865  30.130  30.028  1.00  0.00    -0.014 A 
BRANCH  13  14
ATOM     14  C   UNL A   1      45.545  30.470  30.601  1.00  0.00     0.031 A 
ATOM     15  C   UNL A   1      44.948  31.769  30.158  1.00  0.00     0.074 A 
ATOM     16  C   UNL A   1      44.858  29.625  31.398  1.00  0.00     0.049 A 
ATOM     17  N   UNL A   1      43.827  32.317  30.524  1.00  0.00    -0.248 NA
ATOM     18  C   UNL A   1      45.671  32.515  29.109  1.00  0.00     0.031 C 
ATOM     19  C   UNL A   1      45.208  28.234  31.676  1.00  0.00     0.029 A 
ATOM     20  N   UNL A   1      43.736  29.816  32.162  1.00  0.00    -0.354 N 
ATOM     21  C   UNL A   1      43.702  33.453  29.741  1.00  0.00     0.074 A 
ATOM     22  C   UNL A   1      44.881  33.559  28.920  1.00  0.00     0.031 C 
ATOM     23  C   UNL A   1      44.448  27.758  32.675  1.00  0.00     0.029 A 
ATOM     24  C   UNL A   1      43.504  28.790  33.059  1.00  0.00     0.049 A 
ATOM     25  H   UNL A   1      43.154  30.606  32.081  1.00  0.00     0.167 HD
ATOM     26  C   UNL A   1      42.655  34.301  29.684  1.00  0.00     0.034 A 
ATOM     27  C   UNL A   1      42.620  28.698  34.070  1.00  0.00     0.034 A 
ATOM     28  C   UNL A   1      41.501  34.159  30.519  1.00  0.00     0.049 A 
ATOM     29  C   UNL A   1      41.584  29.775  34.145  1.00  0.00     0.074 A 
ATOM     30  C   UNL A   1      40.377  34.957  30.572  1.00  0.00     0.029 A 
ATOM     31  N   UNL A   1      41.339  33.158  31.469  1.00  0.00    -0.354 N 
ATOM     32  N   UNL A   1      41.456  30.832  33.377  1.00  0.00    -0.248 NA
ATOM     33  C   UNL A   1      40.515  29.604  35.132  1.00  0.00     0.031 C 
ATOM     34  C   UNL A   1      39.561  34.472  31.597  1.00  0.00     0.029 A 
ATOM     35  C   UNL A   1      40.147  33.336  32.141  1.00  0.00     0.049 A 
ATOM     36  H   UNL A   1      41.979  32.429  31.637  1.00  0.00     0.167 HD
ATOM     37  C   UNL A   1      40.251  31.412  33.731  1.00  0.00     0.074 A 
ATOM     38  C   UNL A   1      39.704  30.603  34.806  1.00  0.00     0.031 C 
ATOM     39  C   UNL A   1      39.638  32.494  33.195  1.00  0.00     0.034 A 
BRANCH  26  40
ATOM     40  C   UNL A   1      42.735  35.436  28.707  1.00  0.00     0.023 A 
ATOM     41  C   UNL A   1      42.330  35.254  27.368  1.00  0.00     0.012 A 
ATOM     42  C   UNL A   1      43.202  36.695  29.125  1.00  0.00     0.148 A 
ATOM     43  C   UNL A   1      42.409  36.305  26.454  1.00  0.00     0.002 A 
ATOM     44  C   UNL A   1      43.231  37.749  28.223  1.00  0.00     0.091 A 
ATOM     45  F   UNL A   1      43.619  36.830  30.390  1.00  0.00    -0.205 F 
ATOM     46  C   UNL A   1      42.848  37.554  26.886  1.00  0.00     0.022 A 
BRANCH  44  47
ATOM     47  S   UNL A   1      43.710  39.412  28.698  1.00  0.00     0.127 S 
ATOM     48  O   UNL A   1      45.162  39.276  28.823  1.00  0.00    -0.237 OA
ATOM     49  O   UNL A   1      43.265  40.194  27.546  1.00  0.00    -0.237 OA
ATOM     50  O   UNL A   1      43.008  39.695  29.942  1.00  0.00    -0.744 OA
ENDBRANCH  44  47
ENDBRANCH  26  40
BRANCH  27  51
ATOM     51  C   UNL A   1      42.592  27.511  34.975  1.00  0.00     0.023 A 
ATOM     52  C   UNL A   1      41.706  26.452  34.705  1.00  0.00     0.012 A 
ATOM     53  C   UNL A   1      43.461  27.405  36.081  1.00  0.00     0.148 A 
ATOM     54  C   UNL A   1      41.689  25.312  35.513  1.00  0.00     0.002 A 
ATOM     55  C   UNL A   1      43.478  26.243  36.851  1.00  0.00     0.091 A 
ATOM     56  F   UNL A   1      44.249  28.448  36.363  1.00  0.00    -0.205 F 
ATOM     57  C   UNL A   1      42.582  25.201  36.575  1.00  0.00     0.022 A 
BRANCH  55  58
ATOM     58  S   UNL A   1      44.652  25.955  38.185  1.00  0.00     0.127 S 
ATOM     59  O   UNL A   1      44.121  26.791  39.260  1.00  0.00    -0.237 OA
ATOM     60  O   UNL A   1      44.502  24.514  38.395  1.00  0.00    -0.237 OA
ATOM     61  O   UNL A   1      45.948  26.373  37.673  1.00  0.00    -0.744 OA
ENDBRANCH  55  58
ENDBRANCH  27  51
BRANCH  39  62
ATOM     62  C   UNL A   1      38.290  32.856  33.739  1.00  0.00     0.023 A 
ATOM     63  C   UNL A   1      38.184  33.454  35.007  1.00  0.00     0.012 A 
ATOM     64  C   UNL A   1      37.150  32.728  32.922  1.00  0.00     0.148 A 
ATOM     65  C   UNL A   1      36.951  33.911  35.462  1.00  0.00     0.002 A 
ATOM     66  C   UNL A   1      35.941  33.245  33.354  1.00  0.00     0.091 A 
ATOM     67  F   UNL A   1      37.283  32.134  31.726  1.00  0.00    -0.205 F 
ATOM     68  C   UNL A   1      35.836  33.825  34.630  1.00  0.00     0.022 A 
BRANCH  66  69
ATOM     69  S   UNL A   1      34.490  33.299  32.301  1.00  0.00     0.127 S 
ATOM     70  O   UNL A   1      33.408  33.229  33.282  1.00  0.00    -0.237 OA
ATOM     71  O   UNL A   1      34.637  34.598  31.643  1.00  0.00    -0.237 OA
ATOM     72  O   UNL A   1      34.593  32.152  31.408  1.00  0.00    -0.744 OA
ENDBRANCH  66  69
ENDBRANCH  39  62
ENDBRANCH  13  14
ENDBRANCH   6   8
ENDBRANCH   5   6
ENDBRANCH   4   5
ENDBRANCH   3   4
ENDBRANCH   2   3
ENDBRANCH   1   2
BRANCH   1  73
ATOM     73  C   UNL A   1      48.505  25.711  26.915  1.00  0.00     0.188 C 
BRANCH  73  74
ATOM     74  O   UNL A   1      47.440  26.256  26.147  1.00  0.00    -0.376 OA
BRANCH  74  75
ATOM     75  C   UNL A   1      46.227  26.553  26.828  1.00  0.00     0.202 C 
BRANCH  75  76
ATOM     76  C   UNL A   1      44.913  26.691  26.030  1.00  0.00     0.261 C 
BRANCH  76  77
ATOM     77  O   UNL A   1      44.092  27.851  26.306  1.00  0.00    -0.463 OA
BRANCH  77  78
ATOM     78  C   UNL A   1      42.879  27.793  25.716  1.00  0.00     0.311 C 
ATOM     79  O   UNL A   1      42.711  27.970  24.506  1.00  0.00    -0.252 OA
BRANCH  78  80
ATOM     80  C   UNL A   1      41.679  27.454  26.568  1.00  0.00     0.128 C 
ATOM     81  C   UNL A   1      41.073  26.213  25.948  1.00  0.00     0.135 C 
ATOM     82  C   UNL A   1      41.570  27.156  28.078  1.00  0.00     0.055 C 
ATOM     83  N   UNL A   1      41.309  25.116  26.865  1.00  0.00    -0.341 N 
ATOM     84  C   UNL A   1      41.639  25.616  28.179  1.00  0.00     0.128 C 
BRANCH  82  85
ATOM     85  C   UNL A   1      40.244  27.629  28.737  1.00  0.00    -0.042 A 
ATOM     86  C   UNL A   1      39.307  28.365  27.977  1.00  0.00     0.007 A 
ATOM     87  C   UNL A   1      39.897  27.380  30.075  1.00  0.00     0.007 A 
ATOM     88  C   UNL A   1      38.123  28.866  28.526  1.00  0.00     0.039 A 
ATOM     89  C   UNL A   1      38.733  27.915  30.637  1.00  0.00     0.039 A 
ATOM     90  C   UNL A   1      37.861  28.661  29.865  1.00  0.00     0.123 A 
ATOM     91  F   UNL A   1      36.764  29.201  30.410  1.00  0.00    -0.207 F 
ENDBRANCH  82  85
BRANCH  83  92
ATOM     92  C   UNL A   1      41.098  23.768  26.663  1.00  0.00     0.225 C 
ATOM     93  O   UNL A   1      40.147  23.176  27.173  1.00  0.00    -0.275 OA
BRANCH  92  94
ATOM     94  C   UNL A   1      42.126  23.004  25.849  1.00  0.00     0.130 C 
BRANCH  94  95
ATOM     95  C   UNL A   1      42.859  21.865  26.574  1.00  0.00     0.123 C 
ATOM     96  N   UNL A   1      42.001  20.700  26.693  1.00  0.00    -0.345 N 
ATOM     97  C   UNL A   1      44.059  21.278  25.896  1.00  0.00    -0.012 A 
ATOM     98  C   UNL A   1      42.459  19.621  25.973  1.00  0.00     0.252 C 
ATOM     99  H   UNL A   1      41.178  20.684  27.232  1.00  0.00     0.164 HD
ATOM    100  C   UNL A   1      43.745  20.014  25.394  1.00  0.00     0.045 A 
ATOM    101  C   UNL A   1      45.335  21.778  25.716  1.00  0.00     0.007 A 
ATOM    102  O   UNL A   1      41.934  18.520  25.907  1.00  0.00    -0.269 OA
ATOM    103  C   UNL A   1      44.588  19.306  24.559  1.00  0.00     0.014 A 
ATOM    104  C   UNL A   1      46.196  21.102  24.842  1.00  0.00     0.000 A 
ATOM    105  C   UNL A   1      45.811  19.893  24.240  1.00  0.00     0.001 A 
ENDBRANCH  94  95
ENDBRANCH  92  94
ENDBRANCH  83  92
ENDBRANCH  78  80
ENDBRANCH  77  78
ENDBRANCH  76  77
ENDBRANCH  75  76
ENDBRANCH  74  75
ENDBRANCH  73  74
ENDBRANCH   1  73
TORSDOF 24
ENDMDL
MODEL 3
REMARK VINA RESULT:     -10.3      7.565     14.586
REMARK SMILES O=C(OCCOCCOCCOC(=O)[C@H]1CN(C(=O)C[C@H]2NC(=O)c3ccccc32)C[C@@H]1c1ccc(F)cc1)c1ccc(-c2c3nc(c(-c4cccc(S(=O)(=O)[O-])c4F)c4ccc([nH]4)c(-c4cccc(S(=O)(=O)[O-])c4F)c4nc(c(-c5cccc(S(=O)(=O)[O-])c5F)c5ccc2[nH]5)C=C4)C=C3)cc1
REMARK SMILES IDX 7 1 6 2 5 3 4 4 3 5 2 6 1 7 40 8 41 9 102 10 42 11 101 12
REMARK SMILES IDX 43 13 44 14 45 15 95 16 46 17 100 18 94 19 96 20 47 21 99 22
REMARK SMILES IDX 93 23 92 24 48 26 80 27 60 28 79 29 61 30 64 31 78 32 97 33
REMARK SMILES IDX 62 34 63 35 77 37 98 38 65 39 49 40 50 41 58 42 51 43 53 44
REMARK SMILES IDX 59 45 52 46 54 47 55 48 56 49 57 50 81 51 82 52 90 53 83 54
REMARK SMILES IDX 85 55 91 56 84 57 86 58 87 59 88 60 89 61 66 62 67 63 75 64
REMARK SMILES IDX 68 65 70 66 76 67 69 68 71 69 72 70 73 71 74 72 8 73 9 74
REMARK SMILES IDX 10 75 11 76 12 77 13 78 14 79 15 80 16 81 32 82 17 83 31 84
REMARK SMILES IDX 33 85 34 86 39 87 35 88 38 89 36 90 37 91 18 92 19 93 20 94
REMARK SMILES IDX 21 95 22 96 30 97 23 98 25 100 29 101 24 102 26 103 28 104
REMARK SMILES IDX 27 105
REMARK H PARENT 96 25 64 36 22 99
REMARK Flexibility Score: inf
ROOT
ATOM      1  C   UNL A   1      35.924  29.632  28.228  1.00  0.00     0.188 C 
ENDROOT
BRANCH   1   2
ATOM      2  O   UNL A   1      35.114  30.652  27.639  1.00  0.00    -0.376 OA
BRANCH   2   3
ATOM      3  C   UNL A   1      34.711  31.677  28.553  1.00  0.00     0.202 C 
BRANCH   3   4
ATOM      4  C   UNL A   1      34.980  33.121  28.094  1.00  0.00     0.261 C 
BRANCH   4   5
ATOM      5  O   UNL A   1      34.903  34.088  29.151  1.00  0.00    -0.460 OA
BRANCH   5   6
ATOM      6  C   UNL A   1      34.825  33.876  30.489  1.00  0.00     0.338 C 
ATOM      7  O   UNL A   1      33.743  34.081  31.037  1.00  0.00    -0.246 OA
BRANCH   6   8
ATOM      8  C   UNL A   1      35.982  33.448  31.346  1.00  0.00     0.060 A 
ATOM      9  C   UNL A   1      35.970  32.397  32.267  1.00  0.00     0.016 A 
ATOM     10  C   UNL A   1      37.198  34.128  31.169  1.00  0.00     0.016 A 
ATOM     11  C   UNL A   1      37.079  32.050  33.027  1.00  0.00     0.010 A 
ATOM     12  C   UNL A   1      38.329  33.775  31.914  1.00  0.00     0.010 A 
ATOM     13  C   UNL A   1      38.267  32.738  32.864  1.00  0.00    -0.014 A 
BRANCH  13  14
ATOM     14  C   UNL A   1      39.356  32.513  33.838  1.00  0.00     0.031 A 
ATOM     15  C   UNL A   1      40.532  31.729  33.345  1.00  0.00     0.074 A 
ATOM     16  C   UNL A   1      39.354  33.061  35.071  1.00  0.00     0.049 A 
ATOM     17  N   UNL A   1      41.599  31.365  33.993  1.00  0.00    -0.248 NA
ATOM     18  C   UNL A   1      40.543  31.368  31.912  1.00  0.00     0.031 C 
ATOM     19  C   UNL A   1      38.407  34.057  35.565  1.00  0.00     0.029 A 
ATOM     20  N   UNL A   1      40.154  32.833  36.162  1.00  0.00    -0.354 N 
ATOM     21  C   UNL A   1      42.411  30.756  33.050  1.00  0.00     0.074 A 
ATOM     22  C   UNL A   1      41.700  30.739  31.796  1.00  0.00     0.031 C 
ATOM     23  C   UNL A   1      38.553  34.215  36.890  1.00  0.00     0.029 A 
ATOM     24  C   UNL A   1      39.657  33.383  37.329  1.00  0.00     0.049 A 
ATOM     25  H   UNL A   1      40.997  32.326  36.118  1.00  0.00     0.167 HD
ATOM     26  C   UNL A   1      43.669  30.302  33.218  1.00  0.00     0.034 A 
ATOM     27  C   UNL A   1      40.059  33.233  38.605  1.00  0.00     0.034 A 
ATOM     28  C   UNL A   1      44.339  30.339  34.483  1.00  0.00     0.049 A 
ATOM     29  C   UNL A   1      41.358  32.520  38.810  1.00  0.00     0.074 A 
ATOM     30  C   UNL A   1      45.608  29.897  34.794  1.00  0.00     0.029 A 
ATOM     31  N   UNL A   1      43.776  30.827  35.655  1.00  0.00    -0.354 N 
ATOM     32  N   UNL A   1      42.136  31.974  37.906  1.00  0.00    -0.248 NA
ATOM     33  C   UNL A   1      41.896  32.495  40.173  1.00  0.00     0.031 C 
ATOM     34  C   UNL A   1      45.790  30.066  36.169  1.00  0.00     0.029 A 
ATOM     35  C   UNL A   1      44.658  30.667  36.703  1.00  0.00     0.049 A 
ATOM     36  H   UNL A   1      42.880  31.228  35.727  1.00  0.00     0.167 HD
ATOM     37  C   UNL A   1      43.292  31.609  38.572  1.00  0.00     0.074 A 
ATOM     38  C   UNL A   1      43.096  31.969  39.965  1.00  0.00     0.031 C 
ATOM     39  C   UNL A   1      44.423  31.057  38.072  1.00  0.00     0.034 A 
BRANCH  26  40
ATOM     40  C   UNL A   1      44.366  29.730  32.020  1.00  0.00     0.023 A 
ATOM     41  C   UNL A   1      45.063  30.573  31.130  1.00  0.00     0.012 A 
ATOM     42  C   UNL A   1      44.340  28.343  31.785  1.00  0.00     0.148 A 
ATOM     43  C   UNL A   1      45.706  30.046  30.010  1.00  0.00     0.002 A 
ATOM     44  C   UNL A   1      45.024  27.820  30.696  1.00  0.00     0.091 A 
ATOM     45  F   UNL A   1      43.636  27.570  32.621  1.00  0.00    -0.205 F 
ATOM     46  C   UNL A   1      45.696  28.669  29.802  1.00  0.00     0.022 A 
BRANCH  44  47
ATOM     47  S   UNL A   1      45.132  26.057  30.383  1.00  0.00     0.127 S 
ATOM     48  O   UNL A   1      45.910  26.025  29.144  1.00  0.00    -0.237 OA
ATOM     49  O   UNL A   1      45.847  25.584  31.567  1.00  0.00    -0.237 OA
ATOM     50  O   UNL A   1      43.760  25.582  30.262  1.00  0.00    -0.744 OA
ENDBRANCH  44  47
ENDBRANCH  26  40
BRANCH  27  51
ATOM     51  C   UNL A   1      39.319  33.870  39.734  1.00  0.00     0.023 A 
ATOM     52  C   UNL A   1      39.601  35.202  40.085  1.00  0.00     0.012 A 
ATOM     53  C   UNL A   1      38.314  33.179  40.441  1.00  0.00     0.148 A 
ATOM     54  C   UNL A   1      38.895  35.834  41.112  1.00  0.00     0.002 A 
ATOM     55  C   UNL A   1      37.575  33.831  41.427  1.00  0.00     0.091 A 
ATOM     56  F   UNL A   1      38.105  31.893  40.140  1.00  0.00    -0.205 F 
ATOM     57  C   UNL A   1      37.875  35.156  41.772  1.00  0.00     0.022 A 
BRANCH  55  58
ATOM     58  S   UNL A   1      36.176  33.081  42.277  1.00  0.00     0.127 S 
ATOM     59  O   UNL A   1      35.404  32.510  41.174  1.00  0.00    -0.237 OA
ATOM     60  O   UNL A   1      36.849  32.099  43.129  1.00  0.00    -0.237 OA
ATOM     61  O   UNL A   1      35.513  34.164  42.986  1.00  0.00    -0.744 OA
ENDBRANCH  55  58
ENDBRANCH  27  51
BRANCH  39  62
ATOM     62  C   UNL A   1      45.555  30.832  39.028  1.00  0.00     0.023 A 
ATOM     63  C   UNL A   1      46.414  31.895  39.357  1.00  0.00     0.012 A 
ATOM     64  C   UNL A   1      45.666  29.601  39.701  1.00  0.00     0.148 A 
ATOM     65  C   UNL A   1      47.385  31.729  40.341  1.00  0.00     0.002 A 
ATOM     66  C   UNL A   1      46.590  29.465  40.724  1.00  0.00     0.091 A 
ATOM     67  F   UNL A   1      44.843  28.601  39.348  1.00  0.00    -0.205 F 
ATOM     68  C   UNL A   1      47.459  30.524  41.036  1.00  0.00     0.022 A 
BRANCH  66  69
ATOM     69  S   UNL A   1      46.665  28.001  41.758  1.00  0.00     0.127 S 
ATOM     70  O   UNL A   1      47.792  27.279  41.170  1.00  0.00    -0.237 OA
ATOM     71  O   UNL A   1      46.927  28.573  43.080  1.00  0.00    -0.237 OA
ATOM     72  O   UNL A   1      45.371  27.344  41.627  1.00  0.00    -0.744 OA
ENDBRANCH  66  69
ENDBRANCH  39  62
ENDBRANCH  13  14
ENDBRANCH   6   8
ENDBRANCH   5   6
ENDBRANCH   4   5
ENDBRANCH   3   4
ENDBRANCH   2   3
ENDBRANCH   1   2
BRANCH   1  73
ATOM     73  C   UNL A   1      36.687  30.084  29.475  1.00  0.00     0.188 C 
BRANCH  73  74
ATOM     74  O   UNL A   1      36.472  29.370  30.686  1.00  0.00    -0.376 OA
BRANCH  74  75
ATOM     75  C   UNL A   1      37.560  28.611  31.201  1.00  0.00     0.202 C 
BRANCH  75  76
ATOM     76  C   UNL A   1      38.836  28.427  30.353  1.00  0.00     0.261 C 
BRANCH  76  77
ATOM     77  O   UNL A   1      39.031  27.138  29.724  1.00  0.00    -0.463 OA
BRANCH  77  78
ATOM     78  C   UNL A   1      39.669  27.220  28.537  1.00  0.00     0.311 C 
ATOM     79  O   UNL A   1      40.328  28.206  28.195  1.00  0.00    -0.252 OA
BRANCH  78  80
ATOM     80  C   UNL A   1      39.610  26.034  27.605  1.00  0.00     0.128 C 
ATOM     81  C   UNL A   1      40.883  26.091  26.786  1.00  0.00     0.135 C 
ATOM     82  C   UNL A   1      39.478  24.525  27.903  1.00  0.00     0.055 C 
ATOM     83  N   UNL A   1      41.716  24.984  27.209  1.00  0.00    -0.341 N 
ATOM     84  C   UNL A   1      40.930  23.999  27.916  1.00  0.00     0.128 C 
BRANCH  82  85
ATOM     85  C   UNL A   1      38.679  23.723  26.838  1.00  0.00    -0.042 A 
ATOM     86  C   UNL A   1      39.114  22.433  26.459  1.00  0.00     0.007 A 
ATOM     87  C   UNL A   1      37.524  24.201  26.195  1.00  0.00     0.007 A 
ATOM     88  C   UNL A   1      38.472  21.686  25.467  1.00  0.00     0.039 A 
ATOM     89  C   UNL A   1      36.905  23.472  25.174  1.00  0.00     0.039 A 
ATOM     90  C   UNL A   1      37.387  22.227  24.810  1.00  0.00     0.123 A 
ATOM     91  F   UNL A   1      36.814  21.545  23.812  1.00  0.00    -0.207 F 
ENDBRANCH  82  85
BRANCH  83  92
ATOM     92  C   UNL A   1      43.030  24.724  26.880  1.00  0.00     0.225 C 
ATOM     93  O   UNL A   1      43.832  25.627  26.646  1.00  0.00    -0.275 OA
BRANCH  92  94
ATOM     94  C   UNL A   1      43.450  23.272  26.733  1.00  0.00     0.130 C 
BRANCH  94  95
ATOM     95  C   UNL A   1      43.676  22.771  25.299  1.00  0.00     0.123 C 
ATOM     96  N   UNL A   1      44.659  23.593  24.619  1.00  0.00    -0.345 N 
ATOM     97  C   UNL A   1      44.272  21.405  25.134  1.00  0.00    -0.012 A 
ATOM     98  C   UNL A   1      45.813  22.910  24.313  1.00  0.00     0.252 C 
ATOM     99  H   UNL A   1      44.515  24.542  24.399  1.00  0.00     0.164 HD
ATOM    100  C   UNL A   1      45.598  21.518  24.715  1.00  0.00     0.045 A 
ATOM    101  C   UNL A   1      43.727  20.149  25.325  1.00  0.00     0.007 A 
ATOM    102  O   UNL A   1      46.790  23.361  23.737  1.00  0.00    -0.269 OA
ATOM    103  C   UNL A   1      46.462  20.442  24.656  1.00  0.00     0.014 A 
ATOM    104  C   UNL A   1      44.588  19.044  25.312  1.00  0.00     0.000 A 
ATOM    105  C   UNL A   1      45.953  19.195  25.016  1.00  0.00     0.001 A 
ENDBRANCH  94  95
ENDBRANCH  92  94
ENDBRANCH  83  92
ENDBRANCH  78  80
ENDBRANCH  77  78
ENDBRANCH  76  77
ENDBRANCH  75  76
ENDBRANCH  74  75
ENDBRANCH  73  74
ENDBRANCH   1  73
TORSDOF 24
ENDMDL
