MODEL 1
REMARK VINA RESULT:      -9.9      0.000      0.000
REMARK SMILES N#Cc1ccc(C(=O)OCCOCCOCCOC(=O)c2ccc(-c3c4nc(c(-c5cccc(S(=O)(=O)[O-])c5F)c5ccc([nH]5)c(-c5cccc(S(=O)(=O)[O-])c5F)c5nc(c(-c6cccc(S(=O)(=O)[O-])c6F)c6ccc3[nH]6)C=C5)C=C4)cc2)nc1/C=C/c1ccc(O)c(Cl)c1
REMARK SMILES IDX 13 1 12 2 11 3 10 4 9 5 7 6 8 7 6 8 3 9 4 10 85 11 5 12
REMARK SMILES IDX 84 13 2 14 1 15 86 16 87 17 88 18 89 19 95 20 90 21 93 22
REMARK SMILES IDX 91 23 94 24 92 25 14 27 15 28 16 29 17 30 18 31 19 32 20 33
REMARK SMILES IDX 21 34 22 35 83 36 23 37 82 38 24 39 25 40 26 41 76 42 27 43
REMARK SMILES IDX 81 44 75 45 77 46 28 47 80 48 74 49 73 50 29 52 61 53 41 54
REMARK SMILES IDX 60 55 42 56 45 57 59 58 78 59 43 60 44 61 58 63 79 64 46 65
REMARK SMILES IDX 30 66 31 67 39 68 32 69 34 70 40 71 33 72 35 73 36 74 37 75
REMARK SMILES IDX 38 76 62 77 63 78 71 79 64 80 66 81 72 82 65 83 67 84 68 85
REMARK SMILES IDX 69 86 70 87 47 88 48 89 56 90 49 91 51 92 57 93 50 94 52 95
REMARK SMILES IDX 53 96 54 97 55 98
REMARK H PARENT 92 26 77 51 45 62
REMARK Flexibility Score: inf
ROOT
ATOM      1  C   UNL A   1      41.778  22.653  27.440  1.00  0.00     0.188 C 
ENDROOT
BRANCH   1   2
ATOM      2  O   UNL A   1      40.623  23.048  26.737  1.00  0.00    -0.376 OA
BRANCH   2   3
ATOM      3  C   UNL A   1      39.724  23.990  27.295  1.00  0.00     0.202 C 
BRANCH   3   4
ATOM      4  C   UNL A   1      38.251  24.193  26.875  1.00  0.00     0.261 C 
BRANCH   4   5
ATOM      5  O   UNL A   1      37.867  23.785  25.558  1.00  0.00    -0.459 OA
BRANCH   5   6
ATOM      6  C   UNL A   1      37.279  22.559  25.456  1.00  0.00     0.357 C 
ATOM      7  O   UNL A   1      37.844  21.509  25.201  1.00  0.00    -0.244 OA
BRANCH   6   8
ATOM      8  C   UNL A   1      35.833  22.679  25.824  1.00  0.00     0.149 A 
ATOM      9  C   UNL A   1      33.199  22.999  26.512  1.00  0.00     0.078 A 
ATOM     10  C   UNL A   1      33.817  21.753  26.690  1.00  0.00     0.024 A 
ATOM     11  C   UNL A   1      33.931  24.040  25.928  1.00  0.00     0.082 A 
ATOM     12  C   UNL A   1      35.152  21.584  26.340  1.00  0.00     0.037 A 
ATOM     13  N   UNL A   1      35.240  23.887  25.588  1.00  0.00    -0.240 NA
BRANCH   9  14
ATOM     14  C   UNL A   1      31.852  23.165  26.971  1.00  0.00     0.101 C 
ATOM     15  N   UNL A   1      30.780  23.315  27.382  1.00  0.00    -0.192 NA
ENDBRANCH   9  14
BRANCH  11  16
ATOM     16  C   UNL A   1      33.339  25.378  25.704  1.00  0.00     0.030 C 
ATOM     17  C   UNL A   1      33.942  26.564  25.892  1.00  0.00     0.010 C 
BRANCH  17  18
ATOM     18  C   UNL A   1      33.223  27.844  25.734  1.00  0.00    -0.024 A 
ATOM     19  C   UNL A   1      33.394  28.872  26.669  1.00  0.00     0.012 A 
ATOM     20  C   UNL A   1      32.297  28.033  24.698  1.00  0.00     0.032 A 
ATOM     21  C   UNL A   1      32.647  30.054  26.590  1.00  0.00     0.048 A 
ATOM     22  C   UNL A   1      31.558  29.215  24.612  1.00  0.00     0.083 A 
ATOM     23  C   UNL A   1      31.725  30.218  25.566  1.00  0.00     0.134 A 
ATOM     24  Cl  UNL A   1      30.427  29.412  23.323  1.00  0.00    -0.080 Cl
BRANCH  23  25
ATOM     25  O   UNL A   1      31.000  31.375  25.544  1.00  0.00    -0.506 OA
ATOM     26  H   UNL A   1      30.649  31.724  26.340  1.00  0.00     0.293 HD
ENDBRANCH  23  25
ENDBRANCH  17  18
ENDBRANCH  11  16
ENDBRANCH   6   8
ENDBRANCH   5   6
ENDBRANCH   4   5
ENDBRANCH   3   4
ENDBRANCH   2   3
ENDBRANCH   1   2
BRANCH   1  27
ATOM     27  C   UNL A   1      42.004  21.136  27.601  1.00  0.00     0.188 C 
BRANCH  27  28
ATOM     28  O   UNL A   1      41.005  20.255  27.136  1.00  0.00    -0.376 OA
BRANCH  28  29
ATOM     29  C   UNL A   1      41.352  19.215  26.232  1.00  0.00     0.202 C 
BRANCH  29  30
ATOM     30  C   UNL A   1      42.775  18.887  25.717  1.00  0.00     0.261 C 
BRANCH  30  31
ATOM     31  O   UNL A   1      43.285  19.601  24.588  1.00  0.00    -0.460 OA
BRANCH  31  32
ATOM     32  C   UNL A   1      44.636  19.687  24.502  1.00  0.00     0.338 C 
ATOM     33  O   UNL A   1      45.400  18.835  24.084  1.00  0.00    -0.246 OA
BRANCH  32  34
ATOM     34  C   UNL A   1      45.044  21.074  24.807  1.00  0.00     0.060 A 
ATOM     35  C   UNL A   1      45.457  21.395  26.110  1.00  0.00     0.016 A 
ATOM     36  C   UNL A   1      44.988  22.056  23.820  1.00  0.00     0.016 A 
ATOM     37  C   UNL A   1      45.804  22.706  26.432  1.00  0.00     0.010 A 
ATOM     38  C   UNL A   1      45.309  23.374  24.151  1.00  0.00     0.010 A 
ATOM     39  C   UNL A   1      45.690  23.711  25.463  1.00  0.00    -0.014 A 
BRANCH  39  40
ATOM     40  C   UNL A   1      45.822  25.135  25.853  1.00  0.00     0.031 A 
ATOM     41  C   UNL A   1      47.189  25.760  25.856  1.00  0.00     0.074 A 
ATOM     42  C   UNL A   1      44.747  25.857  26.211  1.00  0.00     0.049 A 
ATOM     43  N   UNL A   1      47.548  26.965  26.212  1.00  0.00    -0.248 NA
ATOM     44  C   UNL A   1      48.304  24.905  25.413  1.00  0.00     0.031 C 
ATOM     45  C   UNL A   1      43.370  25.365  26.239  1.00  0.00     0.029 A 
ATOM     46  N   UNL A   1      44.648  27.163  26.621  1.00  0.00    -0.354 N 
ATOM     47  C   UNL A   1      48.931  26.999  26.088  1.00  0.00     0.074 A 
ATOM     48  C   UNL A   1      49.347  25.694  25.620  1.00  0.00     0.031 C 
ATOM     49  C   UNL A   1      42.562  26.359  26.645  1.00  0.00     0.029 A 
ATOM     50  C   UNL A   1      43.368  27.539  26.955  1.00  0.00     0.049 A 
ATOM     51  H   UNL A   1      45.420  27.773  26.671  1.00  0.00     0.167 HD
ATOM     52  C   UNL A   1      49.779  28.023  26.345  1.00  0.00     0.034 A 
ATOM     53  C   UNL A   1      42.906  28.695  27.472  1.00  0.00     0.034 A 
ATOM     54  C   UNL A   1      49.361  29.318  26.808  1.00  0.00     0.049 A 
ATOM     55  C   UNL A   1      43.874  29.814  27.762  1.00  0.00     0.074 A 
ATOM     56  C   UNL A   1      50.143  30.433  27.058  1.00  0.00     0.029 A 
ATOM     57  N   UNL A   1      48.055  29.670  27.111  1.00  0.00    -0.354 N 
ATOM     58  N   UNL A   1      45.169  29.861  27.559  1.00  0.00    -0.248 NA
ATOM     59  C   UNL A   1      43.314  31.047  28.338  1.00  0.00     0.031 C 
ATOM     60  C   UNL A   1      49.318  31.439  27.568  1.00  0.00     0.029 A 
ATOM     61  C   UNL A   1      48.011  30.976  27.567  1.00  0.00     0.049 A 
ATOM     62  H   UNL A   1      47.275  29.078  27.016  1.00  0.00     0.167 HD
ATOM     63  C   UNL A   1      45.570  31.137  27.947  1.00  0.00     0.074 A 
ATOM     64  C   UNL A   1      44.379  31.836  28.379  1.00  0.00     0.031 C 
ATOM     65  C   UNL A   1      46.814  31.677  27.954  1.00  0.00     0.034 A 
BRANCH  52  66
ATOM     66  C   UNL A   1      51.253  27.779  26.150  1.00  0.00     0.023 A 
ATOM     67  C   UNL A   1      52.094  27.585  27.265  1.00  0.00     0.012 A 
ATOM     68  C   UNL A   1      51.795  27.688  24.853  1.00  0.00     0.148 A 
ATOM     69  C   UNL A   1      53.456  27.343  27.093  1.00  0.00     0.002 A 
ATOM     70  C   UNL A   1      53.143  27.394  24.688  1.00  0.00     0.091 A 
ATOM     71  F   UNL A   1      50.984  27.895  23.806  1.00  0.00    -0.205 F 
ATOM     72  C   UNL A   1      53.977  27.236  25.806  1.00  0.00     0.022 A 
BRANCH  70  73
ATOM     73  S   UNL A   1      53.892  27.154  23.074  1.00  0.00     0.127 S 
ATOM     74  O   UNL A   1      53.744  28.482  22.480  1.00  0.00    -0.237 OA
ATOM     75  O   UNL A   1      55.266  26.794  23.427  1.00  0.00    -0.237 OA
ATOM     76  O   UNL A   1      53.131  26.095  22.426  1.00  0.00    -0.744 OA
ENDBRANCH  70  73
ENDBRANCH  52  66
BRANCH  53  77
ATOM     77  C   UNL A   1      41.451  28.861  27.756  1.00  0.00     0.023 A 
ATOM     78  C   UNL A   1      40.568  29.205  26.714  1.00  0.00     0.012 A 
ATOM     79  C   UNL A   1      40.943  28.684  29.056  1.00  0.00     0.148 A 
ATOM     80  C   UNL A   1      39.211  29.412  26.973  1.00  0.00     0.002 A 
ATOM     81  C   UNL A   1      39.582  28.827  29.295  1.00  0.00     0.091 A 
ATOM     82  F   UNL A   1      41.803  28.372  30.036  1.00  0.00    -0.205 F 
ATOM     83  C   UNL A   1      38.717  29.214  28.260  1.00  0.00     0.022 A 
BRANCH  81  84
ATOM     84  S   UNL A   1      38.843  28.467  30.891  1.00  0.00     0.127 S 
ATOM     85  O   UNL A   1      38.874  27.008  30.913  1.00  0.00    -0.237 OA
ATOM     86  O   UNL A   1      39.780  29.118  31.808  1.00  0.00    -0.237 OA
ATOM     87  O   UNL A   1      37.516  29.067  30.858  1.00  0.00    -0.744 OA
ENDBRANCH  81  84
ENDBRANCH  53  77
BRANCH  65  88
ATOM     88  C   UNL A   1      46.958  33.117  28.382  1.00  0.00     0.023 A 
ATOM     89  C   UNL A   1      47.183  33.442  29.735  1.00  0.00     0.012 A 
ATOM     90  C   UNL A   1      46.945  34.145  27.418  1.00  0.00     0.148 A 
ATOM     91  C   UNL A   1      47.354  34.771  30.124  1.00  0.00     0.002 A 
ATOM     92  C   UNL A   1      47.174  35.459  27.805  1.00  0.00     0.091 A 
ATOM     93  F   UNL A   1      46.719  33.817  26.138  1.00  0.00    -0.205 F 
ATOM     94  C   UNL A   1      47.362  35.776  29.159  1.00  0.00     0.022 A 
BRANCH  92  95
ATOM     95  S   UNL A   1      47.302  36.806  26.624  1.00  0.00     0.127 S 
ATOM     96  O   UNL A   1      48.215  36.245  25.630  1.00  0.00    -0.237 OA
ATOM     97  O   UNL A   1      45.919  36.947  26.168  1.00  0.00    -0.237 OA
ATOM     98  O   UNL A   1      47.817  37.949  27.363  1.00  0.00    -0.744 OA
ENDBRANCH  92  95
ENDBRANCH  65  88
ENDBRANCH  39  40
ENDBRANCH  32  34
ENDBRANCH  31  32
ENDBRANCH  30  31
ENDBRANCH  29  30
ENDBRANCH  28  29
ENDBRANCH  27  28
ENDBRANCH   1  27
TORSDOF 24
ENDMDL
MODEL 2
REMARK VINA RESULT:      -9.3      4.268      6.093
REMARK SMILES N#Cc1ccc(C(=O)OCCOCCOCCOC(=O)c2ccc(-c3c4nc(c(-c5cccc(S(=O)(=O)[O-])c5F)c5ccc([nH]5)c(-c5cccc(S(=O)(=O)[O-])c5F)c5nc(c(-c6cccc(S(=O)(=O)[O-])c6F)c6ccc3[nH]6)C=C5)C=C4)cc2)nc1/C=C/c1ccc(O)c(Cl)c1
REMARK SMILES IDX 13 1 12 2 11 3 10 4 9 5 7 6 8 7 6 8 3 9 4 10 85 11 5 12
REMARK SMILES IDX 84 13 2 14 1 15 86 16 87 17 88 18 89 19 95 20 90 21 93 22
REMARK SMILES IDX 91 23 94 24 92 25 14 27 15 28 16 29 17 30 18 31 19 32 20 33
REMARK SMILES IDX 21 34 22 35 83 36 23 37 82 38 24 39 25 40 26 41 76 42 27 43
REMARK SMILES IDX 81 44 75 45 77 46 28 47 80 48 74 49 73 50 29 52 61 53 41 54
REMARK SMILES IDX 60 55 42 56 45 57 59 58 78 59 43 60 44 61 58 63 79 64 46 65
REMARK SMILES IDX 30 66 31 67 39 68 32 69 34 70 40 71 33 72 35 73 36 74 37 75
REMARK SMILES IDX 38 76 62 77 63 78 71 79 64 80 66 81 72 82 65 83 67 84 68 85
REMARK SMILES IDX 69 86 70 87 47 88 48 89 56 90 49 91 51 92 57 93 50 94 52 95
REMARK SMILES IDX 53 96 54 97 55 98
REMARK H PARENT 92 26 77 51 45 62
REMARK Flexibility Score: inf
ROOT
ATOM      1  C   UNL A   1      36.491  20.554  24.886  1.00  0.00     0.188 C 
ENDROOT
BRANCH   1   2
ATOM      2  O   UNL A   1      35.198  20.437  25.434  1.00  0.00    -0.376 OA
BRANCH   2   3
ATOM      3  C   UNL A   1      34.217  21.431  25.193  1.00  0.00     0.202 C 
BRANCH   3   4
ATOM      4  C   UNL A   1      33.968  22.149  23.849  1.00  0.00     0.261 C 
BRANCH   4   5
ATOM      5  O   UNL A   1      34.578  23.428  23.650  1.00  0.00    -0.459 OA
BRANCH   5   6
ATOM      6  C   UNL A   1      33.844  24.344  22.956  1.00  0.00     0.357 C 
ATOM      7  O   UNL A   1      33.433  24.221  21.815  1.00  0.00    -0.244 OA
BRANCH   6   8
ATOM      8  C   UNL A   1      33.514  25.491  23.859  1.00  0.00     0.149 A 
ATOM      9  C   UNL A   1      32.898  27.651  25.430  1.00  0.00     0.078 A 
ATOM     10  C   UNL A   1      33.681  26.613  25.953  1.00  0.00     0.024 A 
ATOM     11  C   UNL A   1      32.396  27.531  24.129  1.00  0.00     0.082 A 
ATOM     12  C   UNL A   1      33.995  25.514  25.161  1.00  0.00     0.037 A 
ATOM     13  N   UNL A   1      32.702  26.462  23.343  1.00  0.00    -0.240 NA
BRANCH   9  14
ATOM     14  C   UNL A   1      32.673  28.812  26.240  1.00  0.00     0.101 C 
ATOM     15  N   UNL A   1      32.497  29.724  26.931  1.00  0.00    -0.192 NA
ENDBRANCH   9  14
BRANCH  11  16
ATOM     16  C   UNL A   1      31.556  28.586  23.517  1.00  0.00     0.030 C 
ATOM     17  C   UNL A   1      30.374  29.034  23.972  1.00  0.00     0.010 C 
BRANCH  17  18
ATOM     18  C   UNL A   1      29.570  30.021  23.225  1.00  0.00    -0.024 A 
ATOM     19  C   UNL A   1      28.861  29.637  22.080  1.00  0.00     0.012 A 
ATOM     20  C   UNL A   1      29.557  31.374  23.594  1.00  0.00     0.032 A 
ATOM     21  C   UNL A   1      28.172  30.579  21.305  1.00  0.00     0.048 A 
ATOM     22  C   UNL A   1      28.863  32.314  22.828  1.00  0.00     0.083 A 
ATOM     23  C   UNL A   1      28.183  31.916  21.677  1.00  0.00     0.134 A 
ATOM     24  Cl  UNL A   1      28.869  33.970  23.312  1.00  0.00    -0.080 Cl
BRANCH  23  25
ATOM     25  O   UNL A   1      27.521  32.802  20.877  1.00  0.00    -0.506 OA
ATOM     26  H   UNL A   1      27.125  32.509  20.079  1.00  0.00     0.293 HD
ENDBRANCH  23  25
ENDBRANCH  17  18
ENDBRANCH  11  16
ENDBRANCH   6   8
ENDBRANCH   5   6
ENDBRANCH   4   5
ENDBRANCH   3   4
ENDBRANCH   2   3
ENDBRANCH   1   2
BRANCH   1  27
ATOM     27  C   UNL A   1      37.396  19.310  24.980  1.00  0.00     0.188 C 
BRANCH  27  28
ATOM     28  O   UNL A   1      38.786  19.475  24.802  1.00  0.00    -0.376 OA
BRANCH  28  29
ATOM     29  C   UNL A   1      39.637  19.528  25.938  1.00  0.00     0.202 C 
BRANCH  29  30
ATOM     30  C   UNL A   1      40.558  20.707  26.338  1.00  0.00     0.261 C 
BRANCH  30  31
ATOM     31  O   UNL A   1      40.029  21.751  27.159  1.00  0.00    -0.460 OA
BRANCH  31  32
ATOM     32  C   UNL A   1      39.379  22.747  26.506  1.00  0.00     0.338 C 
ATOM     33  O   UNL A   1      38.367  22.644  25.834  1.00  0.00    -0.246 OA
BRANCH  32  34
ATOM     34  C   UNL A   1      39.971  24.041  26.901  1.00  0.00     0.060 A 
ATOM     35  C   UNL A   1      40.424  24.214  28.218  1.00  0.00     0.016 A 
ATOM     36  C   UNL A   1      40.047  25.088  25.984  1.00  0.00     0.016 A 
ATOM     37  C   UNL A   1      40.945  25.440  28.625  1.00  0.00     0.010 A 
ATOM     38  C   UNL A   1      40.542  26.325  26.401  1.00  0.00     0.010 A 
ATOM     39  C   UNL A   1      40.967  26.516  27.729  1.00  0.00    -0.014 A 
BRANCH  39  40
ATOM     40  C   UNL A   1      41.289  27.879  28.214  1.00  0.00     0.031 A 
ATOM     41  C   UNL A   1      42.726  28.319  28.229  1.00  0.00     0.074 A 
ATOM     42  C   UNL A   1      40.323  28.707  28.645  1.00  0.00     0.049 A 
ATOM     43  N   UNL A   1      43.245  29.439  28.660  1.00  0.00    -0.248 NA
ATOM     44  C   UNL A   1      43.713  27.361  27.703  1.00  0.00     0.031 C 
ATOM     45  C   UNL A   1      38.894  28.397  28.671  1.00  0.00     0.029 A 
ATOM     46  N   UNL A   1      40.402  29.982  29.148  1.00  0.00    -0.354 N 
ATOM     47  C   UNL A   1      44.619  29.302  28.507  1.00  0.00     0.074 A 
ATOM     48  C   UNL A   1      44.854  27.991  27.940  1.00  0.00     0.031 C 
ATOM     49  C   UNL A   1      38.229  29.456  29.163  1.00  0.00     0.029 A 
ATOM     50  C   UNL A   1      39.187  30.496  29.536  1.00  0.00     0.049 A 
ATOM     51  H   UNL A   1      41.248  30.481  29.223  1.00  0.00     0.167 HD
ATOM     52  C   UNL A   1      45.597  30.186  28.815  1.00  0.00     0.034 A 
ATOM     53  C   UNL A   1      38.887  31.662  30.143  1.00  0.00     0.034 A 
ATOM     54  C   UNL A   1      45.359  31.488  29.376  1.00  0.00     0.049 A 
ATOM     55  C   UNL A   1      39.998  32.622  30.487  1.00  0.00     0.074 A 
ATOM     56  C   UNL A   1      46.284  32.470  29.686  1.00  0.00     0.029 A 
ATOM     57  N   UNL A   1      44.115  31.983  29.733  1.00  0.00    -0.354 N 
ATOM     58  N   UNL A   1      41.285  32.515  30.259  1.00  0.00    -0.248 NA
ATOM     59  C   UNL A   1      39.613  33.872  31.160  1.00  0.00     0.031 C 
ATOM     60  C   UNL A   1      45.605  33.536  30.283  1.00  0.00     0.029 A 
ATOM     61  C   UNL A   1      44.249  33.248  30.280  1.00  0.00     0.049 A 
ATOM     62  H   UNL A   1      43.263  31.506  29.615  1.00  0.00     0.167 HD
ATOM     63  C   UNL A   1      41.855  33.696  30.726  1.00  0.00     0.074 A 
ATOM     64  C   UNL A   1      40.772  34.511  31.233  1.00  0.00     0.031 C 
ATOM     65  C   UNL A   1      43.159  34.068  30.741  1.00  0.00     0.034 A 
BRANCH  52  66
ATOM     66  C   UNL A   1      47.024  29.767  28.570  1.00  0.00     0.023 A 
ATOM     67  C   UNL A   1      47.735  30.280  27.466  1.00  0.00     0.012 A 
ATOM     68  C   UNL A   1      47.678  28.903  29.470  1.00  0.00     0.148 A 
ATOM     69  C   UNL A   1      49.059  29.910  27.240  1.00  0.00     0.002 A 
ATOM     70  C   UNL A   1      49.014  28.581  29.268  1.00  0.00     0.091 A 
ATOM     71  F   UNL A   1      46.981  28.409  30.503  1.00  0.00    -0.205 F 
ATOM     72  C   UNL A   1      49.702  29.071  28.147  1.00  0.00     0.022 A 
BRANCH  70  73
ATOM     73  S   UNL A   1      49.954  27.575  30.422  1.00  0.00     0.127 S 
ATOM     74  O   UNL A   1      49.423  26.240  30.148  1.00  0.00    -0.237 OA
ATOM     75  O   UNL A   1      51.327  27.790  29.965  1.00  0.00    -0.237 OA
ATOM     76  O   UNL A   1      49.662  28.099  31.749  1.00  0.00    -0.744 OA
ENDBRANCH  70  73
ENDBRANCH  52  66
BRANCH  53  77
ATOM     77  C   UNL A   1      37.471  31.994  30.470  1.00  0.00     0.023 A 
ATOM     78  C   UNL A   1      36.924  31.591  31.704  1.00  0.00     0.012 A 
ATOM     79  C   UNL A   1      36.664  32.702  29.560  1.00  0.00     0.148 A 
ATOM     80  C   UNL A   1      35.585  31.851  32.005  1.00  0.00     0.002 A 
ATOM     81  C   UNL A   1      35.353  33.015  29.892  1.00  0.00     0.091 A 
ATOM     82  F   UNL A   1      37.201  33.063  28.385  1.00  0.00    -0.205 F 
ATOM     83  C   UNL A   1      34.803  32.571  31.104  1.00  0.00     0.022 A 
BRANCH  81  84
ATOM     84  S   UNL A   1      34.316  34.046  28.850  1.00  0.00     0.127 S 
ATOM     85  O   UNL A   1      33.414  33.062  28.259  1.00  0.00    -0.237 OA
ATOM     86  O   UNL A   1      33.698  34.938  29.833  1.00  0.00    -0.237 OA
ATOM     87  O   UNL A   1      35.221  34.707  27.920  1.00  0.00    -0.744 OA
ENDBRANCH  81  84
ENDBRANCH  53  77
BRANCH  65  88
ATOM     88  C   UNL A   1      43.497  35.443  31.266  1.00  0.00     0.023 A 
ATOM     89  C   UNL A   1      43.652  36.529  30.381  1.00  0.00     0.012 A 
ATOM     90  C   UNL A   1      43.585  35.667  32.655  1.00  0.00     0.148 A 
ATOM     91  C   UNL A   1      43.926  37.806  30.869  1.00  0.00     0.002 A 
ATOM     92  C   UNL A   1      43.801  36.952  33.136  1.00  0.00     0.091 A 
ATOM     93  F   UNL A   1      43.446  34.620  33.481  1.00  0.00    -0.205 F 
ATOM     94  C   UNL A   1      43.988  38.020  32.245  1.00  0.00     0.022 A 
BRANCH  92  95
ATOM     95  S   UNL A   1      43.796  37.340  34.890  1.00  0.00     0.127 S 
ATOM     96  O   UNL A   1      44.992  36.638  35.353  1.00  0.00    -0.237 OA
ATOM     97  O   UNL A   1      43.911  38.798  34.882  1.00  0.00    -0.237 OA
ATOM     98  O   UNL A   1      42.537  36.832  35.416  1.00  0.00    -0.744 OA
ENDBRANCH  92  95
ENDBRANCH  65  88
ENDBRANCH  39  40
ENDBRANCH  32  34
ENDBRANCH  31  32
ENDBRANCH  30  31
ENDBRANCH  29  30
ENDBRANCH  28  29
ENDBRANCH  27  28
ENDBRANCH   1  27
TORSDOF 24
ENDMDL
MODEL 3
REMARK VINA RESULT:      -9.1      4.925      7.740
REMARK SMILES N#Cc1ccc(C(=O)OCCOCCOCCOC(=O)c2ccc(-c3c4nc(c(-c5cccc(S(=O)(=O)[O-])c5F)c5ccc([nH]5)c(-c5cccc(S(=O)(=O)[O-])c5F)c5nc(c(-c6cccc(S(=O)(=O)[O-])c6F)c6ccc3[nH]6)C=C5)C=C4)cc2)nc1/C=C/c1ccc(O)c(Cl)c1
REMARK SMILES IDX 13 1 12 2 11 3 10 4 9 5 7 6 8 7 6 8 3 9 4 10 85 11 5 12
REMARK SMILES IDX 84 13 2 14 1 15 86 16 87 17 88 18 89 19 95 20 90 21 93 22
REMARK SMILES IDX 91 23 94 24 92 25 14 27 15 28 16 29 17 30 18 31 19 32 20 33
REMARK SMILES IDX 21 34 22 35 83 36 23 37 82 38 24 39 25 40 26 41 76 42 27 43
REMARK SMILES IDX 81 44 75 45 77 46 28 47 80 48 74 49 73 50 29 52 61 53 41 54
REMARK SMILES IDX 60 55 42 56 45 57 59 58 78 59 43 60 44 61 58 63 79 64 46 65
REMARK SMILES IDX 30 66 31 67 39 68 32 69 34 70 40 71 33 72 35 73 36 74 37 75
REMARK SMILES IDX 38 76 62 77 63 78 71 79 64 80 66 81 72 82 65 83 67 84 68 85
REMARK SMILES IDX 69 86 70 87 47 88 48 89 56 90 49 91 51 92 57 93 50 94 52 95
REMARK SMILES IDX 53 96 54 97 55 98
REMARK H PARENT 92 26 77 51 45 62
REMARK Flexibility Score: inf
ROOT
ATOM      1  C   UNL A   1      45.023  20.523  24.669  1.00  0.00     0.188 C 
ENDROOT
BRANCH   1   2
ATOM      2  O   UNL A   1      44.201  21.622  24.352  1.00  0.00    -0.376 OA
BRANCH   2   3
ATOM      3  C   UNL A   1      44.726  22.938  24.341  1.00  0.00     0.202 C 
BRANCH   3   4
ATOM      4  C   UNL A   1      43.983  24.212  24.800  1.00  0.00     0.261 C 
BRANCH   4   5
ATOM      5  O   UNL A   1      44.764  25.380  25.077  1.00  0.00    -0.459 OA
BRANCH   5   6
ATOM      6  C   UNL A   1      44.080  26.557  25.149  1.00  0.00     0.357 C 
ATOM      7  O   UNL A   1      42.918  26.735  24.829  1.00  0.00    -0.244 OA
BRANCH   6   8
ATOM      8  C   UNL A   1      44.950  27.589  25.798  1.00  0.00     0.149 A 
ATOM      9  C   UNL A   1      46.480  29.549  26.950  1.00  0.00     0.078 A 
ATOM     10  C   UNL A   1      47.065  28.322  26.610  1.00  0.00     0.024 A 
ATOM     11  C   UNL A   1      45.106  29.724  26.745  1.00  0.00     0.082 A 
ATOM     12  C   UNL A   1      46.293  27.323  26.027  1.00  0.00     0.037 A 
ATOM     13  N   UNL A   1      44.343  28.755  26.170  1.00  0.00    -0.240 NA
BRANCH   9  14
ATOM     14  C   UNL A   1      47.322  30.591  27.460  1.00  0.00     0.101 C 
ATOM     15  N   UNL A   1      47.968  31.461  27.866  1.00  0.00    -0.192 NA
ENDBRANCH   9  14
BRANCH  11  16
ATOM     16  C   UNL A   1      44.422  30.991  27.088  1.00  0.00     0.030 C 
ATOM     17  C   UNL A   1      44.554  32.170  26.457  1.00  0.00     0.010 C 
BRANCH  17  18
ATOM     18  C   UNL A   1      43.900  33.400  26.947  1.00  0.00    -0.024 A 
ATOM     19  C   UNL A   1      43.650  34.466  26.075  1.00  0.00     0.012 A 
ATOM     20  C   UNL A   1      43.587  33.563  28.305  1.00  0.00     0.032 A 
ATOM     21  C   UNL A   1      43.120  35.675  26.542  1.00  0.00     0.048 A 
ATOM     22  C   UNL A   1      43.050  34.765  28.772  1.00  0.00     0.083 A 
ATOM     23  C   UNL A   1      42.830  35.824  27.891  1.00  0.00     0.134 A 
ATOM     24  Cl  UNL A   1      42.677  34.929  30.449  1.00  0.00    -0.080 Cl
BRANCH  23  25
ATOM     25  O   UNL A   1      42.341  37.029  28.306  1.00  0.00    -0.506 OA
ATOM     26  H   UNL A   1      42.345  37.763  27.723  1.00  0.00     0.293 HD
ENDBRANCH  23  25
ENDBRANCH  17  18
ENDBRANCH  11  16
ENDBRANCH   6   8
ENDBRANCH   5   6
ENDBRANCH   4   5
ENDBRANCH   3   4
ENDBRANCH   2   3
ENDBRANCH   1   2
BRANCH   1  27
ATOM     27  C   UNL A   1      44.494  19.129  24.276  1.00  0.00     0.188 C 
BRANCH  27  28
ATOM     28  O   UNL A   1      44.218  18.201  25.302  1.00  0.00    -0.376 OA
BRANCH  28  29
ATOM     29  C   UNL A   1      43.218  18.499  26.267  1.00  0.00     0.202 C 
BRANCH  29  30
ATOM     30  C   UNL A   1      41.787  19.011  25.973  1.00  0.00     0.261 C 
BRANCH  30  31
ATOM     31  O   UNL A   1      41.589  20.404  25.713  1.00  0.00    -0.460 OA
BRANCH  31  32
ATOM     32  C   UNL A   1      40.661  21.024  26.484  1.00  0.00     0.338 C 
ATOM     33  O   UNL A   1      39.591  20.570  26.852  1.00  0.00    -0.246 OA
BRANCH  32  34
ATOM     34  C   UNL A   1      41.234  22.285  26.998  1.00  0.00     0.060 A 
ATOM     35  C   UNL A   1      42.202  22.233  28.013  1.00  0.00     0.016 A 
ATOM     36  C   UNL A   1      40.792  23.510  26.502  1.00  0.00     0.016 A 
ATOM     37  C   UNL A   1      42.724  23.411  28.543  1.00  0.00     0.010 A 
ATOM     38  C   UNL A   1      41.294  24.690  27.056  1.00  0.00     0.010 A 
ATOM     39  C   UNL A   1      42.240  24.647  28.097  1.00  0.00    -0.014 A 
BRANCH  39  40
ATOM     40  C   UNL A   1      42.606  25.890  28.816  1.00  0.00     0.031 A 
ATOM     41  C   UNL A   1      44.057  26.159  29.102  1.00  0.00     0.074 A 
ATOM     42  C   UNL A   1      41.664  26.760  29.218  1.00  0.00     0.049 A 
ATOM     43  N   UNL A   1      44.601  27.147  29.761  1.00  0.00    -0.248 NA
ATOM     44  C   UNL A   1      45.022  25.171  28.591  1.00  0.00     0.031 C 
ATOM     45  C   UNL A   1      40.227  26.614  28.991  1.00  0.00     0.029 A 
ATOM     46  N   UNL A   1      41.780  27.942  29.906  1.00  0.00    -0.354 N 
ATOM     47  C   UNL A   1      45.964  26.876  29.791  1.00  0.00     0.074 A 
ATOM     48  C   UNL A   1      46.163  25.632  29.080  1.00  0.00     0.031 C 
ATOM     49  C   UNL A   1      39.593  27.669  29.530  1.00  0.00     0.029 A 
ATOM     50  C   UNL A   1      40.571  28.537  30.185  1.00  0.00     0.049 A 
ATOM     51  H   UNL A   1      42.645  28.328  30.174  1.00  0.00     0.167 HD
ATOM     52  C   UNL A   1      46.958  27.596  30.363  1.00  0.00     0.034 A 
ATOM     53  C   UNL A   1      40.288  29.641  30.904  1.00  0.00     0.034 A 
ATOM     54  C   UNL A   1      46.755  28.833  31.066  1.00  0.00     0.049 A 
ATOM     55  C   UNL A   1      41.413  30.416  31.541  1.00  0.00     0.074 A 
ATOM     56  C   UNL A   1      47.705  29.656  31.645  1.00  0.00     0.029 A 
ATOM     57  N   UNL A   1      45.521  29.416  31.307  1.00  0.00    -0.354 N 
ATOM     58  N   UNL A   1      42.705  30.194  31.489  1.00  0.00    -0.248 NA
ATOM     59  C   UNL A   1      41.043  31.605  32.326  1.00  0.00     0.031 C 
ATOM     60  C   UNL A   1      47.041  30.706  32.287  1.00  0.00     0.029 A 
ATOM     61  C   UNL A   1      45.683  30.576  32.045  1.00  0.00     0.049 A 
ATOM     62  H   UNL A   1      44.658  29.059  30.999  1.00  0.00     0.167 HD
ATOM     63  C   UNL A   1      43.300  31.232  32.200  1.00  0.00     0.074 A 
ATOM     64  C   UNL A   1      42.230  32.093  32.657  1.00  0.00     0.031 C 
ATOM     65  C   UNL A   1      44.614  31.449  32.458  1.00  0.00     0.034 A 
BRANCH  52  66
ATOM     66  C   UNL A   1      48.361  27.053  30.269  1.00  0.00     0.023 A 
ATOM     67  C   UNL A   1      49.197  27.430  29.198  1.00  0.00     0.012 A 
ATOM     68  C   UNL A   1      48.868  26.208  31.276  1.00  0.00     0.148 A 
ATOM     69  C   UNL A   1      50.501  26.945  29.112  1.00  0.00     0.002 A 
ATOM     70  C   UNL A   1      50.184  25.771  31.211  1.00  0.00     0.091 A 
ATOM     71  F   UNL A   1      48.051  25.845  32.275  1.00  0.00    -0.205 F 
ATOM     72  C   UNL A   1      50.997  26.126  30.123  1.00  0.00     0.022 A 
BRANCH  70  73
ATOM     73  S   UNL A   1      50.942  24.782  32.504  1.00  0.00     0.127 S 
ATOM     74  O   UNL A   1      52.309  24.639  32.003  1.00  0.00    -0.237 OA
ATOM     75  O   UNL A   1      50.810  25.654  33.672  1.00  0.00    -0.237 OA
ATOM     76  O   UNL A   1      50.174  23.547  32.574  1.00  0.00    -0.744 OA
ENDBRANCH  70  73
ENDBRANCH  52  66
BRANCH  53  77
ATOM     77  C   UNL A   1      38.874  30.087  31.068  1.00  0.00     0.023 A 
ATOM     78  C   UNL A   1      38.138  29.682  32.198  1.00  0.00     0.012 A 
ATOM     79  C   UNL A   1      38.257  30.904  30.102  1.00  0.00     0.148 A 
ATOM     80  C   UNL A   1      36.798  30.050  32.341  1.00  0.00     0.002 A 
ATOM     81  C   UNL A   1      36.945  31.322  30.283  1.00  0.00     0.091 A 
ATOM     82  F   UNL A   1      38.971  31.265  29.027  1.00  0.00    -0.205 F 
ATOM     83  C   UNL A   1      36.205  30.877  31.390  1.00  0.00     0.022 A 
BRANCH  81  84
ATOM     84  S   UNL A   1      36.145  32.487  29.176  1.00  0.00     0.127 S 
ATOM     85  O   UNL A   1      34.871  32.715  29.853  1.00  0.00    -0.237 OA
ATOM     86  O   UNL A   1      37.074  33.618  29.211  1.00  0.00    -0.237 OA
ATOM     87  O   UNL A   1      36.060  31.815  27.887  1.00  0.00    -0.744 OA
ENDBRANCH  81  84
ENDBRANCH  53  77
BRANCH  65  88
ATOM     88  C   UNL A   1      44.990  32.697  33.219  1.00  0.00     0.023 A 
ATOM     89  C   UNL A   1      44.953  32.714  34.628  1.00  0.00     0.012 A 
ATOM     90  C   UNL A   1      45.454  33.834  32.526  1.00  0.00     0.148 A 
ATOM     91  C   UNL A   1      45.337  33.856  35.332  1.00  0.00     0.002 A 
ATOM     92  C   UNL A   1      45.889  34.946  33.236  1.00  0.00     0.091 A 
ATOM     93  F   UNL A   1      45.471  33.802  31.186  1.00  0.00    -0.205 F 
ATOM     94  C   UNL A   1      45.816  34.966  34.637  1.00  0.00     0.022 A 
BRANCH  92  95
ATOM     95  S   UNL A   1      46.614  36.380  32.434  1.00  0.00     0.127 S 
ATOM     96  O   UNL A   1      46.566  37.375  33.503  1.00  0.00    -0.237 OA
ATOM     97  O   UNL A   1      47.957  35.902  32.106  1.00  0.00    -0.237 OA
ATOM     98  O   UNL A   1      45.774  36.669  31.280  1.00  0.00    -0.744 OA
ENDBRANCH  92  95
ENDBRANCH  65  88
ENDBRANCH  39  40
ENDBRANCH  32  34
ENDBRANCH  31  32
ENDBRANCH  30  31
ENDBRANCH  29  30
ENDBRANCH  28  29
ENDBRANCH  27  28
ENDBRANCH   1  27
TORSDOF 24
ENDMDL
