MODEL 1
REMARK VINA RESULT:      -9.7      0.000      0.000
REMARK SMILES CCC(CC)(NC(=O)NC[C@H](C)[NH+]1CCCCC1)C(=O)OCCOCCOCCOC(=O)c1ccc(-c2c3nc(c(-c4cccc(S(=O)(=O)[O-])c4F)c4ccc([nH]4)c(-c4cccc(S(=O)(=O)[O-])c4F)c4nc(c(-c5cccc(S(=O)(=O)[O-])c5F)c5ccc2[nH]5)C=C4)C=C3)cc1
REMARK SMILES IDX 25 1 24 2 23 3 22 4 21 5 19 6 20 7 3 8 2 9 1 10 4 11 5 12
REMARK SMILES IDX 6 13 7 14 8 16 9 17 10 19 11 20 12 21 13 22 14 23 18 24
REMARK SMILES IDX 15 26 17 27 16 28 26 29 27 30 28 31 29 32 30 33 31 34 32 35
REMARK SMILES IDX 33 36 34 37 95 38 35 39 94 40 36 41 37 42 38 43 88 44 39 45
REMARK SMILES IDX 93 46 87 47 89 48 40 49 92 50 86 51 85 52 41 54 73 55 53 56
REMARK SMILES IDX 72 57 54 58 57 59 71 60 90 61 55 62 56 63 70 65 91 66 58 67
REMARK SMILES IDX 42 68 43 69 51 70 44 71 46 72 52 73 45 74 47 75 48 76 49 77
REMARK SMILES IDX 50 78 74 79 75 80 83 81 76 82 78 83 84 84 77 85 79 86 80 87
REMARK SMILES IDX 81 88 82 89 59 90 60 91 68 92 61 93 63 94 69 95 62 96 64 97
REMARK SMILES IDX 65 98 66 99 67 100
REMARK H PARENT 6 15 9 18 13 25 89 53 57 64
REMARK Flexibility Score: inf
ROOT
ATOM      1  C   UNL A   1      35.204  20.815  24.925  1.00  0.00     0.188 C 
ENDROOT
BRANCH   1   2
ATOM      2  O   UNL A   1      34.689  21.051  26.229  1.00  0.00    -0.376 OA
BRANCH   2   3
ATOM      3  C   UNL A   1      33.406  21.671  26.249  1.00  0.00     0.202 C 
BRANCH   3   4
ATOM      4  C   UNL A   1      32.663  21.521  24.916  1.00  0.00     0.261 C 
BRANCH   4   5
ATOM      5  O   UNL A   1      32.082  22.788  24.536  1.00  0.00    -0.461 OA
BRANCH   5   6
ATOM      6  C   UNL A   1      32.780  23.573  23.690  1.00  0.00     0.331 C 
ATOM      7  O   UNL A   1      33.516  23.106  22.828  1.00  0.00    -0.249 OA
BRANCH   6   8
ATOM      8  C   UNL A   1      32.728  25.093  24.077  1.00  0.00     0.139 C 
BRANCH   8   9
ATOM      9  C   UNL A   1      33.579  25.853  22.982  1.00  0.00     0.037 C 
ATOM     10  C   UNL A   1      32.961  26.161  21.626  1.00  0.00     0.007 C 
ENDBRANCH   8   9
BRANCH   8  11
ATOM     11  C   UNL A   1      33.355  25.181  25.489  1.00  0.00     0.037 C 
ATOM     12  C   UNL A   1      34.863  24.996  25.560  1.00  0.00     0.007 C 
ENDBRANCH   8  11
BRANCH   8  13
ATOM     13  N   UNL A   1      31.420  25.867  24.038  1.00  0.00    -0.322 N 
ATOM     14  C   UNL A   1      30.757  26.990  24.229  1.00  0.00     0.315 C 
ATOM     15  H   UNL A   1      30.748  25.223  23.716  1.00  0.00     0.166 HD
ATOM     16  O   UNL A   1      29.577  26.963  23.854  1.00  0.00    -0.249 OA
ATOM     17  N   UNL A   1      31.146  28.096  24.834  1.00  0.00    -0.332 N 
ATOM     18  H   UNL A   1      30.402  28.727  24.972  1.00  0.00     0.165 HD
BRANCH  17  19
ATOM     19  C   UNL A   1      32.389  28.602  25.339  1.00  0.00     0.182 C 
BRANCH  19  20
ATOM     20  C   UNL A   1      32.763  28.472  26.873  1.00  0.00     0.200 C 
ATOM     21  C   UNL A   1      31.456  28.143  27.644  1.00  0.00     0.077 C 
BRANCH  20  22
ATOM     22  N   UNL A   1      33.694  29.395  27.604  1.00  0.00    -0.331 N 
ATOM     23  C   UNL A   1      35.125  29.112  27.493  1.00  0.00     0.262 C 
ATOM     24  C   UNL A   1      33.402  30.811  27.292  1.00  0.00     0.262 C 
ATOM     25  H   UNL A   1      33.488  29.208  28.585  1.00  0.00     0.348 HD
ATOM     26  C   UNL A   1      36.039  30.121  28.202  1.00  0.00     0.062 C 
ATOM     27  C   UNL A   1      34.245  31.810  28.077  1.00  0.00     0.062 C 
ATOM     28  C   UNL A   1      35.721  31.555  27.828  1.00  0.00     0.012 C 
ENDBRANCH  20  22
ENDBRANCH  19  20
ENDBRANCH  17  19
ENDBRANCH   8  13
ENDBRANCH   6   8
ENDBRANCH   5   6
ENDBRANCH   4   5
ENDBRANCH   3   4
ENDBRANCH   2   3
ENDBRANCH   1   2
BRANCH   1  29
ATOM     29  C   UNL A   1      36.349  21.736  24.554  1.00  0.00     0.188 C 
BRANCH  29  30
ATOM     30  O   UNL A   1      37.627  21.311  25.039  1.00  0.00    -0.376 OA
BRANCH  30  31
ATOM     31  C   UNL A   1      37.788  19.885  24.964  1.00  0.00     0.202 C 
BRANCH  31  32
ATOM     32  C   UNL A   1      39.024  19.320  25.690  1.00  0.00     0.261 C 
BRANCH  32  33
ATOM     33  O   UNL A   1      40.015  20.352  25.853  1.00  0.00    -0.460 OA
BRANCH  33  34
ATOM     34  C   UNL A   1      40.476  20.541  27.124  1.00  0.00     0.338 C 
ATOM     35  O   UNL A   1      40.763  19.684  27.923  1.00  0.00    -0.246 OA
BRANCH  34  36
ATOM     36  C   UNL A   1      40.824  21.986  27.268  1.00  0.00     0.060 A 
ATOM     37  C   UNL A   1      40.130  22.916  26.477  1.00  0.00     0.016 A 
ATOM     38  C   UNL A   1      41.713  22.431  28.250  1.00  0.00     0.016 A 
ATOM     39  C   UNL A   1      40.332  24.289  26.660  1.00  0.00     0.010 A 
ATOM     40  C   UNL A   1      41.922  23.801  28.425  1.00  0.00     0.010 A 
ATOM     41  C   UNL A   1      41.247  24.738  27.622  1.00  0.00    -0.014 A 
BRANCH  41  42
ATOM     42  C   UNL A   1      41.643  26.165  27.710  1.00  0.00     0.031 A 
ATOM     43  C   UNL A   1      42.940  26.578  27.071  1.00  0.00     0.074 A 
ATOM     44  C   UNL A   1      40.932  27.050  28.434  1.00  0.00     0.049 A 
ATOM     45  N   UNL A   1      43.572  27.718  27.143  1.00  0.00    -0.248 NA
ATOM     46  C   UNL A   1      43.621  25.560  26.252  1.00  0.00     0.031 C 
ATOM     47  C   UNL A   1      39.668  26.771  29.115  1.00  0.00     0.029 A 
ATOM     48  N   UNL A   1      41.208  28.357  28.759  1.00  0.00    -0.354 N 
ATOM     49  C   UNL A   1      44.742  27.546  26.415  1.00  0.00     0.074 A 
ATOM     50  C   UNL A   1      44.730  26.194  25.901  1.00  0.00     0.031 C 
ATOM     51  C   UNL A   1      39.306  27.858  29.821  1.00  0.00     0.029 A 
ATOM     52  C   UNL A   1      40.324  28.896  29.666  1.00  0.00     0.049 A 
ATOM     53  H   UNL A   1      41.964  28.859  28.380  1.00  0.00     0.167 HD
ATOM     54  C   UNL A   1      45.737  28.433  26.189  1.00  0.00     0.034 A 
ATOM     55  C   UNL A   1      40.357  30.073  30.327  1.00  0.00     0.034 A 
ATOM     56  C   UNL A   1      45.743  29.784  26.676  1.00  0.00     0.049 A 
ATOM     57  C   UNL A   1      41.495  31.034  30.075  1.00  0.00     0.074 A 
ATOM     58  C   UNL A   1      46.665  30.782  26.423  1.00  0.00     0.029 A 
ATOM     59  N   UNL A   1      44.798  30.316  27.536  1.00  0.00    -0.354 N 
ATOM     60  N   UNL A   1      42.506  30.922  29.246  1.00  0.00    -0.248 NA
ATOM     61  C   UNL A   1      41.487  32.294  30.836  1.00  0.00     0.031 C 
ATOM     62  C   UNL A   1      46.290  31.915  27.153  1.00  0.00     0.029 A 
ATOM     63  C   UNL A   1      45.128  31.622  27.847  1.00  0.00     0.049 A 
ATOM     64  H   UNL A   1      44.007  29.836  27.875  1.00  0.00     0.167 HD
ATOM     65  C   UNL A   1      43.235  32.100  29.369  1.00  0.00     0.074 A 
ATOM     66  C   UNL A   1      42.538  32.926  30.330  1.00  0.00     0.031 C 
ATOM     67  C   UNL A   1      44.393  32.458  28.759  1.00  0.00     0.034 A 
BRANCH  54  68
ATOM     68  C   UNL A   1      46.899  27.984  25.348  1.00  0.00     0.023 A 
ATOM     69  C   UNL A   1      46.820  28.087  23.946  1.00  0.00     0.012 A 
ATOM     70  C   UNL A   1      48.090  27.535  25.950  1.00  0.00     0.148 A 
ATOM     71  C   UNL A   1      47.908  27.735  23.150  1.00  0.00     0.002 A 
ATOM     72  C   UNL A   1      49.182  27.218  25.151  1.00  0.00     0.091 A 
ATOM     73  F   UNL A   1      48.129  27.423  27.284  1.00  0.00    -0.205 F 
ATOM     74  C   UNL A   1      49.091  27.313  23.752  1.00  0.00     0.022 A 
BRANCH  72  75
ATOM     75  S   UNL A   1      50.769  26.722  25.829  1.00  0.00     0.127 S 
ATOM     76  O   UNL A   1      50.421  25.475  26.508  1.00  0.00    -0.237 OA
ATOM     77  O   UNL A   1      51.577  26.554  24.621  1.00  0.00    -0.237 OA
ATOM     78  O   UNL A   1      51.193  27.807  26.701  1.00  0.00    -0.744 OA
ENDBRANCH  72  75
ENDBRANCH  54  68
BRANCH  55  79
ATOM     79  C   UNL A   1      39.281  30.428  31.297  1.00  0.00     0.023 A 
ATOM     80  C   UNL A   1      39.230  29.774  32.543  1.00  0.00     0.012 A 
ATOM     81  C   UNL A   1      38.293  31.381  30.984  1.00  0.00     0.148 A 
ATOM     82  C   UNL A   1      38.197  30.036  33.446  1.00  0.00     0.002 A 
ATOM     83  C   UNL A   1      37.294  31.674  31.908  1.00  0.00     0.091 A 
ATOM     84  F   UNL A   1      38.334  31.972  29.781  1.00  0.00    -0.205 F 
ATOM     85  C   UNL A   1      37.235  30.992  33.132  1.00  0.00     0.022 A 
BRANCH  83  86
ATOM     86  S   UNL A   1      36.081  32.970  31.620  1.00  0.00     0.127 S 
ATOM     87  O   UNL A   1      36.276  33.826  32.788  1.00  0.00    -0.237 OA
ATOM     88  O   UNL A   1      36.537  33.546  30.353  1.00  0.00    -0.237 OA
ATOM     89  O   UNL A   1      34.799  32.284  31.535  1.00  0.00    -0.744 OA
ENDBRANCH  83  86
ENDBRANCH  55  79
BRANCH  67  90
ATOM     90  C   UNL A   1      44.984  33.804  29.092  1.00  0.00     0.023 A 
ATOM     91  C   UNL A   1      45.885  33.916  30.169  1.00  0.00     0.012 A 
ATOM     92  C   UNL A   1      44.733  34.927  28.278  1.00  0.00     0.148 A 
ATOM     93  C   UNL A   1      46.511  35.131  30.444  1.00  0.00     0.002 A 
ATOM     94  C   UNL A   1      45.396  36.122  28.532  1.00  0.00     0.091 A 
ATOM     95  F   UNL A   1      43.862  34.802  27.267  1.00  0.00    -0.205 F 
ATOM     96  C   UNL A   1      46.278  36.229  29.620  1.00  0.00     0.022 A 
BRANCH  94  97
ATOM     97  S   UNL A   1      45.231  37.560  27.466  1.00  0.00     0.127 S 
ATOM     98  O   UNL A   1      43.801  37.542  27.159  1.00  0.00    -0.237 OA
ATOM     99  O   UNL A   1      45.652  38.651  28.346  1.00  0.00    -0.237 OA
ATOM    100  O   UNL A   1      46.117  37.323  26.334  1.00  0.00    -0.744 OA
ENDBRANCH  94  97
ENDBRANCH  67  90
ENDBRANCH  41  42
ENDBRANCH  34  36
ENDBRANCH  33  34
ENDBRANCH  32  33
ENDBRANCH  31  32
ENDBRANCH  30  31
ENDBRANCH  29  30
ENDBRANCH   1  29
TORSDOF 26
ENDMDL
MODEL 2
REMARK VINA RESULT:      -9.4      2.072      3.056
REMARK SMILES CCC(CC)(NC(=O)NC[C@H](C)[NH+]1CCCCC1)C(=O)OCCOCCOCCOC(=O)c1ccc(-c2c3nc(c(-c4cccc(S(=O)(=O)[O-])c4F)c4ccc([nH]4)c(-c4cccc(S(=O)(=O)[O-])c4F)c4nc(c(-c5cccc(S(=O)(=O)[O-])c5F)c5ccc2[nH]5)C=C4)C=C3)cc1
REMARK SMILES IDX 25 1 24 2 23 3 22 4 21 5 19 6 20 7 3 8 2 9 1 10 4 11 5 12
REMARK SMILES IDX 6 13 7 14 8 16 9 17 10 19 11 20 12 21 13 22 14 23 18 24
REMARK SMILES IDX 15 26 17 27 16 28 26 29 27 30 28 31 29 32 30 33 31 34 32 35
REMARK SMILES IDX 33 36 34 37 95 38 35 39 94 40 36 41 37 42 38 43 88 44 39 45
REMARK SMILES IDX 93 46 87 47 89 48 40 49 92 50 86 51 85 52 41 54 73 55 53 56
REMARK SMILES IDX 72 57 54 58 57 59 71 60 90 61 55 62 56 63 70 65 91 66 58 67
REMARK SMILES IDX 42 68 43 69 51 70 44 71 46 72 52 73 45 74 47 75 48 76 49 77
REMARK SMILES IDX 50 78 74 79 75 80 83 81 76 82 78 83 84 84 77 85 79 86 80 87
REMARK SMILES IDX 81 88 82 89 59 90 60 91 68 92 61 93 63 94 69 95 62 96 64 97
REMARK SMILES IDX 65 98 66 99 67 100
REMARK H PARENT 6 15 9 18 13 25 89 53 57 64
REMARK Flexibility Score: inf
ROOT
ATOM      1  C   UNL A   1      35.617  21.847  24.330  1.00  0.00     0.188 C 
ENDROOT
BRANCH   1   2
ATOM      2  O   UNL A   1      34.961  21.121  25.363  1.00  0.00    -0.376 OA
BRANCH   2   3
ATOM      3  C   UNL A   1      33.562  21.378  25.461  1.00  0.00     0.202 C 
BRANCH   3   4
ATOM      4  C   UNL A   1      33.053  22.286  24.335  1.00  0.00     0.261 C 
BRANCH   4   5
ATOM      5  O   UNL A   1      32.763  23.599  24.861  1.00  0.00    -0.461 OA
BRANCH   5   6
ATOM      6  C   UNL A   1      33.154  24.669  24.138  1.00  0.00     0.331 C 
ATOM      7  O   UNL A   1      34.321  24.836  23.805  1.00  0.00    -0.249 OA
BRANCH   6   8
ATOM      8  C   UNL A   1      32.028  25.751  23.984  1.00  0.00     0.139 C 
BRANCH   8   9
ATOM      9  C   UNL A   1      31.058  25.553  25.218  1.00  0.00     0.037 C 
ATOM     10  C   UNL A   1      30.956  26.638  26.280  1.00  0.00     0.007 C 
ENDBRANCH   8   9
BRANCH   8  11
ATOM     11  C   UNL A   1      31.344  25.447  22.630  1.00  0.00     0.037 C 
ATOM     12  C   UNL A   1      32.059  25.970  21.393  1.00  0.00     0.007 C 
ENDBRANCH   8  11
BRANCH   8  13
ATOM     13  N   UNL A   1      32.348  27.235  24.085  1.00  0.00    -0.322 N 
ATOM     14  C   UNL A   1      31.954  28.490  24.012  1.00  0.00     0.315 C 
ATOM     15  H   UNL A   1      33.305  27.278  24.314  1.00  0.00     0.166 HD
ATOM     16  O   UNL A   1      32.808  29.320  24.355  1.00  0.00    -0.249 OA
ATOM     17  N   UNL A   1      30.822  28.985  23.549  1.00  0.00    -0.332 N 
ATOM     18  H   UNL A   1      30.848  29.966  23.470  1.00  0.00     0.165 HD
BRANCH  17  19
ATOM     19  C   UNL A   1      29.562  28.439  23.135  1.00  0.00     0.182 C 
BRANCH  19  20
ATOM     20  C   UNL A   1      28.213  29.244  23.342  1.00  0.00     0.200 C 
ATOM     21  C   UNL A   1      27.056  28.209  23.379  1.00  0.00     0.077 C 
BRANCH  20  22
ATOM     22  N   UNL A   1      27.871  30.526  22.642  1.00  0.00    -0.331 N 
ATOM     23  C   UNL A   1      28.453  31.752  23.190  1.00  0.00     0.262 C 
ATOM     24  C   UNL A   1      28.108  30.425  21.185  1.00  0.00     0.262 C 
ATOM     25  H   UNL A   1      26.873  30.633  22.823  1.00  0.00     0.348 HD
ATOM     26  C   UNL A   1      28.127  33.028  22.401  1.00  0.00     0.062 C 
ATOM     27  C   UNL A   1      27.687  31.659  20.396  1.00  0.00     0.062 C 
ATOM     28  C   UNL A   1      28.415  32.885  20.920  1.00  0.00     0.012 C 
ENDBRANCH  20  22
ENDBRANCH  19  20
ENDBRANCH  17  19
ENDBRANCH   8  13
ENDBRANCH   6   8
ENDBRANCH   5   6
ENDBRANCH   4   5
ENDBRANCH   3   4
ENDBRANCH   2   3
ENDBRANCH   1   2
BRANCH   1  29
ATOM     29  C   UNL A   1      37.127  21.731  24.379  1.00  0.00     0.188 C 
BRANCH  29  30
ATOM     30  O   UNL A   1      37.622  20.939  25.464  1.00  0.00    -0.376 OA
BRANCH  30  31
ATOM     31  C   UNL A   1      38.117  19.664  25.022  1.00  0.00     0.202 C 
BRANCH  31  32
ATOM     32  C   UNL A   1      39.367  19.148  25.761  1.00  0.00     0.261 C 
BRANCH  32  33
ATOM     33  O   UNL A   1      40.308  20.222  25.947  1.00  0.00    -0.460 OA
BRANCH  33  34
ATOM     34  C   UNL A   1      40.749  20.414  27.225  1.00  0.00     0.338 C 
ATOM     35  O   UNL A   1      41.054  19.560  28.020  1.00  0.00    -0.246 OA
BRANCH  34  36
ATOM     36  C   UNL A   1      41.050  21.867  27.385  1.00  0.00     0.060 A 
ATOM     37  C   UNL A   1      40.389  22.777  26.543  1.00  0.00     0.016 A 
ATOM     38  C   UNL A   1      41.858  22.339  28.423  1.00  0.00     0.016 A 
ATOM     39  C   UNL A   1      40.544  24.155  26.733  1.00  0.00     0.010 A 
ATOM     40  C   UNL A   1      42.020  23.714  28.606  1.00  0.00     0.010 A 
ATOM     41  C   UNL A   1      41.379  24.630  27.753  1.00  0.00    -0.014 A 
BRANCH  41  42
ATOM     42  C   UNL A   1      41.732  26.068  27.861  1.00  0.00     0.031 A 
ATOM     43  C   UNL A   1      43.110  26.489  27.433  1.00  0.00     0.074 A 
ATOM     44  C   UNL A   1      40.897  26.957  28.429  1.00  0.00     0.049 A 
ATOM     45  N   UNL A   1      43.704  27.644  27.573  1.00  0.00    -0.248 NA
ATOM     46  C   UNL A   1      43.934  25.462  26.770  1.00  0.00     0.031 C 
ATOM     47  C   UNL A   1      39.542  26.672  28.900  1.00  0.00     0.029 A 
ATOM     48  N   UNL A   1      41.094  28.279  28.755  1.00  0.00    -0.354 N 
ATOM     49  C   UNL A   1      44.982  27.475  27.054  1.00  0.00     0.074 A 
ATOM     50  C   UNL A   1      45.076  26.109  26.588  1.00  0.00     0.031 C 
ATOM     51  C   UNL A   1      39.050  27.770  29.502  1.00  0.00     0.029 A 
ATOM     52  C   UNL A   1      40.063  28.824  29.486  1.00  0.00     0.049 A 
ATOM     53  H   UNL A   1      41.895  28.786  28.490  1.00  0.00     0.167 HD
ATOM     54  C   UNL A   1      45.986  28.377  26.969  1.00  0.00     0.034 A 
ATOM     55  C   UNL A   1      39.968  30.020  30.105  1.00  0.00     0.034 A 
ATOM     56  C   UNL A   1      45.889  29.740  27.408  1.00  0.00     0.049 A 
ATOM     57  C   UNL A   1      41.117  30.997  30.015  1.00  0.00     0.074 A 
ATOM     58  C   UNL A   1      46.825  30.750  27.280  1.00  0.00     0.029 A 
ATOM     59  N   UNL A   1      44.806  30.276  28.082  1.00  0.00    -0.354 N 
ATOM     60  N   UNL A   1      42.252  30.882  29.370  1.00  0.00    -0.248 NA
ATOM     61  C   UNL A   1      40.962  32.277  30.725  1.00  0.00     0.031 C 
ATOM     62  C   UNL A   1      46.316  31.894  27.902  1.00  0.00     0.029 A 
ATOM     63  C   UNL A   1      45.059  31.597  28.403  1.00  0.00     0.049 A 
ATOM     64  H   UNL A   1      43.978  29.790  28.301  1.00  0.00     0.167 HD
ATOM     65  C   UNL A   1      42.933  32.079  29.575  1.00  0.00     0.074 A 
ATOM     66  C   UNL A   1      42.073  32.917  30.381  1.00  0.00     0.031 C 
ATOM     67  C   UNL A   1      44.170  32.443  29.155  1.00  0.00     0.034 A 
BRANCH  54  68
ATOM     68  C   UNL A   1      47.278  27.928  26.347  1.00  0.00     0.023 A 
ATOM     69  C   UNL A   1      48.308  27.434  27.170  1.00  0.00     0.012 A 
ATOM     70  C   UNL A   1      47.439  27.925  24.947  1.00  0.00     0.148 A 
ATOM     71  C   UNL A   1      49.491  26.956  26.610  1.00  0.00     0.002 A 
ATOM     72  C   UNL A   1      48.608  27.415  24.395  1.00  0.00     0.091 A 
ATOM     73  F   UNL A   1      46.453  28.424  24.190  1.00  0.00    -0.205 F 
ATOM     74  C   UNL A   1      49.635  26.935  25.224  1.00  0.00     0.022 A 
BRANCH  72  75
ATOM     75  S   UNL A   1      48.868  27.288  22.623  1.00  0.00     0.127 S 
ATOM     76  O   UNL A   1      48.050  28.393  22.126  1.00  0.00    -0.237 OA
ATOM     77  O   UNL A   1      50.312  27.498  22.511  1.00  0.00    -0.237 OA
ATOM     78  O   UNL A   1      48.414  25.959  22.242  1.00  0.00    -0.744 OA
ENDBRANCH  72  75
ENDBRANCH  54  68
BRANCH  55  79
ATOM     79  C   UNL A   1      38.740  30.380  30.873  1.00  0.00     0.023 A 
ATOM     80  C   UNL A   1      38.591  29.919  32.195  1.00  0.00     0.012 A 
ATOM     81  C   UNL A   1      37.709  31.145  30.295  1.00  0.00     0.148 A 
ATOM     82  C   UNL A   1      37.425  30.182  32.916  1.00  0.00     0.002 A 
ATOM     83  C   UNL A   1      36.570  31.447  31.035  1.00  0.00     0.091 A 
ATOM     84  F   UNL A   1      37.849  31.549  29.024  1.00  0.00    -0.205 F 
ATOM     85  C   UNL A   1      36.419  30.954  32.339  1.00  0.00     0.022 A 
BRANCH  83  86
ATOM     86  S   UNL A   1      35.278  32.524  30.399  1.00  0.00     0.127 S 
ATOM     87  O   UNL A   1      36.028  33.738  30.088  1.00  0.00    -0.237 OA
ATOM     88  O   UNL A   1      34.800  31.781  29.232  1.00  0.00    -0.237 OA
ATOM     89  O   UNL A   1      34.304  32.631  31.477  1.00  0.00    -0.744 OA
ENDBRANCH  83  86
ENDBRANCH  55  79
BRANCH  67  90
ATOM     90  C   UNL A   1      44.676  33.810  29.538  1.00  0.00     0.023 A 
ATOM     91  C   UNL A   1      45.455  33.957  30.703  1.00  0.00     0.012 A 
ATOM     92  C   UNL A   1      44.473  34.921  28.696  1.00  0.00     0.148 A 
ATOM     93  C   UNL A   1      46.007  35.193  31.033  1.00  0.00     0.002 A 
ATOM     94  C   UNL A   1      45.064  36.140  29.009  1.00  0.00     0.091 A 
ATOM     95  F   UNL A   1      43.716  34.763  27.600  1.00  0.00    -0.205 F 
ATOM     96  C   UNL A   1      45.823  36.280  30.182  1.00  0.00     0.022 A 
BRANCH  94  97
ATOM     97  S   UNL A   1      44.962  37.568  27.922  1.00  0.00     0.127 S 
ATOM     98  O   UNL A   1      45.541  37.044  26.686  1.00  0.00    -0.237 OA
ATOM     99  O   UNL A   1      43.519  37.812  27.863  1.00  0.00    -0.237 OA
ATOM    100  O   UNL A   1      45.725  38.623  28.574  1.00  0.00    -0.744 OA
ENDBRANCH  94  97
ENDBRANCH  67  90
ENDBRANCH  41  42
ENDBRANCH  34  36
ENDBRANCH  33  34
ENDBRANCH  32  33
ENDBRANCH  31  32
ENDBRANCH  30  31
ENDBRANCH  29  30
ENDBRANCH   1  29
TORSDOF 26
ENDMDL
MODEL 3
REMARK VINA RESULT:      -9.0      1.968      2.852
REMARK SMILES CCC(CC)(NC(=O)NC[C@H](C)[NH+]1CCCCC1)C(=O)OCCOCCOCCOC(=O)c1ccc(-c2c3nc(c(-c4cccc(S(=O)(=O)[O-])c4F)c4ccc([nH]4)c(-c4cccc(S(=O)(=O)[O-])c4F)c4nc(c(-c5cccc(S(=O)(=O)[O-])c5F)c5ccc2[nH]5)C=C4)C=C3)cc1
REMARK SMILES IDX 25 1 24 2 23 3 22 4 21 5 19 6 20 7 3 8 2 9 1 10 4 11 5 12
REMARK SMILES IDX 6 13 7 14 8 16 9 17 10 19 11 20 12 21 13 22 14 23 18 24
REMARK SMILES IDX 15 26 17 27 16 28 26 29 27 30 28 31 29 32 30 33 31 34 32 35
REMARK SMILES IDX 33 36 34 37 95 38 35 39 94 40 36 41 37 42 38 43 88 44 39 45
REMARK SMILES IDX 93 46 87 47 89 48 40 49 92 50 86 51 85 52 41 54 73 55 53 56
REMARK SMILES IDX 72 57 54 58 57 59 71 60 90 61 55 62 56 63 70 65 91 66 58 67
REMARK SMILES IDX 42 68 43 69 51 70 44 71 46 72 52 73 45 74 47 75 48 76 49 77
REMARK SMILES IDX 50 78 74 79 75 80 83 81 76 82 78 83 84 84 77 85 79 86 80 87
REMARK SMILES IDX 81 88 82 89 59 90 60 91 68 92 61 93 63 94 69 95 62 96 64 97
REMARK SMILES IDX 65 98 66 99 67 100
REMARK H PARENT 6 15 9 18 13 25 89 53 57 64
REMARK Flexibility Score: inf
ROOT
ATOM      1  C   UNL A   1      34.944  21.591  24.671  1.00  0.00     0.188 C 
ENDROOT
BRANCH   1   2
ATOM      2  O   UNL A   1      34.524  20.456  25.419  1.00  0.00    -0.376 OA
BRANCH   2   3
ATOM      3  C   UNL A   1      33.460  20.717  26.330  1.00  0.00     0.202 C 
BRANCH   3   4
ATOM      4  C   UNL A   1      33.127  22.210  26.430  1.00  0.00     0.261 C 
BRANCH   4   5
ATOM      5  O   UNL A   1      31.913  22.489  25.699  1.00  0.00    -0.461 OA
BRANCH   5   6
ATOM      6  C   UNL A   1      31.190  23.568  26.065  1.00  0.00     0.331 C 
ATOM      7  O   UNL A   1      30.637  23.641  27.156  1.00  0.00    -0.249 OA
BRANCH   6   8
ATOM      8  C   UNL A   1      30.952  24.576  24.886  1.00  0.00     0.139 C 
BRANCH   8   9
ATOM      9  C   UNL A   1      31.009  23.718  23.557  1.00  0.00     0.037 C 
ATOM     10  C   UNL A   1      32.334  23.533  22.834  1.00  0.00     0.007 C 
ENDBRANCH   8   9
BRANCH   8  11
ATOM     11  C   UNL A   1      32.104  25.605  24.983  1.00  0.00     0.037 C 
ATOM     12  C   UNL A   1      32.307  26.248  26.346  1.00  0.00     0.007 C 
ENDBRANCH   8  11
BRANCH   8  13
ATOM     13  N   UNL A   1      29.621  25.296  24.726  1.00  0.00    -0.322 N 
ATOM     14  C   UNL A   1      28.895  26.226  24.139  1.00  0.00     0.315 C 
ATOM     15  H   UNL A   1      29.014  24.859  25.366  1.00  0.00     0.166 HD
ATOM     16  O   UNL A   1      27.694  26.210  24.443  1.00  0.00    -0.249 OA
ATOM     17  N   UNL A   1      29.279  27.212  23.351  1.00  0.00    -0.332 N 
ATOM     18  H   UNL A   1      28.553  27.853  23.174  1.00  0.00     0.165 HD
BRANCH  17  19
ATOM     19  C   UNL A   1      30.498  27.576  22.690  1.00  0.00     0.182 C 
BRANCH  19  20
ATOM     20  C   UNL A   1      31.087  29.042  22.806  1.00  0.00     0.200 C 
ATOM     21  C   UNL A   1      32.005  29.076  24.058  1.00  0.00     0.077 C 
BRANCH  20  22
ATOM     22  N   UNL A   1      30.294  30.297  22.588  1.00  0.00    -0.331 N 
ATOM     23  C   UNL A   1      29.377  30.308  21.447  1.00  0.00     0.262 C 
ATOM     24  C   UNL A   1      29.612  30.726  23.828  1.00  0.00     0.262 C 
ATOM     25  H   UNL A   1      31.005  30.982  22.329  1.00  0.00     0.348 HD
ATOM     26  C   UNL A   1      28.541  31.588  21.305  1.00  0.00     0.062 C 
ATOM     27  C   UNL A   1      28.868  32.051  23.706  1.00  0.00     0.062 C 
ATOM     28  C   UNL A   1      27.839  31.969  22.593  1.00  0.00     0.012 C 
ENDBRANCH  20  22
ENDBRANCH  19  20
ENDBRANCH  17  19
ENDBRANCH   8  13
ENDBRANCH   6   8
ENDBRANCH   5   6
ENDBRANCH   4   5
ENDBRANCH   3   4
ENDBRANCH   2   3
ENDBRANCH   1   2
BRANCH   1  29
ATOM     29  C   UNL A   1      36.450  21.746  24.607  1.00  0.00     0.188 C 
BRANCH  29  30
ATOM     30  O   UNL A   1      37.165  20.934  25.544  1.00  0.00    -0.376 OA
BRANCH  30  31
ATOM     31  C   UNL A   1      37.904  19.884  24.899  1.00  0.00     0.202 C 
BRANCH  31  32
ATOM     32  C   UNL A   1      39.181  19.428  25.631  1.00  0.00     0.261 C 
BRANCH  32  33
ATOM     33  O   UNL A   1      40.055  20.552  25.847  1.00  0.00    -0.460 OA
BRANCH  33  34
ATOM     34  C   UNL A   1      40.581  20.666  27.101  1.00  0.00     0.338 C 
ATOM     35  O   UNL A   1      40.895  19.764  27.838  1.00  0.00    -0.246 OA
BRANCH  34  36
ATOM     36  C   UNL A   1      40.958  22.096  27.304  1.00  0.00     0.060 A 
ATOM     37  C   UNL A   1      41.702  22.429  28.448  1.00  0.00     0.016 A 
ATOM     38  C   UNL A   1      40.705  23.066  26.331  1.00  0.00     0.016 A 
ATOM     39  C   UNL A   1      42.183  23.732  28.623  1.00  0.00     0.010 A 
ATOM     40  C   UNL A   1      41.177  24.368  26.511  1.00  0.00     0.010 A 
ATOM     41  C   UNL A   1      41.904  24.714  27.664  1.00  0.00    -0.014 A 
BRANCH  41  42
ATOM     42  C   UNL A   1      42.215  26.145  27.905  1.00  0.00     0.031 A 
ATOM     43  C   UNL A   1      43.641  26.593  27.742  1.00  0.00     0.074 A 
ATOM     44  C   UNL A   1      41.284  27.001  28.366  1.00  0.00     0.049 A 
ATOM     45  N   UNL A   1      44.187  27.742  28.041  1.00  0.00    -0.248 NA
ATOM     46  C   UNL A   1      44.579  25.606  27.178  1.00  0.00     0.031 C 
ATOM     47  C   UNL A   1      39.873  26.686  28.582  1.00  0.00     0.029 A 
ATOM     48  N   UNL A   1      41.406  28.304  28.788  1.00  0.00    -0.354 N 
ATOM     49  C   UNL A   1      45.537  27.605  27.741  1.00  0.00     0.074 A 
ATOM     50  C   UNL A   1      45.727  26.266  27.228  1.00  0.00     0.031 C 
ATOM     51  C   UNL A   1      39.271  27.749  29.147  1.00  0.00     0.029 A 
ATOM     52  C   UNL A   1      40.259  28.806  29.359  1.00  0.00     0.049 A 
ATOM     53  H   UNL A   1      42.234  28.827  28.692  1.00  0.00     0.167 HD
ATOM     54  C   UNL A   1      46.529  28.513  27.875  1.00  0.00     0.034 A 
ATOM     55  C   UNL A   1      40.044  29.967  30.014  1.00  0.00     0.034 A 
ATOM     56  C   UNL A   1      46.342  29.851  28.361  1.00  0.00     0.049 A 
ATOM     57  C   UNL A   1      41.179  30.951  30.172  1.00  0.00     0.074 A 
ATOM     58  C   UNL A   1      47.273  30.870  28.447  1.00  0.00     0.029 A 
ATOM     59  N   UNL A   1      45.153  30.347  28.866  1.00  0.00    -0.354 N 
ATOM     60  N   UNL A   1      42.409  30.875  29.726  1.00  0.00    -0.248 NA
ATOM     61  C   UNL A   1      40.889  32.192  30.910  1.00  0.00     0.031 C 
ATOM     62  C   UNL A   1      46.651  31.978  29.031  1.00  0.00     0.029 A 
ATOM     63  C   UNL A   1      45.331  31.650  29.293  1.00  0.00     0.049 A 
ATOM     64  H   UNL A   1      44.306  29.847  28.914  1.00  0.00     0.167 HD
ATOM     65  C   UNL A   1      43.029  32.061  30.106  1.00  0.00     0.074 A 
ATOM     66  C   UNL A   1      42.033  32.853  30.795  1.00  0.00     0.031 C 
ATOM     67  C   UNL A   1      44.316  32.452  29.924  1.00  0.00     0.034 A 
BRANCH  54  68
ATOM     68  C   UNL A   1      47.914  28.103  27.462  1.00  0.00     0.023 A 
ATOM     69  C   UNL A   1      48.327  28.303  26.131  1.00  0.00     0.012 A 
ATOM     70  C   UNL A   1      48.826  27.593  28.407  1.00  0.00     0.148 A 
ATOM     71  C   UNL A   1      49.627  27.988  25.740  1.00  0.00     0.002 A 
ATOM     72  C   UNL A   1      50.130  27.313  28.017  1.00  0.00     0.091 A 
ATOM     73  F   UNL A   1      48.399  27.389  29.660  1.00  0.00    -0.205 F 
ATOM     74  C   UNL A   1      50.530  27.505  26.684  1.00  0.00     0.022 A 
BRANCH  72  75
ATOM     75  S   UNL A   1      51.385  26.745  29.168  1.00  0.00     0.127 S 
ATOM     76  O   UNL A   1      52.496  26.443  28.266  1.00  0.00    -0.237 OA
ATOM     77  O   UNL A   1      51.585  27.925  30.009  1.00  0.00    -0.237 OA
ATOM     78  O   UNL A   1      50.814  25.596  29.855  1.00  0.00    -0.744 OA
ENDBRANCH  72  75
ENDBRANCH  54  68
BRANCH  55  79
ATOM     79  C   UNL A   1      38.698  30.281  30.577  1.00  0.00     0.023 A 
ATOM     80  C   UNL A   1      38.328  29.745  31.825  1.00  0.00     0.012 A 
ATOM     81  C   UNL A   1      37.774  31.078  29.874  1.00  0.00     0.148 A 
ATOM     82  C   UNL A   1      37.052  29.966  32.347  1.00  0.00     0.002 A 
ATOM     83  C   UNL A   1      36.521  31.336  30.422  1.00  0.00     0.091 A 
ATOM     84  F   UNL A   1      38.127  31.555  28.671  1.00  0.00    -0.205 F 
ATOM     85  C   UNL A   1      36.153  30.768  31.650  1.00  0.00     0.022 A 
BRANCH  83  86
ATOM     86  S   UNL A   1      35.347  32.447  29.635  1.00  0.00     0.127 S 
ATOM     87  O   UNL A   1      36.178  33.618  29.367  1.00  0.00    -0.237 OA
ATOM     88  O   UNL A   1      34.951  31.690  28.446  1.00  0.00    -0.237 OA
ATOM     89  O   UNL A   1      34.279  32.629  30.609  1.00  0.00    -0.744 OA
ENDBRANCH  83  86
ENDBRANCH  55  79
BRANCH  67  90
ATOM     90  C   UNL A   1      44.731  33.799  30.458  1.00  0.00     0.023 A 
ATOM     91  C   UNL A   1      45.378  33.877  31.707  1.00  0.00     0.012 A 
ATOM     92  C   UNL A   1      44.579  34.965  29.682  1.00  0.00     0.148 A 
ATOM     93  C   UNL A   1      45.850  35.098  32.185  1.00  0.00     0.002 A 
ATOM     94  C   UNL A   1      45.092  36.171  30.145  1.00  0.00     0.091 A 
ATOM     95  F   UNL A   1      43.948  34.871  28.503  1.00  0.00    -0.205 F 
ATOM     96  C   UNL A   1      45.719  36.242  31.400  1.00  0.00     0.022 A 
BRANCH  94  97
ATOM     97  S   UNL A   1      45.056  37.675  29.161  1.00  0.00     0.127 S 
ATOM     98  O   UNL A   1      43.816  38.302  29.619  1.00  0.00    -0.237 OA
ATOM     99  O   UNL A   1      46.278  38.358  29.588  1.00  0.00    -0.237 OA
ATOM    100  O   UNL A   1      45.062  37.243  27.770  1.00  0.00    -0.744 OA
ENDBRANCH  94  97
ENDBRANCH  67  90
ENDBRANCH  41  42
ENDBRANCH  34  36
ENDBRANCH  33  34
ENDBRANCH  32  33
ENDBRANCH  31  32
ENDBRANCH  30  31
ENDBRANCH  29  30
ENDBRANCH   1  29
TORSDOF 26
ENDMDL
