MODEL 1
REMARK VINA RESULT:     -10.6      0.000      0.000
REMARK SMILES Cc1nn(-c2cc(Cl)ccc2Cl)nc1C(=O)OCCOCCOCCOC(=O)c1ccc(-c2c3nc(c(-c4cccc(S(=O)(=O)[O-])c4F)c4ccc([nH]4)c(-c4cccc(S(=O)(=O)[O-])c4F)c4nc(c(-c5cccc(S(=O)(=O)[O-])c5F)c5ccc2[nH]5)C=C4)C=C3)cc1
REMARK SMILES IDX 22 1 21 2 20 3 19 4 18 5 17 6 15 7 16 8 14 9 1 10 2 11 3 12
REMARK SMILES IDX 4 13 13 14 5 15 6 16 11 17 7 18 10 19 12 20 8 21 9 22 23 23
REMARK SMILES IDX 24 24 25 25 26 26 27 27 28 28 29 29 30 30 91 31 31 32 90 33
REMARK SMILES IDX 32 34 33 35 34 36 84 37 35 38 89 39 83 40 85 41 36 42 88 43
REMARK SMILES IDX 82 44 81 45 37 47 69 48 49 49 68 50 50 51 53 52 67 53 86 54
REMARK SMILES IDX 51 55 52 56 66 58 87 59 54 60 38 61 39 62 47 63 40 64 42 65
REMARK SMILES IDX 48 66 41 67 43 68 44 69 45 70 46 71 70 72 71 73 79 74 72 75
REMARK SMILES IDX 74 76 80 77 73 78 75 79 76 80 77 81 78 82 55 83 56 84 64 85
REMARK SMILES IDX 57 86 59 87 65 88 58 89 60 90 61 91 62 92 63 93
REMARK H PARENT 85 46 53 57
REMARK Flexibility Score: inf
ROOT
ATOM      1  C   UNL A   1      42.274  20.715  26.005  1.00  0.00     0.188 C 
ENDROOT
BRANCH   1   2
ATOM      2  C   UNL A   1      40.863  20.464  26.590  1.00  0.00     0.188 C 
BRANCH   2   3
ATOM      3  O   UNL A   1      40.057  21.519  27.097  1.00  0.00    -0.376 OA
BRANCH   3   4
ATOM      4  C   UNL A   1      39.220  22.261  26.227  1.00  0.00     0.202 C 
BRANCH   4   5
ATOM      5  C   UNL A   1      38.094  21.526  25.476  1.00  0.00     0.261 C 
BRANCH   5   6
ATOM      6  O   UNL A   1      36.808  22.167  25.527  1.00  0.00    -0.458 OA
BRANCH   6   7
ATOM      7  C   UNL A   1      36.330  22.643  24.335  1.00  0.00     0.360 C 
ATOM      8  O   UNL A   1      36.927  22.565  23.278  1.00  0.00    -0.244 OA
BRANCH   7   9
ATOM      9  C   UNL A   1      34.957  23.155  24.453  1.00  0.00     0.193 A 
ATOM     10  C   UNL A   1      33.403  21.038  24.293  1.00  0.00     0.071 C 
ATOM     11  C   UNL A   1      33.705  22.484  24.421  1.00  0.00     0.095 A 
ATOM     12  N   UNL A   1      32.707  23.382  24.496  1.00  0.00    -0.153 NA
ATOM     13  N   UNL A   1      33.383  24.548  24.564  1.00  0.00    -0.149 N 
ATOM     14  N   UNL A   1      34.723  24.481  24.516  1.00  0.00    -0.141 NA
BRANCH  13  15
ATOM     15  C   UNL A   1      32.741  25.788  24.651  1.00  0.00     0.106 A 
ATOM     16  C   UNL A   1      32.538  26.358  25.917  1.00  0.00     0.052 A 
ATOM     17  C   UNL A   1      32.197  26.366  23.501  1.00  0.00     0.068 A 
ATOM     18  C   UNL A   1      31.788  27.528  26.016  1.00  0.00     0.043 A 
ATOM     19  C   UNL A   1      31.431  27.528  23.623  1.00  0.00     0.024 A 
ATOM     20  Cl  UNL A   1      32.374  25.674  21.929  1.00  0.00    -0.082 Cl
ATOM     21  Cl  UNL A   1      31.531  28.258  27.552  1.00  0.00    -0.084 Cl
ATOM     22  C   UNL A   1      31.226  28.109  24.878  1.00  0.00     0.022 A 
ENDBRANCH  13  15
ENDBRANCH   7   9
ENDBRANCH   6   7
ENDBRANCH   5   6
ENDBRANCH   4   5
ENDBRANCH   3   4
ENDBRANCH   2   3
ENDBRANCH   1   2
BRANCH   1  23
ATOM     23  O   UNL A   1      42.674  22.074  25.877  1.00  0.00    -0.376 OA
BRANCH  23  24
ATOM     24  C   UNL A   1      43.306  22.663  27.011  1.00  0.00     0.202 C 
BRANCH  24  25
ATOM     25  C   UNL A   1      43.178  24.183  27.121  1.00  0.00     0.261 C 
BRANCH  25  26
ATOM     26  O   UNL A   1      41.854  24.646  26.919  1.00  0.00    -0.460 OA
BRANCH  26  27
ATOM     27  C   UNL A   1      41.731  25.693  26.081  1.00  0.00     0.338 C 
ATOM     28  O   UNL A   1      42.361  25.891  25.056  1.00  0.00    -0.246 OA
BRANCH  27  29
ATOM     29  C   UNL A   1      40.715  26.599  26.629  1.00  0.00     0.060 A 
ATOM     30  C   UNL A   1      40.819  27.933  26.236  1.00  0.00     0.016 A 
ATOM     31  C   UNL A   1      40.004  26.196  27.769  1.00  0.00     0.016 A 
ATOM     32  C   UNL A   1      40.532  28.883  27.180  1.00  0.00     0.010 A 
ATOM     33  C   UNL A   1      39.741  27.143  28.721  1.00  0.00     0.010 A 
ATOM     34  C   UNL A   1      40.143  28.446  28.449  1.00  0.00    -0.014 A 
BRANCH  34  35
ATOM     35  C   UNL A   1      40.328  29.373  29.535  1.00  0.00     0.031 A 
ATOM     36  C   UNL A   1      39.186  30.257  29.784  1.00  0.00     0.074 A 
ATOM     37  C   UNL A   1      41.462  29.381  30.257  1.00  0.00     0.049 A 
ATOM     38  N   UNL A   1      39.138  31.533  29.606  1.00  0.00    -0.248 NA
ATOM     39  C   UNL A   1      37.908  29.628  30.132  1.00  0.00     0.031 C 
ATOM     40  C   UNL A   1      42.528  28.374  30.285  1.00  0.00     0.029 A 
ATOM     41  N   UNL A   1      41.816  30.243  31.246  1.00  0.00    -0.354 N 
ATOM     42  C   UNL A   1      37.864  31.904  30.011  1.00  0.00     0.074 A 
ATOM     43  C   UNL A   1      37.103  30.688  30.150  1.00  0.00     0.031 C 
ATOM     44  C   UNL A   1      43.249  28.541  31.416  1.00  0.00     0.029 A 
ATOM     45  C   UNL A   1      42.768  29.725  32.108  1.00  0.00     0.049 A 
ATOM     46  H   UNL A   1      41.434  31.145  31.340  1.00  0.00     0.167 HD
ATOM     47  C   UNL A   1      37.588  33.169  30.416  1.00  0.00     0.034 A 
ATOM     48  C   UNL A   1      43.030  30.180  33.355  1.00  0.00     0.034 A 
ATOM     49  C   UNL A   1      38.628  34.095  30.054  1.00  0.00     0.049 A 
ATOM     50  C   UNL A   1      42.525  31.574  33.440  1.00  0.00     0.074 A 
ATOM     51  C   UNL A   1      39.183  34.517  28.862  1.00  0.00     0.029 A 
ATOM     52  N   UNL A   1      39.506  34.474  31.040  1.00  0.00    -0.354 N 
ATOM     53  N   UNL A   1      43.041  32.573  32.776  1.00  0.00    -0.248 NA
ATOM     54  C   UNL A   1      41.176  31.795  33.938  1.00  0.00     0.031 C 
ATOM     55  C   UNL A   1      40.561  34.735  29.150  1.00  0.00     0.029 A 
ATOM     56  C   UNL A   1      40.766  34.449  30.502  1.00  0.00     0.049 A 
ATOM     57  H   UNL A   1      39.273  34.719  31.965  1.00  0.00     0.167 HD
ATOM     58  C   UNL A   1      41.950  33.347  32.398  1.00  0.00     0.074 A 
ATOM     59  C   UNL A   1      40.852  32.892  33.247  1.00  0.00     0.031 C 
ATOM     60  C   UNL A   1      41.959  34.068  31.234  1.00  0.00     0.034 A 
BRANCH  47  61
ATOM     61  C   UNL A   1      36.516  33.519  31.406  1.00  0.00     0.023 A 
ATOM     62  C   UNL A   1      36.579  32.911  32.675  1.00  0.00     0.012 A 
ATOM     63  C   UNL A   1      35.334  34.222  31.080  1.00  0.00     0.148 A 
ATOM     64  C   UNL A   1      35.508  32.983  33.570  1.00  0.00     0.002 A 
ATOM     65  C   UNL A   1      34.312  34.369  32.007  1.00  0.00     0.091 A 
ATOM     66  F   UNL A   1      35.121  34.638  29.827  1.00  0.00    -0.205 F 
ATOM     67  C   UNL A   1      34.379  33.727  33.244  1.00  0.00     0.022 A 
BRANCH  65  68
ATOM     68  S   UNL A   1      32.885  35.394  31.641  1.00  0.00     0.127 S 
ATOM     69  O   UNL A   1      33.450  36.736  31.737  1.00  0.00    -0.237 OA
ATOM     70  O   UNL A   1      32.534  34.965  30.287  1.00  0.00    -0.237 OA
ATOM     71  O   UNL A   1      31.896  35.031  32.651  1.00  0.00    -0.744 OA
ENDBRANCH  65  68
ENDBRANCH  47  61
BRANCH  48  72
ATOM     72  C   UNL A   1      43.432  29.392  34.542  1.00  0.00     0.023 A 
ATOM     73  C   UNL A   1      44.528  29.807  35.318  1.00  0.00     0.012 A 
ATOM     74  C   UNL A   1      42.609  28.361  35.053  1.00  0.00     0.148 A 
ATOM     75  C   UNL A   1      44.790  29.224  36.565  1.00  0.00     0.002 A 
ATOM     76  C   UNL A   1      42.890  27.765  36.278  1.00  0.00     0.091 A 
ATOM     77  F   UNL A   1      41.492  28.027  34.393  1.00  0.00    -0.205 F 
ATOM     78  C   UNL A   1      43.974  28.201  37.044  1.00  0.00     0.022 A 
BRANCH  76  79
ATOM     79  S   UNL A   1      41.870  26.433  36.929  1.00  0.00     0.127 S 
ATOM     80  O   UNL A   1      42.646  25.988  38.088  1.00  0.00    -0.237 OA
ATOM     81  O   UNL A   1      40.629  27.130  37.252  1.00  0.00    -0.237 OA
ATOM     82  O   UNL A   1      41.791  25.447  35.857  1.00  0.00    -0.744 OA
ENDBRANCH  76  79
ENDBRANCH  48  72
BRANCH  60  83
ATOM     83  C   UNL A   1      43.264  34.194  30.480  1.00  0.00     0.023 A 
ATOM     84  C   UNL A   1      44.187  35.219  30.780  1.00  0.00     0.012 A 
ATOM     85  C   UNL A   1      43.663  33.165  29.610  1.00  0.00     0.148 A 
ATOM     86  C   UNL A   1      45.461  35.236  30.207  1.00  0.00     0.002 A 
ATOM     87  C   UNL A   1      44.950  33.157  29.079  1.00  0.00     0.091 A 
ATOM     88  F   UNL A   1      42.786  32.186  29.337  1.00  0.00    -0.205 F 
ATOM     89  C   UNL A   1      45.848  34.196  29.368  1.00  0.00     0.022 A 
BRANCH  87  90
ATOM     90  S   UNL A   1      45.558  31.772  28.111  1.00  0.00     0.127 S 
ATOM     91  O   UNL A   1      47.005  31.963  28.175  1.00  0.00    -0.237 OA
ATOM     92  O   UNL A   1      45.062  30.616  28.861  1.00  0.00    -0.237 OA
ATOM     93  O   UNL A   1      44.958  31.920  26.791  1.00  0.00    -0.744 OA
ENDBRANCH  87  90
ENDBRANCH  60  83
ENDBRANCH  34  35
ENDBRANCH  27  29
ENDBRANCH  26  27
ENDBRANCH  25  26
ENDBRANCH  24  25
ENDBRANCH  23  24
ENDBRANCH   1  23
TORSDOF 21
ENDMDL
MODEL 2
REMARK VINA RESULT:     -10.3      2.426      6.840
REMARK SMILES Cc1nn(-c2cc(Cl)ccc2Cl)nc1C(=O)OCCOCCOCCOC(=O)c1ccc(-c2c3nc(c(-c4cccc(S(=O)(=O)[O-])c4F)c4ccc([nH]4)c(-c4cccc(S(=O)(=O)[O-])c4F)c4nc(c(-c5cccc(S(=O)(=O)[O-])c5F)c5ccc2[nH]5)C=C4)C=C3)cc1
REMARK SMILES IDX 22 1 21 2 20 3 19 4 18 5 17 6 15 7 16 8 14 9 1 10 2 11 3 12
REMARK SMILES IDX 4 13 13 14 5 15 6 16 11 17 7 18 10 19 12 20 8 21 9 22 23 23
REMARK SMILES IDX 24 24 25 25 26 26 27 27 28 28 29 29 30 30 91 31 31 32 90 33
REMARK SMILES IDX 32 34 33 35 34 36 84 37 35 38 89 39 83 40 85 41 36 42 88 43
REMARK SMILES IDX 82 44 81 45 37 47 69 48 49 49 68 50 50 51 53 52 67 53 86 54
REMARK SMILES IDX 51 55 52 56 66 58 87 59 54 60 38 61 39 62 47 63 40 64 42 65
REMARK SMILES IDX 48 66 41 67 43 68 44 69 45 70 46 71 70 72 71 73 79 74 72 75
REMARK SMILES IDX 74 76 80 77 73 78 75 79 76 80 77 81 78 82 55 83 56 84 64 85
REMARK SMILES IDX 57 86 59 87 65 88 58 89 60 90 61 91 62 92 63 93
REMARK H PARENT 85 46 53 57
REMARK Flexibility Score: inf
ROOT
ATOM      1  C   UNL A   1      39.585  21.311  26.356  1.00  0.00     0.188 C 
ENDROOT
BRANCH   1   2
ATOM      2  C   UNL A   1      38.425  21.604  25.374  1.00  0.00     0.188 C 
BRANCH   2   3
ATOM      3  O   UNL A   1      37.141  22.015  25.823  1.00  0.00    -0.376 OA
BRANCH   3   4
ATOM      4  C   UNL A   1      35.988  21.734  25.047  1.00  0.00     0.202 C 
BRANCH   4   5
ATOM      5  C   UNL A   1      34.899  22.815  24.921  1.00  0.00     0.261 C 
BRANCH   5   6
ATOM      6  O   UNL A   1      34.354  22.980  23.600  1.00  0.00    -0.458 OA
BRANCH   6   7
ATOM      7  C   UNL A   1      33.013  22.728  23.471  1.00  0.00     0.360 C 
ATOM      8  O   UNL A   1      32.551  21.748  22.918  1.00  0.00    -0.244 OA
BRANCH   7   9
ATOM      9  C   UNL A   1      32.192  23.718  24.182  1.00  0.00     0.193 A 
ATOM     10  C   UNL A   1      30.880  22.357  26.012  1.00  0.00     0.071 C 
ATOM     11  C   UNL A   1      31.270  23.570  25.253  1.00  0.00     0.095 A 
ATOM     12  N   UNL A   1      30.698  24.754  25.526  1.00  0.00    -0.153 NA
ATOM     13  N   UNL A   1      31.284  25.565  24.620  1.00  0.00    -0.149 N 
ATOM     14  N   UNL A   1      32.161  25.002  23.773  1.00  0.00    -0.141 NA
BRANCH  13  15
ATOM     15  C   UNL A   1      30.986  26.928  24.522  1.00  0.00     0.106 A 
ATOM     16  C   UNL A   1      30.028  27.347  23.586  1.00  0.00     0.052 A 
ATOM     17  C   UNL A   1      31.737  27.854  25.252  1.00  0.00     0.068 A 
ATOM     18  C   UNL A   1      29.822  28.712  23.398  1.00  0.00     0.043 A 
ATOM     19  C   UNL A   1      31.530  29.218  25.035  1.00  0.00     0.024 A 
ATOM     20  Cl  UNL A   1      32.963  27.390  26.375  1.00  0.00    -0.082 Cl
ATOM     21  Cl  UNL A   1      28.646  29.257  22.267  1.00  0.00    -0.084 Cl
ATOM     22  C   UNL A   1      30.574  29.648  24.110  1.00  0.00     0.022 A 
ENDBRANCH  13  15
ENDBRANCH   7   9
ENDBRANCH   6   7
ENDBRANCH   5   6
ENDBRANCH   4   5
ENDBRANCH   3   4
ENDBRANCH   2   3
ENDBRANCH   1   2
BRANCH   1  23
ATOM     23  O   UNL A   1      40.708  22.181  26.288  1.00  0.00    -0.376 OA
BRANCH  23  24
ATOM     24  C   UNL A   1      41.970  21.575  26.018  1.00  0.00     0.202 C 
BRANCH  24  25
ATOM     25  C   UNL A   1      42.955  22.431  25.221  1.00  0.00     0.261 C 
BRANCH  25  26
ATOM     26  O   UNL A   1      43.665  23.356  26.025  1.00  0.00    -0.460 OA
BRANCH  26  27
ATOM     27  C   UNL A   1      43.344  24.650  25.836  1.00  0.00     0.338 C 
ATOM     28  O   UNL A   1      43.755  25.387  24.957  1.00  0.00    -0.246 OA
BRANCH  27  29
ATOM     29  C   UNL A   1      42.422  25.053  26.904  1.00  0.00     0.060 A 
ATOM     30  C   UNL A   1      41.294  25.763  26.494  1.00  0.00     0.016 A 
ATOM     31  C   UNL A   1      42.897  25.075  28.224  1.00  0.00     0.016 A 
ATOM     32  C   UNL A   1      40.870  26.779  27.309  1.00  0.00     0.010 A 
ATOM     33  C   UNL A   1      42.491  26.106  29.027  1.00  0.00     0.010 A 
ATOM     34  C   UNL A   1      41.585  27.013  28.488  1.00  0.00    -0.014 A 
BRANCH  34  35
ATOM     35  C   UNL A   1      41.470  28.328  29.061  1.00  0.00     0.031 A 
ATOM     36  C   UNL A   1      42.446  29.300  28.559  1.00  0.00     0.074 A 
ATOM     37  C   UNL A   1      40.516  28.613  29.964  1.00  0.00     0.049 A 
ATOM     38  N   UNL A   1      43.412  29.842  29.219  1.00  0.00    -0.248 NA
ATOM     39  C   UNL A   1      42.434  29.590  27.123  1.00  0.00     0.031 C 
ATOM     40  C   UNL A   1      39.333  27.821  30.315  1.00  0.00     0.029 A 
ATOM     41  N   UNL A   1      40.336  29.771  30.652  1.00  0.00    -0.354 N 
ATOM     42  C   UNL A   1      44.022  30.704  28.318  1.00  0.00     0.074 A 
ATOM     43  C   UNL A   1      43.501  30.377  27.015  1.00  0.00     0.031 C 
ATOM     44  C   UNL A   1      38.439  28.629  30.926  1.00  0.00     0.029 A 
ATOM     45  C   UNL A   1      39.039  29.939  31.108  1.00  0.00     0.049 A 
ATOM     46  H   UNL A   1      41.055  30.425  30.810  1.00  0.00     0.167 HD
ATOM     47  C   UNL A   1      44.747  31.771  28.738  1.00  0.00     0.034 A 
ATOM     48  C   UNL A   1      38.483  31.116  31.481  1.00  0.00     0.034 A 
ATOM     49  C   UNL A   1      45.076  31.690  30.136  1.00  0.00     0.049 A 
ATOM     50  C   UNL A   1      39.590  32.054  31.801  1.00  0.00     0.074 A 
ATOM     51  C   UNL A   1      45.790  30.804  30.917  1.00  0.00     0.029 A 
ATOM     52  N   UNL A   1      44.332  32.452  31.004  1.00  0.00    -0.354 N 
ATOM     53  N   UNL A   1      40.392  31.907  32.820  1.00  0.00    -0.248 NA
ATOM     54  C   UNL A   1      40.081  32.931  30.750  1.00  0.00     0.031 C 
ATOM     55  C   UNL A   1      45.112  30.783  32.171  1.00  0.00     0.029 A 
ATOM     56  C   UNL A   1      44.034  31.668  32.088  1.00  0.00     0.049 A 
ATOM     57  H   UNL A   1      44.061  33.389  30.872  1.00  0.00     0.167 HD
ATOM     58  C   UNL A   1      41.639  32.301  32.349  1.00  0.00     0.074 A 
ATOM     59  C   UNL A   1      41.361  33.039  31.119  1.00  0.00     0.031 C 
ATOM     60  C   UNL A   1      42.791  31.740  32.831  1.00  0.00     0.034 A 
BRANCH  47  61
ATOM     61  C   UNL A   1      44.904  33.040  27.953  1.00  0.00     0.023 A 
ATOM     62  C   UNL A   1      46.130  33.248  27.290  1.00  0.00     0.012 A 
ATOM     63  C   UNL A   1      44.012  34.133  28.025  1.00  0.00     0.148 A 
ATOM     64  C   UNL A   1      46.459  34.491  26.742  1.00  0.00     0.002 A 
ATOM     65  C   UNL A   1      44.304  35.337  27.397  1.00  0.00     0.091 A 
ATOM     66  F   UNL A   1      42.933  34.073  28.814  1.00  0.00    -0.205 F 
ATOM     67  C   UNL A   1      45.538  35.532  26.779  1.00  0.00     0.022 A 
BRANCH  65  68
ATOM     68  S   UNL A   1      43.097  36.665  27.360  1.00  0.00     0.127 S 
ATOM     69  O   UNL A   1      41.955  36.012  26.728  1.00  0.00    -0.237 OA
ATOM     70  O   UNL A   1      42.929  36.971  28.780  1.00  0.00    -0.237 OA
ATOM     71  O   UNL A   1      43.740  37.731  26.598  1.00  0.00    -0.744 OA
ENDBRANCH  65  68
ENDBRANCH  47  61
BRANCH  48  72
ATOM     72  C   UNL A   1      37.079  31.551  31.306  1.00  0.00     0.023 A 
ATOM     73  C   UNL A   1      36.330  31.958  32.424  1.00  0.00     0.012 A 
ATOM     74  C   UNL A   1      36.537  31.787  30.021  1.00  0.00     0.148 A 
ATOM     75  C   UNL A   1      35.088  32.588  32.268  1.00  0.00     0.002 A 
ATOM     76  C   UNL A   1      35.291  32.388  29.871  1.00  0.00     0.091 A 
ATOM     77  F   UNL A   1      37.279  31.518  28.938  1.00  0.00    -0.205 F 
ATOM     78  C   UNL A   1      34.567  32.800  30.993  1.00  0.00     0.022 A 
BRANCH  76  79
ATOM     79  S   UNL A   1      34.575  32.669  28.245  1.00  0.00     0.127 S 
ATOM     80  O   UNL A   1      35.665  33.345  27.539  1.00  0.00    -0.237 OA
ATOM     81  O   UNL A   1      34.301  31.309  27.794  1.00  0.00    -0.237 OA
ATOM     82  O   UNL A   1      33.409  33.515  28.477  1.00  0.00    -0.744 OA
ENDBRANCH  76  79
ENDBRANCH  48  72
BRANCH  60  83
ATOM     83  C   UNL A   1      42.698  30.851  34.050  1.00  0.00     0.023 A 
ATOM     84  C   UNL A   1      42.686  31.393  35.354  1.00  0.00     0.012 A 
ATOM     85  C   UNL A   1      42.414  29.483  33.889  1.00  0.00     0.148 A 
ATOM     86  C   UNL A   1      42.429  30.592  36.468  1.00  0.00     0.002 A 
ATOM     87  C   UNL A   1      42.110  28.697  34.997  1.00  0.00     0.091 A 
ATOM     88  F   UNL A   1      42.415  28.974  32.647  1.00  0.00    -0.205 F 
ATOM     89  C   UNL A   1      42.126  29.246  36.289  1.00  0.00     0.022 A 
BRANCH  87  90
ATOM     90  S   UNL A   1      41.567  26.994  34.820  1.00  0.00     0.127 S 
ATOM     91  O   UNL A   1      41.184  26.649  36.187  1.00  0.00    -0.237 OA
ATOM     92  O   UNL A   1      40.448  27.111  33.883  1.00  0.00    -0.237 OA
ATOM     93  O   UNL A   1      42.713  26.270  34.282  1.00  0.00    -0.744 OA
ENDBRANCH  87  90
ENDBRANCH  60  83
ENDBRANCH  34  35
ENDBRANCH  27  29
ENDBRANCH  26  27
ENDBRANCH  25  26
ENDBRANCH  24  25
ENDBRANCH  23  24
ENDBRANCH   1  23
TORSDOF 21
ENDMDL
MODEL 3
REMARK VINA RESULT:     -10.1      2.708      3.833
REMARK SMILES Cc1nn(-c2cc(Cl)ccc2Cl)nc1C(=O)OCCOCCOCCOC(=O)c1ccc(-c2c3nc(c(-c4cccc(S(=O)(=O)[O-])c4F)c4ccc([nH]4)c(-c4cccc(S(=O)(=O)[O-])c4F)c4nc(c(-c5cccc(S(=O)(=O)[O-])c5F)c5ccc2[nH]5)C=C4)C=C3)cc1
REMARK SMILES IDX 22 1 21 2 20 3 19 4 18 5 17 6 15 7 16 8 14 9 1 10 2 11 3 12
REMARK SMILES IDX 4 13 13 14 5 15 6 16 11 17 7 18 10 19 12 20 8 21 9 22 23 23
REMARK SMILES IDX 24 24 25 25 26 26 27 27 28 28 29 29 30 30 91 31 31 32 90 33
REMARK SMILES IDX 32 34 33 35 34 36 84 37 35 38 89 39 83 40 85 41 36 42 88 43
REMARK SMILES IDX 82 44 81 45 37 47 69 48 49 49 68 50 50 51 53 52 67 53 86 54
REMARK SMILES IDX 51 55 52 56 66 58 87 59 54 60 38 61 39 62 47 63 40 64 42 65
REMARK SMILES IDX 48 66 41 67 43 68 44 69 45 70 46 71 70 72 71 73 79 74 72 75
REMARK SMILES IDX 74 76 80 77 73 78 75 79 76 80 77 81 78 82 55 83 56 84 64 85
REMARK SMILES IDX 57 86 59 87 65 88 58 89 60 90 61 91 62 92 63 93
REMARK H PARENT 85 46 53 57
REMARK Flexibility Score: inf
ROOT
ATOM      1  C   UNL A   1      43.111  20.492  25.823  1.00  0.00     0.188 C 
ENDROOT
BRANCH   1   2
ATOM      2  C   UNL A   1      41.660  20.199  26.276  1.00  0.00     0.188 C 
BRANCH   2   3
ATOM      3  O   UNL A   1      41.099  20.789  27.441  1.00  0.00    -0.376 OA
BRANCH   3   4
ATOM      4  C   UNL A   1      40.191  21.871  27.328  1.00  0.00     0.202 C 
BRANCH   4   5
ATOM      5  C   UNL A   1      39.650  22.243  25.934  1.00  0.00     0.261 C 
BRANCH   5   6
ATOM      6  O   UNL A   1      38.354  21.704  25.620  1.00  0.00    -0.458 OA
BRANCH   6   7
ATOM      7  C   UNL A   1      37.300  22.569  25.754  1.00  0.00     0.360 C 
ATOM      8  O   UNL A   1      37.415  23.768  25.920  1.00  0.00    -0.244 OA
BRANCH   7   9
ATOM      9  C   UNL A   1      36.006  21.899  25.555  1.00  0.00     0.193 A 
ATOM     10  C   UNL A   1      34.201  23.570  26.489  1.00  0.00     0.071 C 
ATOM     11  C   UNL A   1      34.684  22.308  25.878  1.00  0.00     0.095 A 
ATOM     12  N   UNL A   1      33.819  21.326  25.572  1.00  0.00    -0.153 NA
ATOM     13  N   UNL A   1      34.638  20.370  25.086  1.00  0.00    -0.149 N 
ATOM     14  N   UNL A   1      35.954  20.640  25.076  1.00  0.00    -0.141 NA
BRANCH  13  15
ATOM     15  C   UNL A   1      34.169  19.131  24.637  1.00  0.00     0.106 A 
ATOM     16  C   UNL A   1      34.850  17.967  25.026  1.00  0.00     0.052 A 
ATOM     17  C   UNL A   1      33.127  19.083  23.707  1.00  0.00     0.068 A 
ATOM     18  C   UNL A   1      34.463  16.746  24.478  1.00  0.00     0.043 A 
ATOM     19  C   UNL A   1      32.767  17.852  23.153  1.00  0.00     0.024 A 
ATOM     20  Cl  UNL A   1      32.295  20.492  23.156  1.00  0.00    -0.082 Cl
ATOM     21  Cl  UNL A   1      35.269  15.300  24.945  1.00  0.00    -0.084 Cl
ATOM     22  C   UNL A   1      33.433  16.684  23.538  1.00  0.00     0.022 A 
ENDBRANCH  13  15
ENDBRANCH   7   9
ENDBRANCH   6   7
ENDBRANCH   5   6
ENDBRANCH   4   5
ENDBRANCH   3   4
ENDBRANCH   2   3
ENDBRANCH   1   2
BRANCH   1  23
ATOM     23  O   UNL A   1      43.667  21.732  26.243  1.00  0.00    -0.376 OA
BRANCH  23  24
ATOM     24  C   UNL A   1      43.289  22.887  25.496  1.00  0.00     0.202 C 
BRANCH  24  25
ATOM     25  C   UNL A   1      43.187  24.185  26.298  1.00  0.00     0.261 C 
BRANCH  25  26
ATOM     26  O   UNL A   1      41.875  24.720  26.326  1.00  0.00    -0.460 OA
BRANCH  26  27
ATOM     27  C   UNL A   1      41.747  25.962  25.821  1.00  0.00     0.338 C 
ATOM     28  O   UNL A   1      42.312  26.417  24.841  1.00  0.00    -0.246 OA
BRANCH  27  29
ATOM     29  C   UNL A   1      40.822  26.711  26.679  1.00  0.00     0.060 A 
ATOM     30  C   UNL A   1      40.601  28.039  26.314  1.00  0.00     0.016 A 
ATOM     31  C   UNL A   1      40.559  26.221  27.967  1.00  0.00     0.016 A 
ATOM     32  C   UNL A   1      40.474  28.948  27.331  1.00  0.00     0.010 A 
ATOM     33  C   UNL A   1      40.458  27.132  28.983  1.00  0.00     0.010 A 
ATOM     34  C   UNL A   1      40.559  28.477  28.644  1.00  0.00    -0.014 A 
BRANCH  34  35
ATOM     35  C   UNL A   1      40.923  29.437  29.652  1.00  0.00     0.031 A 
ATOM     36  C   UNL A   1      39.797  30.188  30.215  1.00  0.00     0.074 A 
ATOM     37  C   UNL A   1      42.202  29.589  30.039  1.00  0.00     0.049 A 
ATOM     38  N   UNL A   1      39.555  31.447  30.075  1.00  0.00    -0.248 NA
ATOM     39  C   UNL A   1      38.744  29.423  30.888  1.00  0.00     0.031 C 
ATOM     40  C   UNL A   1      43.344  28.713  29.761  1.00  0.00     0.029 A 
ATOM     41  N   UNL A   1      42.709  30.504  30.906  1.00  0.00    -0.354 N 
ATOM     42  C   UNL A   1      38.405  31.676  30.816  1.00  0.00     0.074 A 
ATOM     43  C   UNL A   1      37.856  30.383  31.139  1.00  0.00     0.031 C 
ATOM     44  C   UNL A   1      44.321  28.982  30.656  1.00  0.00     0.029 A 
ATOM     45  C   UNL A   1      43.912  30.114  31.469  1.00  0.00     0.049 A 
ATOM     46  H   UNL A   1      42.265  31.358  31.114  1.00  0.00     0.167 HD
ATOM     47  C   UNL A   1      38.105  32.908  31.298  1.00  0.00     0.034 A 
ATOM     48  C   UNL A   1      44.449  30.619  32.605  1.00  0.00     0.034 A 
ATOM     49  C   UNL A   1      38.893  33.941  30.680  1.00  0.00     0.049 A 
ATOM     50  C   UNL A   1      43.828  31.947  32.843  1.00  0.00     0.074 A 
ATOM     51  C   UNL A   1      39.051  34.403  29.389  1.00  0.00     0.029 A 
ATOM     52  N   UNL A   1      39.956  34.436  31.396  1.00  0.00    -0.354 N 
ATOM     53  N   UNL A   1      44.024  32.986  32.079  1.00  0.00    -0.248 NA
ATOM     54  C   UNL A   1      42.649  32.019  33.693  1.00  0.00     0.031 C 
ATOM     55  C   UNL A   1      40.421  34.784  29.295  1.00  0.00     0.029 A 
ATOM     56  C   UNL A   1      41.017  34.547  30.536  1.00  0.00     0.049 A 
ATOM     57  H   UNL A   1      39.956  34.669  32.354  1.00  0.00     0.167 HD
ATOM     58  C   UNL A   1      42.790  33.623  32.022  1.00  0.00     0.074 A 
ATOM     59  C   UNL A   1      42.025  33.059  33.131  1.00  0.00     0.031 C 
ATOM     60  C   UNL A   1      42.399  34.319  30.911  1.00  0.00     0.034 A 
BRANCH  47  61
ATOM     61  C   UNL A   1      37.309  33.150  32.547  1.00  0.00     0.023 A 
ATOM     62  C   UNL A   1      36.114  33.886  32.426  1.00  0.00     0.012 A 
ATOM     63  C   UNL A   1      37.787  32.899  33.853  1.00  0.00     0.148 A 
ATOM     64  C   UNL A   1      35.438  34.366  33.550  1.00  0.00     0.002 A 
ATOM     65  C   UNL A   1      37.062  33.297  34.968  1.00  0.00     0.091 A 
ATOM     66  F   UNL A   1      39.013  32.396  34.038  1.00  0.00    -0.205 F 
ATOM     67  C   UNL A   1      35.902  34.056  34.824  1.00  0.00     0.022 A 
BRANCH  65  68
ATOM     68  S   UNL A   1      37.596  32.836  36.619  1.00  0.00     0.127 S 
ATOM     69  O   UNL A   1      38.786  33.662  36.788  1.00  0.00    -0.237 OA
ATOM     70  O   UNL A   1      36.447  33.227  37.436  1.00  0.00    -0.237 OA
ATOM     71  O   UNL A   1      37.810  31.394  36.552  1.00  0.00    -0.744 OA
ENDBRANCH  65  68
ENDBRANCH  47  61
BRANCH  48  72
ATOM     72  C   UNL A   1      45.246  29.903  33.626  1.00  0.00     0.023 A 
ATOM     73  C   UNL A   1      46.568  30.304  33.888  1.00  0.00     0.012 A 
ATOM     74  C   UNL A   1      44.647  28.976  34.510  1.00  0.00     0.148 A 
ATOM     75  C   UNL A   1      47.266  29.807  34.996  1.00  0.00     0.002 A 
ATOM     76  C   UNL A   1      45.353  28.463  35.593  1.00  0.00     0.091 A 
ATOM     77  F   UNL A   1      43.352  28.666  34.355  1.00  0.00    -0.205 F 
ATOM     78  C   UNL A   1      46.661  28.884  35.847  1.00  0.00     0.022 A 
BRANCH  76  79
ATOM     79  S   UNL A   1      44.615  27.261  36.710  1.00  0.00     0.127 S 
ATOM     80  O   UNL A   1      44.228  26.185  35.796  1.00  0.00    -0.237 OA
ATOM     81  O   UNL A   1      45.731  26.942  37.594  1.00  0.00    -0.237 OA
ATOM     82  O   UNL A   1      43.485  27.947  37.327  1.00  0.00    -0.744 OA
ENDBRANCH  76  79
ENDBRANCH  48  72
BRANCH  60  83
ATOM     83  C   UNL A   1      43.427  34.582  29.833  1.00  0.00     0.023 A 
ATOM     84  C   UNL A   1      44.268  35.714  29.882  1.00  0.00     0.012 A 
ATOM     85  C   UNL A   1      43.695  33.587  28.876  1.00  0.00     0.148 A 
ATOM     86  C   UNL A   1      45.327  35.868  28.985  1.00  0.00     0.002 A 
ATOM     87  C   UNL A   1      44.782  33.719  28.016  1.00  0.00     0.091 A 
ATOM     88  F   UNL A   1      42.900  32.506  28.840  1.00  0.00    -0.205 F 
ATOM     89  C   UNL A   1      45.594  34.863  28.061  1.00  0.00     0.022 A 
BRANCH  87  90
ATOM     90  S   UNL A   1      45.266  32.395  26.904  1.00  0.00     0.127 S 
ATOM     91  O   UNL A   1      44.141  32.348  25.972  1.00  0.00    -0.237 OA
ATOM     92  O   UNL A   1      46.514  32.900  26.329  1.00  0.00    -0.237 OA
ATOM     93  O   UNL A   1      45.439  31.217  27.746  1.00  0.00    -0.744 OA
ENDBRANCH  87  90
ENDBRANCH  60  83
ENDBRANCH  34  35
ENDBRANCH  27  29
ENDBRANCH  26  27
ENDBRANCH  25  26
ENDBRANCH  24  25
ENDBRANCH  23  24
ENDBRANCH   1  23
TORSDOF 21
ENDMDL
