MODEL 1
REMARK VINA RESULT:     -10.8      0.000      0.000
REMARK SMILES Cc1cc(C(=O)OCCOCCOCCOC(=O)c2ccc(-c3c4nc(c(-c5cccc(S(=O)(=O)[O-])c5F)c5ccc([nH]5)c(-c5cccc(S(=O)(=O)[O-])c5F)c5nc(c(-c6cccc(S(=O)(=O)[O-])c6F)c6ccc3[nH]6)C=C5)C=C4)cc2)c(NC(=O)c2nc(C(C)(C)C)n[nH]2)s1
REMARK SMILES IDX 11 1 10 2 9 3 8 4 7 5 5 6 6 7 4 8 1 9 2 10 3 11 95 12 82 13
REMARK SMILES IDX 83 14 84 15 85 17 86 18 87 19 94 20 88 21 93 22 89 24 90 25
REMARK SMILES IDX 91 26 92 27 12 28 13 29 14 30 15 31 16 32 17 33 18 34 19 35
REMARK SMILES IDX 20 36 81 37 21 38 80 39 22 40 23 41 24 42 74 43 25 44 79 45
REMARK SMILES IDX 73 46 75 47 26 48 78 49 72 50 71 51 27 53 59 54 39 55 58 56
REMARK SMILES IDX 40 57 43 58 57 59 76 60 41 61 42 62 56 64 77 65 44 66 28 67
REMARK SMILES IDX 29 68 37 69 30 70 32 71 38 72 31 73 33 74 34 75 35 76 36 77
REMARK SMILES IDX 60 78 61 79 69 80 62 81 64 82 70 83 63 84 65 85 66 86 67 87
REMARK SMILES IDX 68 88 45 89 46 90 54 91 47 92 49 93 55 94 48 95 50 96 51 97
REMARK SMILES IDX 52 98 53 99
REMARK H PARENT 83 16 94 23 75 52 43 63
REMARK Flexibility Score: inf
ROOT
ATOM      1  C   UNL A   1      30.628  27.847  22.407  1.00  0.00     0.188 C 
ENDROOT
BRANCH   1   2
ATOM      2  O   UNL A   1      31.124  26.570  22.021  1.00  0.00    -0.376 OA
BRANCH   2   3
ATOM      3  C   UNL A   1      32.485  26.233  22.250  1.00  0.00     0.202 C 
BRANCH   3   4
ATOM      4  C   UNL A   1      32.956  24.873  21.737  1.00  0.00     0.261 C 
BRANCH   4   5
ATOM      5  O   UNL A   1      33.488  24.039  22.783  1.00  0.00    -0.460 OA
BRANCH   5   6
ATOM      6  C   UNL A   1      32.757  22.927  23.078  1.00  0.00     0.341 C 
ATOM      7  O   UNL A   1      32.588  21.977  22.323  1.00  0.00    -0.246 OA
BRANCH   6   8
ATOM      8  C   UNL A   1      32.313  22.897  24.468  1.00  0.00     0.095 A 
ATOM      9  C   UNL A   1      29.675  22.852  27.198  1.00  0.00     0.056 C 
ATOM     10  C   UNL A   1      30.877  22.903  26.319  1.00  0.00     0.004 A 
ATOM     11  C   UNL A   1      30.955  22.906  24.942  1.00  0.00     0.033 A 
ATOM     12  S   UNL A   1      32.424  22.984  27.024  1.00  0.00    -0.122 S 
ATOM     13  C   UNL A   1      33.212  22.906  25.526  1.00  0.00     0.110 A 
BRANCH  13  14
ATOM     14  N   UNL A   1      34.591  22.984  25.414  1.00  0.00    -0.310 N 
ATOM     15  C   UNL A   1      35.581  22.025  25.457  1.00  0.00     0.293 C 
ATOM     16  H   UNL A   1      34.929  23.899  25.278  1.00  0.00     0.171 HD
ATOM     17  O   UNL A   1      36.705  22.422  25.761  1.00  0.00    -0.265 OA
BRANCH  15  18
ATOM     18  C   UNL A   1      35.315  20.667  25.064  1.00  0.00     0.214 A 
ATOM     19  N   UNL A   1      34.129  20.151  24.811  1.00  0.00    -0.207 NA
ATOM     20  N   UNL A   1      36.247  19.677  24.980  1.00  0.00    -0.255 N 
ATOM     21  C   UNL A   1      34.400  18.831  24.538  1.00  0.00     0.156 A 
ATOM     22  N   UNL A   1      35.701  18.509  24.610  1.00  0.00    -0.158 NA
ATOM     23  H   UNL A   1      37.205  19.804  25.168  1.00  0.00     0.192 HD
BRANCH  21  24
ATOM     24  C   UNL A   1      33.308  17.835  24.238  1.00  0.00     0.024 C 
ATOM     25  C   UNL A   1      32.478  17.590  25.511  1.00  0.00     0.019 C 
ATOM     26  C   UNL A   1      32.378  18.371  23.131  1.00  0.00     0.019 C 
ATOM     27  C   UNL A   1      33.889  16.490  23.757  1.00  0.00     0.019 C 
ENDBRANCH  21  24
ENDBRANCH  15  18
ENDBRANCH  13  14
ENDBRANCH   6   8
ENDBRANCH   5   6
ENDBRANCH   4   5
ENDBRANCH   3   4
ENDBRANCH   2   3
ENDBRANCH   1   2
BRANCH   1  28
ATOM     28  C   UNL A   1      30.814  28.310  23.863  1.00  0.00     0.188 C 
BRANCH  28  29
ATOM     29  O   UNL A   1      31.745  29.373  24.003  1.00  0.00    -0.376 OA
BRANCH  29  30
ATOM     30  C   UNL A   1      32.287  29.571  25.299  1.00  0.00     0.202 C 
BRANCH  30  31
ATOM     31  C   UNL A   1      31.587  30.643  26.139  1.00  0.00     0.261 C 
BRANCH  31  32
ATOM     32  O   UNL A   1      32.233  30.982  27.374  1.00  0.00    -0.460 OA
BRANCH  32  33
ATOM     33  C   UNL A   1      33.039  32.067  27.380  1.00  0.00     0.338 C 
ATOM     34  O   UNL A   1      32.722  33.213  27.117  1.00  0.00    -0.246 OA
BRANCH  33  35
ATOM     35  C   UNL A   1      34.352  31.647  27.916  1.00  0.00     0.060 A 
ATOM     36  C   UNL A   1      34.559  30.303  28.251  1.00  0.00     0.016 A 
ATOM     37  C   UNL A   1      35.377  32.584  28.079  1.00  0.00     0.016 A 
ATOM     38  C   UNL A   1      35.790  29.900  28.779  1.00  0.00     0.010 A 
ATOM     39  C   UNL A   1      36.601  32.181  28.620  1.00  0.00     0.010 A 
ATOM     40  C   UNL A   1      36.805  30.844  29.000  1.00  0.00    -0.014 A 
BRANCH  40  41
ATOM     41  C   UNL A   1      38.024  30.478  29.764  1.00  0.00     0.031 A 
ATOM     42  C   UNL A   1      38.985  29.490  29.163  1.00  0.00     0.074 A 
ATOM     43  C   UNL A   1      38.255  30.978  30.991  1.00  0.00     0.049 A 
ATOM     44  N   UNL A   1      40.096  29.008  29.655  1.00  0.00    -0.248 NA
ATOM     45  C   UNL A   1      38.641  28.967  27.829  1.00  0.00     0.031 C 
ATOM     46  C   UNL A   1      37.395  31.927  31.689  1.00  0.00     0.029 A 
ATOM     47  N   UNL A   1      39.280  30.737  31.874  1.00  0.00    -0.354 N 
ATOM     48  C   UNL A   1      40.573  28.113  28.706  1.00  0.00     0.074 A 
ATOM     49  C   UNL A   1      39.625  28.106  27.614  1.00  0.00     0.031 C 
ATOM     50  C   UNL A   1      37.920  32.182  32.900  1.00  0.00     0.029 A 
ATOM     51  C   UNL A   1      39.143  31.402  33.070  1.00  0.00     0.049 A 
ATOM     52  H   UNL A   1      40.040  30.146  31.670  1.00  0.00     0.167 HD
ATOM     53  C   UNL A   1      41.706  27.374  28.733  1.00  0.00     0.034 A 
ATOM     54  C   UNL A   1      39.916  31.380  34.175  1.00  0.00     0.034 A 
ATOM     55  C   UNL A   1      42.660  27.391  29.809  1.00  0.00     0.049 A 
ATOM     56  C   UNL A   1      41.176  30.553  34.177  1.00  0.00     0.074 A 
ATOM     57  C   UNL A   1      43.860  26.712  29.906  1.00  0.00     0.029 A 
ATOM     58  N   UNL A   1      42.517  28.121  30.979  1.00  0.00    -0.354 N 
ATOM     59  N   UNL A   1      41.686  29.819  33.217  1.00  0.00    -0.248 NA
ATOM     60  C   UNL A   1      41.986  30.575  35.405  1.00  0.00     0.031 C 
ATOM     61  C   UNL A   1      44.437  27.017  31.143  1.00  0.00     0.029 A 
ATOM     62  C   UNL A   1      43.601  27.899  31.810  1.00  0.00     0.049 A 
ATOM     63  H   UNL A   1      41.756  28.709  31.189  1.00  0.00     0.167 HD
ATOM     64  C   UNL A   1      42.886  29.318  33.711  1.00  0.00     0.074 A 
ATOM     65  C   UNL A   1      43.038  29.850  35.050  1.00  0.00     0.031 C 
ATOM     66  C   UNL A   1      43.770  28.480  33.118  1.00  0.00     0.034 A 
BRANCH  53  67
ATOM     67  C   UNL A   1      41.995  26.508  27.537  1.00  0.00     0.023 A 
ATOM     68  C   UNL A   1      42.584  27.084  26.394  1.00  0.00     0.012 A 
ATOM     69  C   UNL A   1      41.722  25.127  27.554  1.00  0.00     0.148 A 
ATOM     70  C   UNL A   1      42.872  26.305  25.275  1.00  0.00     0.002 A 
ATOM     71  C   UNL A   1      42.045  24.349  26.449  1.00  0.00     0.091 A 
ATOM     72  F   UNL A   1      41.134  24.603  28.640  1.00  0.00    -0.205 F 
ATOM     73  C   UNL A   1      42.612  24.937  25.305  1.00  0.00     0.022 A 
BRANCH  71  74
ATOM     74  S   UNL A   1      41.805  22.570  26.422  1.00  0.00     0.127 S 
ATOM     75  O   UNL A   1      40.352  22.467  26.311  1.00  0.00    -0.237 OA
ATOM     76  O   UNL A   1      42.537  22.174  25.217  1.00  0.00    -0.237 OA
ATOM     77  O   UNL A   1      42.378  22.072  27.665  1.00  0.00    -0.744 OA
ENDBRANCH  71  74
ENDBRANCH  53  67
BRANCH  54  78
ATOM     78  C   UNL A   1      39.552  32.219  35.353  1.00  0.00     0.023 A 
ATOM     79  C   UNL A   1      38.708  31.684  36.346  1.00  0.00     0.012 A 
ATOM     80  C   UNL A   1      40.050  33.527  35.509  1.00  0.00     0.148 A 
ATOM     81  C   UNL A   1      38.346  32.444  37.459  1.00  0.00     0.002 A 
ATOM     82  C   UNL A   1      39.726  34.261  36.646  1.00  0.00     0.091 A 
ATOM     83  F   UNL A   1      40.831  34.031  34.543  1.00  0.00    -0.205 F 
ATOM     84  C   UNL A   1      38.863  33.727  37.614  1.00  0.00     0.022 A 
BRANCH  82  85
ATOM     85  S   UNL A   1      40.439  35.875  36.985  1.00  0.00     0.127 S 
ATOM     86  O   UNL A   1      41.858  35.635  36.737  1.00  0.00    -0.237 OA
ATOM     87  O   UNL A   1      39.776  36.718  35.989  1.00  0.00    -0.237 OA
ATOM     88  O   UNL A   1      40.080  36.182  38.363  1.00  0.00    -0.744 OA
ENDBRANCH  82  85
ENDBRANCH  54  78
BRANCH  66  89
ATOM     89  C   UNL A   1      45.001  28.089  33.896  1.00  0.00     0.023 A 
ATOM     90  C   UNL A   1      46.136  28.922  33.861  1.00  0.00     0.012 A 
ATOM     91  C   UNL A   1      45.002  26.954  34.731  1.00  0.00     0.148 A 
ATOM     92  C   UNL A   1      47.262  28.620  34.626  1.00  0.00     0.002 A 
ATOM     93  C   UNL A   1      46.112  26.682  35.523  1.00  0.00     0.091 A 
ATOM     94  F   UNL A   1      43.920  26.162  34.737  1.00  0.00    -0.205 F 
ATOM     95  C   UNL A   1      47.245  27.508  35.465  1.00  0.00     0.022 A 
BRANCH  93  96
ATOM     96  S   UNL A   1      46.140  25.324  36.700  1.00  0.00     0.127 S 
ATOM     97  O   UNL A   1      47.540  25.318  37.117  1.00  0.00    -0.237 OA
ATOM     98  O   UNL A   1      45.201  25.779  37.727  1.00  0.00    -0.237 OA
ATOM     99  O   UNL A   1      45.698  24.148  35.962  1.00  0.00    -0.744 OA
ENDBRANCH  93  96
ENDBRANCH  66  89
ENDBRANCH  40  41
ENDBRANCH  33  35
ENDBRANCH  32  33
ENDBRANCH  31  32
ENDBRANCH  30  31
ENDBRANCH  29  30
ENDBRANCH  28  29
ENDBRANCH   1  28
TORSDOF 23
ENDMDL
MODEL 2
REMARK VINA RESULT:     -10.3      1.296      7.757
REMARK SMILES Cc1cc(C(=O)OCCOCCOCCOC(=O)c2ccc(-c3c4nc(c(-c5cccc(S(=O)(=O)[O-])c5F)c5ccc([nH]5)c(-c5cccc(S(=O)(=O)[O-])c5F)c5nc(c(-c6cccc(S(=O)(=O)[O-])c6F)c6ccc3[nH]6)C=C5)C=C4)cc2)c(NC(=O)c2nc(C(C)(C)C)n[nH]2)s1
REMARK SMILES IDX 11 1 10 2 9 3 8 4 7 5 5 6 6 7 4 8 1 9 2 10 3 11 95 12 82 13
REMARK SMILES IDX 83 14 84 15 85 17 86 18 87 19 94 20 88 21 93 22 89 24 90 25
REMARK SMILES IDX 91 26 92 27 12 28 13 29 14 30 15 31 16 32 17 33 18 34 19 35
REMARK SMILES IDX 20 36 81 37 21 38 80 39 22 40 23 41 24 42 74 43 25 44 79 45
REMARK SMILES IDX 73 46 75 47 26 48 78 49 72 50 71 51 27 53 59 54 39 55 58 56
REMARK SMILES IDX 40 57 43 58 57 59 76 60 41 61 42 62 56 64 77 65 44 66 28 67
REMARK SMILES IDX 29 68 37 69 30 70 32 71 38 72 31 73 33 74 34 75 35 76 36 77
REMARK SMILES IDX 60 78 61 79 69 80 62 81 64 82 70 83 63 84 65 85 66 86 67 87
REMARK SMILES IDX 68 88 45 89 46 90 54 91 47 92 49 93 55 94 48 95 50 96 51 97
REMARK SMILES IDX 52 98 53 99
REMARK H PARENT 83 16 94 23 75 52 43 63
REMARK Flexibility Score: inf
ROOT
ATOM      1  C   UNL A   1      32.629  28.769  23.402  1.00  0.00     0.188 C 
ENDROOT
BRANCH   1   2
ATOM      2  O   UNL A   1      33.654  28.271  24.255  1.00  0.00    -0.376 OA
BRANCH   2   3
ATOM      3  C   UNL A   1      33.319  27.659  25.492  1.00  0.00     0.202 C 
BRANCH   3   4
ATOM      4  C   UNL A   1      34.389  26.783  26.142  1.00  0.00     0.261 C 
BRANCH   4   5
ATOM      5  O   UNL A   1      34.049  25.384  26.123  1.00  0.00    -0.460 OA
BRANCH   5   6
ATOM      6  C   UNL A   1      34.473  24.691  25.029  1.00  0.00     0.341 C 
ATOM      7  O   UNL A   1      35.470  23.980  24.992  1.00  0.00    -0.246 OA
BRANCH   6   8
ATOM      8  C   UNL A   1      33.522  24.744  23.924  1.00  0.00     0.095 A 
ATOM      9  C   UNL A   1      32.503  25.492  20.343  1.00  0.00     0.056 C 
ATOM     10  C   UNL A   1      32.653  25.160  21.788  1.00  0.00     0.004 A 
ATOM     11  C   UNL A   1      33.776  25.210  22.587  1.00  0.00     0.033 A 
ATOM     12  S   UNL A   1      31.291  24.648  22.672  1.00  0.00    -0.122 S 
ATOM     13  C   UNL A   1      32.192  24.376  24.081  1.00  0.00     0.110 A 
BRANCH  13  14
ATOM     14  N   UNL A   1      31.603  23.965  25.265  1.00  0.00    -0.310 N 
ATOM     15  C   UNL A   1      31.398  22.718  25.816  1.00  0.00     0.293 C 
ATOM     16  H   UNL A   1      31.264  24.705  25.820  1.00  0.00     0.171 HD
ATOM     17  O   UNL A   1      30.487  22.632  26.639  1.00  0.00    -0.265 OA
BRANCH  15  18
ATOM     18  C   UNL A   1      32.276  21.619  25.510  1.00  0.00     0.214 A 
ATOM     19  N   UNL A   1      31.925  20.478  24.953  1.00  0.00    -0.207 NA
ATOM     20  N   UNL A   1      33.597  21.556  25.835  1.00  0.00    -0.255 N 
ATOM     21  C   UNL A   1      33.093  19.756  24.926  1.00  0.00     0.156 A 
ATOM     22  N   UNL A   1      34.153  20.400  25.441  1.00  0.00    -0.158 NA
ATOM     23  H   UNL A   1      34.085  22.272  26.302  1.00  0.00     0.192 HD
BRANCH  21  24
ATOM     24  C   UNL A   1      33.149  18.341  24.405  1.00  0.00     0.024 C 
ATOM     25  C   UNL A   1      32.408  17.410  25.382  1.00  0.00     0.019 C 
ATOM     26  C   UNL A   1      32.475  18.248  23.021  1.00  0.00     0.019 C 
ATOM     27  C   UNL A   1      34.604  17.851  24.258  1.00  0.00     0.019 C 
ENDBRANCH  21  24
ENDBRANCH  15  18
ENDBRANCH  13  14
ENDBRANCH   6   8
ENDBRANCH   5   6
ENDBRANCH   4   5
ENDBRANCH   3   4
ENDBRANCH   2   3
ENDBRANCH   1   2
BRANCH   1  28
ATOM     28  C   UNL A   1      31.158  28.534  23.788  1.00  0.00     0.188 C 
BRANCH  28  29
ATOM     29  O   UNL A   1      30.595  29.597  24.543  1.00  0.00    -0.376 OA
BRANCH  29  30
ATOM     30  C   UNL A   1      31.505  30.558  25.054  1.00  0.00     0.202 C 
BRANCH  30  31
ATOM     31  C   UNL A   1      31.340  30.880  26.543  1.00  0.00     0.261 C 
BRANCH  31  32
ATOM     32  O   UNL A   1      32.519  30.720  27.345  1.00  0.00    -0.460 OA
BRANCH  32  33
ATOM     33  C   UNL A   1      33.325  31.796  27.491  1.00  0.00     0.338 C 
ATOM     34  O   UNL A   1      33.010  32.966  27.367  1.00  0.00    -0.246 OA
BRANCH  33  35
ATOM     35  C   UNL A   1      34.633  31.312  27.984  1.00  0.00     0.060 A 
ATOM     36  C   UNL A   1      34.837  29.937  28.155  1.00  0.00     0.016 A 
ATOM     37  C   UNL A   1      35.657  32.221  28.270  1.00  0.00     0.016 A 
ATOM     38  C   UNL A   1      36.063  29.471  28.642  1.00  0.00     0.010 A 
ATOM     39  C   UNL A   1      36.875  31.754  28.769  1.00  0.00     0.010 A 
ATOM     40  C   UNL A   1      37.075  30.380  28.986  1.00  0.00    -0.014 A 
BRANCH  40  41
ATOM     41  C   UNL A   1      38.287  29.922  29.711  1.00  0.00     0.031 A 
ATOM     42  C   UNL A   1      38.549  30.457  31.092  1.00  0.00     0.074 A 
ATOM     43  C   UNL A   1      39.166  29.080  29.140  1.00  0.00     0.049 A 
ATOM     44  N   UNL A   1      39.549  30.218  31.898  1.00  0.00    -0.248 NA
ATOM     45  C   UNL A   1      37.553  31.399  31.631  1.00  0.00     0.031 C 
ATOM     46  C   UNL A   1      39.036  28.506  27.805  1.00  0.00     0.029 A 
ATOM     47  N   UNL A   1      40.356  28.578  29.610  1.00  0.00    -0.354 N 
ATOM     48  C   UNL A   1      39.317  30.990  33.029  1.00  0.00     0.074 A 
ATOM     49  C   UNL A   1      38.088  31.719  32.801  1.00  0.00     0.031 C 
ATOM     50  C   UNL A   1      40.109  27.736  27.554  1.00  0.00     0.029 A 
ATOM     51  C   UNL A   1      41.011  27.778  28.703  1.00  0.00     0.049 A 
ATOM     52  H   UNL A   1      40.705  28.772  30.509  1.00  0.00     0.167 HD
ATOM     53  C   UNL A   1      40.050  31.075  34.163  1.00  0.00     0.034 A 
ATOM     54  C   UNL A   1      42.203  27.153  28.791  1.00  0.00     0.034 A 
ATOM     55  C   UNL A   1      41.263  30.339  34.401  1.00  0.00     0.049 A 
ATOM     56  C   UNL A   1      42.998  27.258  30.067  1.00  0.00     0.074 A 
ATOM     57  C   UNL A   1      42.051  30.324  35.537  1.00  0.00     0.029 A 
ATOM     58  N   UNL A   1      41.866  29.493  33.482  1.00  0.00    -0.354 N 
ATOM     59  N   UNL A   1      42.696  27.882  31.181  1.00  0.00    -0.248 NA
ATOM     60  C   UNL A   1      44.286  26.548  30.112  1.00  0.00     0.031 C 
ATOM     61  C   UNL A   1      43.142  29.482  35.300  1.00  0.00     0.029 A 
ATOM     62  C   UNL A   1      43.024  28.961  34.021  1.00  0.00     0.049 A 
ATOM     63  H   UNL A   1      41.522  29.301  32.581  1.00  0.00     0.167 HD
ATOM     64  C   UNL A   1      43.737  27.616  32.065  1.00  0.00     0.074 A 
ATOM     65  C   UNL A   1      44.668  26.755  31.365  1.00  0.00     0.031 C 
ATOM     66  C   UNL A   1      43.914  28.059  33.334  1.00  0.00     0.034 A 
BRANCH  53  67
ATOM     67  C   UNL A   1      39.535  31.974  35.254  1.00  0.00     0.023 A 
ATOM     68  C   UNL A   1      38.575  31.480  36.159  1.00  0.00     0.012 A 
ATOM     69  C   UNL A   1      40.023  33.286  35.408  1.00  0.00     0.148 A 
ATOM     70  C   UNL A   1      38.087  32.286  37.186  1.00  0.00     0.002 A 
ATOM     71  C   UNL A   1      39.559  34.072  36.455  1.00  0.00     0.091 A 
ATOM     72  F   UNL A   1      40.915  33.747  34.519  1.00  0.00    -0.205 F 
ATOM     73  C   UNL A   1      38.585  33.578  37.340  1.00  0.00     0.022 A 
BRANCH  71  74
ATOM     74  S   UNL A   1      40.189  35.724  36.771  1.00  0.00     0.127 S 
ATOM     75  O   UNL A   1      39.661  35.994  38.106  1.00  0.00    -0.237 OA
ATOM     76  O   UNL A   1      41.639  35.521  36.719  1.00  0.00    -0.237 OA
ATOM     77  O   UNL A   1      39.661  36.561  35.703  1.00  0.00    -0.744 OA
ENDBRANCH  71  74
ENDBRANCH  53  67
BRANCH  54  78
ATOM     78  C   UNL A   1      42.689  26.316  27.656  1.00  0.00     0.023 A 
ATOM     79  C   UNL A   1      43.448  26.917  26.633  1.00  0.00     0.012 A 
ATOM     80  C   UNL A   1      42.427  24.934  27.594  1.00  0.00     0.148 A 
ATOM     81  C   UNL A   1      43.915  26.164  25.556  1.00  0.00     0.002 A 
ATOM     82  C   UNL A   1      42.939  24.179  26.543  1.00  0.00     0.091 A 
ATOM     83  F   UNL A   1      41.683  24.382  28.562  1.00  0.00    -0.205 F 
ATOM     84  C   UNL A   1      43.670  24.794  25.516  1.00  0.00     0.022 A 
BRANCH  82  85
ATOM     85  S   UNL A   1      42.773  22.391  26.473  1.00  0.00     0.127 S 
ATOM     86  O   UNL A   1      41.537  22.234  25.712  1.00  0.00    -0.237 OA
ATOM     87  O   UNL A   1      43.989  21.999  25.757  1.00  0.00    -0.237 OA
ATOM     88  O   UNL A   1      42.725  21.945  27.859  1.00  0.00    -0.744 OA
ENDBRANCH  82  85
ENDBRANCH  54  78
BRANCH  66  89
ATOM     89  C   UNL A   1      45.152  27.613  34.069  1.00  0.00     0.023 A 
ATOM     90  C   UNL A   1      46.305  28.421  34.037  1.00  0.00     0.012 A 
ATOM     91  C   UNL A   1      45.144  26.450  34.865  1.00  0.00     0.148 A 
ATOM     92  C   UNL A   1      47.440  28.066  34.765  1.00  0.00     0.002 A 
ATOM     93  C   UNL A   1      46.265  26.125  35.621  1.00  0.00     0.091 A 
ATOM     94  F   UNL A   1      44.044  25.683  34.869  1.00  0.00    -0.205 F 
ATOM     95  C   UNL A   1      47.416  26.926  35.566  1.00  0.00     0.022 A 
BRANCH  93  96
ATOM     96  S   UNL A   1      46.287  24.726  36.751  1.00  0.00     0.127 S 
ATOM     97  O   UNL A   1      46.181  23.597  35.830  1.00  0.00    -0.237 OA
ATOM     98  O   UNL A   1      47.593  24.865  37.397  1.00  0.00    -0.237 OA
ATOM     99  O   UNL A   1      45.152  24.919  37.644  1.00  0.00    -0.744 OA
ENDBRANCH  93  96
ENDBRANCH  66  89
ENDBRANCH  40  41
ENDBRANCH  33  35
ENDBRANCH  32  33
ENDBRANCH  31  32
ENDBRANCH  30  31
ENDBRANCH  29  30
ENDBRANCH  28  29
ENDBRANCH   1  28
TORSDOF 23
ENDMDL
MODEL 3
REMARK VINA RESULT:     -10.3      1.925      2.251
REMARK SMILES Cc1cc(C(=O)OCCOCCOCCOC(=O)c2ccc(-c3c4nc(c(-c5cccc(S(=O)(=O)[O-])c5F)c5ccc([nH]5)c(-c5cccc(S(=O)(=O)[O-])c5F)c5nc(c(-c6cccc(S(=O)(=O)[O-])c6F)c6ccc3[nH]6)C=C5)C=C4)cc2)c(NC(=O)c2nc(C(C)(C)C)n[nH]2)s1
REMARK SMILES IDX 11 1 10 2 9 3 8 4 7 5 5 6 6 7 4 8 1 9 2 10 3 11 95 12 82 13
REMARK SMILES IDX 83 14 84 15 85 17 86 18 87 19 94 20 88 21 93 22 89 24 90 25
REMARK SMILES IDX 91 26 92 27 12 28 13 29 14 30 15 31 16 32 17 33 18 34 19 35
REMARK SMILES IDX 20 36 81 37 21 38 80 39 22 40 23 41 24 42 74 43 25 44 79 45
REMARK SMILES IDX 73 46 75 47 26 48 78 49 72 50 71 51 27 53 59 54 39 55 58 56
REMARK SMILES IDX 40 57 43 58 57 59 76 60 41 61 42 62 56 64 77 65 44 66 28 67
REMARK SMILES IDX 29 68 37 69 30 70 32 71 38 72 31 73 33 74 34 75 35 76 36 77
REMARK SMILES IDX 60 78 61 79 69 80 62 81 64 82 70 83 63 84 65 85 66 86 67 87
REMARK SMILES IDX 68 88 45 89 46 90 54 91 47 92 49 93 55 94 48 95 50 96 51 97
REMARK SMILES IDX 52 98 53 99
REMARK H PARENT 83 16 94 23 75 52 43 63
REMARK Flexibility Score: inf
ROOT
ATOM      1  C   UNL A   1      31.960  28.601  23.137  1.00  0.00     0.188 C 
ENDROOT
BRANCH   1   2
ATOM      2  O   UNL A   1      32.015  27.605  22.123  1.00  0.00    -0.376 OA
BRANCH   2   3
ATOM      3  C   UNL A   1      33.120  26.716  22.054  1.00  0.00     0.202 C 
BRANCH   3   4
ATOM      4  C   UNL A   1      32.867  25.345  21.427  1.00  0.00     0.261 C 
BRANCH   4   5
ATOM      5  O   UNL A   1      33.521  24.279  22.140  1.00  0.00    -0.460 OA
BRANCH   5   6
ATOM      6  C   UNL A   1      32.693  23.371  22.728  1.00  0.00     0.341 C 
ATOM      7  O   UNL A   1      32.520  22.223  22.338  1.00  0.00    -0.246 OA
BRANCH   6   8
ATOM      8  C   UNL A   1      32.138  23.848  23.990  1.00  0.00     0.095 A 
ATOM      9  C   UNL A   1      29.440  25.441  26.136  1.00  0.00     0.056 C 
ATOM     10  C   UNL A   1      30.645  24.832  25.504  1.00  0.00     0.004 A 
ATOM     11  C   UNL A   1      30.854  24.466  24.191  1.00  0.00     0.033 A 
ATOM     12  S   UNL A   1      32.020  24.519  26.458  1.00  0.00    -0.122 S 
ATOM     13  C   UNL A   1      32.858  23.793  25.176  1.00  0.00     0.110 A 
BRANCH  13  14
ATOM     14  N   UNL A   1      34.158  23.335  25.312  1.00  0.00    -0.310 N 
ATOM     15  C   UNL A   1      34.677  22.106  25.658  1.00  0.00     0.293 C 
ATOM     16  H   UNL A   1      34.842  24.019  25.125  1.00  0.00     0.171 HD
ATOM     17  O   UNL A   1      35.822  22.111  26.112  1.00  0.00    -0.265 OA
BRANCH  15  18
ATOM     18  C   UNL A   1      33.949  20.893  25.399  1.00  0.00     0.214 A 
ATOM     19  N   UNL A   1      34.467  19.743  25.020  1.00  0.00    -0.207 NA
ATOM     20  N   UNL A   1      32.592  20.773  25.420  1.00  0.00    -0.255 N 
ATOM     21  C   UNL A   1      33.372  18.930  24.855  1.00  0.00     0.156 A 
ATOM     22  N   UNL A   1      32.198  19.526  25.117  1.00  0.00    -0.158 NA
ATOM     23  H   UNL A   1      31.976  21.510  25.631  1.00  0.00     0.192 HD
BRANCH  21  24
ATOM     24  C   UNL A   1      33.496  17.507  24.370  1.00  0.00     0.024 C 
ATOM     25  C   UNL A   1      34.956  17.043  24.520  1.00  0.00     0.019 C 
ATOM     26  C   UNL A   1      32.589  16.574  25.198  1.00  0.00     0.019 C 
ATOM     27  C   UNL A   1      33.083  17.378  22.890  1.00  0.00     0.019 C 
ENDBRANCH  21  24
ENDBRANCH  15  18
ENDBRANCH  13  14
ENDBRANCH   6   8
ENDBRANCH   5   6
ENDBRANCH   4   5
ENDBRANCH   3   4
ENDBRANCH   2   3
ENDBRANCH   1   2
BRANCH   1  28
ATOM     28  C   UNL A   1      31.407  28.225  24.524  1.00  0.00     0.188 C 
BRANCH  28  29
ATOM     29  O   UNL A   1      32.419  27.946  25.479  1.00  0.00    -0.376 OA
BRANCH  29  30
ATOM     30  C   UNL A   1      32.434  28.761  26.640  1.00  0.00     0.202 C 
BRANCH  30  31
ATOM     31  C   UNL A   1      32.912  30.199  26.417  1.00  0.00     0.261 C 
BRANCH  31  32
ATOM     32  O   UNL A   1      32.976  31.019  27.592  1.00  0.00    -0.460 OA
BRANCH  32  33
ATOM     33  C   UNL A   1      33.868  32.035  27.597  1.00  0.00     0.338 C 
ATOM     34  O   UNL A   1      33.644  33.205  27.343  1.00  0.00    -0.246 OA
BRANCH  33  35
ATOM     35  C   UNL A   1      35.148  31.506  28.118  1.00  0.00     0.060 A 
ATOM     36  C   UNL A   1      35.194  30.204  28.630  1.00  0.00     0.016 A 
ATOM     37  C   UNL A   1      36.299  32.298  28.092  1.00  0.00     0.016 A 
ATOM     38  C   UNL A   1      36.394  29.701  29.145  1.00  0.00     0.010 A 
ATOM     39  C   UNL A   1      37.493  31.799  28.620  1.00  0.00     0.010 A 
ATOM     40  C   UNL A   1      37.540  30.510  29.176  1.00  0.00    -0.014 A 
BRANCH  40  41
ATOM     41  C   UNL A   1      38.750  30.078  29.919  1.00  0.00     0.031 A 
ATOM     42  C   UNL A   1      39.647  29.041  29.301  1.00  0.00     0.074 A 
ATOM     43  C   UNL A   1      39.028  30.563  31.143  1.00  0.00     0.049 A 
ATOM     44  N   UNL A   1      40.738  28.499  29.775  1.00  0.00    -0.248 NA
ATOM     45  C   UNL A   1      39.254  28.540  27.973  1.00  0.00     0.031 C 
ATOM     46  C   UNL A   1      38.231  31.555  31.856  1.00  0.00     0.029 A 
ATOM     47  N   UNL A   1      40.053  30.266  32.009  1.00  0.00    -0.354 N 
ATOM     48  C   UNL A   1      41.151  27.582  28.818  1.00  0.00     0.074 A 
ATOM     49  C   UNL A   1      40.186  27.628  27.741  1.00  0.00     0.031 C 
ATOM     50  C   UNL A   1      38.789  31.780  33.058  1.00  0.00     0.029 A 
ATOM     51  C   UNL A   1      39.970  30.935  33.207  1.00  0.00     0.049 A 
ATOM     52  H   UNL A   1      40.777  29.635  31.791  1.00  0.00     0.167 HD
ATOM     53  C   UNL A   1      42.244  26.783  28.825  1.00  0.00     0.034 A 
ATOM     54  C   UNL A   1      40.759  30.869  34.299  1.00  0.00     0.034 A 
ATOM     55  C   UNL A   1      43.214  26.747  29.885  1.00  0.00     0.049 A 
ATOM     56  C   UNL A   1      41.974  29.976  34.280  1.00  0.00     0.074 A 
ATOM     57  C   UNL A   1      44.378  26.004  29.962  1.00  0.00     0.029 A 
ATOM     58  N   UNL A   1      43.129  27.481  31.059  1.00  0.00    -0.354 N 
ATOM     59  N   UNL A   1      42.427  29.217  33.311  1.00  0.00    -0.248 NA
ATOM     60  C   UNL A   1      42.803  29.952  35.495  1.00  0.00     0.031 C 
ATOM     61  C   UNL A   1      44.990  26.276  31.190  1.00  0.00     0.029 A 
ATOM     62  C   UNL A   1      44.214  27.200  31.871  1.00  0.00     0.049 A 
ATOM     63  H   UNL A   1      42.404  28.109  31.281  1.00  0.00     0.167 HD
ATOM     64  C   UNL A   1      43.606  28.652  33.785  1.00  0.00     0.074 A 
ATOM     65  C   UNL A   1      43.809  29.172  35.122  1.00  0.00     0.031 C 
ATOM     66  C   UNL A   1      44.435  27.769  33.177  1.00  0.00     0.034 A 
BRANCH  53  67
ATOM     67  C   UNL A   1      42.466  25.905  27.624  1.00  0.00     0.023 A 
ATOM     68  C   UNL A   1      43.151  26.424  26.507  1.00  0.00     0.012 A 
ATOM     69  C   UNL A   1      42.035  24.565  27.611  1.00  0.00     0.148 A 
ATOM     70  C   UNL A   1      43.380  25.631  25.384  1.00  0.00     0.002 A 
ATOM     71  C   UNL A   1      42.299  23.769  26.503  1.00  0.00     0.091 A 
ATOM     72  F   UNL A   1      41.359  24.098  28.671  1.00  0.00    -0.205 F 
ATOM     73  C   UNL A   1      42.963  24.302  25.385  1.00  0.00     0.022 A 
BRANCH  71  74
ATOM     74  S   UNL A   1      41.857  22.030  26.440  1.00  0.00     0.127 S 
ATOM     75  O   UNL A   1      40.419  22.097  26.193  1.00  0.00    -0.237 OA
ATOM     76  O   UNL A   1      42.648  21.547  25.306  1.00  0.00    -0.237 OA
ATOM     77  O   UNL A   1      42.249  21.473  27.727  1.00  0.00    -0.744 OA
ENDBRANCH  71  74
ENDBRANCH  53  67
BRANCH  54  78
ATOM     78  C   UNL A   1      40.460  31.724  35.484  1.00  0.00     0.023 A 
ATOM     79  C   UNL A   1      41.347  32.764  35.826  1.00  0.00     0.012 A 
ATOM     80  C   UNL A   1      39.299  31.532  36.258  1.00  0.00     0.148 A 
ATOM     81  C   UNL A   1      41.098  33.579  36.930  1.00  0.00     0.002 A 
ATOM     82  C   UNL A   1      39.031  32.381  37.328  1.00  0.00     0.091 A 
ATOM     83  F   UNL A   1      38.478  30.523  35.935  1.00  0.00    -0.205 F 
ATOM     84  C   UNL A   1      39.936  33.395  37.673  1.00  0.00     0.022 A 
BRANCH  82  85
ATOM     85  S   UNL A   1      37.502  32.291  38.267  1.00  0.00     0.127 S 
ATOM     86  O   UNL A   1      37.313  30.849  38.397  1.00  0.00    -0.237 OA
ATOM     87  O   UNL A   1      37.865  32.977  39.508  1.00  0.00    -0.237 OA
ATOM     88  O   UNL A   1      36.507  32.991  37.466  1.00  0.00    -0.744 OA
ENDBRANCH  82  85
ENDBRANCH  54  78
BRANCH  66  89
ATOM     89  C   UNL A   1      45.656  27.311  33.934  1.00  0.00     0.023 A 
ATOM     90  C   UNL A   1      45.571  26.178  34.765  1.00  0.00     0.012 A 
ATOM     91  C   UNL A   1      46.902  27.942  33.750  1.00  0.00     0.148 A 
ATOM     92  C   UNL A   1      46.701  25.693  35.422  1.00  0.00     0.002 A 
ATOM     93  C   UNL A   1      48.033  27.428  34.374  1.00  0.00     0.091 A 
ATOM     94  F   UNL A   1      46.961  29.031  32.970  1.00  0.00    -0.205 F 
ATOM     95  C   UNL A   1      47.934  26.310  35.217  1.00  0.00     0.022 A 
BRANCH  93  96
ATOM     96  S   UNL A   1      49.675  28.104  34.092  1.00  0.00     0.127 S 
ATOM     97  O   UNL A   1      49.763  28.079  32.634  1.00  0.00    -0.237 OA
ATOM     98  O   UNL A   1      49.566  29.444  34.672  1.00  0.00    -0.237 OA
ATOM     99  O   UNL A   1      50.595  27.220  34.794  1.00  0.00    -0.744 OA
ENDBRANCH  93  96
ENDBRANCH  66  89
ENDBRANCH  40  41
ENDBRANCH  33  35
ENDBRANCH  32  33
ENDBRANCH  31  32
ENDBRANCH  30  31
ENDBRANCH  29  30
ENDBRANCH  28  29
ENDBRANCH   1  28
TORSDOF 23
ENDMDL
