MODEL 1
REMARK VINA RESULT:     -10.6      0.000      0.000
REMARK SMILES Cn1ccc(C(=O)NCc2ccc(C(=O)OCCOCCOCCOC(=O)c3ccc(-c4c5nc(c(-c6cccc(S(=O)(=O)[O-])c6F)c6ccc([nH]6)c(-c6cccc(S(=O)(=O)[O-])c6F)c6nc(c(-c7cccc(S(=O)(=O)[O-])c7F)c7ccc4[nH]7)C=C6)C=C5)cc3)cc2)cc1=O
REMARK SMILES IDX 20 1 19 2 18 3 17 4 16 5 14 6 15 7 13 8 10 9 11 10 92 11
REMARK SMILES IDX 12 12 91 13 9 14 8 15 6 16 7 17 5 19 1 20 2 21 3 22 94 23
REMARK SMILES IDX 4 24 93 25 95 26 21 27 22 28 23 29 24 30 25 31 26 32 27 33
REMARK SMILES IDX 28 34 29 35 90 36 30 37 89 38 31 39 32 40 33 41 83 42 34 43
REMARK SMILES IDX 88 44 82 45 84 46 35 47 87 48 81 49 80 50 36 52 68 53 48 54
REMARK SMILES IDX 67 55 49 56 52 57 66 58 85 59 50 60 51 61 65 63 86 64 53 65
REMARK SMILES IDX 37 66 38 67 46 68 39 69 41 70 47 71 40 72 42 73 43 74 44 75
REMARK SMILES IDX 45 76 69 77 70 78 78 79 71 80 73 81 79 82 72 83 74 84 75 85
REMARK SMILES IDX 76 86 77 87 54 88 55 89 63 90 56 91 58 92 64 93 57 94 59 95
REMARK SMILES IDX 60 96 61 97 62 98
REMARK H PARENT 8 18 84 51 52 62
REMARK Flexibility Score: inf
ROOT
ATOM      1  C   UNL A   1      31.426  28.527  25.844  1.00  0.00     0.188 C 
ENDROOT
BRANCH   1   2
ATOM      2  O   UNL A   1      31.204  29.152  24.603  1.00  0.00    -0.376 OA
BRANCH   2   3
ATOM      3  C   UNL A   1      30.201  28.683  23.721  1.00  0.00     0.202 C 
BRANCH   3   4
ATOM      4  C   UNL A   1      30.065  27.249  23.171  1.00  0.00     0.261 C 
BRANCH   4   5
ATOM      5  O   UNL A   1      31.025  26.803  22.210  1.00  0.00    -0.460 OA
BRANCH   5   6
ATOM      6  C   UNL A   1      32.211  26.379  22.715  1.00  0.00     0.338 C 
ATOM      7  O   UNL A   1      33.076  27.070  23.235  1.00  0.00    -0.246 OA
BRANCH   6   8
ATOM      8  C   UNL A   1      32.253  24.902  22.702  1.00  0.00     0.060 A 
ATOM      9  C   UNL A   1      32.259  22.086  22.699  1.00  0.00    -0.029 A 
ATOM     10  C   UNL A   1      31.210  22.797  23.304  1.00  0.00     0.006 A 
ATOM     11  C   UNL A   1      33.274  22.814  22.050  1.00  0.00     0.006 A 
ATOM     12  C   UNL A   1      31.214  24.195  23.319  1.00  0.00     0.016 A 
ATOM     13  C   UNL A   1      33.278  24.211  22.053  1.00  0.00     0.016 A 
BRANCH   9  14
ATOM     14  C   UNL A   1      32.244  20.572  22.716  1.00  0.00     0.152 C 
BRANCH  14  15
ATOM     15  N   UNL A   1      32.152  20.041  24.061  1.00  0.00    -0.348 N 
ATOM     16  C   UNL A   1      32.969  20.034  25.141  1.00  0.00     0.251 C 
ATOM     17  O   UNL A   1      32.599  19.335  26.091  1.00  0.00    -0.269 OA
ATOM     18  H   UNL A   1      31.301  19.575  24.229  1.00  0.00     0.164 HD
BRANCH  16  19
ATOM     19  C   UNL A   1      34.223  20.855  25.284  1.00  0.00     0.046 A 
ATOM     20  C   UNL A   1      37.435  23.628  25.662  1.00  0.00     0.153 C 
ATOM     21  N   UNL A   1      36.357  22.657  25.566  1.00  0.00    -0.319 N 
ATOM     22  C   UNL A   1      35.093  23.029  25.969  1.00  0.00     0.089 A 
ATOM     23  C   UNL A   1      36.626  21.382  25.082  1.00  0.00     0.251 A 
ATOM     24  C   UNL A   1      34.059  22.193  25.847  1.00  0.00     0.032 A 
ATOM     25  C   UNL A   1      35.466  20.450  24.986  1.00  0.00     0.085 A 
ATOM     26  O   UNL A   1      37.734  20.988  24.724  1.00  0.00    -0.269 OA
ENDBRANCH  16  19
ENDBRANCH  14  15
ENDBRANCH   9  14
ENDBRANCH   6   8
ENDBRANCH   5   6
ENDBRANCH   4   5
ENDBRANCH   3   4
ENDBRANCH   2   3
ENDBRANCH   1   2
BRANCH   1  27
ATOM     27  C   UNL A   1      32.296  29.314  26.847  1.00  0.00     0.188 C 
BRANCH  27  28
ATOM     28  O   UNL A   1      32.615  30.673  26.608  1.00  0.00    -0.376 OA
BRANCH  28  29
ATOM     29  C   UNL A   1      31.573  31.632  26.504  1.00  0.00     0.202 C 
BRANCH  29  30
ATOM     30  C   UNL A   1      31.750  33.122  26.856  1.00  0.00     0.261 C 
BRANCH  30  31
ATOM     31  O   UNL A   1      33.088  33.628  26.916  1.00  0.00    -0.460 OA
BRANCH  31  32
ATOM     32  C   UNL A   1      33.506  34.030  28.140  1.00  0.00     0.338 C 
ATOM     33  O   UNL A   1      32.959  34.834  28.880  1.00  0.00    -0.246 OA
BRANCH  32  34
ATOM     34  C   UNL A   1      34.656  33.207  28.556  1.00  0.00     0.060 A 
ATOM     35  C   UNL A   1      34.414  31.936  29.095  1.00  0.00     0.016 A 
ATOM     36  C   UNL A   1      35.956  33.702  28.462  1.00  0.00     0.016 A 
ATOM     37  C   UNL A   1      35.474  31.156  29.553  1.00  0.00     0.010 A 
ATOM     38  C   UNL A   1      37.017  32.928  28.944  1.00  0.00     0.010 A 
ATOM     39  C   UNL A   1      36.778  31.664  29.516  1.00  0.00    -0.014 A 
BRANCH  39  40
ATOM     40  C   UNL A   1      37.872  30.942  30.210  1.00  0.00     0.031 A 
ATOM     41  C   UNL A   1      38.175  31.294  31.641  1.00  0.00     0.074 A 
ATOM     42  C   UNL A   1      38.597  30.004  29.574  1.00  0.00     0.049 A 
ATOM     43  N   UNL A   1      39.125  30.846  32.418  1.00  0.00    -0.248 NA
ATOM     44  C   UNL A   1      37.292  32.285  32.278  1.00  0.00     0.031 C 
ATOM     45  C   UNL A   1      38.396  29.572  28.191  1.00  0.00     0.029 A 
ATOM     46  N   UNL A   1      39.676  29.270  30.003  1.00  0.00    -0.354 N 
ATOM     47  C   UNL A   1      38.983  31.529  33.620  1.00  0.00     0.074 A 
ATOM     48  C   UNL A   1      37.852  32.417  33.473  1.00  0.00     0.031 C 
ATOM     49  C   UNL A   1      39.351  28.682  27.871  1.00  0.00     0.029 A 
ATOM     50  C   UNL A   1      40.247  28.505  29.013  1.00  0.00     0.049 A 
ATOM     51  H   UNL A   1      40.008  29.290  30.930  1.00  0.00     0.167 HD
ATOM     52  C   UNL A   1      39.728  31.423  34.745  1.00  0.00     0.034 A 
ATOM     53  C   UNL A   1      41.384  27.780  29.018  1.00  0.00     0.034 A 
ATOM     54  C   UNL A   1      40.841  30.526  34.896  1.00  0.00     0.049 A 
ATOM     55  C   UNL A   1      42.203  27.696  30.281  1.00  0.00     0.074 A 
ATOM     56  C   UNL A   1      41.612  30.301  36.023  1.00  0.00     0.029 A 
ATOM     57  N   UNL A   1      41.356  29.725  33.891  1.00  0.00    -0.354 N 
ATOM     58  N   UNL A   1      41.980  28.245  31.451  1.00  0.00    -0.248 NA
ATOM     59  C   UNL A   1      43.417  26.865  30.236  1.00  0.00     0.031 C 
ATOM     60  C   UNL A   1      42.622  29.396  35.686  1.00  0.00     0.029 A 
ATOM     61  C   UNL A   1      42.449  29.019  34.364  1.00  0.00     0.049 A 
ATOM     62  H   UNL A   1      40.997  29.665  32.976  1.00  0.00     0.167 HD
ATOM     63  C   UNL A   1      42.999  27.796  32.285  1.00  0.00     0.074 A 
ATOM     64  C   UNL A   1      43.828  26.913  31.495  1.00  0.00     0.031 C 
ATOM     65  C   UNL A   1      43.234  28.098  33.586  1.00  0.00     0.034 A 
BRANCH  52  66
ATOM     66  C   UNL A   1      39.369  32.298  35.916  1.00  0.00     0.023 A 
ATOM     67  C   UNL A   1      39.820  33.631  35.963  1.00  0.00     0.012 A 
ATOM     68  C   UNL A   1      38.504  31.821  36.921  1.00  0.00     0.148 A 
ATOM     69  C   UNL A   1      39.430  34.472  37.005  1.00  0.00     0.002 A 
ATOM     70  C   UNL A   1      38.083  32.679  37.928  1.00  0.00     0.091 A 
ATOM     71  F   UNL A   1      38.105  30.542  36.865  1.00  0.00    -0.205 F 
ATOM     72  C   UNL A   1      38.553  34.001  37.978  1.00  0.00     0.022 A 
BRANCH  70  73
ATOM     73  S   UNL A   1      36.889  32.193  39.179  1.00  0.00     0.127 S 
ATOM     74  O   UNL A   1      35.641  32.698  38.609  1.00  0.00    -0.237 OA
ATOM     75  O   UNL A   1      37.016  30.736  39.171  1.00  0.00    -0.237 OA
ATOM     76  O   UNL A   1      37.312  32.837  40.415  1.00  0.00    -0.744 OA
ENDBRANCH  70  73
ENDBRANCH  52  66
BRANCH  53  77
ATOM     77  C   UNL A   1      41.830  27.071  27.783  1.00  0.00     0.023 A 
ATOM     78  C   UNL A   1      42.351  27.806  26.702  1.00  0.00     0.012 A 
ATOM     79  C   UNL A   1      41.715  25.671  27.670  1.00  0.00     0.148 A 
ATOM     80  C   UNL A   1      42.708  27.166  25.513  1.00  0.00     0.002 A 
ATOM     81  C   UNL A   1      42.128  25.034  26.505  1.00  0.00     0.091 A 
ATOM     82  F   UNL A   1      41.198  24.991  28.702  1.00  0.00    -0.205 F 
ATOM     83  C   UNL A   1      42.605  25.781  25.418  1.00  0.00     0.022 A 
BRANCH  81  84
ATOM     84  S   UNL A   1      42.143  23.246  26.343  1.00  0.00     0.127 S 
ATOM     85  O   UNL A   1      42.984  22.851  27.470  1.00  0.00    -0.237 OA
ATOM     86  O   UNL A   1      40.725  22.918  26.488  1.00  0.00    -0.237 OA
ATOM     87  O   UNL A   1      42.689  22.977  25.020  1.00  0.00    -0.744 OA
ENDBRANCH  81  84
ENDBRANCH  53  77
BRANCH  65  88
ATOM     88  C   UNL A   1      44.402  27.430  34.267  1.00  0.00     0.023 A 
ATOM     89  C   UNL A   1      45.652  28.075  34.324  1.00  0.00     0.012 A 
ATOM     90  C   UNL A   1      44.231  26.194  34.925  1.00  0.00     0.148 A 
ATOM     91  C   UNL A   1      46.725  27.484  34.993  1.00  0.00     0.002 A 
ATOM     92  C   UNL A   1      45.288  25.639  35.635  1.00  0.00     0.091 A 
ATOM     93  F   UNL A   1      43.036  25.589  34.849  1.00  0.00    -0.205 F 
ATOM     94  C   UNL A   1      46.540  26.274  35.658  1.00  0.00     0.022 A 
BRANCH  92  95
ATOM     95  S   UNL A   1      45.114  24.137  36.606  1.00  0.00     0.127 S 
ATOM     96  O   UNL A   1      44.076  24.518  37.562  1.00  0.00    -0.237 OA
ATOM     97  O   UNL A   1      44.687  23.166  35.598  1.00  0.00    -0.237 OA
ATOM     98  O   UNL A   1      46.425  23.874  37.182  1.00  0.00    -0.744 OA
ENDBRANCH  92  95
ENDBRANCH  65  88
ENDBRANCH  39  40
ENDBRANCH  32  34
ENDBRANCH  31  32
ENDBRANCH  30  31
ENDBRANCH  29  30
ENDBRANCH  28  29
ENDBRANCH  27  28
ENDBRANCH   1  27
TORSDOF 23
ENDMDL
MODEL 2
REMARK VINA RESULT:     -10.3      1.739      7.635
REMARK SMILES Cn1ccc(C(=O)NCc2ccc(C(=O)OCCOCCOCCOC(=O)c3ccc(-c4c5nc(c(-c6cccc(S(=O)(=O)[O-])c6F)c6ccc([nH]6)c(-c6cccc(S(=O)(=O)[O-])c6F)c6nc(c(-c7cccc(S(=O)(=O)[O-])c7F)c7ccc4[nH]7)C=C6)C=C5)cc3)cc2)cc1=O
REMARK SMILES IDX 20 1 19 2 18 3 17 4 16 5 14 6 15 7 13 8 10 9 11 10 92 11
REMARK SMILES IDX 12 12 91 13 9 14 8 15 6 16 7 17 5 19 1 20 2 21 3 22 94 23
REMARK SMILES IDX 4 24 93 25 95 26 21 27 22 28 23 29 24 30 25 31 26 32 27 33
REMARK SMILES IDX 28 34 29 35 90 36 30 37 89 38 31 39 32 40 33 41 83 42 34 43
REMARK SMILES IDX 88 44 82 45 84 46 35 47 87 48 81 49 80 50 36 52 68 53 48 54
REMARK SMILES IDX 67 55 49 56 52 57 66 58 85 59 50 60 51 61 65 63 86 64 53 65
REMARK SMILES IDX 37 66 38 67 46 68 39 69 41 70 47 71 40 72 42 73 43 74 44 75
REMARK SMILES IDX 45 76 69 77 70 78 78 79 71 80 73 81 79 82 72 83 74 84 75 85
REMARK SMILES IDX 76 86 77 87 54 88 55 89 63 90 56 91 58 92 64 93 57 94 59 95
REMARK SMILES IDX 60 96 61 97 62 98
REMARK H PARENT 8 18 84 51 52 62
REMARK Flexibility Score: inf
ROOT
ATOM      1  C   UNL A   1      32.082  28.205  26.299  1.00  0.00     0.188 C 
ENDROOT
BRANCH   1   2
ATOM      2  O   UNL A   1      31.697  28.716  25.046  1.00  0.00    -0.376 OA
BRANCH   2   3
ATOM      3  C   UNL A   1      30.657  28.109  24.301  1.00  0.00     0.202 C 
BRANCH   3   4
ATOM      4  C   UNL A   1      30.819  27.002  23.240  1.00  0.00     0.261 C 
BRANCH   4   5
ATOM      5  O   UNL A   1      32.088  26.867  22.597  1.00  0.00    -0.460 OA
BRANCH   5   6
ATOM      6  C   UNL A   1      33.034  26.190  23.297  1.00  0.00     0.338 C 
ATOM      7  O   UNL A   1      33.894  26.669  24.022  1.00  0.00    -0.246 OA
BRANCH   6   8
ATOM      8  C   UNL A   1      32.778  24.738  23.193  1.00  0.00     0.060 A 
ATOM      9  C   UNL A   1      32.361  21.962  22.964  1.00  0.00    -0.029 A 
ATOM     10  C   UNL A   1      33.416  22.585  22.277  1.00  0.00     0.006 A 
ATOM     11  C   UNL A   1      31.554  22.749  23.808  1.00  0.00     0.006 A 
ATOM     12  C   UNL A   1      33.615  23.965  22.379  1.00  0.00     0.016 A 
ATOM     13  C   UNL A   1      31.755  24.128  23.921  1.00  0.00     0.016 A 
BRANCH   9  14
ATOM     14  C   UNL A   1      32.152  20.470  22.820  1.00  0.00     0.152 C 
BRANCH  14  15
ATOM     15  N   UNL A   1      32.145  19.792  24.101  1.00  0.00    -0.348 N 
ATOM     16  C   UNL A   1      32.989  19.744  25.158  1.00  0.00     0.251 C 
ATOM     17  O   UNL A   1      32.708  18.917  26.034  1.00  0.00    -0.269 OA
ATOM     18  H   UNL A   1      31.342  19.237  24.233  1.00  0.00     0.164 HD
BRANCH  16  19
ATOM     19  C   UNL A   1      34.171  20.653  25.367  1.00  0.00     0.046 A 
ATOM     20  C   UNL A   1      37.137  23.633  26.051  1.00  0.00     0.153 C 
ATOM     21  N   UNL A   1      36.149  22.587  25.843  1.00  0.00    -0.319 N 
ATOM     22  C   UNL A   1      34.904  22.729  26.418  1.00  0.00     0.089 A 
ATOM     23  C   UNL A   1      36.482  21.473  25.081  1.00  0.00     0.251 A 
ATOM     24  C   UNL A   1      33.944  21.824  26.209  1.00  0.00     0.032 A 
ATOM     25  C   UNL A   1      35.408  20.457  24.888  1.00  0.00     0.085 A 
ATOM     26  O   UNL A   1      37.577  21.285  24.558  1.00  0.00    -0.269 OA
ENDBRANCH  16  19
ENDBRANCH  14  15
ENDBRANCH   9  14
ENDBRANCH   6   8
ENDBRANCH   5   6
ENDBRANCH   4   5
ENDBRANCH   3   4
ENDBRANCH   2   3
ENDBRANCH   1   2
BRANCH   1  27
ATOM     27  C   UNL A   1      33.102  29.055  27.087  1.00  0.00     0.188 C 
BRANCH  27  28
ATOM     28  O   UNL A   1      33.242  30.438  26.818  1.00  0.00    -0.376 OA
BRANCH  28  29
ATOM     29  C   UNL A   1      32.087  31.261  26.746  1.00  0.00     0.202 C 
BRANCH  29  30
ATOM     30  C   UNL A   1      32.035  32.705  27.281  1.00  0.00     0.261 C 
BRANCH  30  31
ATOM     31  O   UNL A   1      33.282  33.387  27.448  1.00  0.00    -0.460 OA
BRANCH  31  32
ATOM     32  C   UNL A   1      33.329  34.278  28.468  1.00  0.00     0.338 C 
ATOM     33  O   UNL A   1      32.509  35.145  28.729  1.00  0.00    -0.246 OA
BRANCH  32  34
ATOM     34  C   UNL A   1      34.449  33.935  29.363  1.00  0.00     0.060 A 
ATOM     35  C   UNL A   1      35.735  34.385  29.035  1.00  0.00     0.016 A 
ATOM     36  C   UNL A   1      34.242  33.137  30.488  1.00  0.00     0.016 A 
ATOM     37  C   UNL A   1      36.825  34.030  29.828  1.00  0.00     0.010 A 
ATOM     38  C   UNL A   1      35.340  32.761  31.268  1.00  0.00     0.010 A 
ATOM     39  C   UNL A   1      36.639  33.183  30.927  1.00  0.00    -0.014 A 
BRANCH  39  40
ATOM     40  C   UNL A   1      37.815  32.616  31.630  1.00  0.00     0.031 A 
ATOM     41  C   UNL A   1      38.555  31.472  30.992  1.00  0.00     0.074 A 
ATOM     42  C   UNL A   1      38.209  33.096  32.823  1.00  0.00     0.049 A 
ATOM     43  N   UNL A   1      39.561  30.778  31.454  1.00  0.00    -0.248 NA
ATOM     44  C   UNL A   1      38.097  31.052  29.656  1.00  0.00     0.031 C 
ATOM     45  C   UNL A   1      37.578  34.204  33.539  1.00  0.00     0.029 A 
ATOM     46  N   UNL A   1      39.217  32.684  33.660  1.00  0.00    -0.354 N 
ATOM     47  C   UNL A   1      39.829  29.814  30.490  1.00  0.00     0.074 A 
ATOM     48  C   UNL A   1      38.886  30.014  29.413  1.00  0.00     0.031 C 
ATOM     49  C   UNL A   1      38.184  34.353  34.730  1.00  0.00     0.029 A 
ATOM     50  C   UNL A   1      39.223  33.334  34.872  1.00  0.00     0.049 A 
ATOM     51  H   UNL A   1      39.871  31.989  33.416  1.00  0.00     0.167 HD
ATOM     52  C   UNL A   1      40.778  28.849  30.502  1.00  0.00     0.034 A 
ATOM     53  C   UNL A   1      39.955  33.105  35.981  1.00  0.00     0.034 A 
ATOM     54  C   UNL A   1      41.729  28.663  31.564  1.00  0.00     0.049 A 
ATOM     55  C   UNL A   1      40.993  32.010  35.970  1.00  0.00     0.074 A 
ATOM     56  C   UNL A   1      42.771  27.754  31.630  1.00  0.00     0.029 A 
ATOM     57  N   UNL A   1      41.742  29.376  32.751  1.00  0.00    -0.354 N 
ATOM     58  N   UNL A   1      41.323  31.193  35.000  1.00  0.00    -0.248 NA
ATOM     59  C   UNL A   1      41.781  31.826  37.198  1.00  0.00     0.031 C 
ATOM     60  C   UNL A   1      43.387  27.889  32.878  1.00  0.00     0.029 A 
ATOM     61  C   UNL A   1      42.760  28.915  33.567  1.00  0.00     0.049 A 
ATOM     62  H   UNL A   1      41.119  30.104  32.979  1.00  0.00     0.167 HD
ATOM     63  C   UNL A   1      42.380  30.429  35.486  1.00  0.00     0.074 A 
ATOM     64  C   UNL A   1      42.649  30.895  36.829  1.00  0.00     0.031 C 
ATOM     65  C   UNL A   1      43.058  29.424  34.879  1.00  0.00     0.034 A 
BRANCH  52  66
ATOM     66  C   UNL A   1      40.849  27.911  29.326  1.00  0.00     0.023 A 
ATOM     67  C   UNL A   1      39.988  26.798  29.262  1.00  0.00     0.012 A 
ATOM     68  C   UNL A   1      41.704  28.192  28.242  1.00  0.00     0.148 A 
ATOM     69  C   UNL A   1      39.992  25.967  28.142  1.00  0.00     0.002 A 
ATOM     70  C   UNL A   1      41.667  27.387  27.112  1.00  0.00     0.091 A 
ATOM     71  F   UNL A   1      42.529  29.246  28.337  1.00  0.00    -0.205 F 
ATOM     72  C   UNL A   1      40.821  26.268  27.064  1.00  0.00     0.022 A 
BRANCH  70  73
ATOM     73  S   UNL A   1      42.633  27.740  25.639  1.00  0.00     0.127 S 
ATOM     74  O   UNL A   1      42.201  26.670  24.740  1.00  0.00    -0.237 OA
ATOM     75  O   UNL A   1      42.154  29.073  25.273  1.00  0.00    -0.237 OA
ATOM     76  O   UNL A   1      44.029  27.682  26.046  1.00  0.00    -0.744 OA
ENDBRANCH  70  73
ENDBRANCH  52  66
BRANCH  53  77
ATOM     77  C   UNL A   1      39.736  33.922  37.210  1.00  0.00     0.023 A 
ATOM     78  C   UNL A   1      40.316  35.201  37.314  1.00  0.00     0.012 A 
ATOM     79  C   UNL A   1      38.975  33.424  38.286  1.00  0.00     0.148 A 
ATOM     80  C   UNL A   1      40.179  35.951  38.484  1.00  0.00     0.002 A 
ATOM     81  C   UNL A   1      38.794  34.200  39.424  1.00  0.00     0.091 A 
ATOM     82  F   UNL A   1      38.448  32.197  38.176  1.00  0.00    -0.205 F 
ATOM     83  C   UNL A   1      39.412  35.455  39.534  1.00  0.00     0.022 A 
BRANCH  81  84
ATOM     84  S   UNL A   1      37.724  33.691  40.773  1.00  0.00     0.127 S 
ATOM     85  O   UNL A   1      36.557  33.185  40.055  1.00  0.00    -0.237 OA
ATOM     86  O   UNL A   1      38.534  32.666  41.431  1.00  0.00    -0.237 OA
ATOM     87  O   UNL A   1      37.505  34.888  41.574  1.00  0.00    -0.744 OA
ENDBRANCH  81  84
ENDBRANCH  53  77
BRANCH  65  88
ATOM     88  C   UNL A   1      44.199  28.786  35.631  1.00  0.00     0.023 A 
ATOM     89  C   UNL A   1      45.511  29.275  35.477  1.00  0.00     0.012 A 
ATOM     90  C   UNL A   1      43.952  27.750  36.556  1.00  0.00     0.148 A 
ATOM     91  C   UNL A   1      46.564  28.720  36.205  1.00  0.00     0.002 A 
ATOM     92  C   UNL A   1      44.997  27.240  37.316  1.00  0.00     0.091 A 
ATOM     93  F   UNL A   1      42.699  27.288  36.679  1.00  0.00    -0.205 F 
ATOM     94  C   UNL A   1      46.306  27.713  37.131  1.00  0.00     0.022 A 
BRANCH  92  95
ATOM     95  S   UNL A   1      44.743  26.014  38.605  1.00  0.00     0.127 S 
ATOM     96  O   UNL A   1      44.167  24.903  37.849  1.00  0.00    -0.237 OA
ATOM     97  O   UNL A   1      46.106  25.783  39.084  1.00  0.00    -0.237 OA
ATOM     98  O   UNL A   1      43.855  26.631  39.580  1.00  0.00    -0.744 OA
ENDBRANCH  92  95
ENDBRANCH  65  88
ENDBRANCH  39  40
ENDBRANCH  32  34
ENDBRANCH  31  32
ENDBRANCH  30  31
ENDBRANCH  29  30
ENDBRANCH  28  29
ENDBRANCH  27  28
ENDBRANCH   1  27
TORSDOF 23
ENDMDL
MODEL 3
REMARK VINA RESULT:      -9.6      3.300      9.564
REMARK SMILES Cn1ccc(C(=O)NCc2ccc(C(=O)OCCOCCOCCOC(=O)c3ccc(-c4c5nc(c(-c6cccc(S(=O)(=O)[O-])c6F)c6ccc([nH]6)c(-c6cccc(S(=O)(=O)[O-])c6F)c6nc(c(-c7cccc(S(=O)(=O)[O-])c7F)c7ccc4[nH]7)C=C6)C=C5)cc3)cc2)cc1=O
REMARK SMILES IDX 20 1 19 2 18 3 17 4 16 5 14 6 15 7 13 8 10 9 11 10 92 11
REMARK SMILES IDX 12 12 91 13 9 14 8 15 6 16 7 17 5 19 1 20 2 21 3 22 94 23
REMARK SMILES IDX 4 24 93 25 95 26 21 27 22 28 23 29 24 30 25 31 26 32 27 33
REMARK SMILES IDX 28 34 29 35 90 36 30 37 89 38 31 39 32 40 33 41 83 42 34 43
REMARK SMILES IDX 88 44 82 45 84 46 35 47 87 48 81 49 80 50 36 52 68 53 48 54
REMARK SMILES IDX 67 55 49 56 52 57 66 58 85 59 50 60 51 61 65 63 86 64 53 65
REMARK SMILES IDX 37 66 38 67 46 68 39 69 41 70 47 71 40 72 42 73 43 74 44 75
REMARK SMILES IDX 45 76 69 77 70 78 78 79 71 80 73 81 79 82 72 83 74 84 75 85
REMARK SMILES IDX 76 86 77 87 54 88 55 89 63 90 56 91 58 92 64 93 57 94 59 95
REMARK SMILES IDX 60 96 61 97 62 98
REMARK H PARENT 8 18 84 51 52 62
REMARK Flexibility Score: inf
ROOT
ATOM      1  C   UNL A   1      42.097  18.690  26.628  1.00  0.00     0.188 C 
ENDROOT
BRANCH   1   2
ATOM      2  O   UNL A   1      41.578  19.794  27.331  1.00  0.00    -0.376 OA
BRANCH   2   3
ATOM      3  C   UNL A   1      40.663  20.682  26.717  1.00  0.00     0.202 C 
BRANCH   3   4
ATOM      4  C   UNL A   1      39.725  20.356  25.537  1.00  0.00     0.261 C 
BRANCH   4   5
ATOM      5  O   UNL A   1      38.502  21.088  25.427  1.00  0.00    -0.460 OA
BRANCH   5   6
ATOM      6  C   UNL A   1      37.432  20.382  24.983  1.00  0.00     0.338 C 
ATOM      7  O   UNL A   1      37.293  19.167  25.007  1.00  0.00    -0.246 OA
BRANCH   6   8
ATOM      8  C   UNL A   1      36.349  21.314  24.605  1.00  0.00     0.060 A 
ATOM      9  C   UNL A   1      34.245  23.065  23.944  1.00  0.00    -0.029 A 
ATOM     10  C   UNL A   1      34.048  22.031  24.873  1.00  0.00     0.006 A 
ATOM     11  C   UNL A   1      35.530  23.236  23.395  1.00  0.00     0.006 A 
ATOM     12  C   UNL A   1      35.088  21.152  25.190  1.00  0.00     0.016 A 
ATOM     13  C   UNL A   1      36.576  22.366  23.716  1.00  0.00     0.016 A 
BRANCH   9  14
ATOM     14  C   UNL A   1      33.097  23.990  23.599  1.00  0.00     0.152 C 
BRANCH  14  15
ATOM     15  N   UNL A   1      33.328  24.711  22.362  1.00  0.00    -0.348 N 
ATOM     16  C   UNL A   1      33.070  25.967  21.930  1.00  0.00     0.251 C 
ATOM     17  O   UNL A   1      33.284  26.177  20.730  1.00  0.00    -0.269 OA
ATOM     18  H   UNL A   1      33.772  24.159  21.678  1.00  0.00     0.164 HD
BRANCH  16  19
ATOM     19  C   UNL A   1      32.623  27.110  22.802  1.00  0.00     0.046 A 
ATOM     20  C   UNL A   1      31.664  30.105  25.677  1.00  0.00     0.153 C 
ATOM     21  N   UNL A   1      31.998  29.115  24.664  1.00  0.00    -0.319 N 
ATOM     22  C   UNL A   1      33.175  28.409  24.792  1.00  0.00     0.089 A 
ATOM     23  C   UNL A   1      31.133  28.912  23.596  1.00  0.00     0.251 A 
ATOM     24  C   UNL A   1      33.498  27.450  23.920  1.00  0.00     0.032 A 
ATOM     25  C   UNL A   1      31.528  27.861  22.614  1.00  0.00     0.085 A 
ATOM     26  O   UNL A   1      30.081  29.521  23.421  1.00  0.00    -0.269 OA
ENDBRANCH  16  19
ENDBRANCH  14  15
ENDBRANCH   9  14
ENDBRANCH   6   8
ENDBRANCH   5   6
ENDBRANCH   4   5
ENDBRANCH   3   4
ENDBRANCH   2   3
ENDBRANCH   1   2
BRANCH   1  27
ATOM     27  C   UNL A   1      43.237  19.001  25.636  1.00  0.00     0.188 C 
BRANCH  27  28
ATOM     28  O   UNL A   1      44.235  19.951  25.965  1.00  0.00    -0.376 OA
BRANCH  28  29
ATOM     29  C   UNL A   1      45.079  20.465  24.946  1.00  0.00     0.202 C 
BRANCH  29  30
ATOM     30  C   UNL A   1      45.527  21.938  24.872  1.00  0.00     0.261 C 
BRANCH  30  31
ATOM     31  O   UNL A   1      44.846  22.872  25.716  1.00  0.00    -0.460 OA
BRANCH  31  32
ATOM     32  C   UNL A   1      43.817  23.539  25.138  1.00  0.00     0.338 C 
ATOM     33  O   UNL A   1      43.353  23.357  24.023  1.00  0.00    -0.246 OA
BRANCH  32  34
ATOM     34  C   UNL A   1      43.190  24.425  26.136  1.00  0.00     0.060 A 
ATOM     35  C   UNL A   1      43.477  25.797  26.093  1.00  0.00     0.016 A 
ATOM     36  C   UNL A   1      42.367  23.904  27.133  1.00  0.00     0.016 A 
ATOM     37  C   UNL A   1      42.947  26.653  27.056  1.00  0.00     0.010 A 
ATOM     38  C   UNL A   1      41.857  24.761  28.113  1.00  0.00     0.010 A 
ATOM     39  C   UNL A   1      42.166  26.134  28.095  1.00  0.00    -0.014 A 
BRANCH  39  40
ATOM     40  C   UNL A   1      41.797  26.996  29.244  1.00  0.00     0.031 A 
ATOM     41  C   UNL A   1      40.515  27.781  29.174  1.00  0.00     0.074 A 
ATOM     42  C   UNL A   1      42.595  27.095  30.322  1.00  0.00     0.049 A 
ATOM     43  N   UNL A   1      40.029  28.646  30.024  1.00  0.00    -0.248 NA
ATOM     44  C   UNL A   1      39.671  27.562  27.987  1.00  0.00     0.031 C 
ATOM     45  C   UNL A   1      43.858  26.382  30.509  1.00  0.00     0.029 A 
ATOM     46  N   UNL A   1      42.475  27.870  31.450  1.00  0.00    -0.354 N 
ATOM     47  C   UNL A   1      38.848  29.109  29.458  1.00  0.00     0.074 A 
ATOM     48  C   UNL A   1      38.684  28.424  28.195  1.00  0.00     0.031 C 
ATOM     49  C   UNL A   1      44.420  26.787  31.661  1.00  0.00     0.029 A 
ATOM     50  C   UNL A   1      43.573  27.809  32.276  1.00  0.00     0.049 A 
ATOM     51  H   UNL A   1      41.680  28.416  31.648  1.00  0.00     0.167 HD
ATOM     52  C   UNL A   1      37.976  30.021  29.948  1.00  0.00     0.034 A 
ATOM     53  C   UNL A   1      43.877  28.524  33.377  1.00  0.00     0.034 A 
ATOM     54  C   UNL A   1      38.130  30.687  31.213  1.00  0.00     0.049 A 
ATOM     55  C   UNL A   1      42.894  29.548  33.890  1.00  0.00     0.074 A 
ATOM     56  C   UNL A   1      37.262  31.576  31.823  1.00  0.00     0.029 A 
ATOM     57  N   UNL A   1      39.226  30.558  32.049  1.00  0.00    -0.354 N 
ATOM     58  N   UNL A   1      41.718  29.877  33.412  1.00  0.00    -0.248 NA
ATOM     59  C   UNL A   1      43.266  30.277  35.112  1.00  0.00     0.031 C 
ATOM     60  C   UNL A   1      37.855  32.019  33.009  1.00  0.00     0.029 A 
ATOM     61  C   UNL A   1      39.068  31.367  33.161  1.00  0.00     0.049 A 
ATOM     62  H   UNL A   1      40.001  29.976  31.879  1.00  0.00     0.167 HD
ATOM     63  C   UNL A   1      41.197  30.819  34.295  1.00  0.00     0.074 A 
ATOM     64  C   UNL A   1      42.175  30.991  35.348  1.00  0.00     0.031 C 
ATOM     65  C   UNL A   1      40.020  31.489  34.233  1.00  0.00     0.034 A 
BRANCH  52  66
ATOM     66  C   UNL A   1      36.766  30.360  29.120  1.00  0.00     0.023 A 
ATOM     67  C   UNL A   1      35.972  29.328  28.580  1.00  0.00     0.012 A 
ATOM     68  C   UNL A   1      36.365  31.700  28.960  1.00  0.00     0.148 A 
ATOM     69  C   UNL A   1      34.806  29.629  27.877  1.00  0.00     0.002 A 
ATOM     70  C   UNL A   1      35.179  31.989  28.299  1.00  0.00     0.091 A 
ATOM     71  F   UNL A   1      37.148  32.665  29.465  1.00  0.00    -0.205 F 
ATOM     72  C   UNL A   1      34.404  30.956  27.747  1.00  0.00     0.022 A 
BRANCH  70  73
ATOM     73  S   UNL A   1      34.531  33.658  28.154  1.00  0.00     0.127 S 
ATOM     74  O   UNL A   1      33.164  33.405  27.700  1.00  0.00    -0.237 OA
ATOM     75  O   UNL A   1      34.636  34.146  29.528  1.00  0.00    -0.237 OA
ATOM     76  O   UNL A   1      35.386  34.342  27.194  1.00  0.00    -0.744 OA
ENDBRANCH  70  73
ENDBRANCH  52  66
BRANCH  53  77
ATOM     77  C   UNL A   1      45.175  28.311  34.080  1.00  0.00     0.023 A 
ATOM     78  C   UNL A   1      45.260  27.376  35.130  1.00  0.00     0.012 A 
ATOM     79  C   UNL A   1      46.321  29.050  33.725  1.00  0.00     0.148 A 
ATOM     80  C   UNL A   1      46.449  27.214  35.843  1.00  0.00     0.002 A 
ATOM     81  C   UNL A   1      47.517  28.840  34.401  1.00  0.00     0.091 A 
ATOM     82  F   UNL A   1      46.217  29.948  32.737  1.00  0.00    -0.205 F 
ATOM     83  C   UNL A   1      47.579  27.938  35.474  1.00  0.00     0.022 A 
BRANCH  81  84
ATOM     84  S   UNL A   1      49.049  29.641  33.913  1.00  0.00     0.127 S 
ATOM     85  O   UNL A   1      48.758  31.043  34.199  1.00  0.00    -0.237 OA
ATOM     86  O   UNL A   1      50.017  29.017  34.816  1.00  0.00    -0.237 OA
ATOM     87  O   UNL A   1      49.236  29.306  32.508  1.00  0.00    -0.744 OA
ENDBRANCH  81  84
ENDBRANCH  53  77
BRANCH  65  88
ATOM     88  C   UNL A   1      39.684  32.435  35.359  1.00  0.00     0.023 A 
ATOM     89  C   UNL A   1      38.949  31.981  36.470  1.00  0.00     0.012 A 
ATOM     90  C   UNL A   1      40.174  33.758  35.347  1.00  0.00     0.148 A 
ATOM     91  C   UNL A   1      38.675  32.838  37.536  1.00  0.00     0.002 A 
ATOM     92  C   UNL A   1      39.944  34.588  36.436  1.00  0.00     0.091 A 
ATOM     93  F   UNL A   1      40.861  34.176  34.274  1.00  0.00    -0.205 F 
ATOM     94  C   UNL A   1      39.182  34.136  37.526  1.00  0.00     0.022 A 
BRANCH  92  95
ATOM     95  S   UNL A   1      40.643  36.239  36.556  1.00  0.00     0.127 S 
ATOM     96  O   UNL A   1      40.249  36.632  37.908  1.00  0.00    -0.237 OA
ATOM     97  O   UNL A   1      42.073  35.982  36.388  1.00  0.00    -0.237 OA
ATOM     98  O   UNL A   1      40.037  37.013  35.481  1.00  0.00    -0.744 OA
ENDBRANCH  92  95
ENDBRANCH  65  88
ENDBRANCH  39  40
ENDBRANCH  32  34
ENDBRANCH  31  32
ENDBRANCH  30  31
ENDBRANCH  29  30
ENDBRANCH  28  29
ENDBRANCH  27  28
ENDBRANCH   1  27
TORSDOF 23
ENDMDL
