MODEL 1
REMARK VINA RESULT:      -9.4      0.000      0.000
REMARK SMILES O=C(OCCOCCOCCOC(=O)c1cc(-c2cccc(C(F)(F)F)c2)nc2c(F)cccc12)c1ccc(-c2c3nc(c(-c4cccc(S(=O)(=O)[O-])c4F)c4ccc([nH]4)c(-c4cccc(S(=O)(=O)[O-])c4F)c4nc(c(-c5cccc(S(=O)(=O)[O-])c5F)c5ccc2[nH]5)C=C4)C=C3)cc1
REMARK SMILES IDX 7 1 6 2 5 3 4 4 3 5 2 6 1 7 36 8 37 9 98 10 38 11 97 12
REMARK SMILES IDX 39 13 40 14 41 15 91 16 42 17 96 18 90 19 92 20 43 21 95 22
REMARK SMILES IDX 89 23 88 24 44 26 76 27 56 28 75 29 57 30 60 31 74 32 93 33
REMARK SMILES IDX 58 34 59 35 73 37 94 38 61 39 45 40 46 41 54 42 47 43 49 44
REMARK SMILES IDX 55 45 48 46 50 47 51 48 52 49 53 50 77 51 78 52 86 53 79 54
REMARK SMILES IDX 81 55 87 56 80 57 82 58 83 59 84 60 85 61 62 62 63 63 71 64
REMARK SMILES IDX 64 65 66 66 72 67 65 68 67 69 68 70 69 71 70 72 8 73 9 74
REMARK SMILES IDX 10 75 11 76 12 77 13 78 14 79 15 80 16 81 35 82 17 83 29 84
REMARK SMILES IDX 34 85 28 86 30 87 33 88 31 89 32 90 18 91 19 92 27 93 20 94
REMARK SMILES IDX 22 95 21 96 23 97 24 98 25 99 26 100
REMARK H PARENT 92 25 60 36
REMARK Flexibility Score: inf
ROOT
ATOM      1  C   UNL A   1      42.947  19.313  25.582  1.00  0.00     0.188 C 
ENDROOT
BRANCH   1   2
ATOM      2  O   UNL A   1      42.870  19.994  26.839  1.00  0.00    -0.376 OA
BRANCH   2   3
ATOM      3  C   UNL A   1      41.575  19.960  27.440  1.00  0.00     0.202 C 
BRANCH   3   4
ATOM      4  C   UNL A   1      40.439  20.461  26.537  1.00  0.00     0.261 C 
BRANCH   4   5
ATOM      5  O   UNL A   1      40.553  21.865  26.250  1.00  0.00    -0.460 OA
BRANCH   5   6
ATOM      6  C   UNL A   1      39.564  22.790  26.345  1.00  0.00     0.338 C 
ATOM      7  O   UNL A   1      38.411  22.485  26.048  1.00  0.00    -0.246 OA
BRANCH   6   8
ATOM      8  C   UNL A   1      39.819  24.163  26.860  1.00  0.00     0.060 A 
ATOM      9  C   UNL A   1      40.118  25.249  26.039  1.00  0.00     0.016 A 
ATOM     10  C   UNL A   1      39.651  24.391  28.233  1.00  0.00     0.016 A 
ATOM     11  C   UNL A   1      40.418  26.492  26.582  1.00  0.00     0.010 A 
ATOM     12  C   UNL A   1      39.829  25.674  28.768  1.00  0.00     0.010 A 
ATOM     13  C   UNL A   1      40.283  26.722  27.954  1.00  0.00    -0.014 A 
BRANCH  13  14
ATOM     14  C   UNL A   1      40.731  28.024  28.518  1.00  0.00     0.031 A 
ATOM     15  C   UNL A   1      42.201  28.352  28.529  1.00  0.00     0.074 A 
ATOM     16  C   UNL A   1      39.827  28.940  28.923  1.00  0.00     0.049 A 
ATOM     17  N   UNL A   1      42.807  29.420  28.981  1.00  0.00    -0.248 NA
ATOM     18  C   UNL A   1      43.120  27.345  27.967  1.00  0.00     0.031 C 
ATOM     19  C   UNL A   1      38.374  28.747  28.953  1.00  0.00     0.029 A 
ATOM     20  N   UNL A   1      39.993  30.230  29.362  1.00  0.00    -0.354 N 
ATOM     21  C   UNL A   1      44.167  29.181  28.821  1.00  0.00     0.074 A 
ATOM     22  C   UNL A   1      44.304  27.867  28.239  1.00  0.00     0.031 C 
ATOM     23  C   UNL A   1      37.784  29.891  29.337  1.00  0.00     0.029 A 
ATOM     24  C   UNL A   1      38.810  30.877  29.637  1.00  0.00     0.049 A 
ATOM     25  H   UNL A   1      40.875  30.652  29.470  1.00  0.00     0.167 HD
ATOM     26  C   UNL A   1      45.212  29.993  29.107  1.00  0.00     0.034 A 
ATOM     27  C   UNL A   1      38.576  32.125  30.086  1.00  0.00     0.034 A 
ATOM     28  C   UNL A   1      45.068  31.326  29.617  1.00  0.00     0.049 A 
ATOM     29  C   UNL A   1      39.753  33.026  30.335  1.00  0.00     0.074 A 
ATOM     30  C   UNL A   1      46.055  32.231  29.964  1.00  0.00     0.029 A 
ATOM     31  N   UNL A   1      43.851  31.956  29.830  1.00  0.00    -0.354 N 
ATOM     32  N   UNL A   1      41.028  32.782  30.158  1.00  0.00    -0.248 NA
ATOM     33  C   UNL A   1      39.456  34.381  30.820  1.00  0.00     0.031 C 
ATOM     34  C   UNL A   1      45.432  33.414  30.374  1.00  0.00     0.029 A 
ATOM     35  C   UNL A   1      44.060  33.247  30.277  1.00  0.00     0.049 A 
ATOM     36  H   UNL A   1      42.969  31.544  29.683  1.00  0.00     0.167 HD
ATOM     37  C   UNL A   1      41.688  33.951  30.512  1.00  0.00     0.074 A 
ATOM     38  C   UNL A   1      40.667  34.917  30.865  1.00  0.00     0.031 C 
ATOM     39  C   UNL A   1      43.019  34.196  30.576  1.00  0.00     0.034 A 
BRANCH  26  40
ATOM     40  C   UNL A   1      46.590  29.456  28.835  1.00  0.00     0.023 A 
ATOM     41  C   UNL A   1      47.185  29.674  27.575  1.00  0.00     0.012 A 
ATOM     42  C   UNL A   1      47.290  28.721  29.812  1.00  0.00     0.148 A 
ATOM     43  C   UNL A   1      48.437  29.137  27.277  1.00  0.00     0.002 A 
ATOM     44  C   UNL A   1      48.553  28.218  29.520  1.00  0.00     0.091 A 
ATOM     45  F   UNL A   1      46.697  28.503  30.994  1.00  0.00    -0.205 F 
ATOM     46  C   UNL A   1      49.123  28.415  28.250  1.00  0.00     0.022 A 
BRANCH  44  47
ATOM     47  S   UNL A   1      49.539  27.312  30.717  1.00  0.00     0.127 S 
ATOM     48  O   UNL A   1      49.305  28.087  31.936  1.00  0.00    -0.237 OA
ATOM     49  O   UNL A   1      48.906  25.994  30.702  1.00  0.00    -0.237 OA
ATOM     50  O   UNL A   1      50.905  27.337  30.214  1.00  0.00    -0.744 OA
ENDBRANCH  44  47
ENDBRANCH  26  40
BRANCH  27  51
ATOM     51  C   UNL A   1      37.187  32.624  30.292  1.00  0.00     0.023 A 
ATOM     52  C   UNL A   1      36.403  32.947  29.167  1.00  0.00     0.012 A 
ATOM     53  C   UNL A   1      36.659  32.825  31.582  1.00  0.00     0.148 A 
ATOM     54  C   UNL A   1      35.127  33.492  29.321  1.00  0.00     0.002 A 
ATOM     55  C   UNL A   1      35.380  33.355  31.729  1.00  0.00     0.091 A 
ATOM     56  F   UNL A   1      37.423  32.510  32.636  1.00  0.00    -0.205 F 
ATOM     57  C   UNL A   1      34.617  33.694  30.599  1.00  0.00     0.022 A 
BRANCH  55  58
ATOM     58  S   UNL A   1      34.604  33.623  33.327  1.00  0.00     0.127 S 
ATOM     59  O   UNL A   1      34.749  35.068  33.488  1.00  0.00    -0.237 OA
ATOM     60  O   UNL A   1      33.235  33.172  33.068  1.00  0.00    -0.237 OA
ATOM     61  O   UNL A   1      35.348  32.807  34.272  1.00  0.00    -0.744 OA
ENDBRANCH  55  58
ENDBRANCH  27  51
BRANCH  39  62
ATOM     62  C   UNL A   1      43.439  35.559  31.042  1.00  0.00     0.023 A 
ATOM     63  C   UNL A   1      43.845  35.735  32.380  1.00  0.00     0.012 A 
ATOM     64  C   UNL A   1      43.497  36.642  30.147  1.00  0.00     0.148 A 
ATOM     65  C   UNL A   1      44.281  36.980  32.826  1.00  0.00     0.002 A 
ATOM     66  C   UNL A   1      43.972  37.870  30.589  1.00  0.00     0.091 A 
ATOM     67  F   UNL A   1      43.076  36.458  28.887  1.00  0.00    -0.205 F 
ATOM     68  C   UNL A   1      44.356  38.044  31.929  1.00  0.00     0.022 A 
BRANCH  66  69
ATOM     69  S   UNL A   1      44.180  39.259  29.470  1.00  0.00     0.127 S 
ATOM     70  O   UNL A   1      42.797  39.579  29.127  1.00  0.00    -0.237 OA
ATOM     71  O   UNL A   1      44.845  40.251  30.317  1.00  0.00    -0.237 OA
ATOM     72  O   UNL A   1      45.005  38.760  28.378  1.00  0.00    -0.744 OA
ENDBRANCH  66  69
ENDBRANCH  39  62
ENDBRANCH  13  14
ENDBRANCH   6   8
ENDBRANCH   5   6
ENDBRANCH   4   5
ENDBRANCH   3   4
ENDBRANCH   2   3
ENDBRANCH   1   2
BRANCH   1  73
ATOM     73  C   UNL A   1      43.984  18.190  25.651  1.00  0.00     0.188 C 
BRANCH  73  74
ATOM     74  O   UNL A   1      45.338  18.617  25.479  1.00  0.00    -0.376 OA
BRANCH  74  75
ATOM     75  C   UNL A   1      45.666  19.247  24.242  1.00  0.00     0.202 C 
BRANCH  75  76
ATOM     76  C   UNL A   1      45.848  20.767  24.279  1.00  0.00     0.261 C 
BRANCH  76  77
ATOM     77  O   UNL A   1      45.280  21.419  25.429  1.00  0.00    -0.460 OA
BRANCH  77  78
ATOM     78  C   UNL A   1      44.873  22.692  25.202  1.00  0.00     0.338 C 
ATOM     79  O   UNL A   1      44.121  23.083  24.327  1.00  0.00    -0.246 OA
BRANCH  78  80
ATOM     80  C   UNL A   1      45.524  23.620  26.137  1.00  0.00     0.071 A 
ATOM     81  C   UNL A   1      46.810  24.067  25.836  1.00  0.00     0.045 A 
ATOM     82  C   UNL A   1      44.932  23.850  27.396  1.00  0.00     0.018 A 
ATOM     83  C   UNL A   1      47.513  24.720  26.831  1.00  0.00     0.072 A 
ATOM     84  C   UNL A   1      45.738  24.492  28.348  1.00  0.00     0.107 A 
ATOM     85  C   UNL A   1      43.612  23.456  27.742  1.00  0.00     0.011 A 
ATOM     86  N   UNL A   1      46.990  24.908  28.060  1.00  0.00    -0.245 NA
ATOM     87  C   UNL A   1      45.213  24.677  29.623  1.00  0.00     0.149 A 
ATOM     88  C   UNL A   1      43.109  23.680  29.019  1.00  0.00     0.004 A 
ATOM     89  F   UNL A   1      45.965  25.267  30.563  1.00  0.00    -0.205 F 
ATOM     90  C   UNL A   1      43.923  24.278  29.968  1.00  0.00     0.041 A 
BRANCH  83  91
ATOM     91  C   UNL A   1      48.880  25.236  26.660  1.00  0.00     0.001 A 
ATOM     92  C   UNL A   1      49.891  24.925  27.577  1.00  0.00     0.010 A 
ATOM     93  C   UNL A   1      49.226  26.021  25.546  1.00  0.00     0.023 A 
ATOM     94  C   UNL A   1      51.205  25.358  27.391  1.00  0.00     0.001 A 
ATOM     95  C   UNL A   1      50.537  26.494  25.357  1.00  0.00     0.056 A 
ATOM     96  C   UNL A   1      51.526  26.142  26.286  1.00  0.00     0.013 A 
BRANCH  95  97
ATOM     97  C   UNL A   1      50.891  27.382  24.192  1.00  0.00     0.416 C 
ATOM     98  F   UNL A   1      51.281  26.657  23.102  1.00  0.00    -0.166 F 
ATOM     99  F   UNL A   1      49.845  28.143  23.764  1.00  0.00    -0.166 F 
ATOM    100  F   UNL A   1      51.914  28.246  24.436  1.00  0.00    -0.166 F 
ENDBRANCH  95  97
ENDBRANCH  83  91
ENDBRANCH  78  80
ENDBRANCH  77  78
ENDBRANCH  76  77
ENDBRANCH  75  76
ENDBRANCH  74  75
ENDBRANCH  73  74
ENDBRANCH   1  73
TORSDOF 22
ENDMDL
MODEL 2
REMARK VINA RESULT:      -9.4      4.710     11.692
REMARK SMILES O=C(OCCOCCOCCOC(=O)c1cc(-c2cccc(C(F)(F)F)c2)nc2c(F)cccc12)c1ccc(-c2c3nc(c(-c4cccc(S(=O)(=O)[O-])c4F)c4ccc([nH]4)c(-c4cccc(S(=O)(=O)[O-])c4F)c4nc(c(-c5cccc(S(=O)(=O)[O-])c5F)c5ccc2[nH]5)C=C4)C=C3)cc1
REMARK SMILES IDX 7 1 6 2 5 3 4 4 3 5 2 6 1 7 36 8 37 9 98 10 38 11 97 12
REMARK SMILES IDX 39 13 40 14 41 15 91 16 42 17 96 18 90 19 92 20 43 21 95 22
REMARK SMILES IDX 89 23 88 24 44 26 76 27 56 28 75 29 57 30 60 31 74 32 93 33
REMARK SMILES IDX 58 34 59 35 73 37 94 38 61 39 45 40 46 41 54 42 47 43 49 44
REMARK SMILES IDX 55 45 48 46 50 47 51 48 52 49 53 50 77 51 78 52 86 53 79 54
REMARK SMILES IDX 81 55 87 56 80 57 82 58 83 59 84 60 85 61 62 62 63 63 71 64
REMARK SMILES IDX 64 65 66 66 72 67 65 68 67 69 68 70 69 71 70 72 8 73 9 74
REMARK SMILES IDX 10 75 11 76 12 77 13 78 14 79 15 80 16 81 35 82 17 83 29 84
REMARK SMILES IDX 34 85 28 86 30 87 33 88 31 89 32 90 18 91 19 92 27 93 20 94
REMARK SMILES IDX 22 95 21 96 23 97 24 98 25 99 26 100
REMARK H PARENT 92 25 60 36
REMARK Flexibility Score: inf
ROOT
ATOM      1  C   UNL A   1      37.307  23.287  25.468  1.00  0.00     0.188 C 
ENDROOT
BRANCH   1   2
ATOM      2  O   UNL A   1      37.517  21.872  25.407  1.00  0.00    -0.376 OA
BRANCH   2   3
ATOM      3  C   UNL A   1      38.845  21.467  25.744  1.00  0.00     0.202 C 
BRANCH   3   4
ATOM      4  C   UNL A   1      39.184  20.017  25.372  1.00  0.00     0.261 C 
BRANCH   4   5
ATOM      5  O   UNL A   1      40.144  19.436  26.271  1.00  0.00    -0.460 OA
BRANCH   5   6
ATOM      6  C   UNL A   1      41.495  19.543  26.187  1.00  0.00     0.338 C 
ATOM      7  O   UNL A   1      42.169  18.556  25.899  1.00  0.00    -0.246 OA
BRANCH   6   8
ATOM      8  C   UNL A   1      42.193  20.844  26.373  1.00  0.00     0.060 A 
ATOM      9  C   UNL A   1      42.543  21.356  27.621  1.00  0.00     0.016 A 
ATOM     10  C   UNL A   1      42.606  21.538  25.228  1.00  0.00     0.016 A 
ATOM     11  C   UNL A   1      43.129  22.611  27.738  1.00  0.00     0.010 A 
ATOM     12  C   UNL A   1      43.311  22.743  25.342  1.00  0.00     0.010 A 
ATOM     13  C   UNL A   1      43.517  23.325  26.601  1.00  0.00    -0.014 A 
BRANCH  13  14
ATOM     14  C   UNL A   1      44.026  24.714  26.757  1.00  0.00     0.031 A 
ATOM     15  C   UNL A   1      43.134  25.758  27.378  1.00  0.00     0.074 A 
ATOM     16  C   UNL A   1      45.302  25.014  26.439  1.00  0.00     0.049 A 
ATOM     17  N   UNL A   1      43.372  27.025  27.597  1.00  0.00    -0.248 NA
ATOM     18  C   UNL A   1      41.789  25.326  27.802  1.00  0.00     0.031 C 
ATOM     19  C   UNL A   1      46.270  24.089  25.839  1.00  0.00     0.029 A 
ATOM     20  N   UNL A   1      46.018  26.174  26.600  1.00  0.00    -0.354 N 
ATOM     21  C   UNL A   1      42.193  27.549  28.115  1.00  0.00     0.074 A 
ATOM     22  C   UNL A   1      41.235  26.469  28.173  1.00  0.00     0.031 C 
ATOM     23  C   UNL A   1      47.459  24.704  25.732  1.00  0.00     0.029 A 
ATOM     24  C   UNL A   1      47.330  26.075  26.197  1.00  0.00     0.049 A 
ATOM     25  H   UNL A   1      45.629  26.999  26.969  1.00  0.00     0.167 HD
ATOM     26  C   UNL A   1      41.934  28.809  28.534  1.00  0.00     0.034 A 
ATOM     27  C   UNL A   1      48.318  26.989  26.196  1.00  0.00     0.034 A 
ATOM     28  C   UNL A   1      42.910  29.861  28.543  1.00  0.00     0.049 A 
ATOM     29  C   UNL A   1      48.020  28.364  26.724  1.00  0.00     0.074 A 
ATOM     30  C   UNL A   1      42.756  31.182  28.924  1.00  0.00     0.029 A 
ATOM     31  N   UNL A   1      44.238  29.700  28.175  1.00  0.00    -0.354 N 
ATOM     32  N   UNL A   1      46.902  28.828  27.227  1.00  0.00    -0.248 NA
ATOM     33  C   UNL A   1      49.127  29.331  26.711  1.00  0.00     0.031 C 
ATOM     34  C   UNL A   1      43.996  31.816  28.798  1.00  0.00     0.029 A 
ATOM     35  C   UNL A   1      44.922  30.889  28.345  1.00  0.00     0.049 A 
ATOM     36  H   UNL A   1      44.634  28.862  27.843  1.00  0.00     0.167 HD
ATOM     37  C   UNL A   1      47.167  30.142  27.586  1.00  0.00     0.074 A 
ATOM     38  C   UNL A   1      48.566  30.383  27.292  1.00  0.00     0.031 C 
ATOM     39  C   UNL A   1      46.325  31.080  28.083  1.00  0.00     0.034 A 
BRANCH  26  40
ATOM     40  C   UNL A   1      40.547  29.091  29.043  1.00  0.00     0.023 A 
ATOM     41  C   UNL A   1      39.586  29.642  28.171  1.00  0.00     0.012 A 
ATOM     42  C   UNL A   1      40.198  28.831  30.382  1.00  0.00     0.148 A 
ATOM     43  C   UNL A   1      38.311  29.968  28.633  1.00  0.00     0.002 A 
ATOM     44  C   UNL A   1      38.913  29.126  30.827  1.00  0.00     0.091 A 
ATOM     45  F   UNL A   1      41.133  28.330  31.202  1.00  0.00    -0.205 F 
ATOM     46  C   UNL A   1      37.973  29.704  29.958  1.00  0.00     0.022 A 
BRANCH  44  47
ATOM     47  S   UNL A   1      38.363  28.784  32.502  1.00  0.00     0.127 S 
ATOM     48  O   UNL A   1      38.538  27.334  32.579  1.00  0.00    -0.237 OA
ATOM     49  O   UNL A   1      39.315  29.555  33.302  1.00  0.00    -0.237 OA
ATOM     50  O   UNL A   1      36.986  29.252  32.577  1.00  0.00    -0.744 OA
ENDBRANCH  44  47
ENDBRANCH  26  40
BRANCH  27  51
ATOM     51  C   UNL A   1      49.690  26.644  25.725  1.00  0.00     0.023 A 
ATOM     52  C   UNL A   1      50.578  26.008  26.615  1.00  0.00     0.012 A 
ATOM     53  C   UNL A   1      50.133  26.981  24.432  1.00  0.00     0.148 A 
ATOM     54  C   UNL A   1      51.894  25.740  26.238  1.00  0.00     0.002 A 
ATOM     55  C   UNL A   1      51.443  26.697  24.056  1.00  0.00     0.091 A 
ATOM     56  F   UNL A   1      49.271  27.583  23.603  1.00  0.00    -0.205 F 
ATOM     57  C   UNL A   1      52.325  26.082  24.960  1.00  0.00     0.022 A 
BRANCH  55  58
ATOM     58  S   UNL A   1      52.098  27.058  22.422  1.00  0.00     0.127 S 
ATOM     59  O   UNL A   1      52.365  28.491  22.520  1.00  0.00    -0.237 OA
ATOM     60  O   UNL A   1      53.294  26.215  22.391  1.00  0.00    -0.237 OA
ATOM     61  O   UNL A   1      51.056  26.676  21.483  1.00  0.00    -0.744 OA
ENDBRANCH  55  58
ENDBRANCH  27  51
BRANCH  39  62
ATOM     62  C   UNL A   1      46.896  32.444  28.336  1.00  0.00     0.023 A 
ATOM     63  C   UNL A   1      47.462  32.732  29.593  1.00  0.00     0.012 A 
ATOM     64  C   UNL A   1      46.934  33.411  27.315  1.00  0.00     0.148 A 
ATOM     65  C   UNL A   1      48.039  33.976  29.839  1.00  0.00     0.002 A 
ATOM     66  C   UNL A   1      47.547  34.634  27.555  1.00  0.00     0.091 A 
ATOM     67  F   UNL A   1      46.361  33.125  26.137  1.00  0.00    -0.205 F 
ATOM     68  C   UNL A   1      48.092  34.922  28.817  1.00  0.00     0.022 A 
BRANCH  66  69
ATOM     69  S   UNL A   1      47.731  35.866  26.261  1.00  0.00     0.127 S 
ATOM     70  O   UNL A   1      48.402  36.951  26.972  1.00  0.00    -0.237 OA
ATOM     71  O   UNL A   1      48.565  35.171  25.279  1.00  0.00    -0.237 OA
ATOM     72  O   UNL A   1      46.379  36.152  25.798  1.00  0.00    -0.744 OA
ENDBRANCH  66  69
ENDBRANCH  39  62
ENDBRANCH  13  14
ENDBRANCH   6   8
ENDBRANCH   5   6
ENDBRANCH   4   5
ENDBRANCH   3   4
ENDBRANCH   2   3
ENDBRANCH   1   2
BRANCH   1  73
ATOM     73  C   UNL A   1      35.957  23.594  26.121  1.00  0.00     0.188 C 
BRANCH  73  74
ATOM     74  O   UNL A   1      35.016  22.518  26.078  1.00  0.00    -0.376 OA
BRANCH  74  75
ATOM     75  C   UNL A   1      34.552  22.015  27.329  1.00  0.00     0.202 C 
BRANCH  75  76
ATOM     76  C   UNL A   1      33.272  22.647  27.884  1.00  0.00     0.261 C 
BRANCH  76  77
ATOM     77  O   UNL A   1      32.051  22.156  27.303  1.00  0.00    -0.460 OA
BRANCH  77  78
ATOM     78  C   UNL A   1      31.187  23.128  26.921  1.00  0.00     0.338 C 
ATOM     79  O   UNL A   1      30.004  23.218  27.199  1.00  0.00    -0.246 OA
BRANCH  78  80
ATOM     80  C   UNL A   1      31.848  24.089  26.027  1.00  0.00     0.071 A 
ATOM     81  C   UNL A   1      31.898  25.427  26.417  1.00  0.00     0.045 A 
ATOM     82  C   UNL A   1      32.206  23.678  24.727  1.00  0.00     0.018 A 
ATOM     83  C   UNL A   1      32.280  26.358  25.469  1.00  0.00     0.072 A 
ATOM     84  C   UNL A   1      32.548  24.701  23.829  1.00  0.00     0.107 A 
ATOM     85  C   UNL A   1      32.216  22.327  24.289  1.00  0.00     0.011 A 
ATOM     86  N   UNL A   1      32.577  25.999  24.203  1.00  0.00    -0.245 NA
ATOM     87  C   UNL A   1      32.841  24.342  22.517  1.00  0.00     0.149 A 
ATOM     88  C   UNL A   1      32.540  22.001  22.977  1.00  0.00     0.004 A 
ATOM     89  F   UNL A   1      33.150  25.298  21.629  1.00  0.00    -0.205 F 
ATOM     90  C   UNL A   1      32.837  23.018  22.084  1.00  0.00     0.041 A 
BRANCH  83  91
ATOM     91  C   UNL A   1      32.367  27.802  25.734  1.00  0.00     0.001 A 
ATOM     92  C   UNL A   1      31.449  28.698  25.173  1.00  0.00     0.010 A 
ATOM     93  C   UNL A   1      33.349  28.325  26.594  1.00  0.00     0.023 A 
ATOM     94  C   UNL A   1      31.485  30.062  25.467  1.00  0.00     0.001 A 
ATOM     95  C   UNL A   1      33.422  29.701  26.878  1.00  0.00     0.056 A 
ATOM     96  C   UNL A   1      32.470  30.562  26.314  1.00  0.00     0.013 A 
BRANCH  95  97
ATOM     97  C   UNL A   1      34.511  30.264  27.754  1.00  0.00     0.416 C 
ATOM     98  F   UNL A   1      35.405  31.008  27.037  1.00  0.00    -0.166 F 
ATOM     99  F   UNL A   1      34.039  31.100  28.721  1.00  0.00    -0.166 F 
ATOM    100  F   UNL A   1      35.256  29.324  28.396  1.00  0.00    -0.166 F 
ENDBRANCH  95  97
ENDBRANCH  83  91
ENDBRANCH  78  80
ENDBRANCH  77  78
ENDBRANCH  76  77
ENDBRANCH  75  76
ENDBRANCH  74  75
ENDBRANCH  73  74
ENDBRANCH   1  73
TORSDOF 22
ENDMDL
MODEL 3
REMARK VINA RESULT:      -9.3      5.290      9.361
REMARK SMILES O=C(OCCOCCOCCOC(=O)c1cc(-c2cccc(C(F)(F)F)c2)nc2c(F)cccc12)c1ccc(-c2c3nc(c(-c4cccc(S(=O)(=O)[O-])c4F)c4ccc([nH]4)c(-c4cccc(S(=O)(=O)[O-])c4F)c4nc(c(-c5cccc(S(=O)(=O)[O-])c5F)c5ccc2[nH]5)C=C4)C=C3)cc1
REMARK SMILES IDX 7 1 6 2 5 3 4 4 3 5 2 6 1 7 36 8 37 9 98 10 38 11 97 12
REMARK SMILES IDX 39 13 40 14 41 15 91 16 42 17 96 18 90 19 92 20 43 21 95 22
REMARK SMILES IDX 89 23 88 24 44 26 76 27 56 28 75 29 57 30 60 31 74 32 93 33
REMARK SMILES IDX 58 34 59 35 73 37 94 38 61 39 45 40 46 41 54 42 47 43 49 44
REMARK SMILES IDX 55 45 48 46 50 47 51 48 52 49 53 50 77 51 78 52 86 53 79 54
REMARK SMILES IDX 81 55 87 56 80 57 82 58 83 59 84 60 85 61 62 62 63 63 71 64
REMARK SMILES IDX 64 65 66 66 72 67 65 68 67 69 68 70 69 71 70 72 8 73 9 74
REMARK SMILES IDX 10 75 11 76 12 77 13 78 14 79 15 80 16 81 35 82 17 83 29 84
REMARK SMILES IDX 34 85 28 86 30 87 33 88 31 89 32 90 18 91 19 92 27 93 20 94
REMARK SMILES IDX 22 95 21 96 23 97 24 98 25 99 26 100
REMARK H PARENT 92 25 60 36
REMARK Flexibility Score: inf
ROOT
ATOM      1  C   UNL A   1      41.285  22.226  26.349  1.00  0.00     0.188 C 
ENDROOT
BRANCH   1   2
ATOM      2  O   UNL A   1      41.781  21.059  27.013  1.00  0.00    -0.376 OA
BRANCH   2   3
ATOM      3  C   UNL A   1      41.471  19.835  26.345  1.00  0.00     0.202 C 
BRANCH   3   4
ATOM      4  C   UNL A   1      42.693  18.979  25.980  1.00  0.00     0.261 C 
BRANCH   4   5
ATOM      5  O   UNL A   1      43.209  19.298  24.677  1.00  0.00    -0.460 OA
BRANCH   5   6
ATOM      6  C   UNL A   1      44.396  19.899  24.405  1.00  0.00     0.338 C 
ATOM      7  O   UNL A   1      45.219  19.330  23.691  1.00  0.00    -0.246 OA
BRANCH   6   8
ATOM      8  C   UNL A   1      44.716  21.265  24.899  1.00  0.00     0.060 A 
ATOM      9  C   UNL A   1      45.415  21.512  26.080  1.00  0.00     0.016 A 
ATOM     10  C   UNL A   1      44.383  22.354  24.082  1.00  0.00     0.016 A 
ATOM     11  C   UNL A   1      45.621  22.811  26.529  1.00  0.00     0.010 A 
ATOM     12  C   UNL A   1      44.704  23.661  24.472  1.00  0.00     0.010 A 
ATOM     13  C   UNL A   1      45.265  23.904  25.734  1.00  0.00    -0.014 A 
BRANCH  13  14
ATOM     14  C   UNL A   1      45.386  25.276  26.295  1.00  0.00     0.031 A 
ATOM     15  C   UNL A   1      46.702  26.002  26.184  1.00  0.00     0.074 A 
ATOM     16  C   UNL A   1      44.306  25.903  26.809  1.00  0.00     0.049 A 
ATOM     17  N   UNL A   1      47.028  27.194  26.613  1.00  0.00    -0.248 NA
ATOM     18  C   UNL A   1      47.806  25.293  25.511  1.00  0.00     0.031 C 
ATOM     19  C   UNL A   1      42.973  25.311  26.963  1.00  0.00     0.029 A 
ATOM     20  N   UNL A   1      44.149  27.185  27.270  1.00  0.00    -0.354 N 
ATOM     21  C   UNL A   1      48.379  27.345  26.323  1.00  0.00     0.074 A 
ATOM     22  C   UNL A   1      48.819  26.123  25.690  1.00  0.00     0.031 C 
ATOM     23  C   UNL A   1      42.129  26.244  27.434  1.00  0.00     0.029 A 
ATOM     24  C   UNL A   1      42.865  27.475  27.671  1.00  0.00     0.049 A 
ATOM     25  H   UNL A   1      44.886  27.836  27.312  1.00  0.00     0.167 HD
ATOM     26  C   UNL A   1      49.180  28.414  26.538  1.00  0.00     0.034 A 
ATOM     27  C   UNL A   1      42.338  28.606  28.177  1.00  0.00     0.034 A 
ATOM     28  C   UNL A   1      48.722  29.652  27.101  1.00  0.00     0.049 A 
ATOM     29  C   UNL A   1      43.237  29.799  28.347  1.00  0.00     0.074 A 
ATOM     30  C   UNL A   1      49.448  30.795  27.385  1.00  0.00     0.029 A 
ATOM     31  N   UNL A   1      47.404  29.916  27.441  1.00  0.00    -0.354 N 
ATOM     32  N   UNL A   1      44.507  29.921  28.048  1.00  0.00    -0.248 NA
ATOM     33  C   UNL A   1      42.624  31.015  28.898  1.00  0.00     0.031 C 
ATOM     34  C   UNL A   1      48.563  31.756  27.886  1.00  0.00     0.029 A 
ATOM     35  C   UNL A   1      47.288  31.213  27.908  1.00  0.00     0.049 A 
ATOM     36  H   UNL A   1      46.661  29.276  27.362  1.00  0.00     0.167 HD
ATOM     37  C   UNL A   1      44.848  31.226  28.377  1.00  0.00     0.074 A 
ATOM     38  C   UNL A   1      43.637  31.868  28.850  1.00  0.00     0.031 C 
ATOM     39  C   UNL A   1      46.058  31.832  28.328  1.00  0.00     0.034 A 
BRANCH  26  40
ATOM     40  C   UNL A   1      50.621  28.284  26.127  1.00  0.00     0.023 A 
ATOM     41  C   UNL A   1      50.982  28.502  24.781  1.00  0.00     0.012 A 
ATOM     42  C   UNL A   1      51.614  27.930  27.060  1.00  0.00     0.148 A 
ATOM     43  C   UNL A   1      52.300  28.330  24.361  1.00  0.00     0.002 A 
ATOM     44  C   UNL A   1      52.934  27.795  26.642  1.00  0.00     0.091 A 
ATOM     45  F   UNL A   1      51.248  27.703  28.329  1.00  0.00    -0.205 F 
ATOM     46  C   UNL A   1      53.276  27.983  25.292  1.00  0.00     0.022 A 
BRANCH  44  47
ATOM     47  S   UNL A   1      54.274  27.394  27.768  1.00  0.00     0.127 S 
ATOM     48  O   UNL A   1      53.845  26.095  28.284  1.00  0.00    -0.237 OA
ATOM     49  O   UNL A   1      55.427  27.341  26.868  1.00  0.00    -0.237 OA
ATOM     50  O   UNL A   1      54.314  28.472  28.745  1.00  0.00    -0.744 OA
ENDBRANCH  44  47
ENDBRANCH  26  40
BRANCH  27  51
ATOM     51  C   UNL A   1      40.892  28.698  28.523  1.00  0.00     0.023 A 
ATOM     52  C   UNL A   1      39.959  28.960  27.500  1.00  0.00     0.012 A 
ATOM     53  C   UNL A   1      40.441  28.575  29.852  1.00  0.00     0.148 A 
ATOM     54  C   UNL A   1      38.606  29.131  27.796  1.00  0.00     0.002 A 
ATOM     55  C   UNL A   1      39.088  28.732  30.139  1.00  0.00     0.091 A 
ATOM     56  F   UNL A   1      41.346  28.324  30.807  1.00  0.00    -0.205 F 
ATOM     57  C   UNL A   1      38.172  29.016  29.113  1.00  0.00     0.022 A 
BRANCH  55  58
ATOM     58  S   UNL A   1      38.408  28.567  31.794  1.00  0.00     0.127 S 
ATOM     59  O   UNL A   1      37.019  28.968  31.584  1.00  0.00    -0.237 OA
ATOM     60  O   UNL A   1      38.599  27.138  32.049  1.00  0.00    -0.237 OA
ATOM     61  O   UNL A   1      39.197  29.450  32.638  1.00  0.00    -0.744 OA
ENDBRANCH  55  58
ENDBRANCH  27  51
BRANCH  39  62
ATOM     62  C   UNL A   1      46.127  33.256  28.797  1.00  0.00     0.023 A 
ATOM     63  C   UNL A   1      46.555  33.529  30.111  1.00  0.00     0.012 A 
ATOM     64  C   UNL A   1      45.835  34.318  27.923  1.00  0.00     0.148 A 
ATOM     65  C   UNL A   1      46.669  34.845  30.556  1.00  0.00     0.002 A 
ATOM     66  C   UNL A   1      45.990  35.627  28.361  1.00  0.00     0.091 A 
ATOM     67  F   UNL A   1      45.399  34.033  26.687  1.00  0.00    -0.205 F 
ATOM     68  C   UNL A   1      46.399  35.893  29.678  1.00  0.00     0.022 A 
BRANCH  66  69
ATOM     69  S   UNL A   1      45.747  37.025  27.261  1.00  0.00     0.127 S 
ATOM     70  O   UNL A   1      46.138  38.148  28.109  1.00  0.00    -0.237 OA
ATOM     71  O   UNL A   1      46.676  36.733  26.168  1.00  0.00    -0.237 OA
ATOM     72  O   UNL A   1      44.342  36.980  26.876  1.00  0.00    -0.744 OA
ENDBRANCH  66  69
ENDBRANCH  39  62
ENDBRANCH  13  14
ENDBRANCH   6   8
ENDBRANCH   5   6
ENDBRANCH   4   5
ENDBRANCH   3   4
ENDBRANCH   2   3
ENDBRANCH   1   2
BRANCH   1  73
ATOM     73  C   UNL A   1      40.035  22.749  27.058  1.00  0.00     0.188 C 
BRANCH  73  74
ATOM     74  O   UNL A   1      39.344  23.789  26.359  1.00  0.00    -0.376 OA
BRANCH  74  75
ATOM     75  C   UNL A   1      37.937  23.885  26.568  1.00  0.00     0.202 C 
BRANCH  75  76
ATOM     76  C   UNL A   1      37.047  23.567  25.363  1.00  0.00     0.261 C 
BRANCH  76  77
ATOM     77  O   UNL A   1      35.901  24.423  25.212  1.00  0.00    -0.460 OA
BRANCH  77  78
ATOM     78  C   UNL A   1      35.080  24.079  24.190  1.00  0.00     0.338 C 
ATOM     79  O   UNL A   1      35.099  24.507  23.049  1.00  0.00    -0.246 OA
BRANCH  78  80
ATOM     80  C   UNL A   1      34.058  23.125  24.643  1.00  0.00     0.071 A 
ATOM     81  C   UNL A   1      34.108  21.821  24.151  1.00  0.00     0.045 A 
ATOM     82  C   UNL A   1      32.950  23.605  25.370  1.00  0.00     0.018 A 
ATOM     83  C   UNL A   1      33.009  21.010  24.368  1.00  0.00     0.072 A 
ATOM     84  C   UNL A   1      31.872  22.716  25.509  1.00  0.00     0.107 A 
ATOM     85  C   UNL A   1      32.864  24.907  25.931  1.00  0.00     0.011 A 
ATOM     86  N   UNL A   1      31.914  21.460  25.015  1.00  0.00    -0.245 NA
ATOM     87  C   UNL A   1      30.733  23.176  26.162  1.00  0.00     0.149 A 
ATOM     88  C   UNL A   1      31.719  25.325  26.600  1.00  0.00     0.004 A 
ATOM     89  F   UNL A   1      29.677  22.360  26.292  1.00  0.00    -0.205 F 
ATOM     90  C   UNL A   1      30.643  24.458  26.699  1.00  0.00     0.041 A 
BRANCH  83  91
ATOM     91  C   UNL A   1      32.917  19.619  23.898  1.00  0.00     0.001 A 
ATOM     92  C   UNL A   1      32.403  19.315  22.632  1.00  0.00     0.010 A 
ATOM     93  C   UNL A   1      33.382  18.553  24.689  1.00  0.00     0.023 A 
ATOM     94  C   UNL A   1      32.368  18.005  22.153  1.00  0.00     0.001 A 
ATOM     95  C   UNL A   1      33.327  17.222  24.237  1.00  0.00     0.056 A 
ATOM     96  C   UNL A   1      32.826  16.962  22.953  1.00  0.00     0.013 A 
BRANCH  95  97
ATOM     97  C   UNL A   1      33.774  16.078  25.109  1.00  0.00     0.416 C 
ATOM     98  F   UNL A   1      35.096  15.787  24.924  1.00  0.00    -0.166 F 
ATOM     99  F   UNL A   1      33.644  16.339  26.440  1.00  0.00    -0.166 F 
ATOM    100  F   UNL A   1      33.112  14.910  24.885  1.00  0.00    -0.166 F 
ENDBRANCH  95  97
ENDBRANCH  83  91
ENDBRANCH  78  80
ENDBRANCH  77  78
ENDBRANCH  76  77
ENDBRANCH  75  76
ENDBRANCH  74  75
ENDBRANCH  73  74
ENDBRANCH   1  73
TORSDOF 22
ENDMDL
