MODEL 1
REMARK VINA RESULT:      -8.8      0.000      0.000
REMARK SMILES Cc1cc(F)cc(N[C@H](C(=O)OCCOCCOCCOC(=O)c2ccc(-c3c4nc(c(-c5cccc(S(=O)(=O)[O-])c5F)c5ccc([nH]5)c(-c5cccc(S(=O)(=O)[O-])c5F)c5nc(c(-c6cccc(S(=O)(=O)[O-])c6F)c6ccc3[nH]6)C=C5)C=C4)cc2)c2cc(C)cc(C)c2)c1
REMARK SMILES IDX 17 1 16 2 15 3 14 4 13 5 12 6 10 7 11 8 9 9 8 10 7 12 1 13
REMARK SMILES IDX 2 14 3 15 95 16 4 17 5 18 6 19 87 20 88 21 94 22 89 23 92 24
REMARK SMILES IDX 90 25 91 26 93 27 18 28 19 29 20 30 21 31 22 32 23 33 24 34
REMARK SMILES IDX 25 35 86 36 26 37 85 38 27 39 28 40 29 41 79 42 30 43 84 44
REMARK SMILES IDX 78 45 80 46 31 47 83 48 77 49 76 50 32 52 64 53 44 54 63 55
REMARK SMILES IDX 45 56 48 57 62 58 81 59 46 60 47 61 61 63 82 64 49 65 33 66
REMARK SMILES IDX 34 67 42 68 35 69 37 70 43 71 36 72 38 73 39 74 40 75 41 76
REMARK SMILES IDX 65 77 66 78 74 79 67 80 69 81 75 82 68 83 70 84 71 85 72 86
REMARK SMILES IDX 73 87 50 88 51 89 59 90 52 91 54 92 60 93 53 94 55 95 56 96
REMARK SMILES IDX 57 97 58 98
REMARK H PARENT 8 11 80 51 48 62
REMARK Flexibility Score: inf
ROOT
ATOM      1  C   UNL A   1      32.897  35.943  29.696  1.00  0.00     0.188 C 
ENDROOT
BRANCH   1   2
ATOM      2  C   UNL A   1      33.257  35.798  31.193  1.00  0.00     0.188 C 
BRANCH   2   3
ATOM      3  O   UNL A   1      33.329  34.462  31.663  1.00  0.00    -0.376 OA
BRANCH   3   4
ATOM      4  C   UNL A   1      33.807  34.296  32.993  1.00  0.00     0.202 C 
BRANCH   4   5
ATOM      5  C   UNL A   1      34.808  33.146  33.159  1.00  0.00     0.261 C 
BRANCH   5   6
ATOM      6  O   UNL A   1      35.527  33.170  34.404  1.00  0.00    -0.461 OA
BRANCH   6   7
ATOM      7  C   UNL A   1      36.807  33.651  34.350  1.00  0.00     0.333 C 
ATOM      8  O   UNL A   1      37.080  34.765  33.925  1.00  0.00    -0.249 OA
BRANCH   7   9
ATOM      9  C   UNL A   1      37.781  32.633  34.993  1.00  0.00     0.221 C 
BRANCH   9  10
ATOM     10  N   UNL A   1      38.828  32.196  34.036  1.00  0.00    -0.369 N 
ATOM     11  H   UNL A   1      39.262  32.902  33.507  1.00  0.00     0.161 HD
BRANCH  10  12
ATOM     12  C   UNL A   1      39.258  30.900  33.806  1.00  0.00     0.038 A 
ATOM     13  C   UNL A   1      42.492  28.877  34.235  1.00  0.00     0.044 C 
ATOM     14  C   UNL A   1      41.089  29.253  33.869  1.00  0.00    -0.046 A 
ATOM     15  C   UNL A   1      40.276  28.308  33.242  1.00  0.00     0.042 A 
ATOM     16  C   UNL A   1      40.582  30.546  34.118  1.00  0.00     0.029 A 
ATOM     17  C   UNL A   1      38.976  28.645  32.928  1.00  0.00     0.125 A 
ATOM     18  F   UNL A   1      38.181  27.745  32.332  1.00  0.00    -0.207 F 
ATOM     19  C   UNL A   1      38.472  29.905  33.226  1.00  0.00     0.065 A 
ENDBRANCH  10  12
ENDBRANCH   9  10
BRANCH   9  20
ATOM     20  C   UNL A   1      38.364  33.001  36.354  1.00  0.00    -0.014 A 
ATOM     21  C   UNL A   1      37.777  32.557  37.546  1.00  0.00     0.010 A 
ATOM     22  C   UNL A   1      39.470  33.863  36.457  1.00  0.00     0.010 A 
ATOM     23  C   UNL A   1      38.133  33.078  38.787  1.00  0.00    -0.051 A 
ATOM     24  C   UNL A   1      39.933  34.293  37.712  1.00  0.00    -0.051 A 
ATOM     25  C   UNL A   1      37.244  32.792  39.959  1.00  0.00     0.044 C 
ATOM     26  C   UNL A   1      39.221  33.941  38.866  1.00  0.00     0.006 A 
ATOM     27  C   UNL A   1      41.152  35.161  37.840  1.00  0.00     0.044 C 
ENDBRANCH   9  20
ENDBRANCH   7   9
ENDBRANCH   6   7
ENDBRANCH   5   6
ENDBRANCH   4   5
ENDBRANCH   3   4
ENDBRANCH   2   3
ENDBRANCH   1   2
BRANCH   1  28
ATOM     28  O   UNL A   1      32.580  34.810  28.897  1.00  0.00    -0.376 OA
BRANCH  28  29
ATOM     29  C   UNL A   1      33.553  34.279  28.011  1.00  0.00     0.202 C 
BRANCH  29  30
ATOM     30  C   UNL A   1      34.623  33.319  28.552  1.00  0.00     0.261 C 
BRANCH  30  31
ATOM     31  O   UNL A   1      34.156  32.009  28.913  1.00  0.00    -0.460 OA
BRANCH  31  32
ATOM     32  C   UNL A   1      34.348  31.047  27.978  1.00  0.00     0.338 C 
ATOM     33  O   UNL A   1      33.656  30.828  26.998  1.00  0.00    -0.246 OA
BRANCH  32  34
ATOM     34  C   UNL A   1      35.647  30.374  28.198  1.00  0.00     0.060 A 
ATOM     35  C   UNL A   1      35.912  29.866  29.477  1.00  0.00     0.016 A 
ATOM     36  C   UNL A   1      36.616  30.302  27.196  1.00  0.00     0.016 A 
ATOM     37  C   UNL A   1      37.160  29.316  29.770  1.00  0.00     0.010 A 
ATOM     38  C   UNL A   1      37.877  29.771  27.500  1.00  0.00     0.010 A 
ATOM     39  C   UNL A   1      38.166  29.310  28.797  1.00  0.00    -0.014 A 
BRANCH  39  40
ATOM     40  C   UNL A   1      39.562  28.998  29.193  1.00  0.00     0.031 A 
ATOM     41  C   UNL A   1      40.368  30.060  29.894  1.00  0.00     0.074 A 
ATOM     42  C   UNL A   1      40.106  27.791  28.952  1.00  0.00     0.049 A 
ATOM     43  N   UNL A   1      41.602  30.018  30.323  1.00  0.00    -0.248 NA
ATOM     44  C   UNL A   1      39.689  31.344  30.141  1.00  0.00     0.031 C 
ATOM     45  C   UNL A   1      39.431  26.676  28.292  1.00  0.00     0.029 A 
ATOM     46  N   UNL A   1      41.366  27.314  29.218  1.00  0.00    -0.354 N 
ATOM     47  C   UNL A   1      41.858  31.271  30.866  1.00  0.00     0.074 A 
ATOM     48  C   UNL A   1      40.655  32.057  30.702  1.00  0.00     0.031 C 
ATOM     49  C   UNL A   1      40.296  25.652  28.175  1.00  0.00     0.029 A 
ATOM     50  C   UNL A   1      41.589  26.047  28.735  1.00  0.00     0.049 A 
ATOM     51  H   UNL A   1      42.046  27.831  29.708  1.00  0.00     0.167 HD
ATOM     52  C   UNL A   1      42.986  31.725  31.460  1.00  0.00     0.034 A 
ATOM     53  C   UNL A   1      42.712  25.299  28.729  1.00  0.00     0.034 A 
ATOM     54  C   UNL A   1      44.178  30.942  31.638  1.00  0.00     0.049 A 
ATOM     55  C   UNL A   1      43.962  25.836  29.378  1.00  0.00     0.074 A 
ATOM     56  C   UNL A   1      45.358  31.302  32.265  1.00  0.00     0.029 A 
ATOM     57  N   UNL A   1      44.349  29.647  31.176  1.00  0.00    -0.354 N 
ATOM     58  N   UNL A   1      44.150  26.977  29.995  1.00  0.00    -0.248 NA
ATOM     59  C   UNL A   1      45.148  24.965  29.362  1.00  0.00     0.031 C 
ATOM     60  C   UNL A   1      46.253  30.232  32.161  1.00  0.00     0.029 A 
ATOM     61  C   UNL A   1      45.618  29.195  31.497  1.00  0.00     0.049 A 
ATOM     62  H   UNL A   1      43.670  29.125  30.693  1.00  0.00     0.167 HD
ATOM     63  C   UNL A   1      45.455  26.944  30.477  1.00  0.00     0.074 A 
ATOM     64  C   UNL A   1      46.008  25.661  30.093  1.00  0.00     0.031 C 
ATOM     65  C   UNL A   1      46.138  27.892  31.166  1.00  0.00     0.034 A 
BRANCH  52  66
ATOM     66  C   UNL A   1      42.976  33.135  31.988  1.00  0.00     0.023 A 
ATOM     67  C   UNL A   1      42.561  33.381  33.312  1.00  0.00     0.012 A 
ATOM     68  C   UNL A   1      43.425  34.208  31.193  1.00  0.00     0.148 A 
ATOM     69  C   UNL A   1      42.563  34.677  33.828  1.00  0.00     0.002 A 
ATOM     70  C   UNL A   1      43.465  35.490  31.728  1.00  0.00     0.091 A 
ATOM     71  F   UNL A   1      43.793  33.957  29.929  1.00  0.00    -0.205 F 
ATOM     72  C   UNL A   1      43.025  35.728  33.040  1.00  0.00     0.022 A 
BRANCH  70  73
ATOM     73  S   UNL A   1      44.115  36.897  30.819  1.00  0.00     0.127 S 
ATOM     74  O   UNL A   1      43.799  38.002  31.722  1.00  0.00    -0.237 OA
ATOM     75  O   UNL A   1      45.539  36.572  30.727  1.00  0.00    -0.237 OA
ATOM     76  O   UNL A   1      43.412  36.910  29.544  1.00  0.00    -0.744 OA
ENDBRANCH  70  73
ENDBRANCH  52  66
BRANCH  53  77
ATOM     77  C   UNL A   1      42.700  23.939  28.118  1.00  0.00     0.023 A 
ATOM     78  C   UNL A   1      41.964  22.907  28.732  1.00  0.00     0.012 A 
ATOM     79  C   UNL A   1      43.410  23.663  26.933  1.00  0.00     0.148 A 
ATOM     80  C   UNL A   1      41.961  21.618  28.197  1.00  0.00     0.002 A 
ATOM     81  C   UNL A   1      43.360  22.391  26.376  1.00  0.00     0.091 A 
ATOM     82  F   UNL A   1      44.120  24.654  26.374  1.00  0.00    -0.205 F 
ATOM     83  C   UNL A   1      42.650  21.363  27.014  1.00  0.00     0.022 A 
BRANCH  81  84
ATOM     84  S   UNL A   1      44.122  22.000  24.797  1.00  0.00     0.127 S 
ATOM     85  O   UNL A   1      43.801  20.584  24.652  1.00  0.00    -0.237 OA
ATOM     86  O   UNL A   1      43.403  22.892  23.886  1.00  0.00    -0.237 OA
ATOM     87  O   UNL A   1      45.536  22.316  24.955  1.00  0.00    -0.744 OA
ENDBRANCH  81  84
ENDBRANCH  53  77
BRANCH  65  88
ATOM     88  C   UNL A   1      47.544  27.573  31.603  1.00  0.00     0.023 A 
ATOM     89  C   UNL A   1      47.779  27.026  32.879  1.00  0.00     0.012 A 
ATOM     90  C   UNL A   1      48.625  27.738  30.713  1.00  0.00     0.148 A 
ATOM     91  C   UNL A   1      49.071  26.677  33.275  1.00  0.00     0.002 A 
ATOM     92  C   UNL A   1      49.902  27.343  31.095  1.00  0.00     0.091 A 
ATOM     93  F   UNL A   1      48.386  28.277  29.509  1.00  0.00    -0.205 F 
ATOM     94  C   UNL A   1      50.129  26.824  32.380  1.00  0.00     0.022 A 
BRANCH  92  95
ATOM     95  S   UNL A   1      51.304  27.405  29.973  1.00  0.00     0.127 S 
ATOM     96  O   UNL A   1      51.442  28.843  29.747  1.00  0.00    -0.237 OA
ATOM     97  O   UNL A   1      52.373  26.809  30.775  1.00  0.00    -0.237 OA
ATOM     98  O   UNL A   1      50.918  26.622  28.807  1.00  0.00    -0.744 OA
ENDBRANCH  92  95
ENDBRANCH  65  88
ENDBRANCH  39  40
ENDBRANCH  32  34
ENDBRANCH  31  32
ENDBRANCH  30  31
ENDBRANCH  29  30
ENDBRANCH  28  29
ENDBRANCH   1  28
TORSDOF 23
ENDMDL
MODEL 2
REMARK VINA RESULT:      -8.7      4.458     12.119
REMARK SMILES Cc1cc(F)cc(N[C@H](C(=O)OCCOCCOCCOC(=O)c2ccc(-c3c4nc(c(-c5cccc(S(=O)(=O)[O-])c5F)c5ccc([nH]5)c(-c5cccc(S(=O)(=O)[O-])c5F)c5nc(c(-c6cccc(S(=O)(=O)[O-])c6F)c6ccc3[nH]6)C=C5)C=C4)cc2)c2cc(C)cc(C)c2)c1
REMARK SMILES IDX 17 1 16 2 15 3 14 4 13 5 12 6 10 7 11 8 9 9 8 10 7 12 1 13
REMARK SMILES IDX 2 14 3 15 95 16 4 17 5 18 6 19 87 20 88 21 94 22 89 23 92 24
REMARK SMILES IDX 90 25 91 26 93 27 18 28 19 29 20 30 21 31 22 32 23 33 24 34
REMARK SMILES IDX 25 35 86 36 26 37 85 38 27 39 28 40 29 41 79 42 30 43 84 44
REMARK SMILES IDX 78 45 80 46 31 47 83 48 77 49 76 50 32 52 64 53 44 54 63 55
REMARK SMILES IDX 45 56 48 57 62 58 81 59 46 60 47 61 61 63 82 64 49 65 33 66
REMARK SMILES IDX 34 67 42 68 35 69 37 70 43 71 36 72 38 73 39 74 40 75 41 76
REMARK SMILES IDX 65 77 66 78 74 79 67 80 69 81 75 82 68 83 70 84 71 85 72 86
REMARK SMILES IDX 73 87 50 88 51 89 59 90 52 91 54 92 60 93 53 94 55 95 56 96
REMARK SMILES IDX 57 97 58 98
REMARK H PARENT 8 11 80 51 48 62
REMARK Flexibility Score: inf
ROOT
ATOM      1  C   UNL A   1      45.638  19.458  24.812  1.00  0.00     0.188 C 
ENDROOT
BRANCH   1   2
ATOM      2  C   UNL A   1      44.408  18.620  25.230  1.00  0.00     0.188 C 
BRANCH   2   3
ATOM      3  O   UNL A   1      43.157  19.260  25.040  1.00  0.00    -0.376 OA
BRANCH   3   4
ATOM      4  C   UNL A   1      42.312  19.329  26.183  1.00  0.00     0.202 C 
BRANCH   4   5
ATOM      5  C   UNL A   1      41.015  20.115  25.956  1.00  0.00     0.261 C 
BRANCH   5   6
ATOM      6  O   UNL A   1      41.216  21.515  25.699  1.00  0.00    -0.461 OA
BRANCH   6   7
ATOM      7  C   UNL A   1      40.958  22.362  26.743  1.00  0.00     0.333 C 
ATOM      8  O   UNL A   1      41.634  22.385  27.762  1.00  0.00    -0.249 OA
BRANCH   7   9
ATOM      9  C   UNL A   1      39.790  23.311  26.377  1.00  0.00     0.221 C 
BRANCH   9  10
ATOM     10  N   UNL A   1      38.477  22.738  26.765  1.00  0.00    -0.369 N 
ATOM     11  H   UNL A   1      38.387  22.436  27.696  1.00  0.00     0.161 HD
BRANCH  10  12
ATOM     12  C   UNL A   1      37.364  22.582  25.955  1.00  0.00     0.038 A 
ATOM     13  C   UNL A   1      34.723  24.834  24.315  1.00  0.00     0.044 C 
ATOM     14  C   UNL A   1      35.473  23.617  24.764  1.00  0.00    -0.046 A 
ATOM     15  C   UNL A   1      34.989  22.356  24.413  1.00  0.00     0.042 A 
ATOM     16  C   UNL A   1      36.637  23.716  25.554  1.00  0.00     0.029 A 
ATOM     17  C   UNL A   1      35.692  21.236  24.804  1.00  0.00     0.125 A 
ATOM     18  F   UNL A   1      35.242  20.018  24.469  1.00  0.00    -0.207 F 
ATOM     19  C   UNL A   1      36.866  21.349  25.538  1.00  0.00     0.065 A 
ENDBRANCH  10  12
ENDBRANCH   9  10
BRANCH   9  20
ATOM     20  C   UNL A   1      39.929  24.770  26.799  1.00  0.00    -0.014 A 
ATOM     21  C   UNL A   1      40.583  25.707  25.991  1.00  0.00     0.010 A 
ATOM     22  C   UNL A   1      39.466  25.205  28.054  1.00  0.00     0.010 A 
ATOM     23  C   UNL A   1      40.941  26.969  26.458  1.00  0.00    -0.051 A 
ATOM     24  C   UNL A   1      39.698  26.521  28.489  1.00  0.00    -0.051 A 
ATOM     25  C   UNL A   1      41.912  27.776  25.651  1.00  0.00     0.044 C 
ATOM     26  C   UNL A   1      40.487  27.376  27.708  1.00  0.00     0.006 A 
ATOM     27  C   UNL A   1      39.155  27.020  29.797  1.00  0.00     0.044 C 
ENDBRANCH   9  20
ENDBRANCH   7   9
ENDBRANCH   6   7
ENDBRANCH   5   6
ENDBRANCH   4   5
ENDBRANCH   3   4
ENDBRANCH   2   3
ENDBRANCH   1   2
BRANCH   1  28
ATOM     28  O   UNL A   1      46.087  20.558  25.594  1.00  0.00    -0.376 OA
BRANCH  28  29
ATOM     29  C   UNL A   1      45.795  21.883  25.178  1.00  0.00     0.202 C 
BRANCH  29  30
ATOM     30  C   UNL A   1      44.459  22.524  25.583  1.00  0.00     0.261 C 
BRANCH  30  31
ATOM     31  O   UNL A   1      44.518  23.434  26.693  1.00  0.00    -0.460 OA
BRANCH  31  32
ATOM     32  C   UNL A   1      44.350  24.743  26.380  1.00  0.00     0.338 C 
ATOM     33  O   UNL A   1      44.110  25.209  25.280  1.00  0.00    -0.246 OA
BRANCH  32  34
ATOM     34  C   UNL A   1      44.318  25.560  27.613  1.00  0.00     0.060 A 
ATOM     35  C   UNL A   1      43.426  25.182  28.626  1.00  0.00     0.016 A 
ATOM     36  C   UNL A   1      45.095  26.712  27.751  1.00  0.00     0.016 A 
ATOM     37  C   UNL A   1      43.279  25.974  29.764  1.00  0.00     0.010 A 
ATOM     38  C   UNL A   1      44.927  27.519  28.884  1.00  0.00     0.010 A 
ATOM     39  C   UNL A   1      43.993  27.173  29.878  1.00  0.00    -0.014 A 
BRANCH  39  40
ATOM     40  C   UNL A   1      43.622  28.145  30.936  1.00  0.00     0.031 A 
ATOM     41  C   UNL A   1      44.255  28.007  32.296  1.00  0.00     0.074 A 
ATOM     42  C   UNL A   1      42.752  29.142  30.698  1.00  0.00     0.049 A 
ATOM     43  N   UNL A   1      44.078  28.730  33.371  1.00  0.00    -0.248 NA
ATOM     44  C   UNL A   1      45.216  26.903  32.465  1.00  0.00     0.031 C 
ATOM     45  C   UNL A   1      42.077  29.391  29.426  1.00  0.00     0.029 A 
ATOM     46  N   UNL A   1      42.269  30.120  31.533  1.00  0.00    -0.354 N 
ATOM     47  C   UNL A   1      44.881  28.156  34.350  1.00  0.00     0.074 A 
ATOM     48  C   UNL A   1      45.538  27.018  33.745  1.00  0.00     0.031 C 
ATOM     49  C   UNL A   1      41.242  30.435  29.573  1.00  0.00     0.029 A 
ATOM     50  C   UNL A   1      41.309  30.915  30.953  1.00  0.00     0.049 A 
ATOM     51  H   UNL A   1      42.580  30.240  32.460  1.00  0.00     0.167 HD
ATOM     52  C   UNL A   1      45.068  28.547  35.632  1.00  0.00     0.034 A 
ATOM     53  C   UNL A   1      40.559  31.905  31.481  1.00  0.00     0.034 A 
ATOM     54  C   UNL A   1      44.428  29.687  36.231  1.00  0.00     0.049 A 
ATOM     55  C   UNL A   1      40.771  32.308  32.919  1.00  0.00     0.074 A 
ATOM     56  C   UNL A   1      44.587  30.186  37.512  1.00  0.00     0.029 A 
ATOM     57  N   UNL A   1      43.499  30.496  35.598  1.00  0.00    -0.354 N 
ATOM     58  N   UNL A   1      41.623  31.833  33.795  1.00  0.00    -0.248 NA
ATOM     59  C   UNL A   1      39.941  33.410  33.431  1.00  0.00     0.031 C 
ATOM     60  C   UNL A   1      43.732  31.284  37.661  1.00  0.00     0.029 A 
ATOM     61  C   UNL A   1      43.067  31.486  36.463  1.00  0.00     0.049 A 
ATOM     62  H   UNL A   1      43.191  30.383  34.670  1.00  0.00     0.167 HD
ATOM     63  C   UNL A   1      41.463  32.604  34.943  1.00  0.00     0.074 A 
ATOM     64  C   UNL A   1      40.443  33.587  34.645  1.00  0.00     0.031 C 
ATOM     65  C   UNL A   1      42.097  32.501  36.137  1.00  0.00     0.034 A 
BRANCH  52  66
ATOM     66  C   UNL A   1      46.028  27.746  36.471  1.00  0.00     0.023 A 
ATOM     67  C   UNL A   1      47.377  28.145  36.560  1.00  0.00     0.012 A 
ATOM     68  C   UNL A   1      45.585  26.633  37.212  1.00  0.00     0.148 A 
ATOM     69  C   UNL A   1      48.278  27.429  37.348  1.00  0.00     0.002 A 
ATOM     70  C   UNL A   1      46.479  25.951  38.029  1.00  0.00     0.091 A 
ATOM     71  F   UNL A   1      44.304  26.257  37.096  1.00  0.00    -0.205 F 
ATOM     72  C   UNL A   1      47.827  26.341  38.090  1.00  0.00     0.022 A 
BRANCH  70  73
ATOM     73  S   UNL A   1      45.978  24.585  39.082  1.00  0.00     0.127 S 
ATOM     74  O   UNL A   1      45.305  23.708  38.125  1.00  0.00    -0.237 OA
ATOM     75  O   UNL A   1      47.264  24.084  39.568  1.00  0.00    -0.237 OA
ATOM     76  O   UNL A   1      45.123  25.163  40.110  1.00  0.00    -0.744 OA
ENDBRANCH  70  73
ENDBRANCH  52  66
BRANCH  53  77
ATOM     77  C   UNL A   1      39.559  32.616  30.635  1.00  0.00     0.023 A 
ATOM     78  C   UNL A   1      39.910  33.830  30.014  1.00  0.00     0.012 A 
ATOM     79  C   UNL A   1      38.264  32.096  30.440  1.00  0.00     0.148 A 
ATOM     80  C   UNL A   1      38.982  34.530  29.241  1.00  0.00     0.002 A 
ATOM     81  C   UNL A   1      37.361  32.770  29.627  1.00  0.00     0.091 A 
ATOM     82  F   UNL A   1      37.943  30.948  31.056  1.00  0.00    -0.205 F 
ATOM     83  C   UNL A   1      37.712  33.995  29.040  1.00  0.00     0.022 A 
BRANCH  81  84
ATOM     84  S   UNL A   1      35.745  32.101  29.219  1.00  0.00     0.127 S 
ATOM     85  O   UNL A   1      36.078  30.733  28.831  1.00  0.00    -0.237 OA
ATOM     86  O   UNL A   1      35.036  32.226  30.493  1.00  0.00    -0.237 OA
ATOM     87  O   UNL A   1      35.225  32.951  28.156  1.00  0.00    -0.744 OA
ENDBRANCH  81  84
ENDBRANCH  53  77
BRANCH  65  88
ATOM     88  C   UNL A   1      41.753  33.504  37.209  1.00  0.00     0.023 A 
ATOM     89  C   UNL A   1      42.431  34.736  37.265  1.00  0.00     0.012 A 
ATOM     90  C   UNL A   1      40.696  33.255  38.108  1.00  0.00     0.148 A 
ATOM     91  C   UNL A   1      42.086  35.693  38.220  1.00  0.00     0.002 A 
ATOM     92  C   UNL A   1      40.325  34.232  39.024  1.00  0.00     0.091 A 
ATOM     93  F   UNL A   1      40.074  32.069  38.053  1.00  0.00    -0.205 F 
ATOM     94  C   UNL A   1      41.026  35.447  39.090  1.00  0.00     0.022 A 
BRANCH  92  95
ATOM     95  S   UNL A   1      38.910  34.039  40.116  1.00  0.00     0.127 S 
ATOM     96  O   UNL A   1      37.839  33.737  39.166  1.00  0.00    -0.237 OA
ATOM     97  O   UNL A   1      39.315  32.911  40.955  1.00  0.00    -0.237 OA
ATOM     98  O   UNL A   1      38.778  35.303  40.828  1.00  0.00    -0.744 OA
ENDBRANCH  92  95
ENDBRANCH  65  88
ENDBRANCH  39  40
ENDBRANCH  32  34
ENDBRANCH  31  32
ENDBRANCH  30  31
ENDBRANCH  29  30
ENDBRANCH  28  29
ENDBRANCH   1  28
TORSDOF 23
ENDMDL
MODEL 3
REMARK VINA RESULT:      -8.1      1.461      7.481
REMARK SMILES Cc1cc(F)cc(N[C@H](C(=O)OCCOCCOCCOC(=O)c2ccc(-c3c4nc(c(-c5cccc(S(=O)(=O)[O-])c5F)c5ccc([nH]5)c(-c5cccc(S(=O)(=O)[O-])c5F)c5nc(c(-c6cccc(S(=O)(=O)[O-])c6F)c6ccc3[nH]6)C=C5)C=C4)cc2)c2cc(C)cc(C)c2)c1
REMARK SMILES IDX 17 1 16 2 15 3 14 4 13 5 12 6 10 7 11 8 9 9 8 10 7 12 1 13
REMARK SMILES IDX 2 14 3 15 95 16 4 17 5 18 6 19 87 20 88 21 94 22 89 23 92 24
REMARK SMILES IDX 90 25 91 26 93 27 18 28 19 29 20 30 21 31 22 32 23 33 24 34
REMARK SMILES IDX 25 35 86 36 26 37 85 38 27 39 28 40 29 41 79 42 30 43 84 44
REMARK SMILES IDX 78 45 80 46 31 47 83 48 77 49 76 50 32 52 64 53 44 54 63 55
REMARK SMILES IDX 45 56 48 57 62 58 81 59 46 60 47 61 61 63 82 64 49 65 33 66
REMARK SMILES IDX 34 67 42 68 35 69 37 70 43 71 36 72 38 73 39 74 40 75 41 76
REMARK SMILES IDX 65 77 66 78 74 79 67 80 69 81 75 82 68 83 70 84 71 85 72 86
REMARK SMILES IDX 73 87 50 88 51 89 59 90 52 91 54 92 60 93 53 94 55 95 56 96
REMARK SMILES IDX 57 97 58 98
REMARK H PARENT 8 11 80 51 48 62
REMARK Flexibility Score: inf
ROOT
ATOM      1  C   UNL A   1      33.435  35.230  30.065  1.00  0.00     0.188 C 
ENDROOT
BRANCH   1   2
ATOM      2  C   UNL A   1      34.522  34.763  31.060  1.00  0.00     0.188 C 
BRANCH   2   3
ATOM      3  O   UNL A   1      34.586  33.361  31.260  1.00  0.00    -0.376 OA
BRANCH   3   4
ATOM      4  C   UNL A   1      34.716  32.930  32.610  1.00  0.00     0.202 C 
BRANCH   4   5
ATOM      5  C   UNL A   1      35.973  32.095  32.882  1.00  0.00     0.261 C 
BRANCH   5   6
ATOM      6  O   UNL A   1      36.419  32.136  34.248  1.00  0.00    -0.461 OA
BRANCH   6   7
ATOM      7  C   UNL A   1      37.522  32.909  34.497  1.00  0.00     0.333 C 
ATOM      8  O   UNL A   1      37.523  34.125  34.370  1.00  0.00    -0.249 OA
BRANCH   7   9
ATOM      9  C   UNL A   1      38.671  32.026  35.047  1.00  0.00     0.221 C 
BRANCH   9  10
ATOM     10  N   UNL A   1      39.629  31.648  33.978  1.00  0.00    -0.369 N 
ATOM     11  H   UNL A   1      40.065  32.386  33.497  1.00  0.00     0.161 HD
BRANCH  10  12
ATOM     12  C   UNL A   1      39.974  30.365  33.585  1.00  0.00     0.038 A 
ATOM     13  C   UNL A   1      43.170  28.258  33.308  1.00  0.00     0.044 C 
ATOM     14  C   UNL A   1      41.738  28.686  33.215  1.00  0.00    -0.046 A 
ATOM     15  C   UNL A   1      40.802  27.806  32.670  1.00  0.00     0.042 A 
ATOM     16  C   UNL A   1      41.321  29.965  33.640  1.00  0.00     0.029 A 
ATOM     17  C   UNL A   1      39.478  28.190  32.608  1.00  0.00     0.125 A 
ATOM     18  F   UNL A   1      38.567  27.353  32.092  1.00  0.00    -0.207 F 
ATOM     19  C   UNL A   1      39.072  29.432  33.077  1.00  0.00     0.065 A 
ENDBRANCH  10  12
ENDBRANCH   9  10
BRANCH   9  20
ATOM     20  C   UNL A   1      39.377  32.520  36.305  1.00  0.00    -0.014 A 
ATOM     21  C   UNL A   1      40.740  32.281  36.521  1.00  0.00     0.010 A 
ATOM     22  C   UNL A   1      38.662  33.169  37.327  1.00  0.00     0.010 A 
ATOM     23  C   UNL A   1      41.345  32.495  37.756  1.00  0.00    -0.051 A 
ATOM     24  C   UNL A   1      39.290  33.519  38.535  1.00  0.00    -0.051 A 
ATOM     25  C   UNL A   1      42.706  31.915  37.991  1.00  0.00     0.044 C 
ATOM     26  C   UNL A   1      40.616  33.125  38.760  1.00  0.00     0.006 A 
ATOM     27  C   UNL A   1      38.557  34.269  39.609  1.00  0.00     0.044 C 
ENDBRANCH   9  20
ENDBRANCH   7   9
ENDBRANCH   6   7
ENDBRANCH   5   6
ENDBRANCH   4   5
ENDBRANCH   3   4
ENDBRANCH   2   3
ENDBRANCH   1   2
BRANCH   1  28
ATOM     28  O   UNL A   1      32.697  34.300  29.283  1.00  0.00    -0.376 OA
BRANCH  28  29
ATOM     29  C   UNL A   1      33.175  33.921  28.002  1.00  0.00     0.202 C 
BRANCH  29  30
ATOM     30  C   UNL A   1      34.294  32.873  27.893  1.00  0.00     0.261 C 
BRANCH  30  31
ATOM     31  O   UNL A   1      34.116  31.690  28.686  1.00  0.00    -0.460 OA
BRANCH  31  32
ATOM     32  C   UNL A   1      34.332  30.519  28.038  1.00  0.00     0.338 C 
ATOM     33  O   UNL A   1      33.573  29.957  27.267  1.00  0.00    -0.246 OA
BRANCH  32  34
ATOM     34  C   UNL A   1      35.726  30.070  28.249  1.00  0.00     0.060 A 
ATOM     35  C   UNL A   1      36.111  29.719  29.550  1.00  0.00     0.016 A 
ATOM     36  C   UNL A   1      36.658  30.056  27.210  1.00  0.00     0.016 A 
ATOM     37  C   UNL A   1      37.437  29.390  29.826  1.00  0.00     0.010 A 
ATOM     38  C   UNL A   1      37.995  29.748  27.494  1.00  0.00     0.010 A 
ATOM     39  C   UNL A   1      38.397  29.449  28.809  1.00  0.00    -0.014 A 
BRANCH  39  40
ATOM     40  C   UNL A   1      39.837  29.384  29.161  1.00  0.00     0.031 A 
ATOM     41  C   UNL A   1      40.576  28.090  28.942  1.00  0.00     0.074 A 
ATOM     42  C   UNL A   1      40.488  30.454  29.654  1.00  0.00     0.049 A 
ATOM     43  N   UNL A   1      41.827  27.797  29.183  1.00  0.00    -0.248 NA
ATOM     44  C   UNL A   1      39.796  26.976  28.376  1.00  0.00     0.031 C 
ATOM     45  C   UNL A   1      39.892  31.764  29.905  1.00  0.00     0.029 A 
ATOM     46  N   UNL A   1      41.794  30.594  30.054  1.00  0.00    -0.354 N 
ATOM     47  C   UNL A   1      41.980  26.463  28.825  1.00  0.00     0.074 A 
ATOM     48  C   UNL A   1      40.691  25.999  28.361  1.00  0.00     0.031 C 
ATOM     49  C   UNL A   1      40.824  32.569  30.447  1.00  0.00     0.029 A 
ATOM     50  C   UNL A   1      42.074  31.825  30.598  1.00  0.00     0.049 A 
ATOM     51  H   UNL A   1      42.467  29.880  29.961  1.00  0.00     0.167 HD
ATOM     52  C   UNL A   1      43.094  25.695  28.864  1.00  0.00     0.034 A 
ATOM     53  C   UNL A   1      43.205  32.291  31.169  1.00  0.00     0.034 A 
ATOM     54  C   UNL A   1      44.380  26.158  29.310  1.00  0.00     0.049 A 
ATOM     55  C   UNL A   1      44.426  31.408  31.221  1.00  0.00     0.074 A 
ATOM     56  C   UNL A   1      45.577  25.464  29.347  1.00  0.00     0.029 A 
ATOM     57  N   UNL A   1      44.635  27.424  29.810  1.00  0.00    -0.354 N 
ATOM     58  N   UNL A   1      44.587  30.189  30.766  1.00  0.00    -0.248 NA
ATOM     59  C   UNL A   1      45.637  31.980  31.832  1.00  0.00     0.031 C 
ATOM     60  C   UNL A   1      46.552  26.306  29.894  1.00  0.00     0.029 A 
ATOM     61  C   UNL A   1      45.968  27.532  30.166  1.00  0.00     0.049 A 
ATOM     62  H   UNL A   1      43.967  28.142  29.898  1.00  0.00     0.167 HD
ATOM     63  C   UNL A   1      45.921  29.865  30.995  1.00  0.00     0.074 A 
ATOM     64  C   UNL A   1      46.529  31.023  31.617  1.00  0.00     0.031 C 
ATOM     65  C   UNL A   1      46.580  28.711  30.726  1.00  0.00     0.034 A 
BRANCH  52  66
ATOM     66  C   UNL A   1      42.976  24.272  28.385  1.00  0.00     0.023 A 
ATOM     67  C   UNL A   1      42.226  23.344  29.135  1.00  0.00     0.012 A 
ATOM     68  C   UNL A   1      43.562  23.867  27.170  1.00  0.00     0.148 A 
ATOM     69  C   UNL A   1      42.087  22.027  28.700  1.00  0.00     0.002 A 
ATOM     70  C   UNL A   1      43.382  22.564  26.721  1.00  0.00     0.091 A 
ATOM     71  F   UNL A   1      44.290  24.758  26.483  1.00  0.00    -0.205 F 
ATOM     72  C   UNL A   1      42.655  21.640  27.489  1.00  0.00     0.022 A 
BRANCH  70  73
ATOM     73  S   UNL A   1      44.010  21.992  25.138  1.00  0.00     0.127 S 
ATOM     74  O   UNL A   1      43.445  22.981  24.223  1.00  0.00    -0.237 OA
ATOM     75  O   UNL A   1      45.457  22.092  25.327  1.00  0.00    -0.237 OA
ATOM     76  O   UNL A   1      43.512  20.633  24.977  1.00  0.00    -0.744 OA
ENDBRANCH  70  73
ENDBRANCH  52  66
BRANCH  53  77
ATOM     77  C   UNL A   1      43.251  33.680  31.708  1.00  0.00     0.023 A 
ATOM     78  C   UNL A   1      43.672  34.736  30.876  1.00  0.00     0.012 A 
ATOM     79  C   UNL A   1      42.879  33.961  33.037  1.00  0.00     0.148 A 
ATOM     80  C   UNL A   1      43.753  36.040  31.365  1.00  0.00     0.002 A 
ATOM     81  C   UNL A   1      42.912  35.270  33.504  1.00  0.00     0.091 A 
ATOM     82  F   UNL A   1      42.501  32.940  33.820  1.00  0.00    -0.205 F 
ATOM     83  C   UNL A   1      43.363  36.309  32.675  1.00  0.00     0.022 A 
BRANCH  81  84
ATOM     84  S   UNL A   1      42.320  35.726  35.137  1.00  0.00     0.127 S 
ATOM     85  O   UNL A   1      40.925  35.301  35.079  1.00  0.00    -0.237 OA
ATOM     86  O   UNL A   1      43.176  34.916  36.005  1.00  0.00    -0.237 OA
ATOM     87  O   UNL A   1      42.541  37.162  35.248  1.00  0.00    -0.744 OA
ENDBRANCH  81  84
ENDBRANCH  53  77
BRANCH  65  88
ATOM     88  C   UNL A   1      48.051  28.645  31.048  1.00  0.00     0.023 A 
ATOM     89  C   UNL A   1      48.476  28.202  32.314  1.00  0.00     0.012 A 
ATOM     90  C   UNL A   1      49.012  28.944  30.061  1.00  0.00     0.148 A 
ATOM     91  C   UNL A   1      49.836  28.087  32.606  1.00  0.00     0.002 A 
ATOM     92  C   UNL A   1      50.364  28.780  30.342  1.00  0.00     0.091 A 
ATOM     93  F   UNL A   1      48.590  29.382  28.867  1.00  0.00    -0.205 F 
ATOM     94  C   UNL A   1      50.778  28.363  31.617  1.00  0.00     0.022 A 
BRANCH  92  95
ATOM     95  S   UNL A   1      51.640  29.018  29.099  1.00  0.00     0.127 S 
ATOM     96  O   UNL A   1      51.246  28.050  28.076  1.00  0.00    -0.237 OA
ATOM     97  O   UNL A   1      51.448  30.418  28.719  1.00  0.00    -0.237 OA
ATOM     98  O   UNL A   1      52.905  28.743  29.767  1.00  0.00    -0.744 OA
ENDBRANCH  92  95
ENDBRANCH  65  88
ENDBRANCH  39  40
ENDBRANCH  32  34
ENDBRANCH  31  32
ENDBRANCH  30  31
ENDBRANCH  29  30
ENDBRANCH  28  29
ENDBRANCH   1  28
TORSDOF 23
ENDMDL
