MODEL 1
REMARK VINA RESULT:      -9.6      0.000      0.000
REMARK SMILES Cc1nc(-c2ccc(C(F)(F)F)cc2)nc(SCC(=O)OCCOCCOCCOC(=O)c2ccc(-c3c4nc(c(-c5cccc(S(=O)(=O)[O-])c5F)c5ccc([nH]5)c(-c5cccc(S(=O)(=O)[O-])c5F)c5nc(c(-c6cccc(S(=O)(=O)[O-])c6F)c6ccc3[nH]6)C=C5)C=C4)cc2)c1C
REMARK SMILES IDX 25 1 24 2 23 3 22 4 21 5 19 6 20 7 18 8 17 9 16 10 1 11 2 12
REMARK SMILES IDX 3 13 96 14 4 15 97 16 15 17 5 18 6 19 14 20 7 21 13 22 8 23
REMARK SMILES IDX 9 24 10 25 11 26 12 27 26 28 27 29 28 30 29 31 30 32 31 33
REMARK SMILES IDX 32 34 33 35 34 36 95 37 35 38 94 39 36 40 37 41 38 42 88 43
REMARK SMILES IDX 39 44 93 45 87 46 89 47 40 48 92 49 86 50 85 51 41 53 73 54
REMARK SMILES IDX 53 55 72 56 54 57 57 58 71 59 90 60 55 61 56 62 70 64 91 65
REMARK SMILES IDX 58 66 42 67 43 68 51 69 44 70 46 71 52 72 45 73 47 74 48 75
REMARK SMILES IDX 49 76 50 77 74 78 75 79 83 80 76 81 78 82 84 83 77 84 79 85
REMARK SMILES IDX 80 86 81 87 82 88 59 89 60 90 68 91 61 92 63 93 69 94 62 95
REMARK SMILES IDX 64 96 65 97 66 98 67 99
REMARK H PARENT 89 52 57 63
REMARK Flexibility Score: inf
ROOT
ATOM      1  C   UNL A   1      37.279  22.560  25.776  1.00  0.00     0.188 C 
ENDROOT
BRANCH   1   2
ATOM      2  O   UNL A   1      36.443  21.954  24.798  1.00  0.00    -0.376 OA
BRANCH   2   3
ATOM      3  C   UNL A   1      35.820  20.715  25.123  1.00  0.00     0.202 C 
BRANCH   3   4
ATOM      4  C   UNL A   1      34.332  20.798  25.469  1.00  0.00     0.261 C 
BRANCH   4   5
ATOM      5  O   UNL A   1      33.854  22.166  25.498  1.00  0.00    -0.463 OA
BRANCH   5   6
ATOM      6  C   UNL A   1      33.536  22.693  26.710  1.00  0.00     0.316 C 
ATOM      7  O   UNL A   1      34.151  22.449  27.745  1.00  0.00    -0.251 OA
BRANCH   6   8
ATOM      8  C   UNL A   1      32.263  23.515  26.721  1.00  0.00     0.199 C 
BRANCH   8   9
ATOM      9  S   UNL A   1      31.049  23.194  25.407  1.00  0.00    -0.094 SA
BRANCH   9  10
ATOM     10  C   UNL A   1      31.231  24.316  24.011  1.00  0.00     0.104 A 
ATOM     11  C   UNL A   1      32.840  25.524  20.787  1.00  0.00     0.067 C 
ATOM     12  C   UNL A   1      31.966  25.320  21.991  1.00  0.00     0.045 A 
ATOM     13  N   UNL A   1      31.184  26.380  22.224  1.00  0.00    -0.233 NA
ATOM     14  C   UNL A   1      32.019  24.219  22.854  1.00  0.00     0.003 A 
ATOM     15  C   UNL A   1      30.461  26.392  23.341  1.00  0.00     0.160 A 
ATOM     16  C   UNL A   1      32.900  23.060  22.518  1.00  0.00     0.049 C 
ATOM     17  N   UNL A   1      30.459  25.415  24.251  1.00  0.00    -0.221 NA
BRANCH  15  18
ATOM     18  C   UNL A   1      29.765  27.659  23.568  1.00  0.00     0.019 A 
ATOM     19  C   UNL A   1      28.424  27.823  23.191  1.00  0.00     0.012 A 
ATOM     20  C   UNL A   1      30.506  28.805  23.906  1.00  0.00     0.012 A 
ATOM     21  C   UNL A   1      27.864  29.103  23.077  1.00  0.00     0.014 A 
ATOM     22  C   UNL A   1      29.953  30.084  23.788  1.00  0.00     0.014 A 
ATOM     23  C   UNL A   1      28.636  30.246  23.333  1.00  0.00     0.056 A 
BRANCH  23  24
ATOM     24  C   UNL A   1      28.072  31.619  23.060  1.00  0.00     0.416 C 
ATOM     25  F   UNL A   1      26.987  31.904  23.833  1.00  0.00    -0.166 F 
ATOM     26  F   UNL A   1      28.971  32.614  23.300  1.00  0.00    -0.166 F 
ATOM     27  F   UNL A   1      27.663  31.797  21.770  1.00  0.00    -0.166 F 
ENDBRANCH  23  24
ENDBRANCH  15  18
ENDBRANCH   9  10
ENDBRANCH   8   9
ENDBRANCH   6   8
ENDBRANCH   5   6
ENDBRANCH   4   5
ENDBRANCH   3   4
ENDBRANCH   2   3
ENDBRANCH   1   2
BRANCH   1  28
ATOM     28  C   UNL A   1      38.774  22.211  25.733  1.00  0.00     0.188 C 
BRANCH  28  29
ATOM     29  O   UNL A   1      39.246  21.172  26.578  1.00  0.00    -0.376 OA
BRANCH  29  30
ATOM     30  C   UNL A   1      39.823  20.049  25.924  1.00  0.00     0.202 C 
BRANCH  30  31
ATOM     31  C   UNL A   1      41.224  19.703  26.422  1.00  0.00     0.261 C 
BRANCH  31  32
ATOM     32  O   UNL A   1      41.701  20.719  27.323  1.00  0.00    -0.460 OA
BRANCH  32  33
ATOM     33  C   UNL A   1      42.539  21.607  26.737  1.00  0.00     0.338 C 
ATOM     34  O   UNL A   1      43.438  21.336  25.961  1.00  0.00    -0.246 OA
BRANCH  33  35
ATOM     35  C   UNL A   1      42.211  22.993  27.146  1.00  0.00     0.060 A 
ATOM     36  C   UNL A   1      41.980  24.003  26.210  1.00  0.00     0.016 A 
ATOM     37  C   UNL A   1      42.291  23.317  28.501  1.00  0.00     0.016 A 
ATOM     38  C   UNL A   1      41.935  25.338  26.618  1.00  0.00     0.010 A 
ATOM     39  C   UNL A   1      42.203  24.652  28.908  1.00  0.00     0.010 A 
ATOM     40  C   UNL A   1      42.097  25.686  27.965  1.00  0.00    -0.014 A 
BRANCH  40  41
ATOM     41  C   UNL A   1      42.296  27.106  28.376  1.00  0.00     0.031 A 
ATOM     42  C   UNL A   1      43.680  27.710  28.332  1.00  0.00     0.074 A 
ATOM     43  C   UNL A   1      41.261  27.892  28.733  1.00  0.00     0.049 A 
ATOM     44  N   UNL A   1      44.110  28.833  28.845  1.00  0.00    -0.248 NA
ATOM     45  C   UNL A   1      44.714  26.951  27.607  1.00  0.00     0.031 C 
ATOM     46  C   UNL A   1      39.854  27.499  28.710  1.00  0.00     0.029 A 
ATOM     47  N   UNL A   1      41.238  29.190  29.185  1.00  0.00    -0.354 N 
ATOM     48  C   UNL A   1      45.471  28.885  28.564  1.00  0.00     0.074 A 
ATOM     49  C   UNL A   1      45.795  27.687  27.820  1.00  0.00     0.031 C 
ATOM     50  C   UNL A   1      39.102  28.539  29.099  1.00  0.00     0.029 A 
ATOM     51  C   UNL A   1      39.978  29.631  29.517  1.00  0.00     0.049 A 
ATOM     52  H   UNL A   1      42.045  29.750  29.263  1.00  0.00     0.167 HD
ATOM     53  C   UNL A   1      46.369  29.845  28.889  1.00  0.00     0.034 A 
ATOM     54  C   UNL A   1      39.570  30.749  30.151  1.00  0.00     0.034 A 
ATOM     55  C   UNL A   1      46.037  31.062  29.582  1.00  0.00     0.049 A 
ATOM     56  C   UNL A   1      40.592  31.747  30.618  1.00  0.00     0.074 A 
ATOM     57  C   UNL A   1      46.883  32.084  29.978  1.00  0.00     0.029 A 
ATOM     58  N   UNL A   1      44.759  31.431  29.971  1.00  0.00    -0.354 N 
ATOM     59  N   UNL A   1      41.885  31.760  30.405  1.00  0.00    -0.248 NA
ATOM     60  C   UNL A   1      40.103  32.874  31.426  1.00  0.00     0.031 C 
ATOM     61  C   UNL A   1      46.117  33.063  30.621  1.00  0.00     0.029 A 
ATOM     62  C   UNL A   1      44.792  32.658  30.610  1.00  0.00     0.049 A 
ATOM     63  H   UNL A   1      43.947  30.897  29.814  1.00  0.00     0.167 HD
ATOM     64  C   UNL A   1      42.366  32.895  31.050  1.00  0.00     0.074 A 
ATOM     65  C   UNL A   1      41.220  33.560  31.634  1.00  0.00     0.031 C 
ATOM     66  C   UNL A   1      43.645  33.329  31.166  1.00  0.00     0.034 A 
BRANCH  53  67
ATOM     67  C   UNL A   1      47.807  29.632  28.495  1.00  0.00     0.023 A 
ATOM     68  C   UNL A   1      48.305  30.225  27.318  1.00  0.00     0.012 A 
ATOM     69  C   UNL A   1      48.683  28.912  29.331  1.00  0.00     0.148 A 
ATOM     70  C   UNL A   1      49.650  30.091  26.973  1.00  0.00     0.002 A 
ATOM     71  C   UNL A   1      50.031  28.818  29.001  1.00  0.00     0.091 A 
ATOM     72  F   UNL A   1      48.184  28.331  30.431  1.00  0.00    -0.205 F 
ATOM     73  C   UNL A   1      50.513  29.400  27.819  1.00  0.00     0.022 A 
BRANCH  71  74
ATOM     74  S   UNL A   1      51.228  28.019  30.075  1.00  0.00     0.127 S 
ATOM     75  O   UNL A   1      50.729  26.644  30.103  1.00  0.00    -0.237 OA
ATOM     76  O   UNL A   1      52.479  28.198  29.337  1.00  0.00    -0.237 OA
ATOM     77  O   UNL A   1      51.167  28.736  31.341  1.00  0.00    -0.744 OA
ENDBRANCH  71  74
ENDBRANCH  53  67
BRANCH  54  78
ATOM     78  C   UNL A   1      38.112  30.951  30.395  1.00  0.00     0.023 A 
ATOM     79  C   UNL A   1      37.534  30.471  31.584  1.00  0.00     0.012 A 
ATOM     80  C   UNL A   1      37.328  31.718  29.509  1.00  0.00     0.148 A 
ATOM     81  C   UNL A   1      36.207  30.770  31.896  1.00  0.00     0.002 A 
ATOM     82  C   UNL A   1      36.036  32.079  29.866  1.00  0.00     0.091 A 
ATOM     83  F   UNL A   1      37.885  32.128  28.361  1.00  0.00    -0.205 F 
ATOM     84  C   UNL A   1      35.467  31.595  31.052  1.00  0.00     0.022 A 
BRANCH  82  85
ATOM     85  S   UNL A   1      35.095  33.297  28.938  1.00  0.00     0.127 S 
ATOM     86  O   UNL A   1      34.935  32.636  27.647  1.00  0.00    -0.237 OA
ATOM     87  O   UNL A   1      33.871  33.402  29.735  1.00  0.00    -0.237 OA
ATOM     88  O   UNL A   1      35.910  34.505  28.934  1.00  0.00    -0.744 OA
ENDBRANCH  82  85
ENDBRANCH  54  78
BRANCH  66  89
ATOM     89  C   UNL A   1      43.893  34.583  31.963  1.00  0.00     0.023 A 
ATOM     90  C   UNL A   1      43.902  35.827  31.304  1.00  0.00     0.012 A 
ATOM     91  C   UNL A   1      44.021  34.541  33.365  1.00  0.00     0.148 A 
ATOM     92  C   UNL A   1      44.054  37.011  32.025  1.00  0.00     0.002 A 
ATOM     93  C   UNL A   1      44.132  35.727  34.083  1.00  0.00     0.091 A 
ATOM     94  F   UNL A   1      44.027  33.346  33.972  1.00  0.00    -0.205 F 
ATOM     95  C   UNL A   1      44.157  36.962  33.413  1.00  0.00     0.022 A 
BRANCH  93  96
ATOM     96  S   UNL A   1      44.181  35.768  35.878  1.00  0.00     0.127 S 
ATOM     97  O   UNL A   1      44.168  37.206  36.143  1.00  0.00    -0.237 OA
ATOM     98  O   UNL A   1      42.948  35.070  36.240  1.00  0.00    -0.237 OA
ATOM     99  O   UNL A   1      45.403  35.074  36.260  1.00  0.00    -0.744 OA
ENDBRANCH  93  96
ENDBRANCH  66  89
ENDBRANCH  40  41
ENDBRANCH  33  35
ENDBRANCH  32  33
ENDBRANCH  31  32
ENDBRANCH  30  31
ENDBRANCH  29  30
ENDBRANCH  28  29
ENDBRANCH   1  28
TORSDOF 24
ENDMDL
MODEL 2
REMARK VINA RESULT:      -9.3      3.304      4.809
REMARK SMILES Cc1nc(-c2ccc(C(F)(F)F)cc2)nc(SCC(=O)OCCOCCOCCOC(=O)c2ccc(-c3c4nc(c(-c5cccc(S(=O)(=O)[O-])c5F)c5ccc([nH]5)c(-c5cccc(S(=O)(=O)[O-])c5F)c5nc(c(-c6cccc(S(=O)(=O)[O-])c6F)c6ccc3[nH]6)C=C5)C=C4)cc2)c1C
REMARK SMILES IDX 25 1 24 2 23 3 22 4 21 5 19 6 20 7 18 8 17 9 16 10 1 11 2 12
REMARK SMILES IDX 3 13 96 14 4 15 97 16 15 17 5 18 6 19 14 20 7 21 13 22 8 23
REMARK SMILES IDX 9 24 10 25 11 26 12 27 26 28 27 29 28 30 29 31 30 32 31 33
REMARK SMILES IDX 32 34 33 35 34 36 95 37 35 38 94 39 36 40 37 41 38 42 88 43
REMARK SMILES IDX 39 44 93 45 87 46 89 47 40 48 92 49 86 50 85 51 41 53 73 54
REMARK SMILES IDX 53 55 72 56 54 57 57 58 71 59 90 60 55 61 56 62 70 64 91 65
REMARK SMILES IDX 58 66 42 67 43 68 51 69 44 70 46 71 52 72 45 73 47 74 48 75
REMARK SMILES IDX 49 76 50 77 74 78 75 79 83 80 76 81 78 82 84 83 77 84 79 85
REMARK SMILES IDX 80 86 81 87 82 88 59 89 60 90 68 91 61 92 63 93 69 94 62 95
REMARK SMILES IDX 64 96 65 97 66 98 67 99
REMARK H PARENT 89 52 57 63
REMARK Flexibility Score: inf
ROOT
ATOM      1  C   UNL A   1      40.444  20.969  26.737  1.00  0.00     0.188 C 
ENDROOT
BRANCH   1   2
ATOM      2  O   UNL A   1      39.799  22.069  26.109  1.00  0.00    -0.376 OA
BRANCH   2   3
ATOM      3  C   UNL A   1      38.415  21.948  25.800  1.00  0.00     0.202 C 
BRANCH   3   4
ATOM      4  C   UNL A   1      37.647  23.267  25.690  1.00  0.00     0.261 C 
BRANCH   4   5
ATOM      5  O   UNL A   1      36.520  23.167  24.785  1.00  0.00    -0.463 OA
BRANCH   5   6
ATOM      6  C   UNL A   1      35.293  22.953  25.333  1.00  0.00     0.316 C 
ATOM      7  O   UNL A   1      34.693  21.885  25.270  1.00  0.00    -0.251 OA
BRANCH   6   8
ATOM      8  C   UNL A   1      34.648  24.192  25.922  1.00  0.00     0.199 C 
BRANCH   8   9
ATOM      9  S   UNL A   1      32.831  24.251  25.961  1.00  0.00    -0.094 SA
BRANCH   9  10
ATOM     10  C   UNL A   1      32.185  25.865  25.495  1.00  0.00     0.104 A 
ATOM     11  C   UNL A   1      30.005  28.211  23.448  1.00  0.00     0.067 C 
ATOM     12  C   UNL A   1      30.941  27.592  24.446  1.00  0.00     0.045 A 
ATOM     13  N   UNL A   1      31.670  28.515  25.085  1.00  0.00    -0.233 NA
ATOM     14  C   UNL A   1      31.138  26.218  24.630  1.00  0.00     0.003 A 
ATOM     15  C   UNL A   1      32.639  28.098  25.895  1.00  0.00     0.160 A 
ATOM     16  C   UNL A   1      30.272  25.245  23.899  1.00  0.00     0.049 C 
ATOM     17  N   UNL A   1      32.939  26.816  26.119  1.00  0.00    -0.221 NA
BRANCH  15  18
ATOM     18  C   UNL A   1      33.466  29.185  26.418  1.00  0.00     0.019 A 
ATOM     19  C   UNL A   1      34.784  28.950  26.839  1.00  0.00     0.012 A 
ATOM     20  C   UNL A   1      32.865  30.408  26.764  1.00  0.00     0.012 A 
ATOM     21  C   UNL A   1      35.451  29.877  27.652  1.00  0.00     0.014 A 
ATOM     22  C   UNL A   1      33.526  31.332  27.580  1.00  0.00     0.014 A 
ATOM     23  C   UNL A   1      34.812  31.056  28.064  1.00  0.00     0.056 A 
BRANCH  23  24
ATOM     24  C   UNL A   1      35.480  31.972  29.062  1.00  0.00     0.416 C 
ATOM     25  F   UNL A   1      34.872  33.188  29.147  1.00  0.00    -0.166 F 
ATOM     26  F   UNL A   1      35.476  31.465  30.326  1.00  0.00    -0.166 F 
ATOM     27  F   UNL A   1      36.788  32.234  28.775  1.00  0.00    -0.166 F 
ENDBRANCH  23  24
ENDBRANCH  15  18
ENDBRANCH   9  10
ENDBRANCH   8   9
ENDBRANCH   6   8
ENDBRANCH   5   6
ENDBRANCH   4   5
ENDBRANCH   3   4
ENDBRANCH   2   3
ENDBRANCH   1   2
BRANCH   1  28
ATOM     28  C   UNL A   1      41.803  21.238  27.401  1.00  0.00     0.188 C 
BRANCH  28  29
ATOM     29  O   UNL A   1      42.893  21.614  26.572  1.00  0.00    -0.376 OA
BRANCH  29  30
ATOM     30  C   UNL A   1      43.520  22.850  26.887  1.00  0.00     0.202 C 
BRANCH  30  31
ATOM     31  C   UNL A   1      42.833  24.062  26.264  1.00  0.00     0.261 C 
BRANCH  31  32
ATOM     32  O   UNL A   1      42.120  24.806  27.269  1.00  0.00    -0.460 OA
BRANCH  32  33
ATOM     33  C   UNL A   1      41.132  25.582  26.764  1.00  0.00     0.338 C 
ATOM     34  O   UNL A   1      40.459  25.330  25.781  1.00  0.00    -0.246 OA
BRANCH  33  35
ATOM     35  C   UNL A   1      40.945  26.801  27.585  1.00  0.00     0.060 A 
ATOM     36  C   UNL A   1      40.439  27.985  27.043  1.00  0.00     0.016 A 
ATOM     37  C   UNL A   1      41.436  26.798  28.891  1.00  0.00     0.016 A 
ATOM     38  C   UNL A   1      40.521  29.176  27.766  1.00  0.00     0.010 A 
ATOM     39  C   UNL A   1      41.477  27.988  29.626  1.00  0.00     0.010 A 
ATOM     40  C   UNL A   1      41.087  29.205  29.047  1.00  0.00    -0.014 A 
BRANCH  40  41
ATOM     41  C   UNL A   1      41.403  30.497  29.722  1.00  0.00     0.031 A 
ATOM     42  C   UNL A   1      42.750  31.145  29.505  1.00  0.00     0.074 A 
ATOM     43  C   UNL A   1      40.493  31.140  30.481  1.00  0.00     0.049 A 
ATOM     44  N   UNL A   1      43.308  32.133  30.153  1.00  0.00    -0.248 NA
ATOM     45  C   UNL A   1      43.573  30.613  28.404  1.00  0.00     0.031 C 
ATOM     46  C   UNL A   1      39.112  30.712  30.690  1.00  0.00     0.029 A 
ATOM     47  N   UNL A   1      40.600  32.296  31.217  1.00  0.00    -0.354 N 
ATOM     48  C   UNL A   1      44.567  32.299  29.588  1.00  0.00     0.074 A 
ATOM     49  C   UNL A   1      44.688  31.319  28.530  1.00  0.00     0.031 C 
ATOM     50  C   UNL A   1      38.491  31.606  31.474  1.00  0.00     0.029 A 
ATOM     51  C   UNL A   1      39.460  32.602  31.923  1.00  0.00     0.049 A 
ATOM     52  H   UNL A   1      41.413  32.852  31.237  1.00  0.00     0.167 HD
ATOM     53  C   UNL A   1      45.534  33.190  29.914  1.00  0.00     0.034 A 
ATOM     54  C   UNL A   1      39.231  33.527  32.878  1.00  0.00     0.034 A 
ATOM     55  C   UNL A   1      45.395  34.200  30.929  1.00  0.00     0.049 A 
ATOM     56  C   UNL A   1      40.351  34.426  33.318  1.00  0.00     0.074 A 
ATOM     57  C   UNL A   1      46.328  35.132  31.349  1.00  0.00     0.029 A 
ATOM     58  N   UNL A   1      44.248  34.421  31.676  1.00  0.00    -0.354 N 
ATOM     59  N   UNL A   1      41.559  34.535  32.823  1.00  0.00    -0.248 NA
ATOM     60  C   UNL A   1      40.084  35.316  34.457  1.00  0.00     0.031 C 
ATOM     61  C   UNL A   1      45.751  35.906  32.361  1.00  0.00     0.029 A 
ATOM     62  C   UNL A   1      44.452  35.467  32.560  1.00  0.00     0.049 A 
ATOM     63  H   UNL A   1      43.412  33.909  31.590  1.00  0.00     0.167 HD
ATOM     64  C   UNL A   1      42.198  35.506  33.587  1.00  0.00     0.074 A 
ATOM     65  C   UNL A   1      41.231  35.976  34.559  1.00  0.00     0.031 C 
ATOM     66  C   UNL A   1      43.477  35.948  33.505  1.00  0.00     0.034 A 
BRANCH  53  67
ATOM     67  C   UNL A   1      46.837  33.127  29.161  1.00  0.00     0.023 A 
ATOM     68  C   UNL A   1      47.817  32.186  29.536  1.00  0.00     0.012 A 
ATOM     69  C   UNL A   1      47.057  33.942  28.034  1.00  0.00     0.148 A 
ATOM     70  C   UNL A   1      49.002  32.070  28.809  1.00  0.00     0.002 A 
ATOM     71  C   UNL A   1      48.222  33.792  27.289  1.00  0.00     0.091 A 
ATOM     72  F   UNL A   1      46.126  34.851  27.710  1.00  0.00    -0.205 F 
ATOM     73  C   UNL A   1      49.198  32.862  27.681  1.00  0.00     0.022 A 
BRANCH  71  74
ATOM     74  S   UNL A   1      48.519  34.712  25.776  1.00  0.00     0.127 S 
ATOM     75  O   UNL A   1      47.253  34.533  25.067  1.00  0.00    -0.237 OA
ATOM     76  O   UNL A   1      48.751  36.068  26.274  1.00  0.00    -0.237 OA
ATOM     77  O   UNL A   1      49.681  34.092  25.155  1.00  0.00    -0.744 OA
ENDBRANCH  71  74
ENDBRANCH  53  67
BRANCH  54  78
ATOM     78  C   UNL A   1      37.873  33.613  33.490  1.00  0.00     0.023 A 
ATOM     79  C   UNL A   1      37.698  33.268  34.843  1.00  0.00     0.012 A 
ATOM     80  C   UNL A   1      36.785  34.146  32.770  1.00  0.00     0.148 A 
ATOM     81  C   UNL A   1      36.470  33.475  35.472  1.00  0.00     0.002 A 
ATOM     82  C   UNL A   1      35.592  34.424  33.423  1.00  0.00     0.091 A 
ATOM     83  F   UNL A   1      36.960  34.426  31.471  1.00  0.00    -0.205 F 
ATOM     84  C   UNL A   1      35.426  34.076  34.771  1.00  0.00     0.022 A 
BRANCH  82  85
ATOM     85  S   UNL A   1      34.279  35.378  32.651  1.00  0.00     0.127 S 
ATOM     86  O   UNL A   1      33.093  34.608  33.016  1.00  0.00    -0.237 OA
ATOM     87  O   UNL A   1      34.410  36.670  33.325  1.00  0.00    -0.237 OA
ATOM     88  O   UNL A   1      34.600  35.410  31.230  1.00  0.00    -0.744 OA
ENDBRANCH  82  85
ENDBRANCH  54  78
BRANCH  66  89
ATOM     89  C   UNL A   1      43.926  36.991  34.495  1.00  0.00     0.023 A 
ATOM     90  C   UNL A   1      43.806  38.353  34.161  1.00  0.00     0.012 A 
ATOM     91  C   UNL A   1      44.375  36.630  35.781  1.00  0.00     0.148 A 
ATOM     92  C   UNL A   1      44.143  39.343  35.085  1.00  0.00     0.002 A 
ATOM     93  C   UNL A   1      44.670  37.620  36.711  1.00  0.00     0.091 A 
ATOM     94  F   UNL A   1      44.497  35.327  36.073  1.00  0.00    -0.205 F 
ATOM     95  C   UNL A   1      44.563  38.977  36.361  1.00  0.00     0.022 A 
BRANCH  93  96
ATOM     96  S   UNL A   1      45.134  37.245  38.406  1.00  0.00     0.127 S 
ATOM     97  O   UNL A   1      43.917  36.615  38.914  1.00  0.00    -0.237 OA
ATOM     98  O   UNL A   1      46.263  36.333  38.225  1.00  0.00    -0.237 OA
ATOM     99  O   UNL A   1      45.479  38.521  39.018  1.00  0.00    -0.744 OA
ENDBRANCH  93  96
ENDBRANCH  66  89
ENDBRANCH  40  41
ENDBRANCH  33  35
ENDBRANCH  32  33
ENDBRANCH  31  32
ENDBRANCH  30  31
ENDBRANCH  29  30
ENDBRANCH  28  29
ENDBRANCH   1  28
TORSDOF 24
ENDMDL
MODEL 3
REMARK VINA RESULT:      -9.3      4.390      6.051
REMARK SMILES Cc1nc(-c2ccc(C(F)(F)F)cc2)nc(SCC(=O)OCCOCCOCCOC(=O)c2ccc(-c3c4nc(c(-c5cccc(S(=O)(=O)[O-])c5F)c5ccc([nH]5)c(-c5cccc(S(=O)(=O)[O-])c5F)c5nc(c(-c6cccc(S(=O)(=O)[O-])c6F)c6ccc3[nH]6)C=C5)C=C4)cc2)c1C
REMARK SMILES IDX 25 1 24 2 23 3 22 4 21 5 19 6 20 7 18 8 17 9 16 10 1 11 2 12
REMARK SMILES IDX 3 13 96 14 4 15 97 16 15 17 5 18 6 19 14 20 7 21 13 22 8 23
REMARK SMILES IDX 9 24 10 25 11 26 12 27 26 28 27 29 28 30 29 31 30 32 31 33
REMARK SMILES IDX 32 34 33 35 34 36 95 37 35 38 94 39 36 40 37 41 38 42 88 43
REMARK SMILES IDX 39 44 93 45 87 46 89 47 40 48 92 49 86 50 85 51 41 53 73 54
REMARK SMILES IDX 53 55 72 56 54 57 57 58 71 59 90 60 55 61 56 62 70 64 91 65
REMARK SMILES IDX 58 66 42 67 43 68 51 69 44 70 46 71 52 72 45 73 47 74 48 75
REMARK SMILES IDX 49 76 50 77 74 78 75 79 83 80 76 81 78 82 84 83 77 84 79 85
REMARK SMILES IDX 80 86 81 87 82 88 59 89 60 90 68 91 61 92 63 93 69 94 62 95
REMARK SMILES IDX 64 96 65 97 66 98 67 99
REMARK H PARENT 89 52 57 63
REMARK Flexibility Score: inf
ROOT
ATOM      1  C   UNL A   1      40.607  20.883  26.794  1.00  0.00     0.188 C 
ENDROOT
BRANCH   1   2
ATOM      2  O   UNL A   1      39.775  21.821  26.123  1.00  0.00    -0.376 OA
BRANCH   2   3
ATOM      3  C   UNL A   1      38.467  21.405  25.742  1.00  0.00     0.202 C 
BRANCH   3   4
ATOM      4  C   UNL A   1      37.433  22.525  25.610  1.00  0.00     0.261 C 
BRANCH   4   5
ATOM      5  O   UNL A   1      36.336  22.154  24.739  1.00  0.00    -0.463 OA
BRANCH   5   6
ATOM      6  C   UNL A   1      35.173  21.764  25.327  1.00  0.00     0.316 C 
ATOM      7  O   UNL A   1      34.707  20.632  25.238  1.00  0.00    -0.251 OA
BRANCH   6   8
ATOM      8  C   UNL A   1      34.409  22.884  26.004  1.00  0.00     0.199 C 
BRANCH   8   9
ATOM      9  S   UNL A   1      32.602  22.899  25.815  1.00  0.00    -0.094 SA
BRANCH   9  10
ATOM     10  C   UNL A   1      31.982  24.487  25.238  1.00  0.00     0.104 A 
ATOM     11  C   UNL A   1      30.270  26.783  22.739  1.00  0.00     0.067 C 
ATOM     12  C   UNL A   1      30.942  26.178  23.939  1.00  0.00     0.045 A 
ATOM     13  N   UNL A   1      31.389  27.114  24.784  1.00  0.00    -0.233 NA
ATOM     14  C   UNL A   1      31.189  24.812  24.127  1.00  0.00     0.003 A 
ATOM     15  C   UNL A   1      32.128  26.722  25.818  1.00  0.00     0.160 A 
ATOM     16  C   UNL A   1      30.639  23.822  23.153  1.00  0.00     0.049 C 
ATOM     17  N   UNL A   1      32.456  25.453  26.077  1.00  0.00    -0.221 NA
BRANCH  15  18
ATOM     18  C   UNL A   1      32.690  27.834  26.585  1.00  0.00     0.019 A 
ATOM     19  C   UNL A   1      31.856  28.784  27.194  1.00  0.00     0.012 A 
ATOM     20  C   UNL A   1      34.063  28.121  26.485  1.00  0.00     0.012 A 
ATOM     21  C   UNL A   1      32.367  30.018  27.617  1.00  0.00     0.014 A 
ATOM     22  C   UNL A   1      34.575  29.353  26.901  1.00  0.00     0.014 A 
ATOM     23  C   UNL A   1      33.723  30.331  27.436  1.00  0.00     0.056 A 
BRANCH  23  24
ATOM     24  C   UNL A   1      34.232  31.716  27.752  1.00  0.00     0.416 C 
ATOM     25  F   UNL A   1      35.582  31.824  27.610  1.00  0.00    -0.166 F 
ATOM     26  F   UNL A   1      33.694  32.671  26.943  1.00  0.00    -0.166 F 
ATOM     27  F   UNL A   1      33.962  32.120  29.027  1.00  0.00    -0.166 F 
ENDBRANCH  23  24
ENDBRANCH  15  18
ENDBRANCH   9  10
ENDBRANCH   8   9
ENDBRANCH   6   8
ENDBRANCH   5   6
ENDBRANCH   4   5
ENDBRANCH   3   4
ENDBRANCH   2   3
ENDBRANCH   1   2
BRANCH   1  28
ATOM     28  C   UNL A   1      41.854  21.433  27.501  1.00  0.00     0.188 C 
BRANCH  28  29
ATOM     29  O   UNL A   1      42.847  22.072  26.712  1.00  0.00    -0.376 OA
BRANCH  29  30
ATOM     30  C   UNL A   1      43.219  23.383  27.118  1.00  0.00     0.202 C 
BRANCH  30  31
ATOM     31  C   UNL A   1      42.319  24.478  26.553  1.00  0.00     0.261 C 
BRANCH  31  32
ATOM     32  O   UNL A   1      41.477  25.019  27.587  1.00  0.00    -0.460 OA
BRANCH  32  33
ATOM     33  C   UNL A   1      40.319  25.542  27.119  1.00  0.00     0.338 C 
ATOM     34  O   UNL A   1      39.717  25.171  26.127  1.00  0.00    -0.246 OA
BRANCH  33  35
ATOM     35  C   UNL A   1      39.842  26.639  27.994  1.00  0.00     0.060 A 
ATOM     36  C   UNL A   1      40.156  27.975  27.739  1.00  0.00     0.016 A 
ATOM     37  C   UNL A   1      39.196  26.300  29.183  1.00  0.00     0.016 A 
ATOM     38  C   UNL A   1      39.919  28.948  28.713  1.00  0.00     0.010 A 
ATOM     39  C   UNL A   1      38.922  27.285  30.137  1.00  0.00     0.010 A 
ATOM     40  C   UNL A   1      39.346  28.609  29.945  1.00  0.00    -0.014 A 
BRANCH  40  41
ATOM     41  C   UNL A   1      39.315  29.583  31.075  1.00  0.00     0.031 A 
ATOM     42  C   UNL A   1      40.471  29.638  32.046  1.00  0.00     0.074 A 
ATOM     43  C   UNL A   1      38.305  30.463  31.223  1.00  0.00     0.049 A 
ATOM     44  N   UNL A   1      40.552  30.240  33.204  1.00  0.00    -0.248 NA
ATOM     45  C   UNL A   1      41.702  28.929  31.655  1.00  0.00     0.031 C 
ATOM     46  C   UNL A   1      37.179  30.621  30.306  1.00  0.00     0.029 A 
ATOM     47  N   UNL A   1      38.067  31.393  32.208  1.00  0.00    -0.354 N 
ATOM     48  C   UNL A   1      41.809  29.929  33.709  1.00  0.00     0.074 A 
ATOM     49  C   UNL A   1      42.467  29.099  32.724  1.00  0.00     0.031 C 
ATOM     50  C   UNL A   1      36.387  31.607  30.752  1.00  0.00     0.029 A 
ATOM     51  C   UNL A   1      36.879  32.067  32.048  1.00  0.00     0.049 A 
ATOM     52  H   UNL A   1      38.687  31.560  32.955  1.00  0.00     0.167 HD
ATOM     53  C   UNL A   1      42.370  30.307  34.883  1.00  0.00     0.034 A 
ATOM     54  C   UNL A   1      36.217  32.903  32.873  1.00  0.00     0.034 A 
ATOM     55  C   UNL A   1      41.738  31.178  35.838  1.00  0.00     0.049 A 
ATOM     56  C   UNL A   1      36.793  33.214  34.226  1.00  0.00     0.074 A 
ATOM     57  C   UNL A   1      42.216  31.597  37.068  1.00  0.00     0.029 A 
ATOM     58  N   UNL A   1      40.498  31.773  35.670  1.00  0.00    -0.354 N 
ATOM     59  N   UNL A   1      37.954  32.866  34.724  1.00  0.00    -0.248 NA
ATOM     60  C   UNL A   1      35.963  34.015  35.136  1.00  0.00     0.031 C 
ATOM     61  C   UNL A   1      41.258  32.434  37.649  1.00  0.00     0.029 A 
ATOM     62  C   UNL A   1      40.190  32.549  36.774  1.00  0.00     0.049 A 
ATOM     63  H   UNL A   1      39.922  31.662  34.880  1.00  0.00     0.167 HD
ATOM     64  C   UNL A   1      37.997  33.407  36.005  1.00  0.00     0.074 A 
ATOM     65  C   UNL A   1      36.757  34.132  36.193  1.00  0.00     0.031 C 
ATOM     66  C   UNL A   1      38.966  33.290  36.945  1.00  0.00     0.034 A 
BRANCH  53  67
ATOM     67  C   UNL A   1      43.747  29.790  35.208  1.00  0.00     0.023 A 
ATOM     68  C   UNL A   1      44.881  30.532  34.823  1.00  0.00     0.012 A 
ATOM     69  C   UNL A   1      43.913  28.613  35.963  1.00  0.00     0.148 A 
ATOM     70  C   UNL A   1      46.161  30.100  35.174  1.00  0.00     0.002 A 
ATOM     71  C   UNL A   1      45.189  28.211  36.343  1.00  0.00     0.091 A 
ATOM     72  F   UNL A   1      42.824  27.905  36.294  1.00  0.00    -0.205 F 
ATOM     73  C   UNL A   1      46.314  28.950  35.943  1.00  0.00     0.022 A 
BRANCH  71  74
ATOM     74  S   UNL A   1      45.472  26.789  37.403  1.00  0.00     0.127 S 
ATOM     75  O   UNL A   1      44.581  27.075  38.527  1.00  0.00    -0.237 OA
ATOM     76  O   UNL A   1      45.043  25.676  36.554  1.00  0.00    -0.237 OA
ATOM     77  O   UNL A   1      46.896  26.798  37.710  1.00  0.00    -0.744 OA
ENDBRANCH  71  74
ENDBRANCH  53  67
BRANCH  54  78
ATOM     78  C   UNL A   1      34.914  33.478  32.428  1.00  0.00     0.023 A 
ATOM     79  C   UNL A   1      33.797  33.406  33.280  1.00  0.00     0.012 A 
ATOM     80  C   UNL A   1      34.813  34.194  31.219  1.00  0.00     0.148 A 
ATOM     81  C   UNL A   1      32.609  34.058  32.945  1.00  0.00     0.002 A 
ATOM     82  C   UNL A   1      33.656  34.907  30.932  1.00  0.00     0.091 A 
ATOM     83  F   UNL A   1      35.875  34.213  30.401  1.00  0.00    -0.205 F 
ATOM     84  C   UNL A   1      32.547  34.829  31.786  1.00  0.00     0.022 A 
BRANCH  82  85
ATOM     85  S   UNL A   1      33.569  36.080  29.573  1.00  0.00     0.127 S 
ATOM     86  O   UNL A   1      32.171  35.969  29.169  1.00  0.00    -0.237 OA
ATOM     87  O   UNL A   1      33.924  37.335  30.237  1.00  0.00    -0.237 OA
ATOM     88  O   UNL A   1      34.549  35.624  28.596  1.00  0.00    -0.744 OA
ENDBRANCH  82  85
ENDBRANCH  54  78
BRANCH  66  89
ATOM     89  C   UNL A   1      38.736  33.951  38.279  1.00  0.00     0.023 A 
ATOM     90  C   UNL A   1      38.250  33.181  39.353  1.00  0.00     0.012 A 
ATOM     91  C   UNL A   1      39.085  35.299  38.495  1.00  0.00     0.148 A 
ATOM     92  C   UNL A   1      38.097  33.747  40.620  1.00  0.00     0.002 A 
ATOM     93  C   UNL A   1      38.969  35.845  39.768  1.00  0.00     0.091 A 
ATOM     94  F   UNL A   1      39.530  36.019  37.455  1.00  0.00    -0.205 F 
ATOM     95  C   UNL A   1      38.467  35.073  40.829  1.00  0.00     0.022 A 
BRANCH  93  96
ATOM     96  S   UNL A   1      39.503  37.517  40.153  1.00  0.00     0.127 S 
ATOM     97  O   UNL A   1      39.352  37.549  41.607  1.00  0.00    -0.237 OA
ATOM     98  O   UNL A   1      40.889  37.517  39.684  1.00  0.00    -0.237 OA
ATOM     99  O   UNL A   1      38.614  38.401  39.413  1.00  0.00    -0.744 OA
ENDBRANCH  93  96
ENDBRANCH  66  89
ENDBRANCH  40  41
ENDBRANCH  33  35
ENDBRANCH  32  33
ENDBRANCH  31  32
ENDBRANCH  30  31
ENDBRANCH  29  30
ENDBRANCH  28  29
ENDBRANCH   1  28
TORSDOF 24
ENDMDL
