MODEL 1
REMARK VINA RESULT:      -9.6      0.000      0.000
REMARK SMILES Cc1cccc(-n2nc(Br)c(C(=O)OCCOCCOCCOC(=O)c3ccc(-c4c5nc(c(-c6cccc(S(=O)(=O)[O-])c6F)c6ccc([nH]6)c(-c6cccc(S(=O)(=O)[O-])c6F)c6nc(c(-c7cccc(S(=O)(=O)[O-])c7F)c7ccc4[nH]7)C=C6)C=C5)cc3)n2)c1
REMARK SMILES IDX 19 1 18 2 17 3 16 4 15 5 14 6 12 7 13 8 11 9 7 10 8 11 89 12
REMARK SMILES IDX 9 13 10 14 6 15 1 16 2 17 3 18 90 19 4 20 5 21 20 22 21 23
REMARK SMILES IDX 22 24 23 25 24 26 25 27 26 28 27 29 88 30 28 31 87 32 29 33
REMARK SMILES IDX 30 34 31 35 81 36 32 37 86 38 80 39 82 40 33 41 85 42 79 43
REMARK SMILES IDX 78 44 34 46 66 47 46 48 65 49 47 50 50 51 64 52 83 53 48 54
REMARK SMILES IDX 49 55 63 57 84 58 51 59 35 60 36 61 44 62 37 63 39 64 45 65
REMARK SMILES IDX 38 66 40 67 41 68 42 69 43 70 67 71 68 72 76 73 69 74 71 75
REMARK SMILES IDX 77 76 70 77 72 78 73 79 74 80 75 81 52 82 53 83 61 84 54 85
REMARK SMILES IDX 56 86 62 87 55 88 57 89 58 90 59 91 60 92
REMARK H PARENT 82 45 50 56
REMARK Flexibility Score: inf
ROOT
ATOM      1  C   UNL A   1      49.031  22.304  40.091  1.00  0.00     0.188 C 
ENDROOT
BRANCH   1   2
ATOM      2  C   UNL A   1      49.576  20.901  40.278  1.00  0.00     0.188 C 
BRANCH   2   3
ATOM      3  O   UNL A   1      49.754  20.237  39.023  1.00  0.00    -0.376 OA
BRANCH   3   4
ATOM      4  C   UNL A   1      48.825  19.205  38.688  1.00  0.00     0.202 C 
BRANCH   4   5
ATOM      5  C   UNL A   1      48.045  18.492  39.881  1.00  0.00     0.261 C 
BRANCH   5   6
ATOM      6  O   UNL A   1      46.575  18.672  39.991  1.00  0.00    -0.458 OA
BRANCH   6   7
ATOM      7  C   UNL A   1      45.633  18.885  41.028  1.00  0.00     0.361 C 
ATOM      8  O   UNL A   1      45.278  20.038  41.262  1.00  0.00    -0.244 OA
BRANCH   7   9
ATOM      9  C   UNL A   1      45.055  17.601  41.889  1.00  0.00     0.205 A 
ATOM     10  N   UNL A   1      43.493  16.243  42.321  1.00  0.00    -0.150 N 
ATOM     11  N   UNL A   1      44.195  16.094  43.415  1.00  0.00    -0.140 NA
ATOM     12  N   UNL A   1      43.811  17.241  41.489  1.00  0.00    -0.140 NA
ATOM     13  C   UNL A   1      45.356  16.595  42.993  1.00  0.00     0.163 A 
ATOM     14  Br  UNL A   1      46.743  15.714  43.974  1.00  0.00    -0.024 Br
BRANCH  10  15
ATOM     15  C   UNL A   1      42.740  15.160  41.913  1.00  0.00     0.086 A 
ATOM     16  C   UNL A   1      41.666  11.877  43.370  1.00  0.00     0.044 C 
ATOM     17  C   UNL A   1      41.860  13.001  42.401  1.00  0.00    -0.049 A 
ATOM     18  C   UNL A   1      41.551  12.885  41.036  1.00  0.00     0.003 A 
ATOM     19  C   UNL A   1      42.468  14.161  42.845  1.00  0.00     0.033 A 
ATOM     20  C   UNL A   1      41.736  13.957  40.148  1.00  0.00     0.003 A 
ATOM     21  C   UNL A   1      42.298  15.134  40.600  1.00  0.00     0.030 A 
ENDBRANCH  10  15
ENDBRANCH   7   9
ENDBRANCH   6   7
ENDBRANCH   5   6
ENDBRANCH   4   5
ENDBRANCH   3   4
ENDBRANCH   2   3
ENDBRANCH   1   2
BRANCH   1  22
ATOM     22  O   UNL A   1      47.634  22.258  39.854  1.00  0.00    -0.376 OA
BRANCH  22  23
ATOM     23  C   UNL A   1      47.190  22.616  38.563  1.00  0.00     0.202 C 
BRANCH  23  24
ATOM     24  C   UNL A   1      46.162  21.668  37.918  1.00  0.00     0.261 C 
BRANCH  24  25
ATOM     25  O   UNL A   1      45.535  22.278  36.769  1.00  0.00    -0.460 OA
BRANCH  25  26
ATOM     26  C   UNL A   1      45.263  21.484  35.664  1.00  0.00     0.338 C 
ATOM     27  O   UNL A   1      45.242  20.279  35.694  1.00  0.00    -0.246 OA
BRANCH  26  28
ATOM     28  C   UNL A   1      45.353  22.357  34.411  1.00  0.00     0.060 A 
ATOM     29  C   UNL A   1      46.303  23.381  34.251  1.00  0.00     0.016 A 
ATOM     30  C   UNL A   1      44.162  22.574  33.805  1.00  0.00     0.016 A 
ATOM     31  C   UNL A   1      45.946  24.696  33.722  1.00  0.00     0.010 A 
ATOM     32  C   UNL A   1      43.808  23.923  33.754  1.00  0.00     0.010 A 
ATOM     33  C   UNL A   1      44.611  25.072  33.507  1.00  0.00    -0.014 A 
BRANCH  33  34
ATOM     34  C   UNL A   1      44.030  26.617  33.131  1.00  0.00     0.031 A 
ATOM     35  C   UNL A   1      43.169  27.828  33.977  1.00  0.00     0.074 A 
ATOM     36  C   UNL A   1      44.227  27.056  31.885  1.00  0.00     0.049 A 
ATOM     37  N   UNL A   1      42.056  28.431  33.582  1.00  0.00    -0.248 NA
ATOM     38  C   UNL A   1      43.388  28.336  35.366  1.00  0.00     0.031 C 
ATOM     39  C   UNL A   1      44.245  28.446  31.465  1.00  0.00     0.029 A 
ATOM     40  N   UNL A   1      44.597  26.342  30.772  1.00  0.00    -0.354 N 
ATOM     41  C   UNL A   1      41.682  29.251  34.682  1.00  0.00     0.074 A 
ATOM     42  C   UNL A   1      42.151  28.531  35.800  1.00  0.00     0.031 C 
ATOM     43  C   UNL A   1      44.480  28.489  30.148  1.00  0.00     0.029 A 
ATOM     44  C   UNL A   1      44.402  27.133  29.644  1.00  0.00     0.049 A 
ATOM     45  H   UNL A   1      44.943  25.420  30.771  1.00  0.00     0.167 HD
ATOM     46  C   UNL A   1      41.619  30.630  34.657  1.00  0.00     0.034 A 
ATOM     47  C   UNL A   1      43.559  26.674  28.676  1.00  0.00     0.034 A 
ATOM     48  C   UNL A   1      41.662  31.041  33.263  1.00  0.00     0.049 A 
ATOM     49  C   UNL A   1      42.277  27.490  28.637  1.00  0.00     0.074 A 
ATOM     50  C   UNL A   1      42.630  31.596  32.449  1.00  0.00     0.029 A 
ATOM     51  N   UNL A   1      40.690  30.528  32.428  1.00  0.00    -0.354 N 
ATOM     52  N   UNL A   1      42.083  28.572  29.352  1.00  0.00    -0.248 NA
ATOM     53  C   UNL A   1      41.120  27.205  27.794  1.00  0.00     0.031 C 
ATOM     54  C   UNL A   1      42.296  31.245  31.101  1.00  0.00     0.029 A 
ATOM     55  C   UNL A   1      41.103  30.538  31.106  1.00  0.00     0.049 A 
ATOM     56  H   UNL A   1      39.814  30.199  32.733  1.00  0.00     0.167 HD
ATOM     57  C   UNL A   1      40.787  28.987  29.257  1.00  0.00     0.074 A 
ATOM     58  C   UNL A   1      40.261  28.171  28.175  1.00  0.00     0.031 C 
ATOM     59  C   UNL A   1      40.229  29.894  30.121  1.00  0.00     0.034 A 
BRANCH  46  60
ATOM     60  C   UNL A   1      41.832  31.643  35.869  1.00  0.00     0.023 A 
ATOM     61  C   UNL A   1      43.155  32.103  36.063  1.00  0.00     0.012 A 
ATOM     62  C   UNL A   1      40.909  32.156  36.847  1.00  0.00     0.148 A 
ATOM     63  C   UNL A   1      43.540  32.948  37.129  1.00  0.00     0.002 A 
ATOM     64  C   UNL A   1      41.286  33.011  37.903  1.00  0.00     0.091 A 
ATOM     65  F   UNL A   1      39.620  31.846  36.826  1.00  0.00    -0.205 F 
ATOM     66  C   UNL A   1      42.609  33.401  38.053  1.00  0.00     0.022 A 
BRANCH  64  67
ATOM     67  S   UNL A   1      40.111  33.650  39.138  1.00  0.00     0.127 S 
ATOM     68  O   UNL A   1      39.179  34.417  38.309  1.00  0.00    -0.237 OA
ATOM     69  O   UNL A   1      39.551  32.423  39.702  1.00  0.00    -0.237 OA
ATOM     70  O   UNL A   1      40.884  34.456  40.075  1.00  0.00    -0.744 OA
ENDBRANCH  64  67
ENDBRANCH  46  60
BRANCH  47  71
ATOM     71  C   UNL A   1      43.851  25.217  28.406  1.00  0.00     0.023 A 
ATOM     72  C   UNL A   1      42.918  24.327  29.018  1.00  0.00     0.012 A 
ATOM     73  C   UNL A   1      44.585  24.733  27.306  1.00  0.00     0.148 A 
ATOM     74  C   UNL A   1      42.570  23.107  28.434  1.00  0.00     0.002 A 
ATOM     75  C   UNL A   1      44.274  23.472  26.765  1.00  0.00     0.091 A 
ATOM     76  F   UNL A   1      45.524  25.516  26.759  1.00  0.00    -0.205 F 
ATOM     77  C   UNL A   1      43.221  22.698  27.282  1.00  0.00     0.022 A 
BRANCH  75  78
ATOM     78  S   UNL A   1      45.149  22.813  25.330  1.00  0.00     0.127 S 
ATOM     79  O   UNL A   1      44.929  23.862  24.339  1.00  0.00    -0.237 OA
ATOM     80  O   UNL A   1      46.532  22.713  25.799  1.00  0.00    -0.237 OA
ATOM     81  O   UNL A   1      44.513  21.530  25.073  1.00  0.00    -0.744 OA
ENDBRANCH  75  78
ENDBRANCH  47  71
BRANCH  59  82
ATOM     82  C   UNL A   1      38.738  30.174  30.220  1.00  0.00     0.023 A 
ATOM     83  C   UNL A   1      37.835  29.232  30.743  1.00  0.00     0.012 A 
ATOM     84  C   UNL A   1      38.239  31.487  30.005  1.00  0.00     0.148 A 
ATOM     85  C   UNL A   1      36.494  29.550  30.973  1.00  0.00     0.002 A 
ATOM     86  C   UNL A   1      36.948  31.836  30.392  1.00  0.00     0.091 A 
ATOM     87  F   UNL A   1      39.024  32.422  29.445  1.00  0.00    -0.205 F 
ATOM     88  C   UNL A   1      36.055  30.860  30.829  1.00  0.00     0.022 A 
BRANCH  86  89
ATOM     89  S   UNL A   1      36.496  33.570  30.568  1.00  0.00     0.127 S 
ATOM     90  O   UNL A   1      35.295  33.494  31.393  1.00  0.00    -0.237 OA
ATOM     91  O   UNL A   1      37.665  34.139  31.243  1.00  0.00    -0.237 OA
ATOM     92  O   UNL A   1      36.317  34.036  29.198  1.00  0.00    -0.744 OA
ENDBRANCH  86  89
ENDBRANCH  59  82
ENDBRANCH  33  34
ENDBRANCH  26  28
ENDBRANCH  25  26
ENDBRANCH  24  25
ENDBRANCH  23  24
ENDBRANCH  22  23
ENDBRANCH   1  22
TORSDOF 21
ENDMDL
MODEL 2
REMARK VINA RESULT:      -9.6      9.119     12.213
REMARK SMILES Cc1cccc(-n2nc(Br)c(C(=O)OCCOCCOCCOC(=O)c3ccc(-c4c5nc(c(-c6cccc(S(=O)(=O)[O-])c6F)c6ccc([nH]6)c(-c6cccc(S(=O)(=O)[O-])c6F)c6nc(c(-c7cccc(S(=O)(=O)[O-])c7F)c7ccc4[nH]7)C=C6)C=C5)cc3)n2)c1
REMARK SMILES IDX 19 1 18 2 17 3 16 4 15 5 14 6 12 7 13 8 11 9 7 10 8 11 89 12
REMARK SMILES IDX 9 13 10 14 6 15 1 16 2 17 3 18 90 19 4 20 5 21 20 22 21 23
REMARK SMILES IDX 22 24 23 25 24 26 25 27 26 28 27 29 88 30 28 31 87 32 29 33
REMARK SMILES IDX 30 34 31 35 81 36 32 37 86 38 80 39 82 40 33 41 85 42 79 43
REMARK SMILES IDX 78 44 34 46 66 47 46 48 65 49 47 50 50 51 64 52 83 53 48 54
REMARK SMILES IDX 49 55 63 57 84 58 51 59 35 60 36 61 44 62 37 63 39 64 45 65
REMARK SMILES IDX 38 66 40 67 41 68 42 69 43 70 67 71 68 72 76 73 69 74 71 75
REMARK SMILES IDX 77 76 70 77 72 78 73 79 74 80 75 81 52 82 53 83 61 84 54 85
REMARK SMILES IDX 56 86 62 87 55 88 57 89 58 90 59 91 60 92
REMARK H PARENT 82 45 50 56
REMARK Flexibility Score: inf
ROOT
ATOM      1  C   UNL A   1      41.884  18.822  26.419  1.00  0.00     0.188 C 
ENDROOT
BRANCH   1   2
ATOM      2  C   UNL A   1      40.822  19.697  25.781  1.00  0.00     0.188 C 
BRANCH   2   3
ATOM      3  O   UNL A   1      40.933  21.056  26.216  1.00  0.00    -0.376 OA
BRANCH   3   4
ATOM      4  C   UNL A   1      39.738  21.837  26.246  1.00  0.00     0.202 C 
BRANCH   4   5
ATOM      5  C   UNL A   1      38.410  21.183  25.655  1.00  0.00     0.261 C 
BRANCH   5   6
ATOM      6  O   UNL A   1      37.199  22.028  25.495  1.00  0.00    -0.458 OA
BRANCH   6   7
ATOM      7  C   UNL A   1      36.480  22.616  24.425  1.00  0.00     0.361 C 
ATOM      8  O   UNL A   1      36.975  22.574  23.301  1.00  0.00    -0.244 OA
BRANCH   7   9
ATOM      9  C   UNL A   1      35.027  23.343  24.713  1.00  0.00     0.205 A 
ATOM     10  N   UNL A   1      33.919  24.999  25.421  1.00  0.00    -0.150 N 
ATOM     11  N   UNL A   1      32.974  24.095  25.460  1.00  0.00    -0.140 NA
ATOM     12  N   UNL A   1      35.176  24.599  25.201  1.00  0.00    -0.140 NA
ATOM     13  C   UNL A   1      33.513  23.188  24.645  1.00  0.00     0.163 A 
ATOM     14  Br  UNL A   1      32.070  22.251  23.807  1.00  0.00    -0.024 Br
BRANCH  10  15
ATOM     15  C   UNL A   1      33.520  26.307  25.229  1.00  0.00     0.086 A 
ATOM     16  C   UNL A   1      31.821  28.970  27.247  1.00  0.00     0.044 C 
ATOM     17  C   UNL A   1      32.465  28.256  26.100  1.00  0.00    -0.049 A 
ATOM     18  C   UNL A   1      32.434  28.753  24.787  1.00  0.00     0.003 A 
ATOM     19  C   UNL A   1      33.018  27.008  26.322  1.00  0.00     0.033 A 
ATOM     20  C   UNL A   1      33.052  28.068  23.728  1.00  0.00     0.003 A 
ATOM     21  C   UNL A   1      33.648  26.844  23.957  1.00  0.00     0.030 A 
ENDBRANCH  10  15
ENDBRANCH   7   9
ENDBRANCH   6   7
ENDBRANCH   5   6
ENDBRANCH   4   5
ENDBRANCH   3   4
ENDBRANCH   2   3
ENDBRANCH   1   2
BRANCH   1  22
ATOM     22  O   UNL A   1      43.174  19.345  26.154  1.00  0.00    -0.376 OA
BRANCH  22  23
ATOM     23  C   UNL A   1      43.870  18.809  25.050  1.00  0.00     0.202 C 
BRANCH  23  24
ATOM     24  C   UNL A   1      45.311  19.316  24.853  1.00  0.00     0.261 C 
BRANCH  24  25
ATOM     25  O   UNL A   1      45.521  20.575  25.530  1.00  0.00    -0.460 OA
BRANCH  25  26
ATOM     26  C   UNL A   1      45.449  21.746  24.789  1.00  0.00     0.338 C 
ATOM     27  O   UNL A   1      46.339  22.146  24.080  1.00  0.00    -0.246 OA
BRANCH  26  28
ATOM     28  C   UNL A   1      44.257  22.561  25.292  1.00  0.00     0.060 A 
ATOM     29  C   UNL A   1      43.770  23.703  24.632  1.00  0.00     0.016 A 
ATOM     30  C   UNL A   1      44.129  22.574  26.640  1.00  0.00     0.016 A 
ATOM     31  C   UNL A   1      43.419  24.926  25.352  1.00  0.00     0.010 A 
ATOM     32  C   UNL A   1      44.221  23.854  27.189  1.00  0.00     0.010 A 
ATOM     33  C   UNL A   1      43.708  25.094  26.715  1.00  0.00    -0.014 A 
BRANCH  33  34
ATOM     34  C   UNL A   1      43.582  26.518  27.620  1.00  0.00     0.031 A 
ATOM     35  C   UNL A   1      42.327  27.622  27.977  1.00  0.00     0.074 A 
ATOM     36  C   UNL A   1      44.696  26.971  28.203  1.00  0.00     0.049 A 
ATOM     37  N   UNL A   1      42.359  28.938  27.817  1.00  0.00    -0.248 NA
ATOM     38  C   UNL A   1      40.916  27.337  28.381  1.00  0.00     0.031 C 
ATOM     39  C   UNL A   1      44.757  27.856  29.352  1.00  0.00     0.029 A 
ATOM     40  N   UNL A   1      45.998  26.604  27.966  1.00  0.00    -0.354 N 
ATOM     41  C   UNL A   1      41.043  29.372  28.136  1.00  0.00     0.074 A 
ATOM     42  C   UNL A   1      40.237  28.282  27.747  1.00  0.00     0.031 C 
ATOM     43  C   UNL A   1      46.043  28.078  29.652  1.00  0.00     0.029 A 
ATOM     44  C   UNL A   1      46.844  27.522  28.580  1.00  0.00     0.049 A 
ATOM     45  H   UNL A   1      46.287  25.818  27.448  1.00  0.00     0.167 HD
ATOM     46  C   UNL A   1      40.715  30.201  29.191  1.00  0.00     0.034 A 
ATOM     47  C   UNL A   1      47.732  28.198  27.797  1.00  0.00     0.034 A 
ATOM     48  C   UNL A   1      41.950  30.799  29.672  1.00  0.00     0.049 A 
ATOM     49  C   UNL A   1      47.343  29.663  27.670  1.00  0.00     0.074 A 
ATOM     50  C   UNL A   1      42.759  30.593  30.772  1.00  0.00     0.029 A 
ATOM     51  N   UNL A   1      42.702  31.507  28.756  1.00  0.00    -0.354 N 
ATOM     52  N   UNL A   1      46.360  30.214  28.341  1.00  0.00    -0.248 NA
ATOM     53  C   UNL A   1      48.014  30.644  26.822  1.00  0.00     0.031 C 
ATOM     54  C   UNL A   1      44.071  31.044  30.419  1.00  0.00     0.029 A 
ATOM     55  C   UNL A   1      44.032  31.572  29.138  1.00  0.00     0.049 A 
ATOM     56  H   UNL A   1      42.339  31.914  27.937  1.00  0.00     0.167 HD
ATOM     57  C   UNL A   1      46.122  31.481  27.894  1.00  0.00     0.074 A 
ATOM     58  C   UNL A   1      47.262  31.743  27.030  1.00  0.00     0.031 C 
ATOM     59  C   UNL A   1      44.976  32.173  28.192  1.00  0.00     0.034 A 
BRANCH  46  60
ATOM     60  C   UNL A   1      39.348  30.254  30.006  1.00  0.00     0.023 A 
ATOM     61  C   UNL A   1      39.047  29.110  30.782  1.00  0.00     0.012 A 
ATOM     62  C   UNL A   1      38.321  31.261  30.070  1.00  0.00     0.148 A 
ATOM     63  C   UNL A   1      37.846  28.954  31.512  1.00  0.00     0.002 A 
ATOM     64  C   UNL A   1      37.129  31.116  30.809  1.00  0.00     0.091 A 
ATOM     65  F   UNL A   1      38.426  32.411  29.418  1.00  0.00    -0.205 F 
ATOM     66  C   UNL A   1      36.884  29.953  31.525  1.00  0.00     0.022 A 
BRANCH  64  67
ATOM     67  S   UNL A   1      35.835  32.395  30.878  1.00  0.00     0.127 S 
ATOM     68  O   UNL A   1      35.438  32.510  29.474  1.00  0.00    -0.237 OA
ATOM     69  O   UNL A   1      34.830  31.778  31.743  1.00  0.00    -0.237 OA
ATOM     70  O   UNL A   1      36.459  33.593  31.426  1.00  0.00    -0.744 OA
ENDBRANCH  64  67
ENDBRANCH  46  60
BRANCH  47  71
ATOM     71  C   UNL A   1      48.400  27.233  26.847  1.00  0.00     0.023 A 
ATOM     72  C   UNL A   1      47.749  27.139  25.580  1.00  0.00     0.012 A 
ATOM     73  C   UNL A   1      49.752  26.843  26.914  1.00  0.00     0.148 A 
ATOM     74  C   UNL A   1      48.458  26.888  24.403  1.00  0.00     0.002 A 
ATOM     75  C   UNL A   1      50.442  26.526  25.728  1.00  0.00     0.091 A 
ATOM     76  F   UNL A   1      50.369  26.846  28.102  1.00  0.00    -0.205 F 
ATOM     77  C   UNL A   1      49.815  26.622  24.474  1.00  0.00     0.022 A 
BRANCH  75  78
ATOM     78  S   UNL A   1      52.185  26.059  25.742  1.00  0.00     0.127 S 
ATOM     79  O   UNL A   1      52.478  25.962  24.315  1.00  0.00    -0.237 OA
ATOM     80  O   UNL A   1      52.830  27.192  26.409  1.00  0.00    -0.237 OA
ATOM     81  O   UNL A   1      52.225  24.819  26.502  1.00  0.00    -0.744 OA
ENDBRANCH  75  78
ENDBRANCH  47  71
BRANCH  59  82
ATOM     82  C   UNL A   1      44.551  33.460  27.501  1.00  0.00     0.023 A 
ATOM     83  C   UNL A   1      43.995  33.465  26.211  1.00  0.00     0.012 A 
ATOM     84  C   UNL A   1      44.486  34.678  28.231  1.00  0.00     0.148 A 
ATOM     85  C   UNL A   1      43.466  34.628  25.644  1.00  0.00     0.002 A 
ATOM     86  C   UNL A   1      43.812  35.783  27.722  1.00  0.00     0.091 A 
ATOM     87  F   UNL A   1      45.058  34.767  29.443  1.00  0.00    -0.205 F 
ATOM     88  C   UNL A   1      43.344  35.781  26.409  1.00  0.00     0.022 A 
BRANCH  86  89
ATOM     89  S   UNL A   1      43.319  37.124  28.818  1.00  0.00     0.127 S 
ATOM     90  O   UNL A   1      43.089  36.425  30.078  1.00  0.00    -0.237 OA
ATOM     91  O   UNL A   1      44.496  37.994  28.809  1.00  0.00    -0.237 OA
ATOM     92  O   UNL A   1      42.148  37.705  28.172  1.00  0.00    -0.744 OA
ENDBRANCH  86  89
ENDBRANCH  59  82
ENDBRANCH  33  34
ENDBRANCH  26  28
ENDBRANCH  25  26
ENDBRANCH  24  25
ENDBRANCH  23  24
ENDBRANCH  22  23
ENDBRANCH   1  22
TORSDOF 21
ENDMDL
MODEL 3
REMARK VINA RESULT:      -9.5      8.733     12.026
REMARK SMILES Cc1cccc(-n2nc(Br)c(C(=O)OCCOCCOCCOC(=O)c3ccc(-c4c5nc(c(-c6cccc(S(=O)(=O)[O-])c6F)c6ccc([nH]6)c(-c6cccc(S(=O)(=O)[O-])c6F)c6nc(c(-c7cccc(S(=O)(=O)[O-])c7F)c7ccc4[nH]7)C=C6)C=C5)cc3)n2)c1
REMARK SMILES IDX 19 1 18 2 17 3 16 4 15 5 14 6 12 7 13 8 11 9 7 10 8 11 89 12
REMARK SMILES IDX 9 13 10 14 6 15 1 16 2 17 3 18 90 19 4 20 5 21 20 22 21 23
REMARK SMILES IDX 22 24 23 25 24 26 25 27 26 28 27 29 88 30 28 31 87 32 29 33
REMARK SMILES IDX 30 34 31 35 81 36 32 37 86 38 80 39 82 40 33 41 85 42 79 43
REMARK SMILES IDX 78 44 34 46 66 47 46 48 65 49 47 50 50 51 64 52 83 53 48 54
REMARK SMILES IDX 49 55 63 57 84 58 51 59 35 60 36 61 44 62 37 63 39 64 45 65
REMARK SMILES IDX 38 66 40 67 41 68 42 69 43 70 67 71 68 72 76 73 69 74 71 75
REMARK SMILES IDX 77 76 70 77 72 78 73 79 74 80 75 81 52 82 53 83 61 84 54 85
REMARK SMILES IDX 56 86 62 87 55 88 57 89 58 90 59 91 60 92
REMARK H PARENT 82 45 50 56
REMARK Flexibility Score: inf
ROOT
ATOM      1  C   UNL A   1      41.881  19.248  26.517  1.00  0.00     0.188 C 
ENDROOT
BRANCH   1   2
ATOM      2  C   UNL A   1      40.911  20.282  25.979  1.00  0.00     0.188 C 
BRANCH   2   3
ATOM      3  O   UNL A   1      40.745  21.370  26.894  1.00  0.00    -0.376 OA
BRANCH   3   4
ATOM      4  C   UNL A   1      39.637  22.245  26.681  1.00  0.00     0.202 C 
BRANCH   4   5
ATOM      5  C   UNL A   1      38.535  21.803  25.617  1.00  0.00     0.261 C 
BRANCH   5   6
ATOM      6  O   UNL A   1      37.376  22.697  25.364  1.00  0.00    -0.458 OA
BRANCH   6   7
ATOM      7  C   UNL A   1      36.484  22.957  24.295  1.00  0.00     0.361 C 
ATOM      8  O   UNL A   1      36.899  22.820  23.147  1.00  0.00    -0.244 OA
BRANCH   7   9
ATOM      9  C   UNL A   1      34.939  23.441  24.614  1.00  0.00     0.205 A 
ATOM     10  N   UNL A   1      33.599  24.828  25.482  1.00  0.00    -0.150 N 
ATOM     11  N   UNL A   1      32.786  23.809  25.368  1.00  0.00    -0.140 NA
ATOM     12  N   UNL A   1      34.904  24.630  25.263  1.00  0.00    -0.140 NA
ATOM     13  C   UNL A   1      33.462  23.096  24.467  1.00  0.00     0.163 A 
ATOM     14  Br  UNL A   1      32.180  22.095  23.459  1.00  0.00    -0.024 Br
BRANCH  10  15
ATOM     15  C   UNL A   1      33.030  26.085  25.441  1.00  0.00     0.086 A 
ATOM     16  C   UNL A   1      33.488  29.350  27.226  1.00  0.00     0.044 C 
ATOM     17  C   UNL A   1      32.942  28.302  26.307  1.00  0.00    -0.049 A 
ATOM     18  C   UNL A   1      31.727  28.457  25.620  1.00  0.00     0.003 A 
ATOM     19  C   UNL A   1      33.602  27.091  26.216  1.00  0.00     0.033 A 
ATOM     20  C   UNL A   1      31.238  27.462  24.758  1.00  0.00     0.003 A 
ATOM     21  C   UNL A   1      31.923  26.270  24.628  1.00  0.00     0.030 A 
ENDBRANCH  10  15
ENDBRANCH   7   9
ENDBRANCH   6   7
ENDBRANCH   5   6
ENDBRANCH   4   5
ENDBRANCH   3   4
ENDBRANCH   2   3
ENDBRANCH   1   2
BRANCH   1  22
ATOM     22  O   UNL A   1      43.215  19.703  26.365  1.00  0.00    -0.376 OA
BRANCH  22  23
ATOM     23  C   UNL A   1      43.763  19.666  25.066  1.00  0.00     0.202 C 
BRANCH  23  24
ATOM     24  C   UNL A   1      45.042  20.497  24.851  1.00  0.00     0.261 C 
BRANCH  24  25
ATOM     25  O   UNL A   1      44.928  21.801  25.461  1.00  0.00    -0.460 OA
BRANCH  25  26
ATOM     26  C   UNL A   1      44.665  22.893  24.646  1.00  0.00     0.338 C 
ATOM     27  O   UNL A   1      45.414  23.282  23.785  1.00  0.00    -0.246 OA
BRANCH  26  28
ATOM     28  C   UNL A   1      43.496  23.674  25.250  1.00  0.00     0.060 A 
ATOM     29  C   UNL A   1      43.120  24.958  24.815  1.00  0.00     0.016 A 
ATOM     30  C   UNL A   1      43.289  23.425  26.564  1.00  0.00     0.016 A 
ATOM     31  C   UNL A   1      42.801  26.033  25.754  1.00  0.00     0.010 A 
ATOM     32  C   UNL A   1      43.426  24.558  27.367  1.00  0.00     0.010 A 
ATOM     33  C   UNL A   1      43.018  25.901  27.135  1.00  0.00    -0.014 A 
BRANCH  33  34
ATOM     34  C   UNL A   1      42.926  27.120  28.305  1.00  0.00     0.031 A 
ATOM     35  C   UNL A   1      41.766  28.298  28.741  1.00  0.00     0.074 A 
ATOM     36  C   UNL A   1      43.987  27.283  29.100  1.00  0.00     0.049 A 
ATOM     37  N   UNL A   1      41.972  29.601  28.875  1.00  0.00    -0.248 NA
ATOM     38  C   UNL A   1      40.289  28.143  28.903  1.00  0.00     0.031 C 
ATOM     39  C   UNL A   1      43.980  27.904  30.413  1.00  0.00     0.029 A 
ATOM     40  N   UNL A   1      45.259  26.789  28.947  1.00  0.00    -0.354 N 
ATOM     41  C   UNL A   1      40.683  30.146  29.121  1.00  0.00     0.074 A 
ATOM     42  C   UNL A   1      39.823  29.282  28.413  1.00  0.00     0.031 C 
ATOM     43  C   UNL A   1      45.225  27.876  30.904  1.00  0.00     0.029 A 
ATOM     44  C   UNL A   1      46.106  27.437  29.840  1.00  0.00     0.049 A 
ATOM     45  H   UNL A   1      45.529  26.089  28.308  1.00  0.00     0.167 HD
ATOM     46  C   UNL A   1      40.302  30.787  30.284  1.00  0.00     0.034 A 
ATOM     47  C   UNL A   1      47.171  28.121  29.334  1.00  0.00     0.034 A 
ATOM     48  C   UNL A   1      41.513  31.094  31.027  1.00  0.00     0.049 A 
ATOM     49  C   UNL A   1      46.975  29.622  29.482  1.00  0.00     0.074 A 
ATOM     50  C   UNL A   1      42.123  30.559  32.145  1.00  0.00     0.029 A 
ATOM     51  N   UNL A   1      42.467  31.856  30.383  1.00  0.00    -0.354 N 
ATOM     52  N   UNL A   1      45.974  30.162  30.135  1.00  0.00    -0.248 NA
ATOM     53  C   UNL A   1      47.870  30.646  28.953  1.00  0.00     0.031 C 
ATOM     54  C   UNL A   1      43.516  30.880  32.056  1.00  0.00     0.029 A 
ATOM     55  C   UNL A   1      43.725  31.652  30.924  1.00  0.00     0.049 A 
ATOM     56  H   UNL A   1      42.277  32.466  29.634  1.00  0.00     0.167 HD
ATOM     57  C   UNL A   1      45.950  31.514  29.948  1.00  0.00     0.074 A 
ATOM     58  C   UNL A   1      47.227  31.777  29.304  1.00  0.00     0.031 C 
ATOM     59  C   UNL A   1      44.860  32.289  30.251  1.00  0.00     0.034 A 
BRANCH  46  60
ATOM     60  C   UNL A   1      38.845  30.871  30.924  1.00  0.00     0.023 A 
ATOM     61  C   UNL A   1      38.552  29.912  31.922  1.00  0.00     0.012 A 
ATOM     62  C   UNL A   1      37.733  31.739  30.637  1.00  0.00     0.148 A 
ATOM     63  C   UNL A   1      37.289  29.794  32.547  1.00  0.00     0.002 A 
ATOM     64  C   UNL A   1      36.477  31.635  31.268  1.00  0.00     0.091 A 
ATOM     65  F   UNL A   1      37.816  32.710  29.737  1.00  0.00    -0.205 F 
ATOM     66  C   UNL A   1      36.249  30.651  32.220  1.00  0.00     0.022 A 
BRANCH  64  67
ATOM     67  S   UNL A   1      35.077  32.737  30.894  1.00  0.00     0.127 S 
ATOM     68  O   UNL A   1      34.636  32.245  29.588  1.00  0.00    -0.237 OA
ATOM     69  O   UNL A   1      34.152  32.452  31.992  1.00  0.00    -0.237 OA
ATOM     70  O   UNL A   1      35.605  34.095  30.878  1.00  0.00    -0.744 OA
ENDBRANCH  64  67
ENDBRANCH  46  60
BRANCH  47  71
ATOM     71  C   UNL A   1      47.855  27.279  28.284  1.00  0.00     0.023 A 
ATOM     72  C   UNL A   1      48.077  25.929  28.692  1.00  0.00     0.012 A 
ATOM     73  C   UNL A   1      47.838  27.545  26.902  1.00  0.00     0.148 A 
ATOM     74  C   UNL A   1      48.057  24.870  27.782  1.00  0.00     0.002 A 
ATOM     75  C   UNL A   1      47.886  26.475  25.988  1.00  0.00     0.091 A 
ATOM     76  F   UNL A   1      47.710  28.812  26.487  1.00  0.00    -0.205 F 
ATOM     77  C   UNL A   1      47.920  25.142  26.431  1.00  0.00     0.022 A 
BRANCH  75  78
ATOM     78  S   UNL A   1      47.825  26.747  24.205  1.00  0.00     0.127 S 
ATOM     79  O   UNL A   1      48.982  27.612  23.996  1.00  0.00    -0.237 OA
ATOM     80  O   UNL A   1      47.979  25.399  23.655  1.00  0.00    -0.237 OA
ATOM     81  O   UNL A   1      46.517  27.340  23.971  1.00  0.00    -0.744 OA
ENDBRANCH  75  78
ENDBRANCH  47  71
BRANCH  59  82
ATOM     82  C   UNL A   1      44.691  33.735  29.810  1.00  0.00     0.023 A 
ATOM     83  C   UNL A   1      44.105  34.076  28.579  1.00  0.00     0.012 A 
ATOM     84  C   UNL A   1      44.907  34.796  30.731  1.00  0.00     0.148 A 
ATOM     85  C   UNL A   1      43.813  35.401  28.247  1.00  0.00     0.002 A 
ATOM     86  C   UNL A   1      44.463  36.085  30.457  1.00  0.00     0.091 A 
ATOM     87  F   UNL A   1      45.526  34.557  31.899  1.00  0.00    -0.205 F 
ATOM     88  C   UNL A   1      43.961  36.404  29.196  1.00  0.00     0.022 A 
BRANCH  86  89
ATOM     89  S   UNL A   1      44.299  37.286  31.787  1.00  0.00     0.127 S 
ATOM     90  O   UNL A   1      43.740  38.443  31.094  1.00  0.00    -0.237 OA
ATOM     91  O   UNL A   1      43.374  36.621  32.707  1.00  0.00    -0.237 OA
ATOM     92  O   UNL A   1      45.652  37.432  32.310  1.00  0.00    -0.744 OA
ENDBRANCH  86  89
ENDBRANCH  59  82
ENDBRANCH  33  34
ENDBRANCH  26  28
ENDBRANCH  25  26
ENDBRANCH  24  25
ENDBRANCH  23  24
ENDBRANCH  22  23
ENDBRANCH   1  22
TORSDOF 21
ENDMDL
