MODEL 1
REMARK VINA RESULT:      -8.8      0.000      0.000
REMARK SMILES CCCC[C@H](C(=O)OCCOCCOCCOC(=O)c1ccc(-c2c3nc(c(-c4cccc(S(=O)(=O)[O-])c4F)c4ccc([nH]4)c(-c4cccc(S(=O)(=O)[O-])c4F)c4nc(c(-c5cccc(S(=O)(=O)[O-])c5F)c5ccc2[nH]5)C=C4)C=C3)cc1)[C@]1(O)CCc2ccc(OC)cc21
REMARK SMILES IDX 12 1 11 2 10 3 9 4 8 5 6 6 7 7 5 8 4 9 3 10 2 11 1 12 83 13
REMARK SMILES IDX 85 14 94 15 86 16 87 17 93 18 88 19 90 20 89 21 84 22 91 24
REMARK SMILES IDX 92 25 13 26 14 27 15 28 16 29 17 30 18 31 19 32 20 33 21 34
REMARK SMILES IDX 82 35 22 36 81 37 23 38 24 39 25 40 75 41 26 42 80 43 74 44
REMARK SMILES IDX 76 45 27 46 79 47 73 48 72 49 28 51 60 52 40 53 59 54 41 55
REMARK SMILES IDX 44 56 58 57 77 58 42 59 43 60 57 62 78 63 45 64 29 65 30 66
REMARK SMILES IDX 38 67 31 68 33 69 39 70 32 71 34 72 35 73 36 74 37 75 61 76
REMARK SMILES IDX 62 77 70 78 63 79 65 80 71 81 64 82 66 83 67 84 68 85 69 86
REMARK SMILES IDX 46 87 47 88 55 89 48 90 50 91 56 92 49 93 51 94 52 95 53 96
REMARK SMILES IDX 54 97
REMARK H PARENT 84 23 76 50 44 61
REMARK Flexibility Score: inf
ROOT
ATOM      1  C   UNL A   1      34.829  29.664  27.198  1.00  0.00     0.188 C 
ENDROOT
BRANCH   1   2
ATOM      2  O   UNL A   1      33.646  30.334  27.557  1.00  0.00    -0.376 OA
BRANCH   2   3
ATOM      3  C   UNL A   1      32.494  29.886  26.883  1.00  0.00     0.202 C 
BRANCH   3   4
ATOM      4  C   UNL A   1      32.726  29.049  25.620  1.00  0.00     0.261 C 
BRANCH   4   5
ATOM      5  O   UNL A   1      32.724  27.479  25.701  1.00  0.00    -0.463 OA
BRANCH   5   6
ATOM      6  C   UNL A   1      32.017  26.291  25.887  1.00  0.00     0.312 C 
ATOM      7  O   UNL A   1      31.076  26.353  26.697  1.00  0.00    -0.252 OA
BRANCH   6   8
ATOM      8  C   UNL A   1      32.396  24.727  25.409  1.00  0.00     0.135 C 
BRANCH   8   9
ATOM      9  C   UNL A   1      33.451  23.721  26.187  1.00  0.00     0.019 C 
BRANCH   9  10
ATOM     10  C   UNL A   1      35.597  23.506  25.760  1.00  0.00     0.001 C 
BRANCH  10  11
ATOM     11  C   UNL A   1      36.440  22.384  24.625  1.00  0.00    -0.003 C 
ATOM     12  C   UNL A   1      36.597  22.939  23.214  1.00  0.00     0.004 C 
ENDBRANCH  10  11
ENDBRANCH   9  10
ENDBRANCH   8   9
BRANCH   8  13
ATOM     13  C   UNL A   1      31.235  23.690  25.310  1.00  0.00     0.104 C 
ATOM     14  C   UNL A   1      31.832  22.291  25.235  1.00  0.00     0.046 C 
ATOM     15  C   UNL A   1      30.748  23.951  23.752  1.00  0.00    -0.009 A 
ATOM     16  C   UNL A   1      32.737  22.331  23.975  1.00  0.00     0.039 C 
ATOM     17  C   UNL A   1      32.492  23.737  23.405  1.00  0.00    -0.042 A 
ATOM     18  C   UNL A   1      29.934  25.497  23.288  1.00  0.00     0.053 A 
ATOM     19  C   UNL A   1      33.458  25.241  22.944  1.00  0.00     0.008 A 
ATOM     20  C   UNL A   1      30.882  26.886  22.677  1.00  0.00     0.119 A 
ATOM     21  C   UNL A   1      32.648  26.788  22.507  1.00  0.00     0.047 A 
BRANCH  13  22
ATOM     22  O   UNL A   1      30.196  23.865  26.236  1.00  0.00    -0.384 OA
ATOM     23  H   UNL A   1      30.567  23.930  27.130  1.00  0.00     0.211 HD
ENDBRANCH  13  22
BRANCH  20  24
ATOM     24  O   UNL A   1      30.228  27.933  22.074  1.00  0.00    -0.497 OA
ATOM     25  C   UNL A   1      29.442  28.671  23.024  1.00  0.00     0.278 C 
ENDBRANCH  20  24
ENDBRANCH   8  13
ENDBRANCH   6   8
ENDBRANCH   5   6
ENDBRANCH   4   5
ENDBRANCH   3   4
ENDBRANCH   2   3
ENDBRANCH   1   2
BRANCH   1  26
ATOM     26  C   UNL A   1      36.086  30.371  27.767  1.00  0.00     0.188 C 
BRANCH  26  27
ATOM     27  O   UNL A   1      37.363  29.903  27.365  1.00  0.00    -0.376 OA
BRANCH  27  28
ATOM     28  C   UNL A   1      38.348  29.773  28.380  1.00  0.00     0.202 C 
BRANCH  28  29
ATOM     29  C   UNL A   1      38.446  28.495  29.261  1.00  0.00     0.261 C 
BRANCH  29  30
ATOM     30  O   UNL A   1      38.183  28.591  30.683  1.00  0.00    -0.460 OA
BRANCH  30  31
ATOM     31  C   UNL A   1      37.378  29.595  31.139  1.00  0.00     0.338 C 
ATOM     32  O   UNL A   1      36.171  29.519  31.299  1.00  0.00    -0.246 OA
BRANCH  31  33
ATOM     33  C   UNL A   1      38.198  30.742  31.659  1.00  0.00     0.060 A 
ATOM     34  C   UNL A   1      39.447  30.492  32.265  1.00  0.00     0.016 A 
ATOM     35  C   UNL A   1      37.776  32.062  31.515  1.00  0.00     0.016 A 
ATOM     36  C   UNL A   1      40.260  31.541  32.721  1.00  0.00     0.010 A 
ATOM     37  C   UNL A   1      38.570  33.110  32.016  1.00  0.00     0.010 A 
ATOM     38  C   UNL A   1      39.809  32.861  32.641  1.00  0.00    -0.014 A 
BRANCH  38  39
ATOM     39  C   UNL A   1      40.526  33.969  33.339  1.00  0.00     0.031 A 
ATOM     40  C   UNL A   1      41.643  34.674  32.609  1.00  0.00     0.074 A 
ATOM     41  C   UNL A   1      40.246  34.323  34.609  1.00  0.00     0.049 A 
ATOM     42  N   UNL A   1      42.508  35.549  33.052  1.00  0.00    -0.248 NA
ATOM     43  C   UNL A   1      41.806  34.334  31.187  1.00  0.00     0.031 C 
ATOM     44  C   UNL A   1      39.174  33.764  35.426  1.00  0.00     0.029 A 
ATOM     45  N   UNL A   1      40.879  35.213  35.449  1.00  0.00    -0.354 N 
ATOM     46  C   UNL A   1      43.350  35.826  31.980  1.00  0.00     0.074 A 
ATOM     47  C   UNL A   1      42.887  35.028  30.865  1.00  0.00     0.031 C 
ATOM     48  C   UNL A   1      39.255  34.282  36.666  1.00  0.00     0.029 A 
ATOM     49  C   UNL A   1      40.407  35.179  36.743  1.00  0.00     0.049 A 
ATOM     50  H   UNL A   1      41.600  35.815  35.154  1.00  0.00     0.167 HD
ATOM     51  C   UNL A   1      44.414  36.663  31.927  1.00  0.00     0.034 A 
ATOM     52  C   UNL A   1      40.876  35.763  37.867  1.00  0.00     0.034 A 
ATOM     53  C   UNL A   1      44.873  37.460  33.033  1.00  0.00     0.049 A 
ATOM     54  C   UNL A   1      42.100  36.645  37.799  1.00  0.00     0.074 A 
ATOM     55  C   UNL A   1      45.911  38.376  33.055  1.00  0.00     0.029 A 
ATOM     56  N   UNL A   1      44.352  37.416  34.314  1.00  0.00    -0.354 N 
ATOM     57  N   UNL A   1      42.823  36.976  36.758  1.00  0.00    -0.248 NA
ATOM     58  C   UNL A   1      42.560  37.254  39.059  1.00  0.00     0.031 C 
ATOM     59  C   UNL A   1      46.057  38.836  34.367  1.00  0.00     0.029 A 
ATOM     60  C   UNL A   1      45.067  38.261  35.146  1.00  0.00     0.049 A 
ATOM     61  H   UNL A   1      43.584  36.865  34.594  1.00  0.00     0.167 HD
ATOM     62  C   UNL A   1      43.798  37.853  37.228  1.00  0.00     0.074 A 
ATOM     63  C   UNL A   1      43.560  38.020  38.645  1.00  0.00     0.031 C 
ATOM     64  C   UNL A   1      44.803  38.457  36.547  1.00  0.00     0.034 A 
BRANCH  51  65
ATOM     65  C   UNL A   1      45.176  36.753  30.630  1.00  0.00     0.023 A 
ATOM     66  C   UNL A   1      46.230  35.856  30.361  1.00  0.00     0.012 A 
ATOM     67  C   UNL A   1      44.800  37.691  29.647  1.00  0.00     0.148 A 
ATOM     68  C   UNL A   1      46.922  35.917  29.151  1.00  0.00     0.002 A 
ATOM     69  C   UNL A   1      45.460  37.712  28.424  1.00  0.00     0.091 A 
ATOM     70  F   UNL A   1      43.805  38.545  29.926  1.00  0.00    -0.205 F 
ATOM     71  C   UNL A   1      46.530  36.835  28.181  1.00  0.00     0.022 A 
BRANCH  69  72
ATOM     72  S   UNL A   1      44.979  38.800  27.080  1.00  0.00     0.127 S 
ATOM     73  O   UNL A   1      45.147  40.117  27.694  1.00  0.00    -0.237 OA
ATOM     74  O   UNL A   1      45.972  38.474  26.056  1.00  0.00    -0.237 OA
ATOM     75  O   UNL A   1      43.609  38.445  26.739  1.00  0.00    -0.744 OA
ENDBRANCH  69  72
ENDBRANCH  51  65
BRANCH  52  76
ATOM     76  C   UNL A   1      40.199  35.524  39.178  1.00  0.00     0.023 A 
ATOM     77  C   UNL A   1      39.204  36.415  39.628  1.00  0.00     0.012 A 
ATOM     78  C   UNL A   1      40.551  34.426  39.989  1.00  0.00     0.148 A 
ATOM     79  C   UNL A   1      38.600  36.238  40.873  1.00  0.00     0.002 A 
ATOM     80  C   UNL A   1      39.902  34.221  41.200  1.00  0.00     0.091 A 
ATOM     81  F   UNL A   1      41.512  33.599  39.554  1.00  0.00    -0.205 F 
ATOM     82  C   UNL A   1      38.941  35.137  41.654  1.00  0.00     0.022 A 
BRANCH  80  83
ATOM     83  S   UNL A   1      40.191  32.771  42.221  1.00  0.00     0.127 S 
ATOM     84  O   UNL A   1      39.863  31.686  41.300  1.00  0.00    -0.237 OA
ATOM     85  O   UNL A   1      41.615  32.906  42.532  1.00  0.00    -0.237 OA
ATOM     86  O   UNL A   1      39.305  32.910  43.368  1.00  0.00    -0.744 OA
ENDBRANCH  80  83
ENDBRANCH  52  76
BRANCH  64  87
ATOM     87  C   UNL A   1      45.710  39.399  37.301  1.00  0.00     0.023 A 
ATOM     88  C   UNL A   1      46.895  38.923  37.894  1.00  0.00     0.012 A 
ATOM     89  C   UNL A   1      45.427  40.781  37.338  1.00  0.00     0.148 A 
ATOM     90  C   UNL A   1      47.769  39.801  38.537  1.00  0.00     0.002 A 
ATOM     91  C   UNL A   1      46.328  41.655  37.933  1.00  0.00     0.091 A 
ATOM     92  F   UNL A   1      44.289  41.214  36.777  1.00  0.00    -0.205 F 
ATOM     93  C   UNL A   1      47.493  41.166  38.545  1.00  0.00     0.022 A 
BRANCH  91  94
ATOM     94  S   UNL A   1      46.107  43.438  37.911  1.00  0.00     0.127 S 
ATOM     95  O   UNL A   1      44.930  43.602  38.765  1.00  0.00    -0.237 OA
ATOM     96  O   UNL A   1      47.359  43.910  38.501  1.00  0.00    -0.237 OA
ATOM     97  O   UNL A   1      45.912  43.807  36.516  1.00  0.00    -0.744 OA
ENDBRANCH  91  94
ENDBRANCH  64  87
ENDBRANCH  38  39
ENDBRANCH  31  33
ENDBRANCH  30  31
ENDBRANCH  29  30
ENDBRANCH  28  29
ENDBRANCH  27  28
ENDBRANCH  26  27
ENDBRANCH   1  26
TORSDOF 26
ENDMDL
MODEL 2
REMARK VINA RESULT:      -8.6      7.051     12.523
REMARK SMILES CCCC[C@H](C(=O)OCCOCCOCCOC(=O)c1ccc(-c2c3nc(c(-c4cccc(S(=O)(=O)[O-])c4F)c4ccc([nH]4)c(-c4cccc(S(=O)(=O)[O-])c4F)c4nc(c(-c5cccc(S(=O)(=O)[O-])c5F)c5ccc2[nH]5)C=C4)C=C3)cc1)[C@]1(O)CCc2ccc(OC)cc21
REMARK SMILES IDX 12 1 11 2 10 3 9 4 8 5 6 6 7 7 5 8 4 9 3 10 2 11 1 12 83 13
REMARK SMILES IDX 85 14 94 15 86 16 87 17 93 18 88 19 90 20 89 21 84 22 91 24
REMARK SMILES IDX 92 25 13 26 14 27 15 28 16 29 17 30 18 31 19 32 20 33 21 34
REMARK SMILES IDX 82 35 22 36 81 37 23 38 24 39 25 40 75 41 26 42 80 43 74 44
REMARK SMILES IDX 76 45 27 46 79 47 73 48 72 49 28 51 60 52 40 53 59 54 41 55
REMARK SMILES IDX 44 56 58 57 77 58 42 59 43 60 57 62 78 63 45 64 29 65 30 66
REMARK SMILES IDX 38 67 31 68 33 69 39 70 32 71 34 72 35 73 36 74 37 75 61 76
REMARK SMILES IDX 62 77 70 78 63 79 65 80 71 81 64 82 66 83 67 84 68 85 69 86
REMARK SMILES IDX 46 87 47 88 55 89 48 90 50 91 56 92 49 93 51 94 52 95 53 96
REMARK SMILES IDX 54 97
REMARK H PARENT 84 23 76 50 44 61
REMARK Flexibility Score: inf
ROOT
ATOM      1  C   UNL A   1      47.165  25.418  25.488  1.00  0.00     0.188 C 
ENDROOT
BRANCH   1   2
ATOM      2  O   UNL A   1      46.574  26.196  24.478  1.00  0.00    -0.376 OA
BRANCH   2   3
ATOM      3  C   UNL A   1      46.056  27.429  24.918  1.00  0.00     0.202 C 
BRANCH   3   4
ATOM      4  C   UNL A   1      46.396  27.835  26.357  1.00  0.00     0.261 C 
BRANCH   4   5
ATOM      5  O   UNL A   1      45.878  29.202  26.935  1.00  0.00    -0.463 OA
BRANCH   5   6
ATOM      6  C   UNL A   1      45.618  30.560  26.748  1.00  0.00     0.312 C 
ATOM      7  O   UNL A   1      45.959  31.019  25.644  1.00  0.00    -0.252 OA
BRANCH   6   8
ATOM      8  C   UNL A   1      45.176  31.735  27.862  1.00  0.00     0.135 C 
BRANCH   8   9
ATOM      9  C   UNL A   1      43.834  32.694  27.755  1.00  0.00     0.019 C 
BRANCH   9  10
ATOM     10  C   UNL A   1      43.713  34.658  26.778  1.00  0.00     0.001 C 
BRANCH  10  11
ATOM     11  C   UNL A   1      44.908  36.010  26.755  1.00  0.00    -0.003 C 
ATOM     12  C   UNL A   1      44.344  37.339  27.244  1.00  0.00     0.004 C 
ENDBRANCH  10  11
ENDBRANCH   9  10
ENDBRANCH   8   9
BRANCH   8  13
ATOM     13  C   UNL A   1      44.936  31.292  29.337  1.00  0.00     0.104 C 
ATOM     14  C   UNL A   1      44.150  32.382  30.055  1.00  0.00     0.046 C 
ATOM     15  C   UNL A   1      46.459  31.493  29.950  1.00  0.00    -0.009 A 
ATOM     16  C   UNL A   1      45.044  33.644  29.923  1.00  0.00     0.039 C 
ATOM     17  C   UNL A   1      46.301  33.118  29.214  1.00  0.00    -0.042 A 
ATOM     18  C   UNL A   1      47.810  30.411  29.429  1.00  0.00     0.053 A 
ATOM     19  C   UNL A   1      47.288  33.462  27.692  1.00  0.00     0.008 A 
ATOM     20  C   UNL A   1      48.865  30.855  28.054  1.00  0.00     0.119 A 
ATOM     21  C   UNL A   1      48.617  32.370  27.160  1.00  0.00     0.047 A 
BRANCH  13  22
ATOM     22  O   UNL A   1      44.458  29.983  29.499  1.00  0.00    -0.384 OA
ATOM     23  H   UNL A   1      45.067  29.361  29.071  1.00  0.00     0.211 HD
ENDBRANCH  13  22
BRANCH  20  24
ATOM     24  O   UNL A   1      50.039  30.169  27.859  1.00  0.00    -0.497 OA
ATOM     25  C   UNL A   1      49.894  29.168  26.839  1.00  0.00     0.278 C 
ENDBRANCH  20  24
ENDBRANCH   8  13
ENDBRANCH   6   8
ENDBRANCH   5   6
ENDBRANCH   4   5
ENDBRANCH   3   4
ENDBRANCH   2   3
ENDBRANCH   1   2
BRANCH   1  26
ATOM     26  C   UNL A   1      46.456  24.049  25.650  1.00  0.00     0.188 C 
BRANCH  26  27
ATOM     27  O   UNL A   1      46.039  23.363  24.480  1.00  0.00    -0.376 OA
BRANCH  27  28
ATOM     28  C   UNL A   1      46.164  21.949  24.487  1.00  0.00     0.202 C 
BRANCH  28  29
ATOM     29  C   UNL A   1      45.120  21.043  25.202  1.00  0.00     0.261 C 
BRANCH  29  30
ATOM     30  O   UNL A   1      43.767  20.978  24.687  1.00  0.00    -0.460 OA
BRANCH  30  31
ATOM     31  C   UNL A   1      42.725  20.993  25.568  1.00  0.00     0.338 C 
ATOM     32  O   UNL A   1      41.984  20.053  25.808  1.00  0.00    -0.246 OA
BRANCH  31  33
ATOM     33  C   UNL A   1      42.749  22.244  26.401  1.00  0.00     0.060 A 
ATOM     34  C   UNL A   1      42.892  23.500  25.775  1.00  0.00     0.016 A 
ATOM     35  C   UNL A   1      42.583  22.200  27.784  1.00  0.00     0.016 A 
ATOM     36  C   UNL A   1      42.874  24.692  26.516  1.00  0.00     0.010 A 
ATOM     37  C   UNL A   1      42.612  23.393  28.530  1.00  0.00     0.010 A 
ATOM     38  C   UNL A   1      42.777  24.647  27.909  1.00  0.00    -0.014 A 
BRANCH  38  39
ATOM     39  C   UNL A   1      43.008  25.866  28.741  1.00  0.00     0.031 A 
ATOM     40  C   UNL A   1      44.352  26.039  29.402  1.00  0.00     0.074 A 
ATOM     41  C   UNL A   1      42.045  26.781  28.962  1.00  0.00     0.049 A 
ATOM     42  N   UNL A   1      44.740  26.919  30.289  1.00  0.00    -0.248 NA
ATOM     43  C   UNL A   1      45.398  25.078  29.012  1.00  0.00     0.031 C 
ATOM     44  C   UNL A   1      40.714  26.771  28.363  1.00  0.00     0.029 A 
ATOM     45  N   UNL A   1      42.030  27.880  29.795  1.00  0.00    -0.354 N 
ATOM     46  C   UNL A   1      46.055  26.589  30.601  1.00  0.00     0.074 A 
ATOM     47  C   UNL A   1      46.398  25.431  29.805  1.00  0.00     0.031 C 
ATOM     48  C   UNL A   1      39.992  27.780  28.886  1.00  0.00     0.029 A 
ATOM     49  C   UNL A   1      40.795  28.484  29.886  1.00  0.00     0.049 A 
ATOM     50  H   UNL A   1      42.824  28.201  30.279  1.00  0.00     0.167 HD
ATOM     51  C   UNL A   1      46.899  27.191  31.474  1.00  0.00     0.034 A 
ATOM     52  C   UNL A   1      40.349  29.457  30.710  1.00  0.00     0.034 A 
ATOM     53  C   UNL A   1      46.561  28.346  32.263  1.00  0.00     0.049 A 
ATOM     54  C   UNL A   1      41.290  30.074  31.718  1.00  0.00     0.074 A 
ATOM     55  C   UNL A   1      47.370  29.054  33.134  1.00  0.00     0.029 A 
ATOM     56  N   UNL A   1      45.312  28.941  32.304  1.00  0.00    -0.354 N 
ATOM     57  N   UNL A   1      42.558  29.819  31.930  1.00  0.00    -0.248 NA
ATOM     58  C   UNL A   1      40.743  31.131  32.587  1.00  0.00     0.031 C 
ATOM     59  C   UNL A   1      46.591  30.037  33.751  1.00  0.00     0.029 A 
ATOM     60  C   UNL A   1      45.316  29.986  33.212  1.00  0.00     0.049 A 
ATOM     61  H   UNL A   1      44.535  28.662  31.767  1.00  0.00     0.167 HD
ATOM     62  C   UNL A   1      42.967  30.701  32.927  1.00  0.00     0.074 A 
ATOM     63  C   UNL A   1      41.817  31.514  33.263  1.00  0.00     0.031 C 
ATOM     64  C   UNL A   1      44.182  30.820  33.516  1.00  0.00     0.034 A 
BRANCH  51  65
ATOM     65  C   UNL A   1      48.277  26.603  31.640  1.00  0.00     0.023 A 
ATOM     66  C   UNL A   1      48.522  25.641  32.641  1.00  0.00     0.012 A 
ATOM     67  C   UNL A   1      49.316  26.961  30.757  1.00  0.00     0.148 A 
ATOM     68  C   UNL A   1      49.789  25.073  32.784  1.00  0.00     0.002 A 
ATOM     69  C   UNL A   1      50.560  26.354  30.872  1.00  0.00     0.091 A 
ATOM     70  F   UNL A   1      49.067  27.888  29.821  1.00  0.00    -0.205 F 
ATOM     71  C   UNL A   1      50.802  25.421  31.894  1.00  0.00     0.022 A 
BRANCH  69  72
ATOM     72  S   UNL A   1      51.905  26.673  29.727  1.00  0.00     0.127 S 
ATOM     73  O   UNL A   1      53.018  25.985  30.382  1.00  0.00    -0.237 OA
ATOM     74  O   UNL A   1      51.423  26.028  28.506  1.00  0.00    -0.237 OA
ATOM     75  O   UNL A   1      52.035  28.120  29.645  1.00  0.00    -0.744 OA
ENDBRANCH  69  72
ENDBRANCH  51  65
BRANCH  52  76
ATOM     76  C   UNL A   1      38.926  29.909  30.640  1.00  0.00     0.023 A 
ATOM     77  C   UNL A   1      37.912  29.131  31.233  1.00  0.00     0.012 A 
ATOM     78  C   UNL A   1      38.573  31.099  29.972  1.00  0.00     0.148 A 
ATOM     79  C   UNL A   1      36.573  29.509  31.132  1.00  0.00     0.002 A 
ATOM     80  C   UNL A   1      37.244  31.501  29.927  1.00  0.00     0.091 A 
ATOM     81  F   UNL A   1      39.548  31.817  29.398  1.00  0.00    -0.205 F 
ATOM     82  C   UNL A   1      36.240  30.698  30.488  1.00  0.00     0.022 A 
BRANCH  80  83
ATOM     83  S   UNL A   1      36.732  33.072  29.222  1.00  0.00     0.127 S 
ATOM     84  O   UNL A   1      36.275  32.671  27.894  1.00  0.00    -0.237 OA
ATOM     85  O   UNL A   1      35.668  33.478  30.143  1.00  0.00    -0.237 OA
ATOM     86  O   UNL A   1      37.912  33.924  29.250  1.00  0.00    -0.744 OA
ENDBRANCH  80  83
ENDBRANCH  52  76
BRANCH  64  87
ATOM     87  C   UNL A   1      44.368  31.895  34.558  1.00  0.00     0.023 A 
ATOM     88  C   UNL A   1      44.842  33.169  34.188  1.00  0.00     0.012 A 
ATOM     89  C   UNL A   1      43.980  31.666  35.895  1.00  0.00     0.148 A 
ATOM     90  C   UNL A   1      44.956  34.187  35.137  1.00  0.00     0.002 A 
ATOM     91  C   UNL A   1      44.045  32.699  36.821  1.00  0.00     0.091 A 
ATOM     92  F   UNL A   1      43.540  30.444  36.229  1.00  0.00    -0.205 F 
ATOM     93  C   UNL A   1      44.545  33.956  36.447  1.00  0.00     0.022 A 
BRANCH  91  94
ATOM     94  S   UNL A   1      43.453  32.526  38.508  1.00  0.00     0.127 S 
ATOM     95  O   UNL A   1      42.760  33.799  38.711  1.00  0.00    -0.237 OA
ATOM     96  O   UNL A   1      42.573  31.362  38.407  1.00  0.00    -0.237 OA
ATOM     97  O   UNL A   1      44.634  32.329  39.337  1.00  0.00    -0.744 OA
ENDBRANCH  91  94
ENDBRANCH  64  87
ENDBRANCH  38  39
ENDBRANCH  31  33
ENDBRANCH  30  31
ENDBRANCH  29  30
ENDBRANCH  28  29
ENDBRANCH  27  28
ENDBRANCH  26  27
ENDBRANCH   1  26
TORSDOF 26
ENDMDL
MODEL 3
REMARK VINA RESULT:      -8.4      4.944     10.094
REMARK SMILES CCCC[C@H](C(=O)OCCOCCOCCOC(=O)c1ccc(-c2c3nc(c(-c4cccc(S(=O)(=O)[O-])c4F)c4ccc([nH]4)c(-c4cccc(S(=O)(=O)[O-])c4F)c4nc(c(-c5cccc(S(=O)(=O)[O-])c5F)c5ccc2[nH]5)C=C4)C=C3)cc1)[C@]1(O)CCc2ccc(OC)cc21
REMARK SMILES IDX 12 1 11 2 10 3 9 4 8 5 6 6 7 7 5 8 4 9 3 10 2 11 1 12 83 13
REMARK SMILES IDX 85 14 94 15 86 16 87 17 93 18 88 19 90 20 89 21 84 22 91 24
REMARK SMILES IDX 92 25 13 26 14 27 15 28 16 29 17 30 18 31 19 32 20 33 21 34
REMARK SMILES IDX 82 35 22 36 81 37 23 38 24 39 25 40 75 41 26 42 80 43 74 44
REMARK SMILES IDX 76 45 27 46 79 47 73 48 72 49 28 51 60 52 40 53 59 54 41 55
REMARK SMILES IDX 44 56 58 57 77 58 42 59 43 60 57 62 78 63 45 64 29 65 30 66
REMARK SMILES IDX 38 67 31 68 33 69 39 70 32 71 34 72 35 73 36 74 37 75 61 76
REMARK SMILES IDX 62 77 70 78 63 79 65 80 71 81 64 82 66 83 67 84 68 85 69 86
REMARK SMILES IDX 46 87 47 88 55 89 48 90 50 91 56 92 49 93 51 94 52 95 53 96
REMARK SMILES IDX 54 97
REMARK H PARENT 84 23 76 50 44 61
REMARK Flexibility Score: inf
ROOT
ATOM      1  C   UNL A   1      38.293  23.140  25.901  1.00  0.00     0.188 C 
ENDROOT
BRANCH   1   2
ATOM      2  O   UNL A   1      37.350  22.105  25.784  1.00  0.00    -0.376 OA
BRANCH   2   3
ATOM      3  C   UNL A   1      37.182  21.613  24.475  1.00  0.00     0.202 C 
BRANCH   3   4
ATOM      4  C   UNL A   1      36.448  22.533  23.492  1.00  0.00     0.261 C 
BRANCH   4   5
ATOM      5  O   UNL A   1      35.690  23.806  24.016  1.00  0.00    -0.463 OA
BRANCH   5   6
ATOM      6  C   UNL A   1      34.694  24.359  24.821  1.00  0.00     0.312 C 
ATOM      7  O   UNL A   1      34.866  24.230  26.045  1.00  0.00    -0.252 OA
BRANCH   6   8
ATOM      8  C   UNL A   1      33.169  24.927  24.408  1.00  0.00     0.135 C 
BRANCH   8   9
ATOM      9  C   UNL A   1      32.684  26.505  24.490  1.00  0.00     0.019 C 
BRANCH   9  10
ATOM     10  C   UNL A   1      32.371  27.676  26.323  1.00  0.00     0.001 C 
BRANCH  10  11
ATOM     11  C   UNL A   1      32.946  29.335  26.743  1.00  0.00    -0.003 C 
ATOM     12  C   UNL A   1      31.825  30.360  26.871  1.00  0.00     0.004 C 
ENDBRANCH  10  11
ENDBRANCH   9  10
ENDBRANCH   8   9
BRANCH   8  13
ATOM     13  C   UNL A   1      32.665  24.683  22.953  1.00  0.00     0.104 C 
ATOM     14  C   UNL A   1      31.484  25.606  22.681  1.00  0.00     0.046 C 
ATOM     15  C   UNL A   1      31.930  23.214  23.144  1.00  0.00    -0.009 A 
ATOM     16  C   UNL A   1      30.446  25.224  23.769  1.00  0.00     0.039 C 
ATOM     17  C   UNL A   1      31.112  24.049  24.502  1.00  0.00    -0.042 A 
ATOM     18  C   UNL A   1      32.909  21.731  23.475  1.00  0.00     0.053 A 
ATOM     19  C   UNL A   1      31.619  23.583  26.215  1.00  0.00     0.008 A 
ATOM     20  C   UNL A   1      33.239  21.205  25.153  1.00  0.00     0.119 A 
ATOM     21  C   UNL A   1      32.616  22.120  26.542  1.00  0.00     0.047 A 
BRANCH  13  22
ATOM     22  O   UNL A   1      33.665  24.662  21.969  1.00  0.00    -0.384 OA
ATOM     23  H   UNL A   1      34.006  23.758  21.874  1.00  0.00     0.211 HD
ENDBRANCH  13  22
BRANCH  20  24
ATOM     24  O   UNL A   1      33.735  19.943  25.375  1.00  0.00    -0.497 OA
ATOM     25  C   UNL A   1      32.698  18.953  25.287  1.00  0.00     0.278 C 
ENDBRANCH  20  24
ENDBRANCH   8  13
ENDBRANCH   6   8
ENDBRANCH   5   6
ENDBRANCH   4   5
ENDBRANCH   3   4
ENDBRANCH   2   3
ENDBRANCH   1   2
BRANCH   1  26
ATOM     26  C   UNL A   1      39.581  22.666  26.623  1.00  0.00     0.188 C 
BRANCH  26  27
ATOM     27  O   UNL A   1      40.464  21.800  25.928  1.00  0.00    -0.376 OA
BRANCH  27  28
ATOM     28  C   UNL A   1      41.851  21.950  26.193  1.00  0.00     0.202 C 
BRANCH  28  29
ATOM     29  C   UNL A   1      42.716  22.996  25.433  1.00  0.00     0.261 C 
BRANCH  29  30
ATOM     30  O   UNL A   1      43.777  23.687  26.139  1.00  0.00    -0.460 OA
BRANCH  30  31
ATOM     31  C   UNL A   1      44.684  24.411  25.420  1.00  0.00     0.338 C 
ATOM     32  O   UNL A   1      45.154  24.089  24.341  1.00  0.00    -0.246 OA
BRANCH  31  33
ATOM     33  C   UNL A   1      44.852  25.786  26.005  1.00  0.00     0.060 A 
ATOM     34  C   UNL A   1      45.741  25.985  27.082  1.00  0.00     0.016 A 
ATOM     35  C   UNL A   1      44.184  26.888  25.474  1.00  0.00     0.016 A 
ATOM     36  C   UNL A   1      45.958  27.262  27.623  1.00  0.00     0.010 A 
ATOM     37  C   UNL A   1      44.366  28.159  26.049  1.00  0.00     0.010 A 
ATOM     38  C   UNL A   1      45.238  28.357  27.139  1.00  0.00    -0.014 A 
BRANCH  38  39
ATOM     39  C   UNL A   1      45.253  29.670  27.851  1.00  0.00     0.031 A 
ATOM     40  C   UNL A   1      44.148  29.965  28.835  1.00  0.00     0.074 A 
ATOM     41  C   UNL A   1      46.183  30.613  27.606  1.00  0.00     0.049 A 
ATOM     42  N   UNL A   1      43.856  31.080  29.454  1.00  0.00    -0.248 NA
ATOM     43  C   UNL A   1      43.247  28.846  29.155  1.00  0.00     0.031 C 
ATOM     44  C   UNL A   1      47.329  30.460  26.716  1.00  0.00     0.029 A 
ATOM     45  N   UNL A   1      46.280  31.912  28.058  1.00  0.00    -0.354 N 
ATOM     46  C   UNL A   1      42.710  30.814  30.195  1.00  0.00     0.074 A 
ATOM     47  C   UNL A   1      42.364  29.430  29.951  1.00  0.00     0.031 C 
ATOM     48  C   UNL A   1      47.984  31.634  26.642  1.00  0.00     0.029 A 
ATOM     49  C   UNL A   1      47.283  32.632  27.448  1.00  0.00     0.049 A 
ATOM     50  H   UNL A   1      45.688  32.289  28.748  1.00  0.00     0.167 HD
ATOM     51  C   UNL A   1      42.006  31.644  31.001  1.00  0.00     0.034 A 
ATOM     52  C   UNL A   1      47.574  33.951  27.496  1.00  0.00     0.034 A 
ATOM     53  C   UNL A   1      42.351  33.019  31.248  1.00  0.00     0.049 A 
ATOM     54  C   UNL A   1      46.740  34.872  28.354  1.00  0.00     0.074 A 
ATOM     55  C   UNL A   1      41.725  33.920  32.091  1.00  0.00     0.029 A 
ATOM     56  N   UNL A   1      43.388  33.700  30.634  1.00  0.00    -0.354 N 
ATOM     57  N   UNL A   1      45.721  34.585  29.127  1.00  0.00    -0.248 NA
ATOM     58  C   UNL A   1      47.109  36.298  28.364  1.00  0.00     0.031 C 
ATOM     59  C   UNL A   1      42.344  35.164  31.937  1.00  0.00     0.029 A 
ATOM     60  C   UNL A   1      43.400  35.020  31.051  1.00  0.00     0.049 A 
ATOM     61  H   UNL A   1      44.024  33.304  29.994  1.00  0.00     0.167 HD
ATOM     62  C   UNL A   1      45.352  35.780  29.738  1.00  0.00     0.074 A 
ATOM     63  C   UNL A   1      46.269  36.793  29.262  1.00  0.00     0.031 C 
ATOM     64  C   UNL A   1      44.338  36.017  30.607  1.00  0.00     0.034 A 
BRANCH  51  65
ATOM     65  C   UNL A   1      40.771  31.097  31.671  1.00  0.00     0.023 A 
ATOM     66  C   UNL A   1      40.859  30.499  32.944  1.00  0.00     0.012 A 
ATOM     67  C   UNL A   1      39.509  31.235  31.059  1.00  0.00     0.148 A 
ATOM     68  C   UNL A   1      39.717  30.013  33.581  1.00  0.00     0.002 A 
ATOM     69  C   UNL A   1      38.369  30.797  31.721  1.00  0.00     0.091 A 
ATOM     70  F   UNL A   1      39.447  31.794  29.842  1.00  0.00    -0.205 F 
ATOM     71  C   UNL A   1      38.473  30.173  32.975  1.00  0.00     0.022 A 
BRANCH  69  72
ATOM     72  S   UNL A   1      36.715  31.028  31.063  1.00  0.00     0.127 S 
ATOM     73  O   UNL A   1      35.895  30.409  32.104  1.00  0.00    -0.237 OA
ATOM     74  O   UNL A   1      36.616  32.486  30.996  1.00  0.00    -0.237 OA
ATOM     75  O   UNL A   1      36.692  30.353  29.774  1.00  0.00    -0.744 OA
ENDBRANCH  69  72
ENDBRANCH  51  65
BRANCH  52  76
ATOM     76  C   UNL A   1      48.705  34.501  26.688  1.00  0.00     0.023 A 
ATOM     77  C   UNL A   1      48.456  35.051  25.415  1.00  0.00     0.012 A 
ATOM     78  C   UNL A   1      50.029  34.466  27.170  1.00  0.00     0.148 A 
ATOM     79  C   UNL A   1      49.505  35.521  24.624  1.00  0.00     0.002 A 
ATOM     80  C   UNL A   1      51.062  34.990  26.404  1.00  0.00     0.091 A 
ATOM     81  F   UNL A   1      50.250  33.922  28.376  1.00  0.00    -0.205 F 
ATOM     82  C   UNL A   1      50.806  35.500  25.122  1.00  0.00     0.022 A 
BRANCH  80  83
ATOM     83  S   UNL A   1      52.749  35.113  27.007  1.00  0.00     0.127 S 
ATOM     84  O   UNL A   1      53.430  35.729  25.871  1.00  0.00    -0.237 OA
ATOM     85  O   UNL A   1      52.586  35.982  28.173  1.00  0.00    -0.237 OA
ATOM     86  O   UNL A   1      53.159  33.751  27.321  1.00  0.00    -0.744 OA
ENDBRANCH  80  83
ENDBRANCH  52  76
BRANCH  64  87
ATOM     87  C   UNL A   1      44.177  37.416  31.151  1.00  0.00     0.023 A 
ATOM     88  C   UNL A   1      44.761  37.771  32.382  1.00  0.00     0.012 A 
ATOM     89  C   UNL A   1      43.522  38.405  30.388  1.00  0.00     0.148 A 
ATOM     90  C   UNL A   1      44.669  39.080  32.860  1.00  0.00     0.002 A 
ATOM     91  C   UNL A   1      43.482  39.717  30.844  1.00  0.00     0.091 A 
ATOM     92  F   UNL A   1      42.965  38.046  29.222  1.00  0.00    -0.205 F 
ATOM     93  C   UNL A   1      44.043  40.053  32.086  1.00  0.00     0.022 A 
BRANCH  91  94
ATOM     94  S   UNL A   1      42.781  41.059  29.876  1.00  0.00     0.127 S 
ATOM     95  O   UNL A   1      42.956  42.197  30.777  1.00  0.00    -0.237 OA
ATOM     96  O   UNL A   1      43.649  41.073  28.698  1.00  0.00    -0.237 OA
ATOM     97  O   UNL A   1      41.398  40.689  29.611  1.00  0.00    -0.744 OA
ENDBRANCH  91  94
ENDBRANCH  64  87
ENDBRANCH  38  39
ENDBRANCH  31  33
ENDBRANCH  30  31
ENDBRANCH  29  30
ENDBRANCH  28  29
ENDBRANCH  27  28
ENDBRANCH  26  27
ENDBRANCH   1  26
TORSDOF 26
ENDMDL
