MODEL 1
REMARK VINA RESULT:      -8.7      0.000      0.000
REMARK SMILES O=C(OCCOCCOCCOC(=O)c1ccc(-c2c3nc(c(-c4cccc(S(=O)(=O)[O-])c4F)c4ccc([nH]4)c(-c4cccc(S(=O)(=O)[O-])c4F)c4nc(c(-c5cccc(S(=O)(=O)[O-])c5F)c5ccc2[nH]5)C=C4)C=C3)cc1)C1=NN(c2ccc(S(=O)(=O)[O-])cc2)C(=O)/C1=C/Nc1ccccc1
REMARK SMILES IDX 8 1 7 2 6 3 5 4 4 5 3 6 2 7 1 8 78 9 79 10 93 11 80 12 91 13
REMARK SMILES IDX 94 14 92 15 81 16 82 17 90 18 83 19 89 20 84 21 85 22 86 23
REMARK SMILES IDX 87 24 88 25 95 26 96 28 97 29 101 30 98 31 100 32 99 33 9 34
REMARK SMILES IDX 10 35 11 36 12 37 13 38 14 39 15 40 16 41 77 42 17 43 76 44
REMARK SMILES IDX 18 45 19 46 20 47 70 48 21 49 75 50 69 51 71 52 22 53 74 54
REMARK SMILES IDX 68 55 67 56 23 58 55 59 35 60 54 61 36 62 39 63 53 64 72 65
REMARK SMILES IDX 37 66 38 67 52 69 73 70 40 71 24 72 25 73 33 74 26 75 28 76
REMARK SMILES IDX 34 77 27 78 29 79 30 80 31 81 32 82 56 83 57 84 65 85 58 86
REMARK SMILES IDX 60 87 66 88 59 89 61 90 62 91 63 92 64 93 41 94 42 95 50 96
REMARK SMILES IDX 43 97 45 98 51 99 44 100 46 101 47 102 48 103 49 104
REMARK H PARENT 95 27 71 57 39 68
REMARK Flexibility Score: inf
ROOT
ATOM      1  C   UNL A   1      50.715  25.635  30.159  1.00  0.00     0.188 C 
ENDROOT
BRANCH   1   2
ATOM      2  C   UNL A   1      49.267  25.341  29.855  1.00  0.00     0.188 C 
BRANCH   2   3
ATOM      3  O   UNL A   1      48.951  25.861  28.582  1.00  0.00    -0.376 OA
BRANCH   3   4
ATOM      4  C   UNL A   1      47.989  25.247  27.767  1.00  0.00     0.202 C 
BRANCH   4   5
ATOM      5  C   UNL A   1      46.824  26.149  27.419  1.00  0.00     0.261 C 
BRANCH   5   6
ATOM      6  O   UNL A   1      45.632  26.094  28.253  1.00  0.00    -0.458 OA
BRANCH   6   7
ATOM      7  C   UNL A   1      44.425  26.651  28.017  1.00  0.00     0.359 C 
ATOM      8  O   UNL A   1      44.233  27.856  28.010  1.00  0.00    -0.244 OA
BRANCH   7   9
ATOM      9  C   UNL A   1      43.363  25.742  27.499  1.00  0.00     0.183 C 
ATOM     10  N   UNL A   1      43.775  24.529  27.274  1.00  0.00    -0.157 NA
ATOM     11  C   UNL A   1      41.919  25.991  27.170  1.00  0.00     0.093 C 
ATOM     12  N   UNL A   1      42.743  23.858  26.705  1.00  0.00    -0.196 N 
ATOM     13  C   UNL A   1      41.543  24.572  26.682  1.00  0.00     0.282 C 
ATOM     14  C   UNL A   1      40.891  26.888  27.192  1.00  0.00     0.099 C 
ATOM     15  O   UNL A   1      40.436  24.177  26.363  1.00  0.00    -0.267 OA
BRANCH  12  16
ATOM     16  C   UNL A   1      43.118  22.766  25.890  1.00  0.00     0.069 A 
ATOM     17  C   UNL A   1      42.755  21.463  26.307  1.00  0.00     0.030 A 
ATOM     18  C   UNL A   1      44.031  22.926  24.850  1.00  0.00     0.030 A 
ATOM     19  C   UNL A   1      43.424  20.348  25.835  1.00  0.00     0.021 A 
ATOM     20  C   UNL A   1      44.696  21.810  24.362  1.00  0.00     0.021 A 
ATOM     21  C   UNL A   1      44.425  20.546  24.905  1.00  0.00     0.054 A 
BRANCH  21  22
ATOM     22  S   UNL A   1      45.403  19.157  24.462  1.00  0.00     0.124 S 
ATOM     23  O   UNL A   1      46.783  19.634  24.370  1.00  0.00    -0.237 OA
ATOM     24  O   UNL A   1      45.037  18.059  25.300  1.00  0.00    -0.237 OA
ATOM     25  O   UNL A   1      44.879  18.902  22.983  1.00  0.00    -0.744 OA
ENDBRANCH  21  22
ENDBRANCH  12  16
BRANCH  14  26
ATOM     26  N   UNL A   1      40.402  28.199  27.474  1.00  0.00    -0.361 N 
ATOM     27  H   UNL A   1      40.887  28.867  26.937  1.00  0.00     0.166 HD
BRANCH  26  28
ATOM     28  C   UNL A   1      39.363  28.885  28.350  1.00  0.00     0.038 A 
ATOM     29  C   UNL A   1      39.249  28.391  29.654  1.00  0.00     0.026 A 
ATOM     30  C   UNL A   1      38.218  29.660  27.977  1.00  0.00     0.026 A 
ATOM     31  C   UNL A   1      38.069  28.551  30.436  1.00  0.00     0.002 A 
ATOM     32  C   UNL A   1      37.022  29.794  28.722  1.00  0.00     0.002 A 
ATOM     33  C   UNL A   1      36.937  29.207  29.956  1.00  0.00     0.000 A 
ENDBRANCH  26  28
ENDBRANCH  14  26
ENDBRANCH   7   9
ENDBRANCH   6   7
ENDBRANCH   5   6
ENDBRANCH   4   5
ENDBRANCH   3   4
ENDBRANCH   2   3
ENDBRANCH   1   2
BRANCH   1  34
ATOM     34  O   UNL A   1      51.336  26.573  29.285  1.00  0.00    -0.376 OA
BRANCH  34  35
ATOM     35  C   UNL A   1      52.552  26.427  28.534  1.00  0.00     0.202 C 
BRANCH  35  36
ATOM     36  C   UNL A   1      52.821  26.975  26.937  1.00  0.00     0.261 C 
BRANCH  36  37
ATOM     37  O   UNL A   1      51.984  27.624  25.693  1.00  0.00    -0.460 OA
BRANCH  37  38
ATOM     38  C   UNL A   1      50.817  28.282  25.269  1.00  0.00     0.338 C 
ATOM     39  O   UNL A   1      50.589  28.575  24.098  1.00  0.00    -0.246 OA
BRANCH  38  40
ATOM     40  C   UNL A   1      49.917  28.963  26.349  1.00  0.00     0.060 A 
ATOM     41  C   UNL A   1      50.348  29.504  27.596  1.00  0.00     0.016 A 
ATOM     42  C   UNL A   1      48.541  28.932  26.166  1.00  0.00     0.016 A 
ATOM     43  C   UNL A   1      49.488  30.191  28.496  1.00  0.00     0.010 A 
ATOM     44  C   UNL A   1      47.665  29.533  27.103  1.00  0.00     0.010 A 
ATOM     45  C   UNL A   1      48.119  30.210  28.257  1.00  0.00    -0.014 A 
BRANCH  45  46
ATOM     46  C   UNL A   1      47.087  30.674  29.245  1.00  0.00     0.031 A 
ATOM     47  C   UNL A   1      46.493  29.634  30.158  1.00  0.00     0.074 A 
ATOM     48  C   UNL A   1      46.545  31.912  29.240  1.00  0.00     0.049 A 
ATOM     49  N   UNL A   1      45.359  29.643  30.803  1.00  0.00    -0.248 NA
ATOM     50  C   UNL A   1      47.299  28.420  30.369  1.00  0.00     0.031 C 
ATOM     51  C   UNL A   1      47.109  33.096  28.601  1.00  0.00     0.029 A 
ATOM     52  N   UNL A   1      45.341  32.367  29.756  1.00  0.00    -0.354 N 
ATOM     53  C   UNL A   1      45.282  28.417  31.449  1.00  0.00     0.074 A 
ATOM     54  C   UNL A   1      46.496  27.694  31.132  1.00  0.00     0.031 C 
ATOM     55  C   UNL A   1      46.207  34.096  28.666  1.00  0.00     0.029 A 
ATOM     56  C   UNL A   1      44.978  33.615  29.273  1.00  0.00     0.049 A 
ATOM     57  H   UNL A   1      44.800  31.857  30.400  1.00  0.00     0.167 HD
ATOM     58  C   UNL A   1      44.285  27.937  32.229  1.00  0.00     0.034 A 
ATOM     59  C   UNL A   1      43.784  34.255  29.271  1.00  0.00     0.034 A 
ATOM     60  C   UNL A   1      43.085  28.670  32.536  1.00  0.00     0.049 A 
ATOM     61  C   UNL A   1      42.649  33.642  30.030  1.00  0.00     0.074 A 
ATOM     62  C   UNL A   1      42.039  28.303  33.365  1.00  0.00     0.029 A 
ATOM     63  N   UNL A   1      42.756  29.905  32.002  1.00  0.00    -0.354 N 
ATOM     64  N   UNL A   1      42.596  32.490  30.644  1.00  0.00    -0.248 NA
ATOM     65  C   UNL A   1      41.438  34.467  30.166  1.00  0.00     0.031 C 
ATOM     66  C   UNL A   1      41.051  29.289  33.284  1.00  0.00     0.029 A 
ATOM     67  C   UNL A   1      41.511  30.298  32.456  1.00  0.00     0.049 A 
ATOM     68  H   UNL A   1      43.326  30.426  31.390  1.00  0.00     0.167 HD
ATOM     69  C   UNL A   1      41.373  32.478  31.297  1.00  0.00     0.074 A 
ATOM     70  C   UNL A   1      40.709  33.726  30.984  1.00  0.00     0.031 C 
ATOM     71  C   UNL A   1      40.862  31.535  32.118  1.00  0.00     0.034 A 
BRANCH  58  72
ATOM     72  C   UNL A   1      44.430  26.543  32.779  1.00  0.00     0.023 A 
ATOM     73  C   UNL A   1      44.181  25.423  31.960  1.00  0.00     0.012 A 
ATOM     74  C   UNL A   1      44.863  26.345  34.105  1.00  0.00     0.148 A 
ATOM     75  C   UNL A   1      44.319  24.131  32.465  1.00  0.00     0.002 A 
ATOM     76  C   UNL A   1      45.049  25.056  34.585  1.00  0.00     0.091 A 
ATOM     77  F   UNL A   1      45.076  27.422  34.875  1.00  0.00    -0.205 F 
ATOM     78  C   UNL A   1      44.763  23.948  33.773  1.00  0.00     0.022 A 
BRANCH  76  79
ATOM     79  S   UNL A   1      45.703  24.721  36.224  1.00  0.00     0.127 S 
ATOM     80  O   UNL A   1      44.668  25.298  37.080  1.00  0.00    -0.237 OA
ATOM     81  O   UNL A   1      45.760  23.259  36.238  1.00  0.00    -0.237 OA
ATOM     82  O   UNL A   1      47.002  25.379  36.283  1.00  0.00    -0.744 OA
ENDBRANCH  76  79
ENDBRANCH  58  72
BRANCH  59  83
ATOM     83  C   UNL A   1      43.506  35.545  28.566  1.00  0.00     0.023 A 
ATOM     84  C   UNL A   1      42.757  35.560  27.374  1.00  0.00     0.012 A 
ATOM     85  C   UNL A   1      44.054  36.762  29.028  1.00  0.00     0.148 A 
ATOM     86  C   UNL A   1      42.544  36.756  26.671  1.00  0.00     0.002 A 
ATOM     87  C   UNL A   1      43.774  37.965  28.361  1.00  0.00     0.091 A 
ATOM     88  F   UNL A   1      44.764  36.762  30.167  1.00  0.00    -0.205 F 
ATOM     89  C   UNL A   1      43.036  37.963  27.170  1.00  0.00     0.022 A 
BRANCH  87  90
ATOM     90  S   UNL A   1      43.853  39.508  29.321  1.00  0.00     0.127 S 
ATOM     91  O   UNL A   1      43.176  40.478  28.476  1.00  0.00    -0.237 OA
ATOM     92  O   UNL A   1      43.166  39.177  30.567  1.00  0.00    -0.237 OA
ATOM     93  O   UNL A   1      45.305  39.661  29.497  1.00  0.00    -0.744 OA
ENDBRANCH  87  90
ENDBRANCH  59  83
BRANCH  71  94
ATOM     94  C   UNL A   1      39.547  31.849  32.766  1.00  0.00     0.023 A 
ATOM     95  C   UNL A   1      38.345  31.691  32.052  1.00  0.00     0.012 A 
ATOM     96  C   UNL A   1      39.520  32.300  34.098  1.00  0.00     0.148 A 
ATOM     97  C   UNL A   1      37.128  32.015  32.651  1.00  0.00     0.002 A 
ATOM     98  C   UNL A   1      38.302  32.559  34.706  1.00  0.00     0.091 A 
ATOM     99  F   UNL A   1      40.685  32.476  34.739  1.00  0.00    -0.205 F 
ATOM    100  C   UNL A   1      37.107  32.435  33.979  1.00  0.00     0.022 A 
BRANCH  98 101
ATOM    101  S   UNL A   1      38.171  33.007  36.438  1.00  0.00     0.127 S 
ATOM    102  O   UNL A   1      38.817  34.319  36.457  1.00  0.00    -0.237 OA
ATOM    103  O   UNL A   1      36.722  33.036  36.634  1.00  0.00    -0.237 OA
ATOM    104  O   UNL A   1      38.865  31.965  37.182  1.00  0.00    -0.744 OA
ENDBRANCH  98 101
ENDBRANCH  71  94
ENDBRANCH  45  46
ENDBRANCH  38  40
ENDBRANCH  37  38
ENDBRANCH  36  37
ENDBRANCH  35  36
ENDBRANCH  34  35
ENDBRANCH   1  34
TORSDOF 24
ENDMDL
MODEL 2
REMARK VINA RESULT:      -8.4      3.658     13.072
REMARK SMILES O=C(OCCOCCOCCOC(=O)c1ccc(-c2c3nc(c(-c4cccc(S(=O)(=O)[O-])c4F)c4ccc([nH]4)c(-c4cccc(S(=O)(=O)[O-])c4F)c4nc(c(-c5cccc(S(=O)(=O)[O-])c5F)c5ccc2[nH]5)C=C4)C=C3)cc1)C1=NN(c2ccc(S(=O)(=O)[O-])cc2)C(=O)/C1=C/Nc1ccccc1
REMARK SMILES IDX 8 1 7 2 6 3 5 4 4 5 3 6 2 7 1 8 78 9 79 10 93 11 80 12 91 13
REMARK SMILES IDX 94 14 92 15 81 16 82 17 90 18 83 19 89 20 84 21 85 22 86 23
REMARK SMILES IDX 87 24 88 25 95 26 96 28 97 29 101 30 98 31 100 32 99 33 9 34
REMARK SMILES IDX 10 35 11 36 12 37 13 38 14 39 15 40 16 41 77 42 17 43 76 44
REMARK SMILES IDX 18 45 19 46 20 47 70 48 21 49 75 50 69 51 71 52 22 53 74 54
REMARK SMILES IDX 68 55 67 56 23 58 55 59 35 60 54 61 36 62 39 63 53 64 72 65
REMARK SMILES IDX 37 66 38 67 52 69 73 70 40 71 24 72 25 73 33 74 26 75 28 76
REMARK SMILES IDX 34 77 27 78 29 79 30 80 31 81 32 82 56 83 57 84 65 85 58 86
REMARK SMILES IDX 60 87 66 88 59 89 61 90 62 91 63 92 64 93 41 94 42 95 50 96
REMARK SMILES IDX 43 97 45 98 51 99 44 100 46 101 47 102 48 103 49 104
REMARK H PARENT 95 27 71 57 39 68
REMARK Flexibility Score: inf
ROOT
ATOM      1  C   UNL A   1      36.641  31.070  39.473  1.00  0.00     0.188 C 
ENDROOT
BRANCH   1   2
ATOM      2  C   UNL A   1      37.320  31.922  38.429  1.00  0.00     0.188 C 
BRANCH   2   3
ATOM      3  O   UNL A   1      37.765  31.091  37.378  1.00  0.00    -0.376 OA
BRANCH   3   4
ATOM      4  C   UNL A   1      38.262  31.636  36.185  1.00  0.00     0.202 C 
BRANCH   4   5
ATOM      5  C   UNL A   1      38.778  30.597  35.213  1.00  0.00     0.261 C 
BRANCH   5   6
ATOM      6  O   UNL A   1      37.818  29.903  34.367  1.00  0.00    -0.458 OA
BRANCH   6   7
ATOM      7  C   UNL A   1      37.945  29.569  33.064  1.00  0.00     0.359 C 
ATOM      8  O   UNL A   1      38.263  28.452  32.687  1.00  0.00    -0.244 OA
BRANCH   7   9
ATOM      9  C   UNL A   1      37.427  30.553  32.072  1.00  0.00     0.183 C 
ATOM     10  N   UNL A   1      36.987  31.654  32.606  1.00  0.00    -0.157 NA
ATOM     11  C   UNL A   1      37.303  30.480  30.577  1.00  0.00     0.093 C 
ATOM     12  N   UNL A   1      36.449  32.393  31.604  1.00  0.00    -0.196 N 
ATOM     13  C   UNL A   1      36.664  31.868  30.329  1.00  0.00     0.282 C 
ATOM     14  C   UNL A   1      37.569  29.755  29.452  1.00  0.00     0.099 C 
ATOM     15  O   UNL A   1      36.420  32.378  29.251  1.00  0.00    -0.267 OA
BRANCH  12  16
ATOM     16  C   UNL A   1      35.450  33.308  32.008  1.00  0.00     0.069 A 
ATOM     17  C   UNL A   1      34.494  33.722  31.050  1.00  0.00     0.030 A 
ATOM     18  C   UNL A   1      35.542  33.982  33.223  1.00  0.00     0.030 A 
ATOM     19  C   UNL A   1      33.778  34.895  31.214  1.00  0.00     0.021 A 
ATOM     20  C   UNL A   1      34.817  35.153  33.400  1.00  0.00     0.021 A 
ATOM     21  C   UNL A   1      33.992  35.622  32.367  1.00  0.00     0.054 A 
BRANCH  21  22
ATOM     22  S   UNL A   1      33.238  37.203  32.478  1.00  0.00     0.124 S 
ATOM     23  O   UNL A   1      31.905  36.988  33.042  1.00  0.00    -0.237 OA
ATOM     24  O   UNL A   1      34.172  38.110  33.069  1.00  0.00    -0.237 OA
ATOM     25  O   UNL A   1      33.062  37.542  30.936  1.00  0.00    -0.744 OA
ENDBRANCH  21  22
ENDBRANCH  12  16
BRANCH  14  26
ATOM     26  N   UNL A   1      38.089  28.576  28.837  1.00  0.00    -0.361 N 
ATOM     27  H   UNL A   1      37.420  27.854  28.865  1.00  0.00     0.166 HD
BRANCH  26  28
ATOM     28  C   UNL A   1      39.358  28.090  28.152  1.00  0.00     0.038 A 
ATOM     29  C   UNL A   1      40.067  29.058  27.432  1.00  0.00     0.026 A 
ATOM     30  C   UNL A   1      39.746  26.763  27.778  1.00  0.00     0.026 A 
ATOM     31  C   UNL A   1      40.961  28.726  26.373  1.00  0.00     0.002 A 
ATOM     32  C   UNL A   1      40.598  26.415  26.701  1.00  0.00     0.002 A 
ATOM     33  C   UNL A   1      41.190  27.412  25.972  1.00  0.00     0.000 A 
ENDBRANCH  26  28
ENDBRANCH  14  26
ENDBRANCH   7   9
ENDBRANCH   6   7
ENDBRANCH   5   6
ENDBRANCH   4   5
ENDBRANCH   3   4
ENDBRANCH   2   3
ENDBRANCH   1   2
BRANCH   1  34
ATOM     34  O   UNL A   1      36.815  31.512  40.817  1.00  0.00    -0.376 OA
BRANCH  34  35
ATOM     35  C   UNL A   1      38.017  31.531  41.603  1.00  0.00     0.202 C 
BRANCH  35  36
ATOM     36  C   UNL A   1      39.470  32.337  41.202  1.00  0.00     0.261 C 
BRANCH  36  37
ATOM     37  O   UNL A   1      40.515  32.458  39.951  1.00  0.00    -0.460 OA
BRANCH  37  38
ATOM     38  C   UNL A   1      41.578  33.163  39.363  1.00  0.00     0.338 C 
ATOM     39  O   UNL A   1      41.734  34.377  39.473  1.00  0.00    -0.246 OA
BRANCH  38  40
ATOM     40  C   UNL A   1      42.420  32.447  38.257  1.00  0.00     0.060 A 
ATOM     41  C   UNL A   1      43.832  32.530  38.078  1.00  0.00     0.016 A 
ATOM     42  C   UNL A   1      41.739  31.765  37.259  1.00  0.00     0.016 A 
ATOM     43  C   UNL A   1      44.547  31.780  37.104  1.00  0.00     0.010 A 
ATOM     44  C   UNL A   1      42.437  31.089  36.228  1.00  0.00     0.010 A 
ATOM     45  C   UNL A   1      43.848  31.046  36.154  1.00  0.00    -0.014 A 
BRANCH  45  46
ATOM     46  C   UNL A   1      44.463  30.423  34.934  1.00  0.00     0.031 A 
ATOM     47  C   UNL A   1      44.347  31.187  33.640  1.00  0.00     0.074 A 
ATOM     48  C   UNL A   1      44.950  29.163  34.897  1.00  0.00     0.049 A 
ATOM     49  N   UNL A   1      44.417  30.756  32.411  1.00  0.00    -0.248 NA
ATOM     50  C   UNL A   1      44.125  32.637  33.761  1.00  0.00     0.031 C 
ATOM     51  C   UNL A   1      45.339  28.356  36.047  1.00  0.00     0.029 A 
ATOM     52  N   UNL A   1      45.146  28.307  33.823  1.00  0.00    -0.354 N 
ATOM     53  C   UNL A   1      44.188  31.865  31.608  1.00  0.00     0.074 A 
ATOM     54  C   UNL A   1      43.995  32.995  32.492  1.00  0.00     0.031 C 
ATOM     55  C   UNL A   1      45.613  27.105  35.629  1.00  0.00     0.029 A 
ATOM     56  C   UNL A   1      45.346  26.990  34.205  1.00  0.00     0.049 A 
ATOM     57  H   UNL A   1      45.143  28.606  32.885  1.00  0.00     0.167 HD
ATOM     58  C   UNL A   1      44.137  31.931  30.257  1.00  0.00     0.034 A 
ATOM     59  C   UNL A   1      45.263  25.837  33.500  1.00  0.00     0.034 A 
ATOM     60  C   UNL A   1      44.333  30.798  29.392  1.00  0.00     0.049 A 
ATOM     61  C   UNL A   1      45.071  25.924  32.017  1.00  0.00     0.074 A 
ATOM     62  C   UNL A   1      44.363  30.764  28.009  1.00  0.00     0.029 A 
ATOM     63  N   UNL A   1      44.501  29.493  29.827  1.00  0.00    -0.354 N 
ATOM     64  N   UNL A   1      44.868  26.978  31.274  1.00  0.00    -0.248 NA
ATOM     65  C   UNL A   1      45.187  24.660  31.273  1.00  0.00     0.031 C 
ATOM     66  C   UNL A   1      44.489  29.430  27.607  1.00  0.00     0.029 A 
ATOM     67  C   UNL A   1      44.601  28.644  28.740  1.00  0.00     0.049 A 
ATOM     68  H   UNL A   1      44.544  29.213  30.770  1.00  0.00     0.167 HD
ATOM     69  C   UNL A   1      44.900  26.517  29.967  1.00  0.00     0.074 A 
ATOM     70  C   UNL A   1      45.117  25.087  30.023  1.00  0.00     0.031 C 
ATOM     71  C   UNL A   1      44.800  27.223  28.819  1.00  0.00     0.034 A 
BRANCH  58  72
ATOM     72  C   UNL A   1      43.824  33.262  29.628  1.00  0.00     0.023 A 
ATOM     73  C   UNL A   1      42.491  33.709  29.528  1.00  0.00     0.012 A 
ATOM     74  C   UNL A   1      44.867  34.096  29.177  1.00  0.00     0.148 A 
ATOM     75  C   UNL A   1      42.199  34.944  28.951  1.00  0.00     0.002 A 
ATOM     76  C   UNL A   1      44.573  35.346  28.652  1.00  0.00     0.091 A 
ATOM     77  F   UNL A   1      46.127  33.645  29.261  1.00  0.00    -0.205 F 
ATOM     78  C   UNL A   1      43.239  35.766  28.522  1.00  0.00     0.022 A 
BRANCH  76  79
ATOM     79  S   UNL A   1      45.847  36.511  28.157  1.00  0.00     0.127 S 
ATOM     80  O   UNL A   1      45.089  37.757  28.061  1.00  0.00    -0.237 OA
ATOM     81  O   UNL A   1      46.775  36.448  29.287  1.00  0.00    -0.237 OA
ATOM     82  O   UNL A   1      46.388  36.009  26.901  1.00  0.00    -0.744 OA
ENDBRANCH  76  79
ENDBRANCH  58  72
BRANCH  59  83
ATOM     83  C   UNL A   1      45.353  24.465  34.089  1.00  0.00     0.023 A 
ATOM     84  C   UNL A   1      44.185  23.730  34.369  1.00  0.00     0.012 A 
ATOM     85  C   UNL A   1      46.599  23.909  34.457  1.00  0.00     0.148 A 
ATOM     86  C   UNL A   1      44.256  22.469  34.980  1.00  0.00     0.002 A 
ATOM     87  C   UNL A   1      46.667  22.615  34.999  1.00  0.00     0.091 A 
ATOM     88  F   UNL A   1      47.720  24.597  34.190  1.00  0.00    -0.205 F 
ATOM     89  C   UNL A   1      45.496  21.900  35.281  1.00  0.00     0.022 A 
BRANCH  87  90
ATOM     90  S   UNL A   1      48.212  21.683  34.782  1.00  0.00     0.127 S 
ATOM     91  O   UNL A   1      47.795  20.470  34.098  1.00  0.00    -0.237 OA
ATOM     92  O   UNL A   1      49.054  22.584  34.000  1.00  0.00    -0.237 OA
ATOM     93  O   UNL A   1      48.665  21.552  36.175  1.00  0.00    -0.744 OA
ENDBRANCH  87  90
ENDBRANCH  59  83
BRANCH  71  94
ATOM     94  C   UNL A   1      44.975  26.456  27.543  1.00  0.00     0.023 A 
ATOM     95  C   UNL A   1      43.908  25.713  27.005  1.00  0.00     0.012 A 
ATOM     96  C   UNL A   1      46.214  26.488  26.879  1.00  0.00     0.148 A 
ATOM     97  C   UNL A   1      44.087  24.978  25.834  1.00  0.00     0.002 A 
ATOM     98  C   UNL A   1      46.366  25.805  25.682  1.00  0.00     0.091 A 
ATOM     99  F   UNL A   1      47.223  27.175  27.436  1.00  0.00    -0.205 F 
ATOM    100  C   UNL A   1      45.310  25.035  25.168  1.00  0.00     0.022 A 
BRANCH  98 101
ATOM    101  S   UNL A   1      47.867  25.903  24.706  1.00  0.00     0.127 S 
ATOM    102  O   UNL A   1      47.636  24.870  23.697  1.00  0.00    -0.237 OA
ATOM    103  O   UNL A   1      47.812  27.274  24.201  1.00  0.00    -0.237 OA
ATOM    104  O   UNL A   1      48.967  25.637  25.623  1.00  0.00    -0.744 OA
ENDBRANCH  98 101
ENDBRANCH  71  94
ENDBRANCH  45  46
ENDBRANCH  38  40
ENDBRANCH  37  38
ENDBRANCH  36  37
ENDBRANCH  35  36
ENDBRANCH  34  35
ENDBRANCH   1  34
TORSDOF 24
ENDMDL
MODEL 3
REMARK VINA RESULT:      -8.0      3.551     12.986
REMARK SMILES O=C(OCCOCCOCCOC(=O)c1ccc(-c2c3nc(c(-c4cccc(S(=O)(=O)[O-])c4F)c4ccc([nH]4)c(-c4cccc(S(=O)(=O)[O-])c4F)c4nc(c(-c5cccc(S(=O)(=O)[O-])c5F)c5ccc2[nH]5)C=C4)C=C3)cc1)C1=NN(c2ccc(S(=O)(=O)[O-])cc2)C(=O)/C1=C/Nc1ccccc1
REMARK SMILES IDX 8 1 7 2 6 3 5 4 4 5 3 6 2 7 1 8 78 9 79 10 93 11 80 12 91 13
REMARK SMILES IDX 94 14 92 15 81 16 82 17 90 18 83 19 89 20 84 21 85 22 86 23
REMARK SMILES IDX 87 24 88 25 95 26 96 28 97 29 101 30 98 31 100 32 99 33 9 34
REMARK SMILES IDX 10 35 11 36 12 37 13 38 14 39 15 40 16 41 77 42 17 43 76 44
REMARK SMILES IDX 18 45 19 46 20 47 70 48 21 49 75 50 69 51 71 52 22 53 74 54
REMARK SMILES IDX 68 55 67 56 23 58 55 59 35 60 54 61 36 62 39 63 53 64 72 65
REMARK SMILES IDX 37 66 38 67 52 69 73 70 40 71 24 72 25 73 33 74 26 75 28 76
REMARK SMILES IDX 34 77 27 78 29 79 30 80 31 81 32 82 56 83 57 84 65 85 58 86
REMARK SMILES IDX 60 87 66 88 59 89 61 90 62 91 63 92 64 93 41 94 42 95 50 96
REMARK SMILES IDX 43 97 45 98 51 99 44 100 46 101 47 102 48 103 49 104
REMARK H PARENT 95 27 71 57 39 68
REMARK Flexibility Score: inf
ROOT
ATOM      1  C   UNL A   1      36.705  31.277  39.580  1.00  0.00     0.188 C 
ENDROOT
BRANCH   1   2
ATOM      2  C   UNL A   1      37.191  32.044  38.375  1.00  0.00     0.188 C 
BRANCH   2   3
ATOM      3  O   UNL A   1      37.728  31.136  37.438  1.00  0.00    -0.376 OA
BRANCH   3   4
ATOM      4  C   UNL A   1      38.208  31.575  36.196  1.00  0.00     0.202 C 
BRANCH   4   5
ATOM      5  C   UNL A   1      38.865  30.483  35.379  1.00  0.00     0.261 C 
BRANCH   5   6
ATOM      6  O   UNL A   1      38.085  29.834  34.335  1.00  0.00    -0.458 OA
BRANCH   6   7
ATOM      7  C   UNL A   1      38.371  29.741  33.018  1.00  0.00     0.359 C 
ATOM      8  O   UNL A   1      38.658  28.690  32.467  1.00  0.00    -0.244 OA
BRANCH   7   9
ATOM      9  C   UNL A   1      38.070  30.940  32.186  1.00  0.00     0.183 C 
ATOM     10  N   UNL A   1      37.437  31.878  32.827  1.00  0.00    -0.157 NA
ATOM     11  C   UNL A   1      38.347  31.238  30.740  1.00  0.00     0.093 C 
ATOM     12  N   UNL A   1      37.135  32.842  31.922  1.00  0.00    -0.196 N 
ATOM     13  C   UNL A   1      37.710  32.645  30.666  1.00  0.00     0.282 C 
ATOM     14  C   UNL A   1      38.944  30.810  29.590  1.00  0.00     0.099 C 
ATOM     15  O   UNL A   1      37.724  33.406  29.715  1.00  0.00    -0.267 OA
BRANCH  12  16
ATOM     16  C   UNL A   1      36.009  33.633  32.247  1.00  0.00     0.069 A 
ATOM     17  C   UNL A   1      34.854  33.520  31.437  1.00  0.00     0.030 A 
ATOM     18  C   UNL A   1      36.105  34.676  33.166  1.00  0.00     0.030 A 
ATOM     19  C   UNL A   1      33.903  34.524  31.402  1.00  0.00     0.021 A 
ATOM     20  C   UNL A   1      35.147  35.680  33.146  1.00  0.00     0.021 A 
ATOM     21  C   UNL A   1      34.094  35.618  32.222  1.00  0.00     0.054 A 
BRANCH  21  22
ATOM     22  S   UNL A   1      32.997  36.975  32.029  1.00  0.00     0.124 S 
ATOM     23  O   UNL A   1      31.664  36.483  32.377  1.00  0.00    -0.237 OA
ATOM     24  O   UNL A   1      33.572  38.117  32.667  1.00  0.00    -0.237 OA
ATOM     25  O   UNL A   1      33.049  37.158  30.451  1.00  0.00    -0.744 OA
ENDBRANCH  21  22
ENDBRANCH  12  16
BRANCH  14  26
ATOM     26  N   UNL A   1      39.680  29.816  28.876  1.00  0.00    -0.361 N 
ATOM     27  H   UNL A   1      39.768  30.072  27.929  1.00  0.00     0.166 HD
BRANCH  26  28
ATOM     28  C   UNL A   1      40.371  28.483  29.127  1.00  0.00     0.038 A 
ATOM     29  C   UNL A   1      41.363  28.491  30.114  1.00  0.00     0.026 A 
ATOM     30  C   UNL A   1      40.477  27.333  28.280  1.00  0.00     0.026 A 
ATOM     31  C   UNL A   1      42.410  27.526  30.159  1.00  0.00     0.002 A 
ATOM     32  C   UNL A   1      41.533  26.390  28.282  1.00  0.00     0.002 A 
ATOM     33  C   UNL A   1      42.527  26.506  29.217  1.00  0.00     0.000 A 
ENDBRANCH  26  28
ENDBRANCH  14  26
ENDBRANCH   7   9
ENDBRANCH   6   7
ENDBRANCH   5   6
ENDBRANCH   4   5
ENDBRANCH   3   4
ENDBRANCH   2   3
ENDBRANCH   1   2
BRANCH   1  34
ATOM     34  O   UNL A   1      37.063  31.842  40.838  1.00  0.00    -0.376 OA
BRANCH  34  35
ATOM     35  C   UNL A   1      38.369  32.198  41.319  1.00  0.00     0.202 C 
BRANCH  35  36
ATOM     36  C   UNL A   1      39.404  33.380  40.643  1.00  0.00     0.261 C 
BRANCH  36  37
ATOM     37  O   UNL A   1      40.239  33.651  39.266  1.00  0.00    -0.460 OA
BRANCH  37  38
ATOM     38  C   UNL A   1      41.007  34.550  38.507  1.00  0.00     0.338 C 
ATOM     39  O   UNL A   1      40.772  35.753  38.433  1.00  0.00    -0.246 OA
BRANCH  38  40
ATOM     40  C   UNL A   1      42.004  33.966  37.453  1.00  0.00     0.060 A 
ATOM     41  C   UNL A   1      43.348  34.386  37.233  1.00  0.00     0.016 A 
ATOM     42  C   UNL A   1      41.519  33.040  36.540  1.00  0.00     0.016 A 
ATOM     43  C   UNL A   1      44.231  33.750  36.317  1.00  0.00     0.010 A 
ATOM     44  C   UNL A   1      42.366  32.467  35.561  1.00  0.00     0.010 A 
ATOM     45  C   UNL A   1      43.742  32.774  35.457  1.00  0.00    -0.014 A 
BRANCH  45  46
ATOM     46  C   UNL A   1      44.496  32.213  34.286  1.00  0.00     0.031 A 
ATOM     47  C   UNL A   1      44.305  32.894  32.956  1.00  0.00     0.074 A 
ATOM     48  C   UNL A   1      45.181  31.049  34.322  1.00  0.00     0.049 A 
ATOM     49  N   UNL A   1      44.490  32.430  31.750  1.00  0.00    -0.248 NA
ATOM     50  C   UNL A   1      43.847  34.291  33.003  1.00  0.00     0.031 C 
ATOM     51  C   UNL A   1      45.653  30.364  35.520  1.00  0.00     0.029 A 
ATOM     52  N   UNL A   1      45.554  30.194  33.295  1.00  0.00    -0.354 N 
ATOM     53  C   UNL A   1      44.115  33.454  30.891  1.00  0.00     0.074 A 
ATOM     54  C   UNL A   1      43.707  34.572  31.716  1.00  0.00     0.031 C 
ATOM     55  C   UNL A   1      46.143  29.159  35.167  1.00  0.00     0.029 A 
ATOM     56  C   UNL A   1      45.952  28.944  33.743  1.00  0.00     0.049 A 
ATOM     57  H   UNL A   1      45.539  30.450  32.344  1.00  0.00     0.167 HD
ATOM     58  C   UNL A   1      44.104  33.456  29.537  1.00  0.00     0.034 A 
ATOM     59  C   UNL A   1      46.084  27.766  33.089  1.00  0.00     0.034 A 
ATOM     60  C   UNL A   1      44.514  32.336  28.732  1.00  0.00     0.049 A 
ATOM     61  C   UNL A   1      45.936  27.760  31.599  1.00  0.00     0.074 A 
ATOM     62  C   UNL A   1      44.602  32.252  27.353  1.00  0.00     0.029 A 
ATOM     63  N   UNL A   1      44.876  31.095  29.230  1.00  0.00    -0.354 N 
ATOM     64  N   UNL A   1      45.593  28.736  30.802  1.00  0.00    -0.248 NA
ATOM     65  C   UNL A   1      46.284  26.503  30.918  1.00  0.00     0.031 C 
ATOM     66  C   UNL A   1      44.958  30.942  27.017  1.00  0.00     0.029 A 
ATOM     67  C   UNL A   1      45.154  30.231  28.188  1.00  0.00     0.049 A 
ATOM     68  H   UNL A   1      44.929  30.865  30.187  1.00  0.00     0.167 HD
ATOM     69  C   UNL A   1      45.748  28.234  29.520  1.00  0.00     0.074 A 
ATOM     70  C   UNL A   1      46.193  26.862  29.648  1.00  0.00     0.031 C 
ATOM     71  C   UNL A   1      45.577  28.866  28.338  1.00  0.00     0.034 A 
BRANCH  58  72
ATOM     72  C   UNL A   1      43.603  34.692  28.838  1.00  0.00     0.023 A 
ATOM     73  C   UNL A   1      42.236  34.830  28.526  1.00  0.00     0.012 A 
ATOM     74  C   UNL A   1      44.491  35.743  28.533  1.00  0.00     0.148 A 
ATOM     75  C   UNL A   1      41.768  35.976  27.883  1.00  0.00     0.002 A 
ATOM     76  C   UNL A   1      44.009  36.902  27.941  1.00  0.00     0.091 A 
ATOM     77  F   UNL A   1      45.791  35.585  28.819  1.00  0.00    -0.205 F 
ATOM     78  C   UNL A   1      42.652  37.015  27.601  1.00  0.00     0.022 A 
BRANCH  76  79
ATOM     79  S   UNL A   1      45.053  38.329  27.622  1.00  0.00     0.127 S 
ATOM     80  O   UNL A   1      45.825  37.877  26.465  1.00  0.00    -0.237 OA
ATOM     81  O   UNL A   1      44.067  39.370  27.328  1.00  0.00    -0.237 OA
ATOM     82  O   UNL A   1      45.822  38.548  28.839  1.00  0.00    -0.744 OA
ENDBRANCH  76  79
ENDBRANCH  58  72
BRANCH  59  83
ATOM     83  C   UNL A   1      46.374  26.451  33.744  1.00  0.00     0.023 A 
ATOM     84  C   UNL A   1      47.696  26.092  34.069  1.00  0.00     0.012 A 
ATOM     85  C   UNL A   1      45.347  25.508  33.972  1.00  0.00     0.148 A 
ATOM     86  C   UNL A   1      47.985  24.837  34.624  1.00  0.00     0.002 A 
ATOM     87  C   UNL A   1      45.635  24.283  34.597  1.00  0.00     0.091 A 
ATOM     88  F   UNL A   1      44.082  25.840  33.671  1.00  0.00    -0.205 F 
ATOM     89  C   UNL A   1      46.956  23.936  34.905  1.00  0.00     0.022 A 
BRANCH  87  90
ATOM     90  S   UNL A   1      44.294  23.456  35.503  1.00  0.00     0.127 S 
ATOM     91  O   UNL A   1      43.778  24.491  36.384  1.00  0.00    -0.237 OA
ATOM     92  O   UNL A   1      43.381  23.019  34.450  1.00  0.00    -0.237 OA
ATOM     93  O   UNL A   1      45.017  22.337  36.126  1.00  0.00    -0.744 OA
ENDBRANCH  87  90
ENDBRANCH  59  83
BRANCH  71  94
ATOM     94  C   UNL A   1      45.923  28.088  27.104  1.00  0.00     0.023 A 
ATOM     95  C   UNL A   1      44.910  27.491  26.330  1.00  0.00     0.012 A 
ATOM     96  C   UNL A   1      47.269  27.961  26.718  1.00  0.00     0.148 A 
ATOM     97  C   UNL A   1      45.241  26.743  25.202  1.00  0.00     0.002 A 
ATOM     98  C   UNL A   1      47.585  27.269  25.560  1.00  0.00     0.091 A 
ATOM     99  F   UNL A   1      48.214  28.509  27.496  1.00  0.00    -0.205 F 
ATOM    100  C   UNL A   1      46.574  26.644  24.811  1.00  0.00     0.022 A 
BRANCH  98 101
ATOM    101  S   UNL A   1      49.260  27.174  24.926  1.00  0.00     0.127 S 
ATOM    102  O   UNL A   1      49.916  26.344  25.935  1.00  0.00    -0.237 OA
ATOM    103  O   UNL A   1      49.058  26.519  23.633  1.00  0.00    -0.237 OA
ATOM    104  O   UNL A   1      49.743  28.546  24.843  1.00  0.00    -0.744 OA
ENDBRANCH  98 101
ENDBRANCH  71  94
ENDBRANCH  45  46
ENDBRANCH  38  40
ENDBRANCH  37  38
ENDBRANCH  36  37
ENDBRANCH  35  36
ENDBRANCH  34  35
ENDBRANCH   1  34
TORSDOF 24
ENDMDL
