MODEL 1
REMARK VINA RESULT:     -11.2      0.000      0.000
REMARK SMILES Cc1ccc(-c2ccc(/C=C(\C#N)C3N=c4ccccc4=N3)o2)cc1C(=O)OCCOCCOCCOC(=O)c1ccc(-c2c3nc(c(-c4cccc(S(=O)(=O)[O-])c4F)c4ccc([nH]4)c(-c4cccc(S(=O)(=O)[O-])c4F)c4nc(c(-c5cccc(S(=O)(=O)[O-])c5F)c5ccc2[nH]5)C=C4)C=C3)cc1
REMARK SMILES IDX 32 1 31 2 30 3 29 4 28 5 26 6 27 7 25 8 1 9 2 10 3 11 4 12
REMARK SMILES IDX 24 13 5 14 6 15 7 16 23 17 8 18 9 19 10 20 11 21 12 22 13 23
REMARK SMILES IDX 14 24 15 25 22 26 16 27 21 28 17 29 20 30 18 31 19 32 33 33
REMARK SMILES IDX 34 34 35 35 36 36 37 37 38 38 39 39 40 40 41 41 102 42 42 43
REMARK SMILES IDX 101 44 43 45 44 46 45 47 95 48 46 49 100 50 94 51 96 52
REMARK SMILES IDX 47 53 99 54 93 55 92 56 48 58 80 59 60 60 79 61 61 62 64 63
REMARK SMILES IDX 78 64 97 65 62 66 63 67 77 69 98 70 65 71 49 72 50 73 58 74
REMARK SMILES IDX 51 75 53 76 59 77 52 78 54 79 55 80 56 81 57 82 81 83 82 84
REMARK SMILES IDX 90 85 83 86 85 87 91 88 84 89 86 90 87 91 88 92 89 93 66 94
REMARK SMILES IDX 67 95 75 96 68 97 70 98 76 99 69 100 71 101 72 102 73 103
REMARK SMILES IDX 74 104
REMARK H PARENT 96 57 64 68
REMARK Flexibility Score: inf
ROOT
ATOM      1  C   UNL A   1      46.322  27.298  25.438  1.00  0.00     0.188 C 
ENDROOT
BRANCH   1   2
ATOM      2  O   UNL A   1      45.943  26.221  24.638  1.00  0.00    -0.376 OA
BRANCH   2   3
ATOM      3  C   UNL A   1      44.791  25.581  25.174  1.00  0.00     0.202 C 
BRANCH   3   4
ATOM      4  C   UNL A   1      44.335  25.941  26.684  1.00  0.00     0.261 C 
BRANCH   4   5
ATOM      5  O   UNL A   1      42.778  25.922  27.536  1.00  0.00    -0.460 OA
BRANCH   5   6
ATOM      6  C   UNL A   1      41.491  25.191  27.913  1.00  0.00     0.338 C 
ATOM      7  O   UNL A   1      40.598  25.520  28.704  1.00  0.00    -0.246 OA
BRANCH   6   8
ATOM      8  C   UNL A   1      40.977  23.987  27.261  1.00  0.00     0.063 A 
ATOM      9  C   UNL A   1      43.127  22.785  27.705  1.00  0.00     0.045 C 
ATOM     10  C   UNL A   1      41.698  22.815  27.277  1.00  0.00    -0.037 A 
ATOM     11  C   UNL A   1      41.000  21.644  26.952  1.00  0.00     0.005 A 
ATOM     12  C   UNL A   1      39.649  21.659  26.533  1.00  0.00     0.012 A 
ATOM     13  C   UNL A   1      39.597  24.004  26.861  1.00  0.00     0.028 A 
ATOM     14  C   UNL A   1      38.939  22.852  26.442  1.00  0.00     0.018 A 
BRANCH  14  15
ATOM     15  C   UNL A   1      37.664  22.952  25.741  1.00  0.00     0.134 A 
ATOM     16  C   UNL A   1      37.044  24.038  25.173  1.00  0.00     0.051 A 
ATOM     17  O   UNL A   1      36.872  21.849  25.600  1.00  0.00    -0.457 OA
ATOM     18  C   UNL A   1      35.780  23.601  24.732  1.00  0.00     0.051 A 
ATOM     19  C   UNL A   1      35.684  22.242  24.994  1.00  0.00     0.128 A 
BRANCH  19  20
ATOM     20  C   UNL A   1      34.589  21.392  24.652  1.00  0.00     0.066 C 
ATOM     21  C   UNL A   1      33.497  21.189  25.410  1.00  0.00     0.080 C 
BRANCH  21  22
ATOM     22  C   UNL A   1      33.257  21.901  26.639  1.00  0.00     0.099 C 
ATOM     23  N   UNL A   1      33.061  22.356  27.671  1.00  0.00    -0.193 NA
ENDBRANCH  21  22
BRANCH  21  24
ATOM     24  C   UNL A   1      32.491  20.117  25.046  1.00  0.00     0.263 C 
ATOM     25  N   UNL A   1      32.841  19.580  23.694  1.00  0.00    -0.251 NA
ATOM     26  N   UNL A   1      32.479  19.013  26.046  1.00  0.00    -0.251 NA
ATOM     27  C   UNL A   1      33.185  18.369  23.959  1.00  0.00     0.086 A 
ATOM     28  C   UNL A   1      32.950  18.019  25.376  1.00  0.00     0.086 A 
ATOM     29  C   UNL A   1      33.732  17.362  23.046  1.00  0.00     0.030 A 
ATOM     30  C   UNL A   1      33.234  16.655  25.833  1.00  0.00     0.030 A 
ATOM     31  C   UNL A   1      33.980  16.144  23.549  1.00  0.00     0.002 A 
ATOM     32  C   UNL A   1      33.723  15.791  24.932  1.00  0.00     0.002 A 
ENDBRANCH  21  24
ENDBRANCH  19  20
ENDBRANCH  14  15
ENDBRANCH   6   8
ENDBRANCH   5   6
ENDBRANCH   4   5
ENDBRANCH   3   4
ENDBRANCH   2   3
ENDBRANCH   1   2
BRANCH   1  33
ATOM     33  C   UNL A   1      47.788  27.677  25.377  1.00  0.00     0.188 C 
BRANCH  33  34
ATOM     34  O   UNL A   1      48.391  27.889  26.626  1.00  0.00    -0.376 OA
BRANCH  34  35
ATOM     35  C   UNL A   1      48.932  29.187  26.720  1.00  0.00     0.202 C 
BRANCH  35  36
ATOM     36  C   UNL A   1      47.984  30.376  27.053  1.00  0.00     0.261 C 
BRANCH  36  37
ATOM     37  O   UNL A   1      46.511  30.609  26.730  1.00  0.00    -0.460 OA
BRANCH  37  38
ATOM     38  C   UNL A   1      45.169  30.764  26.681  1.00  0.00     0.338 C 
ATOM     39  O   UNL A   1      44.700  31.740  26.104  1.00  0.00    -0.246 OA
BRANCH  38  40
ATOM     40  C   UNL A   1      44.237  29.829  27.358  1.00  0.00     0.060 A 
ATOM     41  C   UNL A   1      42.938  29.541  26.986  1.00  0.00     0.016 A 
ATOM     42  C   UNL A   1      44.629  29.082  28.406  1.00  0.00     0.016 A 
ATOM     43  C   UNL A   1      41.918  29.352  27.972  1.00  0.00     0.010 A 
ATOM     44  C   UNL A   1      43.623  28.877  29.362  1.00  0.00     0.010 A 
ATOM     45  C   UNL A   1      42.236  29.349  29.315  1.00  0.00    -0.014 A 
BRANCH  45  46
ATOM     46  C   UNL A   1      41.057  29.808  30.535  1.00  0.00     0.031 A 
ATOM     47  C   UNL A   1      39.764  31.084  30.648  1.00  0.00     0.074 A 
ATOM     48  C   UNL A   1      41.095  28.989  31.615  1.00  0.00     0.049 A 
ATOM     49  N   UNL A   1      39.502  31.786  31.725  1.00  0.00    -0.248 NA
ATOM     50  C   UNL A   1      38.950  31.885  29.514  1.00  0.00     0.031 C 
ATOM     51  C   UNL A   1      40.113  28.854  32.690  1.00  0.00     0.029 A 
ATOM     52  N   UNL A   1      42.049  28.038  31.950  1.00  0.00    -0.354 N 
ATOM     53  C   UNL A   1      38.556  32.775  31.335  1.00  0.00     0.074 A 
ATOM     54  C   UNL A   1      38.739  33.091  29.991  1.00  0.00     0.031 C 
ATOM     55  C   UNL A   1      40.622  28.067  33.659  1.00  0.00     0.029 A 
ATOM     56  C   UNL A   1      42.012  27.823  33.329  1.00  0.00     0.049 A 
ATOM     57  H   UNL A   1      42.654  27.587  31.317  1.00  0.00     0.167 HD
ATOM     58  C   UNL A   1      37.380  32.967  31.988  1.00  0.00     0.034 A 
ATOM     59  C   UNL A   1      43.077  28.288  34.053  1.00  0.00     0.034 A 
ATOM     60  C   UNL A   1      37.581  32.416  33.307  1.00  0.00     0.049 A 
ATOM     61  C   UNL A   1      42.717  29.591  34.794  1.00  0.00     0.074 A 
ATOM     62  C   UNL A   1      37.328  31.183  33.869  1.00  0.00     0.029 A 
ATOM     63  N   UNL A   1      38.668  32.943  33.990  1.00  0.00    -0.354 N 
ATOM     64  N   UNL A   1      41.561  30.214  34.712  1.00  0.00    -0.248 NA
ATOM     65  C   UNL A   1      43.600  30.243  35.753  1.00  0.00     0.031 C 
ATOM     66  C   UNL A   1      38.410  30.917  34.782  1.00  0.00     0.029 A 
ATOM     67  C   UNL A   1      39.287  31.997  34.794  1.00  0.00     0.049 A 
ATOM     68  H   UNL A   1      38.966  33.878  33.913  1.00  0.00     0.167 HD
ATOM     69  C   UNL A   1      41.572  31.377  35.440  1.00  0.00     0.074 A 
ATOM     70  C   UNL A   1      42.847  31.288  36.142  1.00  0.00     0.031 C 
ATOM     71  C   UNL A   1      40.585  32.344  35.404  1.00  0.00     0.034 A 
BRANCH  58  72
ATOM     72  C   UNL A   1      36.072  33.537  31.376  1.00  0.00     0.023 A 
ATOM     73  C   UNL A   1      35.652  32.911  30.190  1.00  0.00     0.012 A 
ATOM     74  C   UNL A   1      35.253  34.656  31.788  1.00  0.00     0.148 A 
ATOM     75  C   UNL A   1      34.517  33.325  29.471  1.00  0.00     0.002 A 
ATOM     76  C   UNL A   1      34.077  35.024  31.103  1.00  0.00     0.091 A 
ATOM     77  F   UNL A   1      35.635  35.462  32.786  1.00  0.00    -0.205 F 
ATOM     78  C   UNL A   1      33.718  34.362  29.933  1.00  0.00     0.022 A 
BRANCH  76  79
ATOM     79  S   UNL A   1      32.953  36.348  31.642  1.00  0.00     0.127 S 
ATOM     80  O   UNL A   1      32.555  36.954  30.372  1.00  0.00    -0.237 OA
ATOM     81  O   UNL A   1      31.885  35.606  32.315  1.00  0.00    -0.237 OA
ATOM     82  O   UNL A   1      33.729  37.217  32.519  1.00  0.00    -0.744 OA
ENDBRANCH  76  79
ENDBRANCH  58  72
BRANCH  59  83
ATOM     83  C   UNL A   1      44.382  27.842  33.413  1.00  0.00     0.023 A 
ATOM     84  C   UNL A   1      44.428  26.467  33.020  1.00  0.00     0.012 A 
ATOM     85  C   UNL A   1      45.351  28.696  32.858  1.00  0.00     0.148 A 
ATOM     86  C   UNL A   1      45.214  26.024  31.952  1.00  0.00     0.002 A 
ATOM     87  C   UNL A   1      46.205  28.217  31.847  1.00  0.00     0.091 A 
ATOM     88  F   UNL A   1      45.362  29.987  33.214  1.00  0.00    -0.205 F 
ATOM     89  C   UNL A   1      46.083  26.910  31.343  1.00  0.00     0.022 A 
BRANCH  87  90
ATOM     90  S   UNL A   1      47.456  29.267  31.092  1.00  0.00     0.127 S 
ATOM     91  O   UNL A   1      46.681  30.422  30.632  1.00  0.00    -0.237 OA
ATOM     92  O   UNL A   1      48.333  29.557  32.215  1.00  0.00    -0.237 OA
ATOM     93  O   UNL A   1      48.011  28.456  30.018  1.00  0.00    -0.744 OA
ENDBRANCH  87  90
ENDBRANCH  59  83
BRANCH  71  94
ATOM     94  C   UNL A   1      40.803  33.786  35.919  1.00  0.00     0.023 A 
ATOM     95  C   UNL A   1      40.881  34.884  35.042  1.00  0.00     0.012 A 
ATOM     96  C   UNL A   1      40.789  34.124  37.303  1.00  0.00     0.148 A 
ATOM     97  C   UNL A   1      41.089  36.195  35.489  1.00  0.00     0.002 A 
ATOM     98  C   UNL A   1      40.793  35.448  37.739  1.00  0.00     0.091 A 
ATOM     99  F   UNL A   1      40.803  33.169  38.244  1.00  0.00    -0.205 F 
ATOM    100  C   UNL A   1      41.019  36.484  36.841  1.00  0.00     0.022 A 
BRANCH  98 101
ATOM    101  S   UNL A   1      40.327  35.865  39.428  1.00  0.00     0.127 S 
ATOM    102  O   UNL A   1      40.413  37.322  39.420  1.00  0.00    -0.237 OA
ATOM    103  O   UNL A   1      38.965  35.337  39.525  1.00  0.00    -0.237 OA
ATOM    104  O   UNL A   1      41.296  35.164  40.263  1.00  0.00    -0.744 OA
ENDBRANCH  98 101
ENDBRANCH  71  94
ENDBRANCH  45  46
ENDBRANCH  38  40
ENDBRANCH  37  38
ENDBRANCH  36  37
ENDBRANCH  35  36
ENDBRANCH  34  35
ENDBRANCH  33  34
ENDBRANCH   1  33
TORSDOF 24
ENDMDL
MODEL 2
REMARK VINA RESULT:     -10.9      4.065      9.103
REMARK SMILES Cc1ccc(-c2ccc(/C=C(\C#N)C3N=c4ccccc4=N3)o2)cc1C(=O)OCCOCCOCCOC(=O)c1ccc(-c2c3nc(c(-c4cccc(S(=O)(=O)[O-])c4F)c4ccc([nH]4)c(-c4cccc(S(=O)(=O)[O-])c4F)c4nc(c(-c5cccc(S(=O)(=O)[O-])c5F)c5ccc2[nH]5)C=C4)C=C3)cc1
REMARK SMILES IDX 32 1 31 2 30 3 29 4 28 5 26 6 27 7 25 8 1 9 2 10 3 11 4 12
REMARK SMILES IDX 24 13 5 14 6 15 7 16 23 17 8 18 9 19 10 20 11 21 12 22 13 23
REMARK SMILES IDX 14 24 15 25 22 26 16 27 21 28 17 29 20 30 18 31 19 32 33 33
REMARK SMILES IDX 34 34 35 35 36 36 37 37 38 38 39 39 40 40 41 41 102 42 42 43
REMARK SMILES IDX 101 44 43 45 44 46 45 47 95 48 46 49 100 50 94 51 96 52
REMARK SMILES IDX 47 53 99 54 93 55 92 56 48 58 80 59 60 60 79 61 61 62 64 63
REMARK SMILES IDX 78 64 97 65 62 66 63 67 77 69 98 70 65 71 49 72 50 73 58 74
REMARK SMILES IDX 51 75 53 76 59 77 52 78 54 79 55 80 56 81 57 82 81 83 82 84
REMARK SMILES IDX 90 85 83 86 85 87 91 88 84 89 86 90 87 91 88 92 89 93 66 94
REMARK SMILES IDX 67 95 75 96 68 97 70 98 76 99 69 100 71 101 72 102 73 103
REMARK SMILES IDX 74 104
REMARK H PARENT 96 57 64 68
REMARK Flexibility Score: inf
ROOT
ATOM      1  C   UNL A   1      37.719  21.986  25.362  1.00  0.00     0.188 C 
ENDROOT
BRANCH   1   2
ATOM      2  O   UNL A   1      36.945  20.849  25.137  1.00  0.00    -0.376 OA
BRANCH   2   3
ATOM      3  C   UNL A   1      35.572  21.122  25.385  1.00  0.00     0.202 C 
BRANCH   3   4
ATOM      4  C   UNL A   1      34.722  21.913  24.259  1.00  0.00     0.261 C 
BRANCH   4   5
ATOM      5  O   UNL A   1      33.069  22.557  24.193  1.00  0.00    -0.460 OA
BRANCH   5   6
ATOM      6  C   UNL A   1      32.119  23.728  23.945  1.00  0.00     0.338 C 
ATOM      7  O   UNL A   1      30.887  23.782  24.048  1.00  0.00    -0.246 OA
BRANCH   6   8
ATOM      8  C   UNL A   1      32.525  25.107  23.677  1.00  0.00     0.063 A 
ATOM      9  C   UNL A   1      33.070  24.524  21.304  1.00  0.00     0.045 C 
ATOM     10  C   UNL A   1      32.850  25.511  22.402  1.00  0.00    -0.037 A 
ATOM     11  C   UNL A   1      32.880  26.892  22.170  1.00  0.00     0.005 A 
ATOM     12  C   UNL A   1      32.685  27.839  23.204  1.00  0.00     0.012 A 
ATOM     13  C   UNL A   1      32.300  26.065  24.724  1.00  0.00     0.028 A 
ATOM     14  C   UNL A   1      32.433  27.433  24.510  1.00  0.00     0.018 A 
BRANCH  14  15
ATOM     15  C   UNL A   1      32.522  28.346  25.644  1.00  0.00     0.134 A 
ATOM     16  C   UNL A   1      31.822  28.367  26.825  1.00  0.00     0.051 A 
ATOM     17  O   UNL A   1      33.392  29.396  25.610  1.00  0.00    -0.457 OA
ATOM     18  C   UNL A   1      32.223  29.527  27.515  1.00  0.00     0.051 A 
ATOM     19  C   UNL A   1      33.202  30.156  26.759  1.00  0.00     0.128 A 
BRANCH  19  20
ATOM     20  C   UNL A   1      33.921  31.335  27.121  1.00  0.00     0.066 C 
ATOM     21  C   UNL A   1      35.134  31.359  27.699  1.00  0.00     0.080 C 
BRANCH  21  22
ATOM     22  C   UNL A   1      35.908  30.168  27.937  1.00  0.00     0.099 C 
ATOM     23  N   UNL A   1      36.621  29.296  28.146  1.00  0.00    -0.193 NA
ENDBRANCH  21  22
BRANCH  21  24
ATOM     24  C   UNL A   1      35.716  32.656  28.221  1.00  0.00     0.263 C 
ATOM     25  N   UNL A   1      34.922  33.791  27.657  1.00  0.00    -0.251 NA
ATOM     26  N   UNL A   1      35.697  32.708  29.709  1.00  0.00    -0.251 NA
ATOM     27  C   UNL A   1      34.361  34.283  28.706  1.00  0.00     0.086 A 
ATOM     28  C   UNL A   1      34.841  33.641  29.948  1.00  0.00     0.086 A 
ATOM     29  C   UNL A   1      33.372  35.361  28.783  1.00  0.00     0.030 A 
ATOM     30  C   UNL A   1      34.345  34.123  31.240  1.00  0.00     0.030 A 
ATOM     31  C   UNL A   1      32.956  35.729  30.004  1.00  0.00     0.002 A 
ATOM     32  C   UNL A   1      33.449  35.120  31.225  1.00  0.00     0.002 A 
ENDBRANCH  21  24
ENDBRANCH  19  20
ENDBRANCH  14  15
ENDBRANCH   6   8
ENDBRANCH   5   6
ENDBRANCH   4   5
ENDBRANCH   3   4
ENDBRANCH   2   3
ENDBRANCH   1   2
BRANCH   1  33
ATOM     33  C   UNL A   1      38.997  21.767  26.147  1.00  0.00     0.188 C 
BRANCH  33  34
ATOM     34  O   UNL A   1      39.587  20.507  25.965  1.00  0.00    -0.376 OA
BRANCH  34  35
ATOM     35  C   UNL A   1      40.854  20.441  26.579  1.00  0.00     0.202 C 
BRANCH  35  36
ATOM     36  C   UNL A   1      41.990  21.372  26.060  1.00  0.00     0.261 C 
BRANCH  36  37
ATOM     37  O   UNL A   1      42.090  22.893  25.987  1.00  0.00    -0.460 OA
BRANCH  37  38
ATOM     38  C   UNL A   1      42.068  24.235  26.140  1.00  0.00     0.338 C 
ATOM     39  O   UNL A   1      41.152  24.881  25.643  1.00  0.00    -0.246 OA
BRANCH  38  40
ATOM     40  C   UNL A   1      43.153  24.971  26.836  1.00  0.00     0.060 A 
ATOM     41  C   UNL A   1      43.549  24.813  28.150  1.00  0.00     0.016 A 
ATOM     42  C   UNL A   1      43.936  25.849  26.185  1.00  0.00     0.016 A 
ATOM     43  C   UNL A   1      43.930  25.943  28.941  1.00  0.00     0.010 A 
ATOM     44  C   UNL A   1      44.330  26.945  26.966  1.00  0.00     0.010 A 
ATOM     45  C   UNL A   1      44.010  27.199  28.375  1.00  0.00    -0.014 A 
BRANCH  45  46
ATOM     46  C   UNL A   1      43.786  28.652  29.337  1.00  0.00     0.031 A 
ATOM     47  C   UNL A   1      42.345  29.643  29.842  1.00  0.00     0.074 A 
ATOM     48  C   UNL A   1      44.955  29.105  29.858  1.00  0.00     0.049 A 
ATOM     49  N   UNL A   1      42.318  30.954  29.876  1.00  0.00    -0.248 NA
ATOM     50  C   UNL A   1      40.788  29.266  29.990  1.00  0.00     0.031 C 
ATOM     51  C   UNL A   1      45.157  30.088  30.920  1.00  0.00     0.029 A 
ATOM     52  N   UNL A   1      46.250  28.715  29.549  1.00  0.00    -0.354 N 
ATOM     53  C   UNL A   1      40.969  31.317  30.151  1.00  0.00     0.074 A 
ATOM     54  C   UNL A   1      40.113  30.341  29.650  1.00  0.00     0.031 C 
ATOM     55  C   UNL A   1      46.469  30.386  31.004  1.00  0.00     0.029 A 
ATOM     56  C   UNL A   1      47.127  29.750  29.880  1.00  0.00     0.049 A 
ATOM     57  H   UNL A   1      46.510  27.849  29.159  1.00  0.00     0.167 HD
ATOM     58  C   UNL A   1      40.625  32.157  31.162  1.00  0.00     0.034 A 
ATOM     59  C   UNL A   1      47.710  30.420  28.838  1.00  0.00     0.034 A 
ATOM     60  C   UNL A   1      41.816  32.924  31.444  1.00  0.00     0.049 A 
ATOM     61  C   UNL A   1      47.039  31.789  28.615  1.00  0.00     0.074 A 
ATOM     62  C   UNL A   1      42.849  32.774  32.345  1.00  0.00     0.029 A 
ATOM     63  N   UNL A   1      42.344  33.589  30.347  1.00  0.00    -0.354 N 
ATOM     64  N   UNL A   1      46.008  32.247  29.294  1.00  0.00    -0.248 NA
ATOM     65  C   UNL A   1      47.532  32.785  27.672  1.00  0.00     0.031 C 
ATOM     66  C   UNL A   1      44.047  33.208  31.672  1.00  0.00     0.029 A 
ATOM     67  C   UNL A   1      43.729  33.647  30.390  1.00  0.00     0.049 A 
ATOM     68  H   UNL A   1      41.801  33.975  29.622  1.00  0.00     0.167 HD
ATOM     69  C   UNL A   1      45.605  33.470  28.818  1.00  0.00     0.074 A 
ATOM     70  C   UNL A   1      46.660  33.792  27.863  1.00  0.00     0.031 C 
ATOM     71  C   UNL A   1      44.445  34.121  29.190  1.00  0.00     0.034 A 
BRANCH  58  72
ATOM     72  C   UNL A   1      39.271  32.173  31.922  1.00  0.00     0.023 A 
ATOM     73  C   UNL A   1      38.487  31.019  31.757  1.00  0.00     0.012 A 
ATOM     74  C   UNL A   1      38.653  33.212  32.716  1.00  0.00     0.148 A 
ATOM     75  C   UNL A   1      37.212  30.876  32.331  1.00  0.00     0.002 A 
ATOM     76  C   UNL A   1      37.404  33.038  33.348  1.00  0.00     0.091 A 
ATOM     77  F   UNL A   1      39.195  34.433  32.802  1.00  0.00    -0.205 F 
ATOM     78  C   UNL A   1      36.678  31.869  33.141  1.00  0.00     0.022 A 
BRANCH  76  79
ATOM     79  S   UNL A   1      36.636  34.266  34.446  1.00  0.00     0.127 S 
ATOM     80  O   UNL A   1      35.555  33.496  35.064  1.00  0.00    -0.237 OA
ATOM     81  O   UNL A   1      37.728  34.606  35.359  1.00  0.00    -0.237 OA
ATOM     82  O   UNL A   1      36.196  35.365  33.595  1.00  0.00    -0.744 OA
ENDBRANCH  76  79
ENDBRANCH  58  72
BRANCH  59  83
ATOM     83  C   UNL A   1      48.299  29.433  27.842  1.00  0.00     0.023 A 
ATOM     84  C   UNL A   1      49.216  28.485  28.397  1.00  0.00     0.012 A 
ATOM     85  C   UNL A   1      47.768  29.141  26.575  1.00  0.00     0.148 A 
ATOM     86  C   UNL A   1      49.392  27.211  27.848  1.00  0.00     0.002 A 
ATOM     87  C   UNL A   1      48.026  27.889  25.983  1.00  0.00     0.091 A 
ATOM     88  F   UNL A   1      46.923  30.009  26.006  1.00  0.00    -0.205 F 
ATOM     89  C   UNL A   1      48.769  26.902  26.653  1.00  0.00     0.022 A 
BRANCH  87  90
ATOM     90  S   UNL A   1      47.364  27.455  24.368  1.00  0.00     0.127 S 
ATOM     91  O   UNL A   1      47.214  26.001  24.454  1.00  0.00    -0.237 OA
ATOM     92  O   UNL A   1      46.101  28.176  24.349  1.00  0.00    -0.237 OA
ATOM     93  O   UNL A   1      48.385  27.893  23.427  1.00  0.00    -0.744 OA
ENDBRANCH  87  90
ENDBRANCH  59  83
BRANCH  71  94
ATOM     94  C   UNL A   1      43.832  35.281  28.369  1.00  0.00     0.023 A 
ATOM     95  C   UNL A   1      42.768  35.075  27.472  1.00  0.00     0.012 A 
ATOM     96  C   UNL A   1      44.193  36.645  28.570  1.00  0.00     0.148 A 
ATOM     97  C   UNL A   1      42.209  36.110  26.713  1.00  0.00     0.002 A 
ATOM     98  C   UNL A   1      43.496  37.688  27.962  1.00  0.00     0.091 A 
ATOM     99  F   UNL A   1      45.245  36.973  29.333  1.00  0.00    -0.205 F 
ATOM    100  C   UNL A   1      42.554  37.425  26.975  1.00  0.00     0.022 A 
BRANCH  98 101
ATOM    101  S   UNL A   1      43.661  39.379  28.561  1.00  0.00     0.127 S 
ATOM    102  O   UNL A   1      42.631  40.078  27.797  1.00  0.00    -0.237 OA
ATOM    103  O   UNL A   1      43.372  39.244  29.990  1.00  0.00    -0.237 OA
ATOM    104  O   UNL A   1      45.042  39.743  28.267  1.00  0.00    -0.744 OA
ENDBRANCH  98 101
ENDBRANCH  71  94
ENDBRANCH  45  46
ENDBRANCH  38  40
ENDBRANCH  37  38
ENDBRANCH  36  37
ENDBRANCH  35  36
ENDBRANCH  34  35
ENDBRANCH  33  34
ENDBRANCH   1  33
TORSDOF 24
ENDMDL
MODEL 3
REMARK VINA RESULT:     -10.5      5.878     13.257
REMARK SMILES Cc1ccc(-c2ccc(/C=C(\C#N)C3N=c4ccccc4=N3)o2)cc1C(=O)OCCOCCOCCOC(=O)c1ccc(-c2c3nc(c(-c4cccc(S(=O)(=O)[O-])c4F)c4ccc([nH]4)c(-c4cccc(S(=O)(=O)[O-])c4F)c4nc(c(-c5cccc(S(=O)(=O)[O-])c5F)c5ccc2[nH]5)C=C4)C=C3)cc1
REMARK SMILES IDX 32 1 31 2 30 3 29 4 28 5 26 6 27 7 25 8 1 9 2 10 3 11 4 12
REMARK SMILES IDX 24 13 5 14 6 15 7 16 23 17 8 18 9 19 10 20 11 21 12 22 13 23
REMARK SMILES IDX 14 24 15 25 22 26 16 27 21 28 17 29 20 30 18 31 19 32 33 33
REMARK SMILES IDX 34 34 35 35 36 36 37 37 38 38 39 39 40 40 41 41 102 42 42 43
REMARK SMILES IDX 101 44 43 45 44 46 45 47 95 48 46 49 100 50 94 51 96 52
REMARK SMILES IDX 47 53 99 54 93 55 92 56 48 58 80 59 60 60 79 61 61 62 64 63
REMARK SMILES IDX 78 64 97 65 62 66 63 67 77 69 98 70 65 71 49 72 50 73 58 74
REMARK SMILES IDX 51 75 53 76 59 77 52 78 54 79 55 80 56 81 57 82 81 83 82 84
REMARK SMILES IDX 90 85 83 86 85 87 91 88 84 89 86 90 87 91 88 92 89 93 66 94
REMARK SMILES IDX 67 95 75 96 68 97 70 98 76 99 69 100 71 101 72 102 73 103
REMARK SMILES IDX 74 104
REMARK H PARENT 96 57 64 68
REMARK Flexibility Score: inf
ROOT
ATOM      1  C   UNL A   1      36.015  22.620  24.630  1.00  0.00     0.188 C 
ENDROOT
BRANCH   1   2
ATOM      2  O   UNL A   1      35.481  21.342  24.794  1.00  0.00    -0.376 OA
BRANCH   2   3
ATOM      3  C   UNL A   1      34.281  21.396  25.555  1.00  0.00     0.202 C 
BRANCH   3   4
ATOM      4  C   UNL A   1      32.975  22.085  24.898  1.00  0.00     0.261 C 
BRANCH   4   5
ATOM      5  O   UNL A   1      31.545  22.898  25.566  1.00  0.00    -0.460 OA
BRANCH   5   6
ATOM      6  C   UNL A   1      30.816  24.186  25.943  1.00  0.00     0.338 C 
ATOM      7  O   UNL A   1      30.030  24.407  26.872  1.00  0.00    -0.246 OA
BRANCH   6   8
ATOM      8  C   UNL A   1      31.045  25.498  25.337  1.00  0.00     0.063 A 
ATOM      9  C   UNL A   1      29.995  24.736  23.197  1.00  0.00     0.045 C 
ATOM     10  C   UNL A   1      30.544  25.797  24.092  1.00  0.00    -0.037 A 
ATOM     11  C   UNL A   1      30.499  27.153  23.741  1.00  0.00     0.005 A 
ATOM     12  C   UNL A   1      31.027  28.168  24.574  1.00  0.00     0.012 A 
ATOM     13  C   UNL A   1      31.559  26.528  26.197  1.00  0.00     0.028 A 
ATOM     14  C   UNL A   1      31.604  27.861  25.801  1.00  0.00     0.018 A 
BRANCH  14  15
ATOM     15  C   UNL A   1      32.416  28.818  26.545  1.00  0.00     0.134 A 
ATOM     16  C   UNL A   1      32.160  30.122  26.890  1.00  0.00     0.051 A 
ATOM     17  O   UNL A   1      33.657  28.463  26.990  1.00  0.00    -0.457 OA
ATOM     18  C   UNL A   1      33.327  30.617  27.504  1.00  0.00     0.051 A 
ATOM     19  C   UNL A   1      34.247  29.581  27.570  1.00  0.00     0.128 A 
BRANCH  19  20
ATOM     20  C   UNL A   1      35.541  29.636  28.171  1.00  0.00     0.066 C 
ATOM     21  C   UNL A   1      36.303  30.739  28.273  1.00  0.00     0.080 C 
BRANCH  21  22
ATOM     22  C   UNL A   1      35.848  32.043  27.864  1.00  0.00     0.099 C 
ATOM     23  N   UNL A   1      35.474  33.106  27.660  1.00  0.00    -0.193 NA
ENDBRANCH  21  22
BRANCH  21  24
ATOM     24  C   UNL A   1      37.738  30.645  28.749  1.00  0.00     0.263 C 
ATOM     25  N   UNL A   1      37.761  29.874  30.031  1.00  0.00    -0.251 NA
ATOM     26  N   UNL A   1      38.610  29.984  27.739  1.00  0.00    -0.251 NA
ATOM     27  C   UNL A   1      38.399  28.807  29.699  1.00  0.00     0.086 A 
ATOM     28  C   UNL A   1      38.928  28.879  28.320  1.00  0.00     0.086 A 
ATOM     29  C   UNL A   1      38.653  27.613  30.510  1.00  0.00     0.030 A 
ATOM     30  C   UNL A   1      39.731  27.768  27.802  1.00  0.00     0.030 A 
ATOM     31  C   UNL A   1      39.382  26.634  29.954  1.00  0.00     0.002 A 
ATOM     32  C   UNL A   1      39.925  26.717  28.612  1.00  0.00     0.002 A 
ENDBRANCH  21  24
ENDBRANCH  19  20
ENDBRANCH  14  15
ENDBRANCH   6   8
ENDBRANCH   5   6
ENDBRANCH   4   5
ENDBRANCH   3   4
ENDBRANCH   2   3
ENDBRANCH   1   2
BRANCH   1  33
ATOM     33  C   UNL A   1      37.252  22.925  25.452  1.00  0.00     0.188 C 
BRANCH  33  34
ATOM     34  O   UNL A   1      38.235  21.926  25.422  1.00  0.00    -0.376 OA
BRANCH  34  35
ATOM     35  C   UNL A   1      39.233  22.161  26.390  1.00  0.00     0.202 C 
BRANCH  35  36
ATOM     36  C   UNL A   1      40.536  21.309  26.349  1.00  0.00     0.261 C 
BRANCH  36  37
ATOM     37  O   UNL A   1      41.995  21.691  26.581  1.00  0.00    -0.460 OA
BRANCH  37  38
ATOM     38  C   UNL A   1      43.205  22.259  26.780  1.00  0.00     0.338 C 
ATOM     39  O   UNL A   1      44.162  21.883  26.111  1.00  0.00    -0.246 OA
BRANCH  38  40
ATOM     40  C   UNL A   1      43.437  23.281  27.831  1.00  0.00     0.060 A 
ATOM     41  C   UNL A   1      43.406  24.653  27.671  1.00  0.00     0.016 A 
ATOM     42  C   UNL A   1      43.630  22.936  29.116  1.00  0.00     0.016 A 
ATOM     43  C   UNL A   1      44.341  25.491  28.358  1.00  0.00     0.010 A 
ATOM     44  C   UNL A   1      44.528  23.771  29.797  1.00  0.00     0.010 A 
ATOM     45  C   UNL A   1      45.221  24.953  29.275  1.00  0.00    -0.014 A 
BRANCH  45  46
ATOM     46  C   UNL A   1      46.767  25.717  29.615  1.00  0.00     0.031 A 
ATOM     47  C   UNL A   1      48.400  25.714  28.810  1.00  0.00     0.074 A 
ATOM     48  C   UNL A   1      46.708  26.528  30.700  1.00  0.00     0.049 A 
ATOM     49  N   UNL A   1      49.545  25.658  29.449  1.00  0.00    -0.248 NA
ATOM     50  C   UNL A   1      48.842  25.422  27.291  1.00  0.00     0.031 C 
ATOM     51  C   UNL A   1      47.669  27.541  31.133  1.00  0.00     0.029 A 
ATOM     52  N   UNL A   1      45.699  26.638  31.647  1.00  0.00    -0.354 N 
ATOM     53  C   UNL A   1      50.549  25.503  28.452  1.00  0.00     0.074 A 
ATOM     54  C   UNL A   1      50.016  24.832  27.354  1.00  0.00     0.031 C 
ATOM     55  C   UNL A   1      47.322  27.988  32.357  1.00  0.00     0.029 A 
ATOM     56  C   UNL A   1      46.239  27.147  32.829  1.00  0.00     0.049 A 
ATOM     57  H   UNL A   1      44.755  26.396  31.508  1.00  0.00     0.167 HD
ATOM     58  C   UNL A   1      51.635  26.314  28.368  1.00  0.00     0.034 A 
ATOM     59  C   UNL A   1      46.329  26.284  33.888  1.00  0.00     0.034 A 
ATOM     60  C   UNL A   1      51.787  26.885  29.686  1.00  0.00     0.049 A 
ATOM     61  C   UNL A   1      47.777  25.790  34.078  1.00  0.00     0.074 A 
ATOM     62  C   UNL A   1      51.351  28.057  30.267  1.00  0.00     0.029 A 
ATOM     63  N   UNL A   1      51.887  25.954  30.709  1.00  0.00    -0.354 N 
ATOM     64  N   UNL A   1      48.793  26.107  33.304  1.00  0.00    -0.248 NA
ATOM     65  C   UNL A   1      48.209  24.974  35.206  1.00  0.00     0.031 C 
ATOM     66  C   UNL A   1      51.022  27.740  31.634  1.00  0.00     0.029 A 
ATOM     67  C   UNL A   1      51.292  26.398  31.880  1.00  0.00     0.049 A 
ATOM     68  H   UNL A   1      52.330  25.079  30.615  1.00  0.00     0.167 HD
ATOM     69  C   UNL A   1      49.937  25.460  33.698  1.00  0.00     0.074 A 
ATOM     70  C   UNL A   1      49.523  24.839  34.951  1.00  0.00     0.031 C 
ATOM     71  C   UNL A   1      51.119  25.433  32.983  1.00  0.00     0.034 A 
BRANCH  58  72
ATOM     72  C   UNL A   1      52.441  26.640  27.082  1.00  0.00     0.023 A 
ATOM     73  C   UNL A   1      51.773  27.461  26.158  1.00  0.00     0.012 A 
ATOM     74  C   UNL A   1      53.742  26.180  26.647  1.00  0.00     0.148 A 
ATOM     75  C   UNL A   1      52.329  27.822  24.919  1.00  0.00     0.002 A 
ATOM     76  C   UNL A   1      54.325  26.599  25.434  1.00  0.00     0.091 A 
ATOM     77  F   UNL A   1      54.410  25.246  27.335  1.00  0.00    -0.205 F 
ATOM     78  C   UNL A   1      53.607  27.413  24.563  1.00  0.00     0.022 A 
BRANCH  76  79
ATOM     79  S   UNL A   1      55.999  26.141  24.894  1.00  0.00     0.127 S 
ATOM     80  O   UNL A   1      55.949  24.679  24.933  1.00  0.00    -0.237 OA
ATOM     81  O   UNL A   1      56.065  26.704  23.545  1.00  0.00    -0.237 OA
ATOM     82  O   UNL A   1      56.921  26.747  25.847  1.00  0.00    -0.744 OA
ENDBRANCH  76  79
ENDBRANCH  58  72
BRANCH  59  83
ATOM     83  C   UNL A   1      45.004  25.567  34.096  1.00  0.00     0.023 A 
ATOM     84  C   UNL A   1      45.015  24.169  33.792  1.00  0.00     0.012 A 
ATOM     85  C   UNL A   1      43.935  26.043  34.873  1.00  0.00     0.148 A 
ATOM     86  C   UNL A   1      44.167  23.262  34.434  1.00  0.00     0.002 A 
ATOM     87  C   UNL A   1      43.027  25.129  35.441  1.00  0.00     0.091 A 
ATOM     88  F   UNL A   1      43.870  27.348  35.164  1.00  0.00    -0.205 F 
ATOM     89  C   UNL A   1      43.189  23.742  35.286  1.00  0.00     0.022 A 
BRANCH  87  90
ATOM     90  S   UNL A   1      41.646  25.679  36.455  1.00  0.00     0.127 S 
ATOM     91  O   UNL A   1      42.275  26.616  37.388  1.00  0.00    -0.237 OA
ATOM     92  O   UNL A   1      40.779  26.316  35.476  1.00  0.00    -0.237 OA
ATOM     93  O   UNL A   1      41.147  24.461  37.080  1.00  0.00    -0.744 OA
ENDBRANCH  87  90
ENDBRANCH  59  83
BRANCH  71  94
ATOM     94  C   UNL A   1      52.239  24.400  33.249  1.00  0.00     0.023 A 
ATOM     95  C   UNL A   1      53.557  24.792  33.545  1.00  0.00     0.012 A 
ATOM     96  C   UNL A   1      51.990  23.001  33.359  1.00  0.00     0.148 A 
ATOM     97  C   UNL A   1      54.586  23.871  33.777  1.00  0.00     0.002 A 
ATOM     98  C   UNL A   1      52.973  22.109  33.788  1.00  0.00     0.091 A 
ATOM     99  F   UNL A   1      50.800  22.486  33.021  1.00  0.00    -0.205 F 
ATOM    100  C   UNL A   1      54.291  22.527  33.925  1.00  0.00     0.022 A 
BRANCH  98 101
ATOM    101  S   UNL A   1      52.535  20.454  34.348  1.00  0.00     0.127 S 
ATOM    102  O   UNL A   1      51.559  20.039  33.345  1.00  0.00    -0.237 OA
ATOM    103  O   UNL A   1      53.814  19.744  34.283  1.00  0.00    -0.237 OA
ATOM    104  O   UNL A   1      52.029  20.643  35.702  1.00  0.00    -0.744 OA
ENDBRANCH  98 101
ENDBRANCH  71  94
ENDBRANCH  45  46
ENDBRANCH  38  40
ENDBRANCH  37  38
ENDBRANCH  36  37
ENDBRANCH  35  36
ENDBRANCH  34  35
ENDBRANCH  33  34
ENDBRANCH   1  33
TORSDOF 24
ENDMDL
