MODEL 1
REMARK VINA RESULT:     -11.4      0.000      0.000
REMARK SMILES O=C(OCCOCCOCCOC(=O)c1cc2c(C(F)(F)F)onc2c2ccccc12)c1ccc(-c2c3nc(c(-c4cccc(S(=O)(=O)[O-])c4F)c4ccc([nH]4)c(-c4cccc(S(=O)(=O)[O-])c4F)c4nc(c(-c5cccc(S(=O)(=O)[O-])c5F)c5ccc2[nH]5)C=C4)C=C3)cc1
REMARK SMILES IDX 7 1 6 2 5 3 4 4 3 5 2 6 1 7 32 8 33 9 94 10 34 11 93 12
REMARK SMILES IDX 35 13 36 14 37 15 87 16 38 17 92 18 86 19 88 20 39 21 91 22
REMARK SMILES IDX 85 23 84 24 40 26 72 27 52 28 71 29 53 30 56 31 70 32 89 33
REMARK SMILES IDX 54 34 55 35 69 37 90 38 57 39 41 40 42 41 50 42 43 43 45 44
REMARK SMILES IDX 51 45 44 46 46 47 47 48 48 49 49 50 73 51 74 52 82 53 75 54
REMARK SMILES IDX 77 55 83 56 76 57 78 58 79 59 80 60 81 61 58 62 59 63 67 64
REMARK SMILES IDX 60 65 62 66 68 67 61 68 63 69 64 70 65 71 66 72 8 73 9 74
REMARK SMILES IDX 10 75 11 76 12 77 13 78 14 79 15 80 16 81 31 82 17 83 26 84
REMARK SMILES IDX 30 85 18 86 25 87 27 88 29 89 23 90 24 91 28 92 19 93 20 94
REMARK SMILES IDX 21 95 22 96
REMARK H PARENT 88 25 56 36
REMARK Flexibility Score: inf
ROOT
ATOM      1  C   UNL A   1      33.537  28.597  24.833  1.00  0.00     0.188 C 
ENDROOT
BRANCH   1   2
ATOM      2  O   UNL A   1      32.614  28.713  25.902  1.00  0.00    -0.376 OA
BRANCH   2   3
ATOM      3  C   UNL A   1      31.877  29.924  25.960  1.00  0.00     0.202 C 
BRANCH   3   4
ATOM      4  C   UNL A   1      32.393  30.997  26.938  1.00  0.00     0.261 C 
BRANCH   4   5
ATOM      5  O   UNL A   1      33.539  30.715  27.798  1.00  0.00    -0.460 OA
BRANCH   5   6
ATOM      6  C   UNL A   1      34.575  31.506  28.188  1.00  0.00     0.338 C 
ATOM      7  O   UNL A   1      34.393  32.687  28.470  1.00  0.00    -0.246 OA
BRANCH   6   8
ATOM      8  C   UNL A   1      35.943  30.959  28.108  1.00  0.00     0.060 A 
ATOM      9  C   UNL A   1      36.116  29.629  27.714  1.00  0.00     0.016 A 
ATOM     10  C   UNL A   1      37.019  31.676  28.614  1.00  0.00     0.016 A 
ATOM     11  C   UNL A   1      37.297  28.970  28.057  1.00  0.00     0.010 A 
ATOM     12  C   UNL A   1      38.120  30.975  29.094  1.00  0.00     0.010 A 
ATOM     13  C   UNL A   1      38.248  29.596  28.872  1.00  0.00    -0.014 A 
BRANCH  13  14
ATOM     14  C   UNL A   1      39.599  29.024  29.040  1.00  0.00     0.031 A 
ATOM     15  C   UNL A   1      39.916  29.025  30.477  1.00  0.00     0.074 A 
ATOM     16  C   UNL A   1      40.463  28.486  28.145  1.00  0.00     0.049 A 
ATOM     17  N   UNL A   1      40.783  29.825  31.009  1.00  0.00    -0.248 NA
ATOM     18  C   UNL A   1      39.047  28.327  31.442  1.00  0.00     0.031 C 
ATOM     19  C   UNL A   1      40.402  28.532  26.700  1.00  0.00     0.029 A 
ATOM     20  N   UNL A   1      41.578  27.704  28.299  1.00  0.00    -0.354 N 
ATOM     21  C   UNL A   1      40.777  29.462  32.337  1.00  0.00     0.074 A 
ATOM     22  C   UNL A   1      39.525  28.794  32.595  1.00  0.00     0.031 C 
ATOM     23  C   UNL A   1      41.088  27.527  26.121  1.00  0.00     0.029 A 
ATOM     24  C   UNL A   1      41.891  26.936  27.170  1.00  0.00     0.049 A 
ATOM     25  H   UNL A   1      42.109  27.684  29.128  1.00  0.00     0.167 HD
ATOM     26  C   UNL A   1      41.954  29.299  32.985  1.00  0.00     0.034 A 
ATOM     27  C   UNL A   1      42.903  26.061  26.956  1.00  0.00     0.034 A 
ATOM     28  C   UNL A   1      43.089  29.864  32.315  1.00  0.00     0.049 A 
ATOM     29  C   UNL A   1      43.985  26.473  27.862  1.00  0.00     0.074 A 
ATOM     30  C   UNL A   1      43.863  30.995  32.399  1.00  0.00     0.029 A 
ATOM     31  N   UNL A   1      43.475  29.198  31.182  1.00  0.00    -0.354 N 
ATOM     32  N   UNL A   1      44.676  27.561  27.670  1.00  0.00    -0.248 NA
ATOM     33  C   UNL A   1      44.058  25.887  29.193  1.00  0.00     0.031 C 
ATOM     34  C   UNL A   1      44.769  30.962  31.298  1.00  0.00     0.029 A 
ATOM     35  C   UNL A   1      44.512  29.825  30.544  1.00  0.00     0.049 A 
ATOM     36  H   UNL A   1      43.056  28.366  30.864  1.00  0.00     0.167 HD
ATOM     37  C   UNL A   1      44.895  28.022  28.948  1.00  0.00     0.074 A 
ATOM     38  C   UNL A   1      44.640  26.898  29.841  1.00  0.00     0.031 C 
ATOM     39  C   UNL A   1      44.919  29.349  29.239  1.00  0.00     0.034 A 
BRANCH  26  40
ATOM     40  C   UNL A   1      42.139  28.186  33.962  1.00  0.00     0.023 A 
ATOM     41  C   UNL A   1      41.621  28.358  35.250  1.00  0.00     0.012 A 
ATOM     42  C   UNL A   1      43.015  27.100  33.726  1.00  0.00     0.148 A 
ATOM     43  C   UNL A   1      41.950  27.465  36.270  1.00  0.00     0.002 A 
ATOM     44  C   UNL A   1      43.271  26.169  34.717  1.00  0.00     0.091 A 
ATOM     45  F   UNL A   1      43.701  27.040  32.576  1.00  0.00    -0.205 F 
ATOM     46  C   UNL A   1      42.755  26.359  35.999  1.00  0.00     0.022 A 
BRANCH  44  47
ATOM     47  S   UNL A   1      44.274  24.714  34.406  1.00  0.00     0.127 S 
ATOM     48  O   UNL A   1      45.624  25.258  34.528  1.00  0.00    -0.237 OA
ATOM     49  O   UNL A   1      43.858  23.827  35.493  1.00  0.00    -0.237 OA
ATOM     50  O   UNL A   1      43.887  24.252  33.078  1.00  0.00    -0.744 OA
ENDBRANCH  44  47
ENDBRANCH  26  40
BRANCH  27  51
ATOM     51  C   UNL A   1      42.998  24.860  26.087  1.00  0.00     0.023 A 
ATOM     52  C   UNL A   1      43.971  24.838  25.064  1.00  0.00     0.012 A 
ATOM     53  C   UNL A   1      42.397  23.636  26.450  1.00  0.00     0.148 A 
ATOM     54  C   UNL A   1      44.425  23.633  24.517  1.00  0.00     0.002 A 
ATOM     55  C   UNL A   1      42.857  22.437  25.907  1.00  0.00     0.091 A 
ATOM     56  F   UNL A   1      41.439  23.631  27.385  1.00  0.00    -0.205 F 
ATOM     57  C   UNL A   1      43.890  22.431  24.960  1.00  0.00     0.022 A 
BRANCH  55  58
ATOM     58  S   UNL A   1      42.230  20.845  26.460  1.00  0.00     0.127 S 
ATOM     59  O   UNL A   1      43.159  19.907  25.828  1.00  0.00    -0.237 OA
ATOM     60  O   UNL A   1      42.364  20.955  27.910  1.00  0.00    -0.237 OA
ATOM     61  O   UNL A   1      40.866  20.763  25.952  1.00  0.00    -0.744 OA
ENDBRANCH  55  58
ENDBRANCH  27  51
BRANCH  39  62
ATOM     62  C   UNL A   1      45.173  30.341  28.140  1.00  0.00     0.023 A 
ATOM     63  C   UNL A   1      44.139  31.009  27.449  1.00  0.00     0.012 A 
ATOM     64  C   UNL A   1      46.501  30.738  27.916  1.00  0.00     0.148 A 
ATOM     65  C   UNL A   1      44.426  32.090  26.604  1.00  0.00     0.002 A 
ATOM     66  C   UNL A   1      46.780  31.832  27.106  1.00  0.00     0.091 A 
ATOM     67  F   UNL A   1      47.475  30.052  28.531  1.00  0.00    -0.205 F 
ATOM     68  C   UNL A   1      45.744  32.520  26.455  1.00  0.00     0.022 A 
BRANCH  66  69
ATOM     69  S   UNL A   1      48.448  32.476  26.959  1.00  0.00     0.127 S 
ATOM     70  O   UNL A   1      49.217  31.269  26.662  1.00  0.00    -0.237 OA
ATOM     71  O   UNL A   1      48.328  33.418  25.847  1.00  0.00    -0.237 OA
ATOM     72  O   UNL A   1      48.744  33.108  28.240  1.00  0.00    -0.744 OA
ENDBRANCH  66  69
ENDBRANCH  39  62
ENDBRANCH  13  14
ENDBRANCH   6   8
ENDBRANCH   5   6
ENDBRANCH   4   5
ENDBRANCH   3   4
ENDBRANCH   2   3
ENDBRANCH   1   2
BRANCH   1  73
ATOM     73  C   UNL A   1      32.981  28.016  23.528  1.00  0.00     0.188 C 
BRANCH  73  74
ATOM     74  O   UNL A   1      31.773  27.287  23.596  1.00  0.00    -0.376 OA
BRANCH  74  75
ATOM     75  C   UNL A   1      31.799  26.003  23.003  1.00  0.00     0.202 C 
BRANCH  75  76
ATOM     76  C   UNL A   1      32.964  25.033  23.258  1.00  0.00     0.261 C 
BRANCH  76  77
ATOM     77  O   UNL A   1      33.448  24.654  24.563  1.00  0.00    -0.460 OA
BRANCH  77  78
ATOM     78  C   UNL A   1      32.948  23.507  25.077  1.00  0.00     0.338 C 
ATOM     79  O   UNL A   1      31.858  23.387  25.642  1.00  0.00    -0.246 OA
BRANCH  78  80
ATOM     80  C   UNL A   1      33.881  22.355  24.909  1.00  0.00     0.068 A 
ATOM     81  C   UNL A   1      33.300  21.106  24.566  1.00  0.00     0.030 A 
ATOM     82  C   UNL A   1      35.301  22.539  25.207  1.00  0.00    -0.002 A 
ATOM     83  C   UNL A   1      34.238  20.072  24.592  1.00  0.00     0.056 A 
ATOM     84  C   UNL A   1      36.212  21.430  25.234  1.00  0.00     0.012 A 
ATOM     85  C   UNL A   1      35.895  23.786  25.458  1.00  0.00     0.010 A 
ATOM     86  C   UNL A   1      34.010  18.740  24.369  1.00  0.00     0.248 A 
ATOM     87  C   UNL A   1      35.640  20.176  24.913  1.00  0.00     0.122 A 
ATOM     88  C   UNL A   1      37.578  21.546  25.565  1.00  0.00     0.011 A 
ATOM     89  C   UNL A   1      37.255  23.902  25.779  1.00  0.00     0.001 A 
ATOM     90  O   UNL A   1      35.187  18.073  24.523  1.00  0.00    -0.350 OA
ATOM     91  N   UNL A   1      36.194  18.951  24.852  1.00  0.00    -0.079 NA
ATOM     92  C   UNL A   1      38.090  22.795  25.857  1.00  0.00     0.001 A 
BRANCH  86  93
ATOM     93  C   UNL A   1      32.853  17.896  24.064  1.00  0.00     0.453 C 
ATOM     94  F   UNL A   1      32.186  18.305  22.956  1.00  0.00    -0.163 F 
ATOM     95  F   UNL A   1      33.222  16.606  23.840  1.00  0.00    -0.163 F 
ATOM     96  F   UNL A   1      31.950  17.866  25.077  1.00  0.00    -0.163 F 
ENDBRANCH  86  93
ENDBRANCH  78  80
ENDBRANCH  77  78
ENDBRANCH  76  77
ENDBRANCH  75  76
ENDBRANCH  74  75
ENDBRANCH  73  74
ENDBRANCH   1  73
TORSDOF 21
ENDMDL
MODEL 2
REMARK VINA RESULT:     -11.3      3.675      9.367
REMARK SMILES O=C(OCCOCCOCCOC(=O)c1cc2c(C(F)(F)F)onc2c2ccccc12)c1ccc(-c2c3nc(c(-c4cccc(S(=O)(=O)[O-])c4F)c4ccc([nH]4)c(-c4cccc(S(=O)(=O)[O-])c4F)c4nc(c(-c5cccc(S(=O)(=O)[O-])c5F)c5ccc2[nH]5)C=C4)C=C3)cc1
REMARK SMILES IDX 7 1 6 2 5 3 4 4 3 5 2 6 1 7 32 8 33 9 94 10 34 11 93 12
REMARK SMILES IDX 35 13 36 14 37 15 87 16 38 17 92 18 86 19 88 20 39 21 91 22
REMARK SMILES IDX 85 23 84 24 40 26 72 27 52 28 71 29 53 30 56 31 70 32 89 33
REMARK SMILES IDX 54 34 55 35 69 37 90 38 57 39 41 40 42 41 50 42 43 43 45 44
REMARK SMILES IDX 51 45 44 46 46 47 47 48 48 49 49 50 73 51 74 52 82 53 75 54
REMARK SMILES IDX 77 55 83 56 76 57 78 58 79 59 80 60 81 61 58 62 59 63 67 64
REMARK SMILES IDX 60 65 62 66 68 67 61 68 63 69 64 70 65 71 66 72 8 73 9 74
REMARK SMILES IDX 10 75 11 76 12 77 13 78 14 79 15 80 16 81 31 82 17 83 26 84
REMARK SMILES IDX 30 85 18 86 25 87 27 88 29 89 23 90 24 91 28 92 19 93 20 94
REMARK SMILES IDX 21 95 22 96
REMARK H PARENT 88 25 56 36
REMARK Flexibility Score: inf
ROOT
ATOM      1  C   UNL A   1      41.987  19.579  26.237  1.00  0.00     0.188 C 
ENDROOT
BRANCH   1   2
ATOM      2  O   UNL A   1      42.691  20.336  25.268  1.00  0.00    -0.376 OA
BRANCH   2   3
ATOM      3  C   UNL A   1      43.979  20.792  25.649  1.00  0.00     0.202 C 
BRANCH   3   4
ATOM      4  C   UNL A   1      44.043  22.159  26.357  1.00  0.00     0.261 C 
BRANCH   4   5
ATOM      5  O   UNL A   1      42.941  22.595  27.210  1.00  0.00    -0.460 OA
BRANCH   5   6
ATOM      6  C   UNL A   1      41.848  23.357  26.931  1.00  0.00     0.338 C 
ATOM      7  O   UNL A   1      41.159  23.130  25.942  1.00  0.00    -0.246 OA
BRANCH   6   8
ATOM      8  C   UNL A   1      41.604  24.558  27.752  1.00  0.00     0.060 A 
ATOM      9  C   UNL A   1      40.479  25.344  27.481  1.00  0.00     0.016 A 
ATOM     10  C   UNL A   1      42.574  25.020  28.630  1.00  0.00     0.016 A 
ATOM     11  C   UNL A   1      40.465  26.673  27.905  1.00  0.00     0.010 A 
ATOM     12  C   UNL A   1      42.629  26.381  28.908  1.00  0.00     0.010 A 
ATOM     13  C   UNL A   1      41.599  27.241  28.498  1.00  0.00    -0.014 A 
BRANCH  13  14
ATOM     14  C   UNL A   1      41.526  28.552  29.173  1.00  0.00     0.031 A 
ATOM     15  C   UNL A   1      42.555  29.424  28.582  1.00  0.00     0.074 A 
ATOM     16  C   UNL A   1      40.676  29.031  30.114  1.00  0.00     0.049 A 
ATOM     17  N   UNL A   1      43.631  29.772  29.209  1.00  0.00    -0.248 NA
ATOM     18  C   UNL A   1      42.567  29.702  27.135  1.00  0.00     0.031 C 
ATOM     19  C   UNL A   1      39.718  28.299  30.913  1.00  0.00     0.029 A 
ATOM     20  N   UNL A   1      40.405  30.303  30.546  1.00  0.00    -0.354 N 
ATOM     21  C   UNL A   1      44.272  30.593  28.309  1.00  0.00     0.074 A 
ATOM     22  C   UNL A   1      43.763  30.275  26.998  1.00  0.00     0.031 C 
ATOM     23  C   UNL A   1      38.719  29.080  31.368  1.00  0.00     0.029 A 
ATOM     24  C   UNL A   1      39.141  30.445  31.132  1.00  0.00     0.049 A 
ATOM     25  H   UNL A   1      41.041  31.049  30.452  1.00  0.00     0.167 HD
ATOM     26  C   UNL A   1      44.789  31.769  28.737  1.00  0.00     0.034 A 
ATOM     27  C   UNL A   1      38.536  31.534  31.666  1.00  0.00     0.034 A 
ATOM     28  C   UNL A   1      44.926  31.881  30.159  1.00  0.00     0.049 A 
ATOM     29  C   UNL A   1      39.625  32.426  32.090  1.00  0.00     0.074 A 
ATOM     30  C   UNL A   1      45.920  31.766  31.100  1.00  0.00     0.029 A 
ATOM     31  N   UNL A   1      43.744  32.009  30.840  1.00  0.00    -0.354 N 
ATOM     32  N   UNL A   1      40.387  32.155  33.112  1.00  0.00    -0.248 NA
ATOM     33  C   UNL A   1      40.121  33.432  31.163  1.00  0.00     0.031 C 
ATOM     34  C   UNL A   1      45.298  31.881  32.378  1.00  0.00     0.029 A 
ATOM     35  C   UNL A   1      43.931  32.034  32.197  1.00  0.00     0.049 A 
ATOM     36  H   UNL A   1      42.864  32.075  30.405  1.00  0.00     0.167 HD
ATOM     37  C   UNL A   1      41.621  32.616  32.713  1.00  0.00     0.074 A 
ATOM     38  C   UNL A   1      41.381  33.520  31.595  1.00  0.00     0.031 C 
ATOM     39  C   UNL A   1      42.771  31.983  33.061  1.00  0.00     0.034 A 
BRANCH  26  40
ATOM     40  C   UNL A   1      44.687  32.997  27.895  1.00  0.00     0.023 A 
ATOM     41  C   UNL A   1      45.759  33.298  27.048  1.00  0.00     0.012 A 
ATOM     42  C   UNL A   1      43.691  33.983  28.100  1.00  0.00     0.148 A 
ATOM     43  C   UNL A   1      45.830  34.536  26.409  1.00  0.00     0.002 A 
ATOM     44  C   UNL A   1      43.721  35.175  27.399  1.00  0.00     0.091 A 
ATOM     45  F   UNL A   1      42.784  33.816  29.072  1.00  0.00    -0.205 F 
ATOM     46  C   UNL A   1      44.802  35.464  26.565  1.00  0.00     0.022 A 
BRANCH  44  47
ATOM     47  S   UNL A   1      42.405  36.386  27.543  1.00  0.00     0.127 S 
ATOM     48  O   UNL A   1      42.815  37.382  26.558  1.00  0.00    -0.237 OA
ATOM     49  O   UNL A   1      41.229  35.595  27.179  1.00  0.00    -0.237 OA
ATOM     50  O   UNL A   1      42.425  36.816  28.936  1.00  0.00    -0.744 OA
ENDBRANCH  44  47
ENDBRANCH  26  40
BRANCH  27  51
ATOM     51  C   UNL A   1      37.103  31.905  31.782  1.00  0.00     0.023 A 
ATOM     52  C   UNL A   1      36.563  32.129  33.068  1.00  0.00     0.012 A 
ATOM     53  C   UNL A   1      36.365  32.361  30.669  1.00  0.00     0.148 A 
ATOM     54  C   UNL A   1      35.404  32.892  33.247  1.00  0.00     0.002 A 
ATOM     55  C   UNL A   1      35.214  33.126  30.853  1.00  0.00     0.091 A 
ATOM     56  F   UNL A   1      36.829  32.123  29.436  1.00  0.00    -0.205 F 
ATOM     57  C   UNL A   1      34.746  33.416  32.141  1.00  0.00     0.022 A 
BRANCH  55  58
ATOM     58  S   UNL A   1      34.335  33.861  29.467  1.00  0.00     0.127 S 
ATOM     59  O   UNL A   1      33.950  32.685  28.684  1.00  0.00    -0.237 OA
ATOM     60  O   UNL A   1      33.228  34.539  30.136  1.00  0.00    -0.237 OA
ATOM     61  O   UNL A   1      35.302  34.726  28.803  1.00  0.00    -0.744 OA
ENDBRANCH  55  58
ENDBRANCH  27  51
BRANCH  39  62
ATOM     62  C   UNL A   1      42.777  31.061  34.248  1.00  0.00     0.023 A 
ATOM     63  C   UNL A   1      42.882  31.519  35.579  1.00  0.00     0.012 A 
ATOM     64  C   UNL A   1      42.496  29.705  34.020  1.00  0.00     0.148 A 
ATOM     65  C   UNL A   1      42.646  30.650  36.654  1.00  0.00     0.002 A 
ATOM     66  C   UNL A   1      42.228  28.855  35.085  1.00  0.00     0.091 A 
ATOM     67  F   UNL A   1      42.463  29.274  32.750  1.00  0.00    -0.205 F 
ATOM     68  C   UNL A   1      42.292  29.325  36.406  1.00  0.00     0.022 A 
BRANCH  66  69
ATOM     69  S   UNL A   1      41.679  27.169  34.810  1.00  0.00     0.127 S 
ATOM     70  O   UNL A   1      42.848  26.566  34.175  1.00  0.00    -0.237 OA
ATOM     71  O   UNL A   1      41.407  26.699  36.169  1.00  0.00    -0.237 OA
ATOM     72  O   UNL A   1      40.491  27.270  33.970  1.00  0.00    -0.744 OA
ENDBRANCH  66  69
ENDBRANCH  39  62
ENDBRANCH  13  14
ENDBRANCH   6   8
ENDBRANCH   5   6
ENDBRANCH   4   5
ENDBRANCH   3   4
ENDBRANCH   2   3
ENDBRANCH   1   2
BRANCH   1  73
ATOM     73  C   UNL A   1      40.489  19.882  26.365  1.00  0.00     0.188 C 
BRANCH  73  74
ATOM     74  O   UNL A   1      39.597  19.133  25.566  1.00  0.00    -0.376 OA
BRANCH  74  75
ATOM     75  C   UNL A   1      38.512  19.857  25.017  1.00  0.00     0.202 C 
BRANCH  75  76
ATOM     76  C   UNL A   1      38.396  21.379  25.203  1.00  0.00     0.261 C 
BRANCH  76  77
ATOM     77  O   UNL A   1      37.477  22.227  24.483  1.00  0.00    -0.460 OA
BRANCH  77  78
ATOM     78  C   UNL A   1      36.513  22.826  25.218  1.00  0.00     0.338 C 
ATOM     79  O   UNL A   1      36.661  23.302  26.347  1.00  0.00    -0.246 OA
BRANCH  78  80
ATOM     80  C   UNL A   1      35.195  22.843  24.521  1.00  0.00     0.068 A 
ATOM     81  C   UNL A   1      34.752  24.095  24.020  1.00  0.00     0.030 A 
ATOM     82  C   UNL A   1      34.391  21.621  24.485  1.00  0.00    -0.002 A 
ATOM     83  C   UNL A   1      33.445  24.027  23.532  1.00  0.00     0.056 A 
ATOM     84  C   UNL A   1      33.045  21.621  23.986  1.00  0.00     0.012 A 
ATOM     85  C   UNL A   1      34.858  20.363  24.898  1.00  0.00     0.010 A 
ATOM     86  C   UNL A   1      32.693  25.056  23.031  1.00  0.00     0.248 A 
ATOM     87  C   UNL A   1      32.586  22.869  23.502  1.00  0.00     0.122 A 
ATOM     88  C   UNL A   1      32.213  20.483  23.978  1.00  0.00     0.011 A 
ATOM     89  C   UNL A   1      34.032  19.230  24.882  1.00  0.00     0.001 A 
ATOM     90  O   UNL A   1      31.466  24.567  22.699  1.00  0.00    -0.350 OA
ATOM     91  N   UNL A   1      31.396  23.222  22.981  1.00  0.00    -0.079 NA
ATOM     92  C   UNL A   1      32.714  19.286  24.450  1.00  0.00     0.001 A 
BRANCH  86  93
ATOM     93  C   UNL A   1      32.866  26.494  22.818  1.00  0.00     0.453 C 
ATOM     94  F   UNL A   1      31.856  27.039  22.093  1.00  0.00    -0.163 F 
ATOM     95  F   UNL A   1      32.906  27.171  23.996  1.00  0.00    -0.163 F 
ATOM     96  F   UNL A   1      34.020  26.788  22.167  1.00  0.00    -0.163 F 
ENDBRANCH  86  93
ENDBRANCH  78  80
ENDBRANCH  77  78
ENDBRANCH  76  77
ENDBRANCH  75  76
ENDBRANCH  74  75
ENDBRANCH  73  74
ENDBRANCH   1  73
TORSDOF 21
ENDMDL
MODEL 3
REMARK VINA RESULT:     -11.3      2.735      3.622
REMARK SMILES O=C(OCCOCCOCCOC(=O)c1cc2c(C(F)(F)F)onc2c2ccccc12)c1ccc(-c2c3nc(c(-c4cccc(S(=O)(=O)[O-])c4F)c4ccc([nH]4)c(-c4cccc(S(=O)(=O)[O-])c4F)c4nc(c(-c5cccc(S(=O)(=O)[O-])c5F)c5ccc2[nH]5)C=C4)C=C3)cc1
REMARK SMILES IDX 7 1 6 2 5 3 4 4 3 5 2 6 1 7 32 8 33 9 94 10 34 11 93 12
REMARK SMILES IDX 35 13 36 14 37 15 87 16 38 17 92 18 86 19 88 20 39 21 91 22
REMARK SMILES IDX 85 23 84 24 40 26 72 27 52 28 71 29 53 30 56 31 70 32 89 33
REMARK SMILES IDX 54 34 55 35 69 37 90 38 57 39 41 40 42 41 50 42 43 43 45 44
REMARK SMILES IDX 51 45 44 46 46 47 47 48 48 49 49 50 73 51 74 52 82 53 75 54
REMARK SMILES IDX 77 55 83 56 76 57 78 58 79 59 80 60 81 61 58 62 59 63 67 64
REMARK SMILES IDX 60 65 62 66 68 67 61 68 63 69 64 70 65 71 66 72 8 73 9 74
REMARK SMILES IDX 10 75 11 76 12 77 13 78 14 79 15 80 16 81 31 82 17 83 26 84
REMARK SMILES IDX 30 85 18 86 25 87 27 88 29 89 23 90 24 91 28 92 19 93 20 94
REMARK SMILES IDX 21 95 22 96
REMARK H PARENT 88 25 56 36
REMARK Flexibility Score: inf
ROOT
ATOM      1  C   UNL A   1      33.645  28.597  25.968  1.00  0.00     0.188 C 
ENDROOT
BRANCH   1   2
ATOM      2  O   UNL A   1      33.219  29.215  27.170  1.00  0.00    -0.376 OA
BRANCH   2   3
ATOM      3  C   UNL A   1      33.075  30.625  27.128  1.00  0.00     0.202 C 
BRANCH   3   4
ATOM      4  C   UNL A   1      34.215  31.452  27.754  1.00  0.00     0.261 C 
BRANCH   4   5
ATOM      5  O   UNL A   1      35.218  30.801  28.592  1.00  0.00    -0.460 OA
BRANCH   5   6
ATOM      6  C   UNL A   1      36.252  31.321  29.308  1.00  0.00     0.338 C 
ATOM      7  O   UNL A   1      36.143  32.403  29.876  1.00  0.00    -0.246 OA
BRANCH   6   8
ATOM      8  C   UNL A   1      37.558  30.635  29.251  1.00  0.00     0.060 A 
ATOM      9  C   UNL A   1      37.585  29.245  29.100  1.00  0.00     0.016 A 
ATOM     10  C   UNL A   1      38.727  31.321  29.552  1.00  0.00     0.016 A 
ATOM     11  C   UNL A   1      38.726  28.545  29.490  1.00  0.00     0.010 A 
ATOM     12  C   UNL A   1      39.795  30.612  30.089  1.00  0.00     0.010 A 
ATOM     13  C   UNL A   1      39.787  29.209  30.118  1.00  0.00    -0.014 A 
BRANCH  13  14
ATOM     14  C   UNL A   1      41.091  28.545  30.311  1.00  0.00     0.031 A 
ATOM     15  C   UNL A   1      41.456  28.665  31.732  1.00  0.00     0.074 A 
ATOM     16  C   UNL A   1      41.878  27.848  29.455  1.00  0.00     0.049 A 
ATOM     17  N   UNL A   1      42.402  29.439  32.155  1.00  0.00    -0.248 NA
ATOM     18  C   UNL A   1      40.567  28.145  32.785  1.00  0.00     0.031 C 
ATOM     19  C   UNL A   1      41.772  27.752  28.015  1.00  0.00     0.029 A 
ATOM     20  N   UNL A   1      42.930  26.994  29.662  1.00  0.00    -0.354 N 
ATOM     21  C   UNL A   1      42.412  29.216  33.513  1.00  0.00     0.074 A 
ATOM     22  C   UNL A   1      41.120  28.685  33.871  1.00  0.00     0.031 C 
ATOM     23  C   UNL A   1      42.353  26.638  27.527  1.00  0.00     0.029 A 
ATOM     24  C   UNL A   1      43.141  26.092  28.612  1.00  0.00     0.049 A 
ATOM     25  H   UNL A   1      43.486  27.015  30.474  1.00  0.00     0.167 HD
ATOM     26  C   UNL A   1      43.594  29.020  34.144  1.00  0.00     0.034 A 
ATOM     27  C   UNL A   1      44.071  25.117  28.464  1.00  0.00     0.034 A 
ATOM     28  C   UNL A   1      44.747  29.417  33.391  1.00  0.00     0.049 A 
ATOM     29  C   UNL A   1      45.212  25.526  29.295  1.00  0.00     0.074 A 
ATOM     30  C   UNL A   1      45.613  30.481  33.336  1.00  0.00     0.029 A 
ATOM     31  N   UNL A   1      45.039  28.608  32.324  1.00  0.00    -0.354 N 
ATOM     32  N   UNL A   1      45.983  26.527  28.972  1.00  0.00    -0.248 NA
ATOM     33  C   UNL A   1      45.283  25.075  30.677  1.00  0.00     0.031 C 
ATOM     34  C   UNL A   1      46.475  30.260  32.222  1.00  0.00     0.029 A 
ATOM     35  C   UNL A   1      46.102  29.078  31.598  1.00  0.00     0.049 A 
ATOM     36  H   UNL A   1      44.544  27.787  32.105  1.00  0.00     0.167 HD
ATOM     37  C   UNL A   1      46.282  27.096  30.190  1.00  0.00     0.074 A 
ATOM     38  C   UNL A   1      45.967  26.095  31.201  1.00  0.00     0.031 C 
ATOM     39  C   UNL A   1      46.423  28.439  30.340  1.00  0.00     0.034 A 
BRANCH  26  40
ATOM     40  C   UNL A   1      43.720  28.001  35.227  1.00  0.00     0.023 A 
ATOM     41  C   UNL A   1      44.035  28.453  36.513  1.00  0.00     0.012 A 
ATOM     42  C   UNL A   1      43.788  26.612  34.965  1.00  0.00     0.148 A 
ATOM     43  C   UNL A   1      44.388  27.548  37.515  1.00  0.00     0.002 A 
ATOM     44  C   UNL A   1      44.055  25.712  35.980  1.00  0.00     0.091 A 
ATOM     45  F   UNL A   1      43.718  26.172  33.701  1.00  0.00    -0.205 F 
ATOM     46  C   UNL A   1      44.376  26.179  37.256  1.00  0.00     0.022 A 
BRANCH  44  47
ATOM     47  S   UNL A   1      44.019  23.940  35.703  1.00  0.00     0.127 S 
ATOM     48  O   UNL A   1      42.610  23.722  35.388  1.00  0.00    -0.237 OA
ATOM     49  O   UNL A   1      44.940  23.795  34.575  1.00  0.00    -0.237 OA
ATOM     50  O   UNL A   1      44.499  23.343  36.944  1.00  0.00    -0.744 OA
ENDBRANCH  44  47
ENDBRANCH  26  40
BRANCH  27  51
ATOM     51  C   UNL A   1      44.038  23.830  27.723  1.00  0.00     0.023 A 
ATOM     52  C   UNL A   1      42.993  22.919  27.991  1.00  0.00     0.012 A 
ATOM     53  C   UNL A   1      44.799  23.632  26.551  1.00  0.00     0.148 A 
ATOM     54  C   UNL A   1      42.633  21.933  27.067  1.00  0.00     0.002 A 
ATOM     55  C   UNL A   1      44.432  22.652  25.630  1.00  0.00     0.091 A 
ATOM     56  F   UNL A   1      45.826  24.452  26.294  1.00  0.00    -0.205 F 
ATOM     57  C   UNL A   1      43.333  21.820  25.872  1.00  0.00     0.022 A 
BRANCH  55  58
ATOM     58  S   UNL A   1      45.276  22.474  24.052  1.00  0.00     0.127 S 
ATOM     59  O   UNL A   1      46.100  21.284  24.272  1.00  0.00    -0.237 OA
ATOM     60  O   UNL A   1      44.158  22.282  23.132  1.00  0.00    -0.237 OA
ATOM     61  O   UNL A   1      46.041  23.702  23.875  1.00  0.00    -0.744 OA
ENDBRANCH  55  58
ENDBRANCH  27  51
BRANCH  39  62
ATOM     62  C   UNL A   1      46.720  29.289  29.137  1.00  0.00     0.023 A 
ATOM     63  C   UNL A   1      47.931  29.210  28.417  1.00  0.00     0.012 A 
ATOM     64  C   UNL A   1      45.676  30.069  28.617  1.00  0.00     0.148 A 
ATOM     65  C   UNL A   1      48.067  29.845  27.175  1.00  0.00     0.002 A 
ATOM     66  C   UNL A   1      45.799  30.669  27.370  1.00  0.00     0.091 A 
ATOM     67  F   UNL A   1      44.555  30.185  29.345  1.00  0.00    -0.205 F 
ATOM     68  C   UNL A   1      46.991  30.551  26.639  1.00  0.00     0.022 A 
BRANCH  66  69
ATOM     69  S   UNL A   1      44.412  31.507  26.602  1.00  0.00     0.127 S 
ATOM     70  O   UNL A   1      45.012  32.032  25.377  1.00  0.00    -0.237 OA
ATOM     71  O   UNL A   1      43.456  30.418  26.401  1.00  0.00    -0.237 OA
ATOM     72  O   UNL A   1      43.972  32.510  27.565  1.00  0.00    -0.744 OA
ENDBRANCH  66  69
ENDBRANCH  39  62
ENDBRANCH  13  14
ENDBRANCH   6   8
ENDBRANCH   5   6
ENDBRANCH   4   5
ENDBRANCH   3   4
ENDBRANCH   2   3
ENDBRANCH   1   2
BRANCH   1  73
ATOM     73  C   UNL A   1      32.534  28.193  24.992  1.00  0.00     0.188 C 
BRANCH  73  74
ATOM     74  O   UNL A   1      31.305  27.762  25.538  1.00  0.00    -0.376 OA
BRANCH  74  75
ATOM     75  C   UNL A   1      31.337  26.517  26.210  1.00  0.00     0.202 C 
BRANCH  75  76
ATOM     76  C   UNL A   1      31.710  25.223  25.469  1.00  0.00     0.261 C 
BRANCH  76  77
ATOM     77  O   UNL A   1      32.847  24.392  25.787  1.00  0.00    -0.460 OA
BRANCH  77  78
ATOM     78  C   UNL A   1      33.921  24.510  24.973  1.00  0.00     0.338 C 
ATOM     79  O   UNL A   1      34.010  25.273  24.007  1.00  0.00    -0.246 OA
BRANCH  78  80
ATOM     80  C   UNL A   1      35.026  23.584  25.353  1.00  0.00     0.068 A 
ATOM     81  C   UNL A   1      36.217  24.178  25.847  1.00  0.00     0.030 A 
ATOM     82  C   UNL A   1      34.874  22.151  25.101  1.00  0.00    -0.002 A 
ATOM     83  C   UNL A   1      37.236  23.237  26.018  1.00  0.00     0.056 A 
ATOM     84  C   UNL A   1      35.966  21.237  25.280  1.00  0.00     0.012 A 
ATOM     85  C   UNL A   1      33.671  21.549  24.698  1.00  0.00     0.010 A 
ATOM     86  C   UNL A   1      38.522  23.472  26.422  1.00  0.00     0.248 A 
ATOM     87  C   UNL A   1      37.165  21.821  25.753  1.00  0.00     0.122 A 
ATOM     88  C   UNL A   1      35.886  19.857  25.002  1.00  0.00     0.011 A 
ATOM     89  C   UNL A   1      33.591  20.176  24.429  1.00  0.00     0.001 A 
ATOM     90  O   UNL A   1      39.193  22.288  26.424  1.00  0.00    -0.350 OA
ATOM     91  N   UNL A   1      38.363  21.268  26.019  1.00  0.00    -0.079 NA
ATOM     92  C   UNL A   1      34.689  19.335  24.555  1.00  0.00     0.001 A 
BRANCH  86  93
ATOM     93  C   UNL A   1      39.324  24.640  26.791  1.00  0.00     0.453 C 
ATOM     94  F   UNL A   1      40.290  24.345  27.698  1.00  0.00    -0.163 F 
ATOM     95  F   UNL A   1      39.957  25.172  25.712  1.00  0.00    -0.163 F 
ATOM     96  F   UNL A   1      38.575  25.637  27.326  1.00  0.00    -0.163 F 
ENDBRANCH  86  93
ENDBRANCH  78  80
ENDBRANCH  77  78
ENDBRANCH  76  77
ENDBRANCH  75  76
ENDBRANCH  74  75
ENDBRANCH  73  74
ENDBRANCH   1  73
TORSDOF 21
ENDMDL
