MODEL 1
REMARK VINA RESULT:      -9.7      0.000      0.000
REMARK SMILES COc1cc2c(cc1OC)[C@@H](CC(=O)OCCOCCOCCOC(=O)c1ccc(-c3c4nc(c(-c5cccc(S(=O)(=O)[O-])c5F)c5ccc([nH]5)c(-c5cccc(S(=O)(=O)[O-])c5F)c5nc(c(-c6cccc(S(=O)(=O)[O-])c6F)c6ccc3[nH]6)C=C5)C=C4)cc1)N(C(=O)Nc1ccc(Cl)cc1)CC2
REMARK SMILES IDX 19 1 18 2 17 3 16 4 15 5 13 6 14 7 12 8 11 9 3 10 4 11 8 12
REMARK SMILES IDX 5 13 7 14 6 15 102 16 101 17 90 18 2 19 1 20 9 21 10 22
REMARK SMILES IDX 91 23 92 24 93 25 94 27 95 28 100 29 96 30 99 31 97 32 98 33
REMARK SMILES IDX 20 34 21 35 22 36 23 37 24 38 25 39 26 40 27 41 28 42 89 43
REMARK SMILES IDX 29 44 88 45 30 46 31 47 32 48 82 49 33 50 87 51 81 52 83 53
REMARK SMILES IDX 34 54 86 55 80 56 79 57 35 59 67 60 47 61 66 62 48 63 51 64
REMARK SMILES IDX 65 65 84 66 49 67 50 68 64 70 85 71 52 72 36 73 37 74 45 75
REMARK SMILES IDX 38 76 40 77 46 78 39 79 41 80 42 81 43 82 44 83 68 84 69 85
REMARK SMILES IDX 77 86 70 87 72 88 78 89 71 90 73 91 74 92 75 93 76 94 53 95
REMARK SMILES IDX 54 96 62 97 55 98 57 99 63 100 56 101 58 102 59 103 60 104
REMARK SMILES IDX 61 105
REMARK H PARENT 93 26 83 58 51 69
REMARK Flexibility Score: inf
ROOT
ATOM      1  C   UNL A   1      34.932  34.520  28.606  1.00  0.00     0.188 C 
ENDROOT
BRANCH   1   2
ATOM      2  O   UNL A   1      34.932  33.562  27.566  1.00  0.00    -0.376 OA
BRANCH   2   3
ATOM      3  C   UNL A   1      35.147  32.198  27.914  1.00  0.00     0.202 C 
BRANCH   3   4
ATOM      4  C   UNL A   1      33.969  31.212  27.921  1.00  0.00     0.261 C 
BRANCH   4   5
ATOM      5  O   UNL A   1      33.698  30.617  26.632  1.00  0.00    -0.463 OA
BRANCH   5   6
ATOM      6  C   UNL A   1      33.415  29.293  26.655  1.00  0.00     0.308 C 
ATOM      7  O   UNL A   1      34.179  28.444  27.110  1.00  0.00    -0.252 OA
BRANCH   6   8
ATOM      8  C   UNL A   1      32.027  28.885  26.186  1.00  0.00     0.152 C 
BRANCH   8   9
ATOM      9  C   UNL A   1      31.648  28.239  24.830  1.00  0.00     0.128 C 
ATOM     10  C   UNL A   1      28.733  30.593  22.520  1.00  0.00     0.161 A 
ATOM     11  C   UNL A   1      29.133  29.321  22.119  1.00  0.00     0.054 A 
ATOM     12  C   UNL A   1      29.325  31.178  23.648  1.00  0.00     0.161 A 
ATOM     13  C   UNL A   1      30.087  28.608  22.851  1.00  0.00    -0.037 A 
ATOM     14  C   UNL A   1      30.260  30.431  24.396  1.00  0.00     0.056 A 
ATOM     15  C   UNL A   1      30.630  29.122  24.039  1.00  0.00    -0.018 A 
ATOM     16  C   UNL A   1      30.578  27.287  22.374  1.00  0.00     0.057 C 
ATOM     17  C   UNL A   1      30.634  26.319  23.541  1.00  0.00     0.127 C 
ATOM     18  N   UNL A   1      31.264  26.795  24.776  1.00  0.00    -0.317 N 
BRANCH  10  19
ATOM     19  O   UNL A   1      27.700  31.103  21.777  1.00  0.00    -0.493 OA
ATOM     20  C   UNL A   1      27.921  31.179  20.376  1.00  0.00     0.278 C 
ENDBRANCH  10  19
BRANCH  12  21
ATOM     21  O   UNL A   1      28.916  32.436  24.004  1.00  0.00    -0.493 OA
ATOM     22  C   UNL A   1      29.151  33.491  23.077  1.00  0.00     0.278 C 
ENDBRANCH  12  21
BRANCH  18  23
ATOM     23  C   UNL A   1      31.515  25.957  25.841  1.00  0.00     0.322 C 
ATOM     24  O   UNL A   1      30.624  25.528  26.575  1.00  0.00    -0.248 OA
ATOM     25  N   UNL A   1      32.801  25.654  26.217  1.00  0.00    -0.308 N 
ATOM     26  H   UNL A   1      33.057  25.859  27.145  1.00  0.00     0.171 HD
BRANCH  25  27
ATOM     27  C   UNL A   1      33.780  25.079  25.396  1.00  0.00     0.042 A 
ATOM     28  C   UNL A   1      34.981  24.671  25.972  1.00  0.00     0.028 A 
ATOM     29  C   UNL A   1      33.549  24.903  24.029  1.00  0.00     0.028 A 
ATOM     30  C   UNL A   1      35.894  23.945  25.210  1.00  0.00     0.022 A 
ATOM     31  C   UNL A   1      34.444  24.138  23.279  1.00  0.00     0.022 A 
ATOM     32  C   UNL A   1      35.600  23.644  23.880  1.00  0.00     0.041 A 
ATOM     33  Cl  UNL A   1      36.660  22.624  22.988  1.00  0.00    -0.084 Cl
ENDBRANCH  25  27
ENDBRANCH  18  23
ENDBRANCH   8   9
ENDBRANCH   6   8
ENDBRANCH   5   6
ENDBRANCH   4   5
ENDBRANCH   3   4
ENDBRANCH   2   3
ENDBRANCH   1   2
BRANCH   1  34
ATOM     34  C   UNL A   1      33.633  34.728  29.390  1.00  0.00     0.188 C 
BRANCH  34  35
ATOM     35  O   UNL A   1      33.519  34.314  30.730  1.00  0.00    -0.376 OA
BRANCH  35  36
ATOM     36  C   UNL A   1      34.665  34.176  31.552  1.00  0.00     0.202 C 
BRANCH  36  37
ATOM     37  C   UNL A   1      35.239  32.851  32.098  1.00  0.00     0.261 C 
BRANCH  37  38
ATOM     38  O   UNL A   1      36.202  32.151  31.312  1.00  0.00    -0.460 OA
BRANCH  38  39
ATOM     39  C   UNL A   1      36.738  31.034  31.879  1.00  0.00     0.338 C 
ATOM     40  O   UNL A   1      36.160  30.196  32.533  1.00  0.00    -0.246 OA
BRANCH  39  41
ATOM     41  C   UNL A   1      38.104  30.880  31.319  1.00  0.00     0.060 A 
ATOM     42  C   UNL A   1      38.263  30.896  29.923  1.00  0.00     0.016 A 
ATOM     43  C   UNL A   1      39.215  30.806  32.156  1.00  0.00     0.016 A 
ATOM     44  C   UNL A   1      39.540  30.866  29.363  1.00  0.00     0.010 A 
ATOM     45  C   UNL A   1      40.491  30.734  31.591  1.00  0.00     0.010 A 
ATOM     46  C   UNL A   1      40.661  30.759  30.194  1.00  0.00    -0.014 A 
BRANCH  46  47
ATOM     47  C   UNL A   1      42.008  30.533  29.620  1.00  0.00     0.031 A 
ATOM     48  C   UNL A   1      42.436  29.123  29.326  1.00  0.00     0.074 A 
ATOM     49  C   UNL A   1      42.861  31.554  29.419  1.00  0.00     0.049 A 
ATOM     50  N   UNL A   1      43.604  28.674  28.957  1.00  0.00    -0.248 NA
ATOM     51  C   UNL A   1      41.405  28.083  29.477  1.00  0.00     0.031 C 
ATOM     52  C   UNL A   1      42.563  32.966  29.648  1.00  0.00     0.029 A 
ATOM     53  N   UNL A   1      44.177  31.546  29.019  1.00  0.00    -0.354 N 
ATOM     54  C   UNL A   1      43.466  27.295  28.871  1.00  0.00     0.074 A 
ATOM     55  C   UNL A   1      42.097  26.982  29.219  1.00  0.00     0.031 C 
ATOM     56  C   UNL A   1      43.678  33.686  29.432  1.00  0.00     0.029 A 
ATOM     57  C   UNL A   1      44.776  32.783  29.091  1.00  0.00     0.049 A 
ATOM     58  H   UNL A   1      44.643  30.736  28.711  1.00  0.00     0.167 HD
ATOM     59  C   UNL A   1      44.395  26.371  28.532  1.00  0.00     0.034 A 
ATOM     60  C   UNL A   1      46.070  33.135  28.945  1.00  0.00     0.034 A 
ATOM     61  C   UNL A   1      45.753  26.681  28.179  1.00  0.00     0.049 A 
ATOM     62  C   UNL A   1      47.097  32.079  28.619  1.00  0.00     0.074 A 
ATOM     63  C   UNL A   1      46.749  25.815  27.764  1.00  0.00     0.029 A 
ATOM     64  N   UNL A   1      46.316  27.946  28.225  1.00  0.00    -0.354 N 
ATOM     65  N   UNL A   1      46.928  30.794  28.417  1.00  0.00    -0.248 NA
ATOM     66  C   UNL A   1      48.493  32.525  28.481  1.00  0.00     0.031 C 
ATOM     67  C   UNL A   1      47.927  26.551  27.601  1.00  0.00     0.029 A 
ATOM     68  C   UNL A   1      47.653  27.881  27.874  1.00  0.00     0.049 A 
ATOM     69  H   UNL A   1      45.835  28.769  28.470  1.00  0.00     0.167 HD
ATOM     70  C   UNL A   1      48.186  30.287  28.102  1.00  0.00     0.074 A 
ATOM     71  C   UNL A   1      49.103  31.407  28.114  1.00  0.00     0.031 C 
ATOM     72  C   UNL A   1      48.551  29.007  27.842  1.00  0.00     0.034 A 
BRANCH  59  73
ATOM     73  C   UNL A   1      43.974  24.927  28.526  1.00  0.00     0.023 A 
ATOM     74  C   UNL A   1      44.060  24.165  29.708  1.00  0.00     0.012 A 
ATOM     75  C   UNL A   1      43.431  24.345  27.364  1.00  0.00     0.148 A 
ATOM     76  C   UNL A   1      43.635  22.837  29.727  1.00  0.00     0.002 A 
ATOM     77  C   UNL A   1      42.968  23.036  27.402  1.00  0.00     0.091 A 
ATOM     78  F   UNL A   1      43.381  25.081  26.244  1.00  0.00    -0.205 F 
ATOM     79  C   UNL A   1      43.079  22.278  28.579  1.00  0.00     0.022 A 
BRANCH  77  80
ATOM     80  S   UNL A   1      42.165  22.251  26.001  1.00  0.00     0.127 S 
ATOM     81  O   UNL A   1      42.334  20.834  26.323  1.00  0.00    -0.237 OA
ATOM     82  O   UNL A   1      40.793  22.743  26.121  1.00  0.00    -0.237 OA
ATOM     83  O   UNL A   1      42.877  22.710  24.818  1.00  0.00    -0.744 OA
ENDBRANCH  77  80
ENDBRANCH  59  73
BRANCH  60  84
ATOM     84  C   UNL A   1      46.483  34.558  29.116  1.00  0.00     0.023 A 
ATOM     85  C   UNL A   1      46.986  34.994  30.357  1.00  0.00     0.012 A 
ATOM     86  C   UNL A   1      46.370  35.482  28.058  1.00  0.00     0.148 A 
ATOM     87  C   UNL A   1      47.337  36.330  30.552  1.00  0.00     0.002 A 
ATOM     88  C   UNL A   1      46.776  36.799  28.241  1.00  0.00     0.091 A 
ATOM     89  F   UNL A   1      45.870  35.053  26.890  1.00  0.00    -0.205 F 
ATOM     90  C   UNL A   1      47.243  37.229  29.493  1.00  0.00     0.022 A 
BRANCH  88  91
ATOM     91  S   UNL A   1      46.801  37.997  26.905  1.00  0.00     0.127 S 
ATOM     92  O   UNL A   1      47.580  37.296  25.888  1.00  0.00    -0.237 OA
ATOM     93  O   UNL A   1      45.376  38.138  26.602  1.00  0.00    -0.237 OA
ATOM     94  O   UNL A   1      47.419  39.194  27.460  1.00  0.00    -0.744 OA
ENDBRANCH  88  91
ENDBRANCH  60  84
BRANCH  72  95
ATOM     95  C   UNL A   1      50.000  28.734  27.517  1.00  0.00     0.023 A 
ATOM     96  C   UNL A   1      50.468  28.901  26.199  1.00  0.00     0.012 A 
ATOM     97  C   UNL A   1      50.914  28.401  28.537  1.00  0.00     0.148 A 
ATOM     98  C   UNL A   1      51.816  28.710  25.894  1.00  0.00     0.002 A 
ATOM     99  C   UNL A   1      52.265  28.262  28.236  1.00  0.00     0.091 A 
ATOM    100  F   UNL A   1      50.449  28.235  29.783  1.00  0.00    -0.205 F 
ATOM    101  C   UNL A   1      52.715  28.405  26.913  1.00  0.00     0.022 A 
BRANCH  99 102
ATOM    102  S   UNL A   1      53.512  27.963  29.494  1.00  0.00     0.127 S 
ATOM    103  O   UNL A   1      53.146  26.627  29.963  1.00  0.00    -0.237 OA
ATOM    104  O   UNL A   1      54.752  28.017  28.718  1.00  0.00    -0.237 OA
ATOM    105  O   UNL A   1      53.362  29.028  30.475  1.00  0.00    -0.744 OA
ENDBRANCH  99 102
ENDBRANCH  72  95
ENDBRANCH  46  47
ENDBRANCH  39  41
ENDBRANCH  38  39
ENDBRANCH  37  38
ENDBRANCH  36  37
ENDBRANCH  35  36
ENDBRANCH  34  35
ENDBRANCH   1  34
TORSDOF 25
ENDMDL
MODEL 2
REMARK VINA RESULT:      -9.5      6.009     11.313
REMARK SMILES COc1cc2c(cc1OC)[C@@H](CC(=O)OCCOCCOCCOC(=O)c1ccc(-c3c4nc(c(-c5cccc(S(=O)(=O)[O-])c5F)c5ccc([nH]5)c(-c5cccc(S(=O)(=O)[O-])c5F)c5nc(c(-c6cccc(S(=O)(=O)[O-])c6F)c6ccc3[nH]6)C=C5)C=C4)cc1)N(C(=O)Nc1ccc(Cl)cc1)CC2
REMARK SMILES IDX 19 1 18 2 17 3 16 4 15 5 13 6 14 7 12 8 11 9 3 10 4 11 8 12
REMARK SMILES IDX 5 13 7 14 6 15 102 16 101 17 90 18 2 19 1 20 9 21 10 22
REMARK SMILES IDX 91 23 92 24 93 25 94 27 95 28 100 29 96 30 99 31 97 32 98 33
REMARK SMILES IDX 20 34 21 35 22 36 23 37 24 38 25 39 26 40 27 41 28 42 89 43
REMARK SMILES IDX 29 44 88 45 30 46 31 47 32 48 82 49 33 50 87 51 81 52 83 53
REMARK SMILES IDX 34 54 86 55 80 56 79 57 35 59 67 60 47 61 66 62 48 63 51 64
REMARK SMILES IDX 65 65 84 66 49 67 50 68 64 70 85 71 52 72 36 73 37 74 45 75
REMARK SMILES IDX 38 76 40 77 46 78 39 79 41 80 42 81 43 82 44 83 68 84 69 85
REMARK SMILES IDX 77 86 70 87 72 88 78 89 71 90 73 91 74 92 75 93 76 94 53 95
REMARK SMILES IDX 54 96 62 97 55 98 57 99 63 100 56 101 58 102 59 103 60 104
REMARK SMILES IDX 61 105
REMARK H PARENT 93 26 83 58 51 69
REMARK Flexibility Score: inf
ROOT
ATOM      1  C   UNL A   1      39.659  21.550  26.411  1.00  0.00     0.188 C 
ENDROOT
BRANCH   1   2
ATOM      2  O   UNL A   1      38.487  22.300  26.166  1.00  0.00    -0.376 OA
BRANCH   2   3
ATOM      3  C   UNL A   1      37.603  21.846  25.145  1.00  0.00     0.202 C 
BRANCH   3   4
ATOM      4  C   UNL A   1      36.151  21.485  25.491  1.00  0.00     0.261 C 
BRANCH   4   5
ATOM      5  O   UNL A   1      35.416  22.558  26.121  1.00  0.00    -0.463 OA
BRANCH   5   6
ATOM      6  C   UNL A   1      34.345  22.173  26.854  1.00  0.00     0.308 C 
ATOM      7  O   UNL A   1      34.436  21.638  27.958  1.00  0.00    -0.252 OA
BRANCH   6   8
ATOM      8  C   UNL A   1      32.975  22.538  26.303  1.00  0.00     0.152 C 
BRANCH   8   9
ATOM      9  C   UNL A   1      32.461  22.327  24.857  1.00  0.00     0.128 C 
ATOM     10  C   UNL A   1      32.805  18.167  23.461  1.00  0.00     0.161 A 
ATOM     11  C   UNL A   1      32.419  19.199  22.608  1.00  0.00     0.054 A 
ATOM     12  C   UNL A   1      33.020  18.440  24.818  1.00  0.00     0.161 A 
ATOM     13  C   UNL A   1      32.283  20.506  23.085  1.00  0.00    -0.037 A 
ATOM     14  C   UNL A   1      32.913  19.770  25.276  1.00  0.00     0.056 A 
ATOM     15  C   UNL A   1      32.583  20.833  24.416  1.00  0.00    -0.018 A 
ATOM     16  C   UNL A   1      31.785  21.590  22.196  1.00  0.00     0.057 C 
ATOM     17  C   UNL A   1      32.637  22.831  22.389  1.00  0.00     0.127 C 
ATOM     18  N   UNL A   1      32.908  23.249  23.768  1.00  0.00    -0.317 N 
BRANCH  10  19
ATOM     19  O   UNL A   1      33.021  16.976  22.817  1.00  0.00    -0.493 OA
ATOM     20  C   UNL A   1      34.365  16.513  22.803  1.00  0.00     0.278 C 
ENDBRANCH  10  19
BRANCH  12  21
ATOM     21  O   UNL A   1      33.386  17.398  25.628  1.00  0.00    -0.493 OA
ATOM     22  C   UNL A   1      32.415  16.387  25.879  1.00  0.00     0.278 C 
ENDBRANCH  12  21
BRANCH  18  23
ATOM     23  C   UNL A   1      33.530  24.442  24.062  1.00  0.00     0.322 C 
ATOM     24  O   UNL A   1      34.745  24.609  23.940  1.00  0.00    -0.248 OA
ATOM     25  N   UNL A   1      32.836  25.482  24.632  1.00  0.00    -0.308 N 
ATOM     26  H   UNL A   1      33.175  25.831  25.488  1.00  0.00     0.171 HD
BRANCH  25  27
ATOM     27  C   UNL A   1      31.689  26.087  24.104  1.00  0.00     0.042 A 
ATOM     28  C   UNL A   1      30.443  25.703  24.595  1.00  0.00     0.028 A 
ATOM     29  C   UNL A   1      31.793  27.070  23.116  1.00  0.00     0.028 A 
ATOM     30  C   UNL A   1      29.306  26.410  24.209  1.00  0.00     0.022 A 
ATOM     31  C   UNL A   1      30.661  27.806  22.764  1.00  0.00     0.022 A 
ATOM     32  C   UNL A   1      29.427  27.487  23.330  1.00  0.00     0.041 A 
ATOM     33  Cl  UNL A   1      28.047  28.448  22.972  1.00  0.00    -0.084 Cl
ENDBRANCH  25  27
ENDBRANCH  18  23
ENDBRANCH   8   9
ENDBRANCH   6   8
ENDBRANCH   5   6
ENDBRANCH   4   5
ENDBRANCH   3   4
ENDBRANCH   2   3
ENDBRANCH   1   2
BRANCH   1  34
ATOM     34  C   UNL A   1      40.669  22.104  27.421  1.00  0.00     0.188 C 
BRANCH  34  35
ATOM     35  O   UNL A   1      42.043  21.827  27.301  1.00  0.00    -0.376 OA
BRANCH  35  36
ATOM     36  C   UNL A   1      42.682  21.832  26.036  1.00  0.00     0.202 C 
BRANCH  36  37
ATOM     37  C   UNL A   1      43.932  22.653  25.652  1.00  0.00     0.261 C 
BRANCH  37  38
ATOM     38  O   UNL A   1      44.322  23.735  26.496  1.00  0.00    -0.460 OA
BRANCH  38  39
ATOM     39  C   UNL A   1      43.909  24.974  26.108  1.00  0.00     0.338 C 
ATOM     40  O   UNL A   1      43.649  25.340  24.984  1.00  0.00    -0.246 OA
BRANCH  39  41
ATOM     41  C   UNL A   1      43.569  25.721  27.344  1.00  0.00     0.060 A 
ATOM     42  C   UNL A   1      44.253  26.917  27.615  1.00  0.00     0.016 A 
ATOM     43  C   UNL A   1      42.536  25.293  28.176  1.00  0.00     0.016 A 
ATOM     44  C   UNL A   1      43.885  27.703  28.707  1.00  0.00     0.010 A 
ATOM     45  C   UNL A   1      42.197  26.061  29.293  1.00  0.00     0.010 A 
ATOM     46  C   UNL A   1      42.871  27.266  29.568  1.00  0.00    -0.014 A 
BRANCH  46  47
ATOM     47  C   UNL A   1      42.593  27.984  30.834  1.00  0.00     0.031 A 
ATOM     48  C   UNL A   1      41.611  29.120  30.814  1.00  0.00     0.074 A 
ATOM     49  C   UNL A   1      43.247  27.675  31.969  1.00  0.00     0.049 A 
ATOM     50  N   UNL A   1      41.315  29.973  31.757  1.00  0.00    -0.248 NA
ATOM     51  C   UNL A   1      40.869  29.320  29.559  1.00  0.00     0.031 C 
ATOM     52  C   UNL A   1      44.210  26.586  32.124  1.00  0.00     0.029 A 
ATOM     53  N   UNL A   1      43.227  28.287  33.200  1.00  0.00    -0.354 N 
ATOM     54  C   UNL A   1      40.384  30.840  31.199  1.00  0.00     0.074 A 
ATOM     55  C   UNL A   1      40.159  30.404  29.838  1.00  0.00     0.031 C 
ATOM     56  C   UNL A   1      44.727  26.638  33.364  1.00  0.00     0.029 A 
ATOM     57  C   UNL A   1      44.162  27.784  34.075  1.00  0.00     0.049 A 
ATOM     58  H   UNL A   1      42.604  29.013  33.432  1.00  0.00     0.167 HD
ATOM     59  C   UNL A   1      39.771  31.904  31.769  1.00  0.00     0.034 A 
ATOM     60  C   UNL A   1      44.550  28.228  35.289  1.00  0.00     0.034 A 
ATOM     61  C   UNL A   1      39.989  32.334  33.122  1.00  0.00     0.049 A 
ATOM     62  C   UNL A   1      43.889  29.448  35.881  1.00  0.00     0.074 A 
ATOM     63  C   UNL A   1      39.369  33.366  33.804  1.00  0.00     0.029 A 
ATOM     64  N   UNL A   1      40.914  31.779  33.993  1.00  0.00    -0.354 N 
ATOM     65  N   UNL A   1      42.920  30.184  35.392  1.00  0.00    -0.248 NA
ATOM     66  C   UNL A   1      44.362  29.888  37.203  1.00  0.00     0.031 C 
ATOM     67  C   UNL A   1      39.950  33.462  35.073  1.00  0.00     0.029 A 
ATOM     68  C   UNL A   1      40.902  32.464  35.195  1.00  0.00     0.049 A 
ATOM     69  H   UNL A   1      41.494  31.011  33.785  1.00  0.00     0.167 HD
ATOM     70  C   UNL A   1      42.650  31.152  36.356  1.00  0.00     0.074 A 
ATOM     71  C   UNL A   1      43.539  30.894  37.468  1.00  0.00     0.031 C 
ATOM     72  C   UNL A   1      41.757  32.173  36.317  1.00  0.00     0.034 A 
BRANCH  59  73
ATOM     73  C   UNL A   1      38.800  32.684  30.926  1.00  0.00     0.023 A 
ATOM     74  C   UNL A   1      39.278  33.533  29.908  1.00  0.00     0.012 A 
ATOM     75  C   UNL A   1      37.412  32.523  31.100  1.00  0.00     0.148 A 
ATOM     76  C   UNL A   1      38.388  34.232  29.093  1.00  0.00     0.002 A 
ATOM     77  C   UNL A   1      36.531  33.186  30.255  1.00  0.00     0.091 A 
ATOM     78  F   UNL A   1      36.980  31.728  32.090  1.00  0.00    -0.205 F 
ATOM     79  C   UNL A   1      37.017  34.049  29.259  1.00  0.00     0.022 A 
BRANCH  77  80
ATOM     80  S   UNL A   1      34.752  32.956  30.336  1.00  0.00     0.127 S 
ATOM     81  O   UNL A   1      34.284  34.335  30.469  1.00  0.00    -0.237 OA
ATOM     82  O   UNL A   1      34.466  32.338  29.041  1.00  0.00    -0.237 OA
ATOM     83  O   UNL A   1      34.508  32.101  31.488  1.00  0.00    -0.744 OA
ENDBRANCH  77  80
ENDBRANCH  59  73
BRANCH  60  84
ATOM     84  C   UNL A   1      45.633  27.523  36.033  1.00  0.00     0.023 A 
ATOM     85  C   UNL A   1      46.977  27.883  35.817  1.00  0.00     0.012 A 
ATOM     86  C   UNL A   1      45.337  26.491  36.947  1.00  0.00     0.148 A 
ATOM     87  C   UNL A   1      48.008  27.208  36.471  1.00  0.00     0.002 A 
ATOM     88  C   UNL A   1      46.366  25.862  37.637  1.00  0.00     0.091 A 
ATOM     89  F   UNL A   1      44.053  26.148  37.124  1.00  0.00    -0.205 F 
ATOM     90  C   UNL A   1      47.703  26.206  37.387  1.00  0.00     0.022 A 
BRANCH  88  91
ATOM     91  S   UNL A   1      46.063  24.643  38.921  1.00  0.00     0.127 S 
ATOM     92  O   UNL A   1      45.054  25.312  39.737  1.00  0.00    -0.237 OA
ATOM     93  O   UNL A   1      45.572  23.505  38.143  1.00  0.00    -0.237 OA
ATOM     94  O   UNL A   1      47.351  24.421  39.565  1.00  0.00    -0.744 OA
ENDBRANCH  88  91
ENDBRANCH  60  84
BRANCH  72  95
ATOM     95  C   UNL A   1      41.665  33.081  37.518  1.00  0.00     0.023 A 
ATOM     96  C   UNL A   1      40.780  32.767  38.570  1.00  0.00     0.012 A 
ATOM     97  C   UNL A   1      42.519  34.195  37.646  1.00  0.00     0.148 A 
ATOM     98  C   UNL A   1      40.726  33.564  39.713  1.00  0.00     0.002 A 
ATOM     99  C   UNL A   1      42.496  34.955  38.809  1.00  0.00     0.091 A 
ATOM    100  F   UNL A   1      43.346  34.484  36.630  1.00  0.00    -0.205 F 
ATOM    101  C   UNL A   1      41.591  34.648  39.839  1.00  0.00     0.022 A 
BRANCH  99 102
ATOM    102  S   UNL A   1      43.636  36.312  39.104  1.00  0.00     0.127 S 
ATOM    103  O   UNL A   1      44.927  35.678  38.835  1.00  0.00    -0.237 OA
ATOM    104  O   UNL A   1      43.217  37.290  38.099  1.00  0.00    -0.237 OA
ATOM    105  O   UNL A   1      43.425  36.728  40.483  1.00  0.00    -0.744 OA
ENDBRANCH  99 102
ENDBRANCH  72  95
ENDBRANCH  46  47
ENDBRANCH  39  41
ENDBRANCH  38  39
ENDBRANCH  37  38
ENDBRANCH  36  37
ENDBRANCH  35  36
ENDBRANCH  34  35
ENDBRANCH   1  34
TORSDOF 25
ENDMDL
MODEL 3
REMARK VINA RESULT:      -9.3      5.548     10.577
REMARK SMILES COc1cc2c(cc1OC)[C@@H](CC(=O)OCCOCCOCCOC(=O)c1ccc(-c3c4nc(c(-c5cccc(S(=O)(=O)[O-])c5F)c5ccc([nH]5)c(-c5cccc(S(=O)(=O)[O-])c5F)c5nc(c(-c6cccc(S(=O)(=O)[O-])c6F)c6ccc3[nH]6)C=C5)C=C4)cc1)N(C(=O)Nc1ccc(Cl)cc1)CC2
REMARK SMILES IDX 19 1 18 2 17 3 16 4 15 5 13 6 14 7 12 8 11 9 3 10 4 11 8 12
REMARK SMILES IDX 5 13 7 14 6 15 102 16 101 17 90 18 2 19 1 20 9 21 10 22
REMARK SMILES IDX 91 23 92 24 93 25 94 27 95 28 100 29 96 30 99 31 97 32 98 33
REMARK SMILES IDX 20 34 21 35 22 36 23 37 24 38 25 39 26 40 27 41 28 42 89 43
REMARK SMILES IDX 29 44 88 45 30 46 31 47 32 48 82 49 33 50 87 51 81 52 83 53
REMARK SMILES IDX 34 54 86 55 80 56 79 57 35 59 67 60 47 61 66 62 48 63 51 64
REMARK SMILES IDX 65 65 84 66 49 67 50 68 64 70 85 71 52 72 36 73 37 74 45 75
REMARK SMILES IDX 38 76 40 77 46 78 39 79 41 80 42 81 43 82 44 83 68 84 69 85
REMARK SMILES IDX 77 86 70 87 72 88 78 89 71 90 73 91 74 92 75 93 76 94 53 95
REMARK SMILES IDX 54 96 62 97 55 98 57 99 63 100 56 101 58 102 59 103 60 104
REMARK SMILES IDX 61 105
REMARK H PARENT 93 26 83 58 51 69
REMARK Flexibility Score: inf
ROOT
ATOM      1  C   UNL A   1      40.044  21.661  26.755  1.00  0.00     0.188 C 
ENDROOT
BRANCH   1   2
ATOM      2  O   UNL A   1      39.082  22.684  26.918  1.00  0.00    -0.376 OA
BRANCH   2   3
ATOM      3  C   UNL A   1      38.797  23.519  25.801  1.00  0.00     0.202 C 
BRANCH   3   4
ATOM      4  C   UNL A   1      37.405  23.487  25.153  1.00  0.00     0.261 C 
BRANCH   4   5
ATOM      5  O   UNL A   1      36.442  24.352  25.795  1.00  0.00    -0.463 OA
BRANCH   5   6
ATOM      6  C   UNL A   1      35.300  23.747  26.199  1.00  0.00     0.308 C 
ATOM      7  O   UNL A   1      35.274  22.650  26.754  1.00  0.00    -0.252 OA
BRANCH   6   8
ATOM      8  C   UNL A   1      34.014  24.543  26.041  1.00  0.00     0.152 C 
BRANCH   8   9
ATOM      9  C   UNL A   1      32.899  24.325  24.987  1.00  0.00     0.128 C 
ATOM     10  C   UNL A   1      31.450  28.061  23.167  1.00  0.00     0.161 A 
ATOM     11  C   UNL A   1      30.836  26.836  22.918  1.00  0.00     0.054 A 
ATOM     12  C   UNL A   1      32.606  28.104  23.958  1.00  0.00     0.161 A 
ATOM     13  C   UNL A   1      31.338  25.658  23.481  1.00  0.00    -0.037 A 
ATOM     14  C   UNL A   1      33.078  26.912  24.547  1.00  0.00     0.056 A 
ATOM     15  C   UNL A   1      32.435  25.676  24.355  1.00  0.00    -0.018 A 
ATOM     16  C   UNL A   1      30.736  24.339  23.144  1.00  0.00     0.057 C 
ATOM     17  C   UNL A   1      30.577  23.521  24.411  1.00  0.00     0.127 C 
ATOM     18  N   UNL A   1      31.730  23.452  25.313  1.00  0.00    -0.317 N 
BRANCH  10  19
ATOM     19  O   UNL A   1      30.765  29.131  22.655  1.00  0.00    -0.493 OA
ATOM     20  C   UNL A   1      29.369  29.162  22.923  1.00  0.00     0.278 C 
ENDBRANCH  10  19
BRANCH  12  21
ATOM     21  O   UNL A   1      33.189  29.325  24.170  1.00  0.00    -0.493 OA
ATOM     22  C   UNL A   1      32.921  29.976  25.408  1.00  0.00     0.278 C 
ENDBRANCH  12  21
BRANCH  18  23
ATOM     23  C   UNL A   1      31.757  22.613  26.406  1.00  0.00     0.322 C 
ATOM     24  O   UNL A   1      31.144  22.855  27.447  1.00  0.00    -0.248 OA
ATOM     25  N   UNL A   1      32.578  21.512  26.434  1.00  0.00    -0.308 N 
ATOM     26  H   UNL A   1      33.221  21.452  27.178  1.00  0.00     0.171 HD
BRANCH  25  27
ATOM     27  C   UNL A   1      32.583  20.470  25.499  1.00  0.00     0.042 A 
ATOM     28  C   UNL A   1      32.349  20.771  24.159  1.00  0.00     0.028 A 
ATOM     29  C   UNL A   1      32.834  19.155  25.900  1.00  0.00     0.028 A 
ATOM     30  C   UNL A   1      32.518  19.781  23.194  1.00  0.00     0.022 A 
ATOM     31  C   UNL A   1      33.047  18.175  24.930  1.00  0.00     0.022 A 
ATOM     32  C   UNL A   1      32.910  18.499  23.581  1.00  0.00     0.041 A 
ATOM     33  Cl  UNL A   1      33.261  17.321  22.377  1.00  0.00    -0.084 Cl
ENDBRANCH  25  27
ENDBRANCH  18  23
ENDBRANCH   8   9
ENDBRANCH   6   8
ENDBRANCH   5   6
ENDBRANCH   4   5
ENDBRANCH   3   4
ENDBRANCH   2   3
ENDBRANCH   1   2
BRANCH   1  34
ATOM     34  C   UNL A   1      41.197  21.592  27.761  1.00  0.00     0.188 C 
BRANCH  34  35
ATOM     35  O   UNL A   1      42.469  21.132  27.378  1.00  0.00    -0.376 OA
BRANCH  35  36
ATOM     36  C   UNL A   1      42.892  21.194  26.027  1.00  0.00     0.202 C 
BRANCH  36  37
ATOM     37  C   UNL A   1      43.951  22.156  25.447  1.00  0.00     0.261 C 
BRANCH  37  38
ATOM     38  O   UNL A   1      44.367  23.267  26.239  1.00  0.00    -0.460 OA
BRANCH  38  39
ATOM     39  C   UNL A   1      43.938  24.492  25.822  1.00  0.00     0.338 C 
ATOM     40  O   UNL A   1      43.664  24.826  24.692  1.00  0.00    -0.246 OA
BRANCH  39  41
ATOM     41  C   UNL A   1      43.600  25.268  27.042  1.00  0.00     0.060 A 
ATOM     42  C   UNL A   1      44.238  26.501  27.250  1.00  0.00     0.016 A 
ATOM     43  C   UNL A   1      42.612  24.826  27.919  1.00  0.00     0.016 A 
ATOM     44  C   UNL A   1      43.867  27.310  28.325  1.00  0.00     0.010 A 
ATOM     45  C   UNL A   1      42.272  25.618  29.018  1.00  0.00     0.010 A 
ATOM     46  C   UNL A   1      42.899  26.861  29.230  1.00  0.00    -0.014 A 
BRANCH  46  47
ATOM     47  C   UNL A   1      42.626  27.611  30.478  1.00  0.00     0.031 A 
ATOM     48  C   UNL A   1      41.663  28.762  30.427  1.00  0.00     0.074 A 
ATOM     49  C   UNL A   1      43.268  27.317  31.624  1.00  0.00     0.049 A 
ATOM     50  N   UNL A   1      41.375  29.641  31.349  1.00  0.00    -0.248 NA
ATOM     51  C   UNL A   1      40.931  28.946  29.163  1.00  0.00     0.031 C 
ATOM     52  C   UNL A   1      44.212  26.216  31.809  1.00  0.00     0.029 A 
ATOM     53  N   UNL A   1      43.252  27.957  32.840  1.00  0.00    -0.354 N 
ATOM     54  C   UNL A   1      40.462  30.510  30.766  1.00  0.00     0.074 A 
ATOM     55  C   UNL A   1      40.237  30.047  29.414  1.00  0.00     0.031 C 
ATOM     56  C   UNL A   1      44.723  26.288  33.050  1.00  0.00     0.029 A 
ATOM     57  C   UNL A   1      44.174  27.459  33.732  1.00  0.00     0.049 A 
ATOM     58  H   UNL A   1      42.640  28.698  33.053  1.00  0.00     0.167 HD
ATOM     59  C   UNL A   1      39.864  31.596  31.309  1.00  0.00     0.034 A 
ATOM     60  C   UNL A   1      44.562  27.923  34.937  1.00  0.00     0.034 A 
ATOM     61  C   UNL A   1      40.081  32.053  32.654  1.00  0.00     0.049 A 
ATOM     62  C   UNL A   1      43.918  29.167  35.498  1.00  0.00     0.074 A 
ATOM     63  C   UNL A   1      39.474  33.110  33.308  1.00  0.00     0.029 A 
ATOM     64  N   UNL A   1      40.992  31.502  33.541  1.00  0.00    -0.354 N 
ATOM     65  N   UNL A   1      42.963  29.907  34.988  1.00  0.00    -0.248 NA
ATOM     66  C   UNL A   1      44.391  29.628  36.814  1.00  0.00     0.031 C 
ATOM     67  C   UNL A   1      40.049  33.225  34.578  1.00  0.00     0.029 A 
ATOM     68  C   UNL A   1      40.985  32.215  34.728  1.00  0.00     0.049 A 
ATOM     69  H   UNL A   1      41.560  30.721  33.354  1.00  0.00     0.167 HD
ATOM     70  C   UNL A   1      42.705  30.901  35.928  1.00  0.00     0.074 A 
ATOM     71  C   UNL A   1      43.583  30.653  37.051  1.00  0.00     0.031 C 
ATOM     72  C   UNL A   1      41.829  31.935  35.861  1.00  0.00     0.034 A 
BRANCH  59  73
ATOM     73  C   UNL A   1      38.910  32.373  30.443  1.00  0.00     0.023 A 
ATOM     74  C   UNL A   1      39.363  33.508  29.742  1.00  0.00     0.012 A 
ATOM     75  C   UNL A   1      37.581  31.937  30.273  1.00  0.00     0.148 A 
ATOM     76  C   UNL A   1      38.500  34.214  28.904  1.00  0.00     0.002 A 
ATOM     77  C   UNL A   1      36.740  32.618  29.402  1.00  0.00     0.091 A 
ATOM     78  F   UNL A   1      37.165  30.868  30.968  1.00  0.00    -0.205 F 
ATOM     79  C   UNL A   1      37.194  33.762  28.726  1.00  0.00     0.022 A 
BRANCH  77  80
ATOM     80  S   UNL A   1      35.068  32.071  29.043  1.00  0.00     0.127 S 
ATOM     81  O   UNL A   1      34.396  32.328  30.316  1.00  0.00    -0.237 OA
ATOM     82  O   UNL A   1      34.680  32.970  27.957  1.00  0.00    -0.237 OA
ATOM     83  O   UNL A   1      35.174  30.669  28.667  1.00  0.00    -0.744 OA
ENDBRANCH  77  80
ENDBRANCH  59  73
BRANCH  60  84
ATOM     84  C   UNL A   1      45.630  27.218  35.704  1.00  0.00     0.023 A 
ATOM     85  C   UNL A   1      46.981  27.542  35.478  1.00  0.00     0.012 A 
ATOM     86  C   UNL A   1      45.311  26.221  36.648  1.00  0.00     0.148 A 
ATOM     87  C   UNL A   1      47.997  26.864  36.152  1.00  0.00     0.002 A 
ATOM     88  C   UNL A   1      46.326  25.590  37.359  1.00  0.00     0.091 A 
ATOM     89  F   UNL A   1      44.020  25.912  36.835  1.00  0.00    -0.205 F 
ATOM     90  C   UNL A   1      47.670  25.897  37.099  1.00  0.00     0.022 A 
BRANCH  88  91
ATOM     91  S   UNL A   1      45.996  24.419  38.678  1.00  0.00     0.127 S 
ATOM     92  O   UNL A   1      47.273  24.398  39.386  1.00  0.00    -0.237 OA
ATOM     93  O   UNL A   1      44.904  25.076  39.397  1.00  0.00    -0.237 OA
ATOM     94  O   UNL A   1      45.620  23.176  38.017  1.00  0.00    -0.744 OA
ENDBRANCH  88  91
ENDBRANCH  60  84
BRANCH  72  95
ATOM     95  C   UNL A   1      41.745  32.871  37.042  1.00  0.00     0.023 A 
ATOM     96  C   UNL A   1      42.651  33.943  37.155  1.00  0.00     0.012 A 
ATOM     97  C   UNL A   1      40.710  32.740  37.990  1.00  0.00     0.148 A 
ATOM     98  C   UNL A   1      42.550  34.852  38.208  1.00  0.00     0.002 A 
ATOM     99  C   UNL A   1      40.584  33.678  39.009  1.00  0.00     0.091 A 
ATOM    100  F   UNL A   1      39.864  31.706  37.874  1.00  0.00    -0.205 F 
ATOM    101  C   UNL A   1      41.510  34.727  39.126  1.00  0.00     0.022 A 
BRANCH  99 102
ATOM    102  S   UNL A   1      39.223  33.656  40.183  1.00  0.00     0.127 S 
ATOM    103  O   UNL A   1      38.083  33.970  39.321  1.00  0.00    -0.237 OA
ATOM    104  O   UNL A   1      39.257  32.276  40.668  1.00  0.00    -0.237 OA
ATOM    105  O   UNL A   1      39.538  34.662  41.187  1.00  0.00    -0.744 OA
ENDBRANCH  99 102
ENDBRANCH  72  95
ENDBRANCH  46  47
ENDBRANCH  39  41
ENDBRANCH  38  39
ENDBRANCH  37  38
ENDBRANCH  36  37
ENDBRANCH  35  36
ENDBRANCH  34  35
ENDBRANCH   1  34
TORSDOF 25
ENDMDL
