MODEL 1
REMARK VINA RESULT:      -8.4      0.000      0.000
REMARK SMILES C[C@@H]1CCC[C@H]1NC(=O)c1csc(/C=C/C(=O)OCCOCCOCCOC(=O)c2ccc(-c3c4nc(c(-c5cccc(S(=O)(=O)[O-])c5F)c5ccc([nH]5)c(-c5cccc(S(=O)(=O)[O-])c5F)c5nc(c(-c6cccc(S(=O)(=O)[O-])c6F)c6ccc3[nH]6)C=C5)C=C4)cc2)c1
REMARK SMILES IDX 22 1 21 2 20 3 19 4 18 5 16 6 17 7 15 8 14 9 13 10 10 11
REMARK SMILES IDX 11 12 93 13 12 14 8 15 7 16 9 18 6 19 1 20 2 21 3 22 4 23
REMARK SMILES IDX 5 24 23 25 24 26 25 27 26 28 27 29 28 30 29 31 30 32 31 33
REMARK SMILES IDX 92 34 32 35 91 36 33 37 34 38 35 39 85 40 36 41 90 42 84 43
REMARK SMILES IDX 86 44 37 45 89 46 83 47 82 48 38 50 70 51 50 52 69 53 51 54
REMARK SMILES IDX 54 55 68 56 87 57 52 58 53 59 67 61 88 62 55 63 39 64 40 65
REMARK SMILES IDX 48 66 41 67 43 68 49 69 42 70 44 71 45 72 46 73 47 74 71 75
REMARK SMILES IDX 72 76 80 77 73 78 75 79 81 80 74 81 76 82 77 83 78 84 79 85
REMARK SMILES IDX 56 86 57 87 65 88 58 89 60 90 66 91 59 92 61 93 62 94 63 95
REMARK SMILES IDX 64 96
REMARK H PARENT 7 17 86 49 54 60
REMARK Flexibility Score: inf
ROOT
ATOM      1  C   UNL A   1      33.123  36.698  30.822  1.00  0.00     0.188 C 
ENDROOT
BRANCH   1   2
ATOM      2  O   UNL A   1      33.157  36.147  32.117  1.00  0.00    -0.376 OA
BRANCH   2   3
ATOM      3  C   UNL A   1      34.374  36.044  32.834  1.00  0.00     0.202 C 
BRANCH   3   4
ATOM      4  C   UNL A   1      34.843  34.832  33.664  1.00  0.00     0.261 C 
BRANCH   4   5
ATOM      5  O   UNL A   1      36.168  34.855  34.201  1.00  0.00    -0.460 OA
BRANCH   5   6
ATOM      6  C   UNL A   1      36.852  33.688  34.100  1.00  0.00     0.330 C 
ATOM      7  O   UNL A   1      36.537  32.620  34.601  1.00  0.00    -0.247 OA
BRANCH   6   8
ATOM      8  C   UNL A   1      38.011  33.796  33.195  1.00  0.00     0.095 C 
ATOM      9  C   UNL A   1      38.001  34.424  32.008  1.00  0.00     0.026 C 
BRANCH   9  10
ATOM     10  C   UNL A   1      39.171  34.552  31.196  1.00  0.00     0.028 A 
ATOM     11  C   UNL A   1      41.460  34.701  30.568  1.00  0.00     0.051 A 
ATOM     12  C   UNL A   1      40.828  34.576  29.348  1.00  0.00     0.079 A 
ATOM     13  C   UNL A   1      40.481  34.690  31.626  1.00  0.00     0.033 A 
ATOM     14  S   UNL A   1      39.127  34.572  29.474  1.00  0.00    -0.144 S 
BRANCH  11  15
ATOM     15  C   UNL A   1      42.901  34.703  30.802  1.00  0.00     0.252 C 
ATOM     16  N   UNL A   1      43.755  33.955  30.033  1.00  0.00    -0.349 N 
ATOM     17  H   UNL A   1      44.668  33.885  30.393  1.00  0.00     0.164 HD
ATOM     18  O   UNL A   1      43.396  35.389  31.698  1.00  0.00    -0.269 OA
BRANCH  16  19
ATOM     19  C   UNL A   1      43.548  33.244  28.774  1.00  0.00     0.085 C 
ATOM     20  C   UNL A   1      44.408  33.177  26.390  1.00  0.00     0.010 C 
ATOM     21  C   UNL A   1      44.775  33.389  27.860  1.00  0.00     0.008 C 
ATOM     22  C   UNL A   1      45.725  32.305  28.368  1.00  0.00     0.005 C 
ATOM     23  C   UNL A   1      44.826  31.148  28.790  1.00  0.00     0.002 C 
ATOM     24  C   UNL A   1      43.436  31.738  29.032  1.00  0.00     0.025 C 
ENDBRANCH  16  19
ENDBRANCH  11  15
ENDBRANCH   9  10
ENDBRANCH   6   8
ENDBRANCH   5   6
ENDBRANCH   4   5
ENDBRANCH   3   4
ENDBRANCH   2   3
ENDBRANCH   1   2
BRANCH   1  25
ATOM     25  C   UNL A   1      32.991  35.695  29.660  1.00  0.00     0.188 C 
BRANCH  25  26
ATOM     26  O   UNL A   1      34.133  35.305  28.922  1.00  0.00    -0.376 OA
BRANCH  26  27
ATOM     27  C   UNL A   1      34.061  34.196  28.039  1.00  0.00     0.202 C 
BRANCH  27  28
ATOM     28  C   UNL A   1      35.022  32.989  28.073  1.00  0.00     0.261 C 
BRANCH  28  29
ATOM     29  O   UNL A   1      34.526  31.764  28.621  1.00  0.00    -0.460 OA
BRANCH  29  30
ATOM     30  C   UNL A   1      34.744  30.658  27.864  1.00  0.00     0.338 C 
ATOM     31  O   UNL A   1      34.059  30.238  26.953  1.00  0.00    -0.246 OA
BRANCH  30  32
ATOM     32  C   UNL A   1      36.071  30.113  28.205  1.00  0.00     0.060 A 
ATOM     33  C   UNL A   1      36.262  29.540  29.470  1.00  0.00     0.016 A 
ATOM     34  C   UNL A   1      37.125  30.199  27.296  1.00  0.00     0.016 A 
ATOM     35  C   UNL A   1      37.516  29.047  29.831  1.00  0.00     0.010 A 
ATOM     36  C   UNL A   1      38.385  29.728  27.670  1.00  0.00     0.010 A 
ATOM     37  C   UNL A   1      38.591  29.167  28.944  1.00  0.00    -0.014 A 
BRANCH  37  38
ATOM     38  C   UNL A   1      39.968  28.843  29.388  1.00  0.00     0.031 A 
ATOM     39  C   UNL A   1      40.652  27.644  28.793  1.00  0.00     0.074 A 
ATOM     40  C   UNL A   1      40.585  29.583  30.327  1.00  0.00     0.049 A 
ATOM     41  N   UNL A   1      41.801  27.107  29.104  1.00  0.00    -0.248 NA
ATOM     42  C   UNL A   1      39.940  26.956  27.703  1.00  0.00     0.031 C 
ATOM     43  C   UNL A   1      40.033  30.780  30.959  1.00  0.00     0.029 A 
ATOM     44  N   UNL A   1      41.801  29.409  30.937  1.00  0.00    -0.354 N 
ATOM     45  C   UNL A   1      41.940  26.003  28.272  1.00  0.00     0.074 A 
ATOM     46  C   UNL A   1      40.752  25.942  27.448  1.00  0.00     0.031 C 
ATOM     47  C   UNL A   1      40.894  31.213  31.897  1.00  0.00     0.029 A 
ATOM     48  C   UNL A   1      42.037  30.304  31.955  1.00  0.00     0.049 A 
ATOM     49  H   UNL A   1      42.444  28.711  30.671  1.00  0.00     0.167 HD
ATOM     50  C   UNL A   1      42.969  25.127  28.193  1.00  0.00     0.034 A 
ATOM     51  C   UNL A   1      43.042  30.356  32.852  1.00  0.00     0.034 A 
ATOM     52  C   UNL A   1      44.148  25.195  29.012  1.00  0.00     0.049 A 
ATOM     53  C   UNL A   1      44.144  29.326  32.786  1.00  0.00     0.074 A 
ATOM     54  C   UNL A   1      45.259  24.371  28.988  1.00  0.00     0.029 A 
ATOM     55  N   UNL A   1      44.365  26.131  30.011  1.00  0.00    -0.354 N 
ATOM     56  N   UNL A   1      44.312  28.349  31.929  1.00  0.00    -0.248 NA
ATOM     57  C   UNL A   1      45.205  29.422  33.800  1.00  0.00     0.031 C 
ATOM     58  C   UNL A   1      46.133  24.787  29.997  1.00  0.00     0.029 A 
ATOM     59  C   UNL A   1      45.583  25.895  30.623  1.00  0.00     0.049 A 
ATOM     60  H   UNL A   1      43.743  26.855  30.251  1.00  0.00     0.167 HD
ATOM     61  C   UNL A   1      45.516  27.741  32.273  1.00  0.00     0.074 A 
ATOM     62  C   UNL A   1      46.043  28.471  33.407  1.00  0.00     0.031 C 
ATOM     63  C   UNL A   1      46.125  26.667  31.712  1.00  0.00     0.034 A 
BRANCH  50  64
ATOM     64  C   UNL A   1      42.873  24.026  27.170  1.00  0.00     0.023 A 
ATOM     65  C   UNL A   1      43.452  24.204  25.898  1.00  0.00     0.012 A 
ATOM     66  C   UNL A   1      42.261  22.798  27.485  1.00  0.00     0.148 A 
ATOM     67  C   UNL A   1      43.397  23.190  24.943  1.00  0.00     0.002 A 
ATOM     68  C   UNL A   1      42.251  21.774  26.546  1.00  0.00     0.091 A 
ATOM     69  F   UNL A   1      41.698  22.654  28.693  1.00  0.00    -0.205 F 
ATOM     70  C   UNL A   1      42.806  21.972  25.271  1.00  0.00     0.022 A 
BRANCH  68  71
ATOM     71  S   UNL A   1      41.584  20.143  26.893  1.00  0.00     0.127 S 
ATOM     72  O   UNL A   1      40.343  20.474  27.591  1.00  0.00    -0.237 OA
ATOM     73  O   UNL A   1      41.400  19.595  25.549  1.00  0.00    -0.237 OA
ATOM     74  O   UNL A   1      42.587  19.460  27.698  1.00  0.00    -0.744 OA
ENDBRANCH  68  71
ENDBRANCH  50  64
BRANCH  51  75
ATOM     75  C   UNL A   1      43.074  31.427  33.889  1.00  0.00     0.023 A 
ATOM     76  C   UNL A   1      43.875  32.568  33.685  1.00  0.00     0.012 A 
ATOM     77  C   UNL A   1      42.334  31.316  35.084  1.00  0.00     0.148 A 
ATOM     78  C   UNL A   1      43.970  33.558  34.664  1.00  0.00     0.002 A 
ATOM     79  C   UNL A   1      42.390  32.331  36.031  1.00  0.00     0.091 A 
ATOM     80  F   UNL A   1      41.591  30.215  35.270  1.00  0.00    -0.205 F 
ATOM     81  C   UNL A   1      43.222  33.444  35.832  1.00  0.00     0.022 A 
BRANCH  79  82
ATOM     82  S   UNL A   1      41.376  32.325  37.514  1.00  0.00     0.127 S 
ATOM     83  O   UNL A   1      42.192  31.531  38.430  1.00  0.00    -0.237 OA
ATOM     84  O   UNL A   1      41.302  33.751  37.832  1.00  0.00    -0.237 OA
ATOM     85  O   UNL A   1      40.106  31.729  37.121  1.00  0.00    -0.744 OA
ENDBRANCH  79  82
ENDBRANCH  51  75
BRANCH  63  86
ATOM     86  C   UNL A   1      47.457  26.237  32.271  1.00  0.00     0.023 A 
ATOM     87  C   UNL A   1      47.511  25.296  33.319  1.00  0.00     0.012 A 
ATOM     88  C   UNL A   1      48.658  26.696  31.692  1.00  0.00     0.148 A 
ATOM     89  C   UNL A   1      48.739  24.842  33.800  1.00  0.00     0.002 A 
ATOM     90  C   UNL A   1      49.875  26.199  32.141  1.00  0.00     0.091 A 
ATOM     91  F   UNL A   1      48.585  27.600  30.705  1.00  0.00    -0.205 F 
ATOM     92  C   UNL A   1      49.917  25.282  33.205  1.00  0.00     0.022 A 
BRANCH  90  93
ATOM     93  S   UNL A   1      51.440  26.631  31.373  1.00  0.00     0.127 S 
ATOM     94  O   UNL A   1      52.402  26.027  32.295  1.00  0.00    -0.237 OA
ATOM     95  O   UNL A   1      51.340  25.964  30.075  1.00  0.00    -0.237 OA
ATOM     96  O   UNL A   1      51.472  28.085  31.308  1.00  0.00    -0.744 OA
ENDBRANCH  90  93
ENDBRANCH  63  86
ENDBRANCH  37  38
ENDBRANCH  30  32
ENDBRANCH  29  30
ENDBRANCH  28  29
ENDBRANCH  27  28
ENDBRANCH  26  27
ENDBRANCH  25  26
ENDBRANCH   1  25
TORSDOF 23
ENDMDL
MODEL 2
REMARK VINA RESULT:      -8.4      4.855     11.140
REMARK SMILES C[C@@H]1CCC[C@H]1NC(=O)c1csc(/C=C/C(=O)OCCOCCOCCOC(=O)c2ccc(-c3c4nc(c(-c5cccc(S(=O)(=O)[O-])c5F)c5ccc([nH]5)c(-c5cccc(S(=O)(=O)[O-])c5F)c5nc(c(-c6cccc(S(=O)(=O)[O-])c6F)c6ccc3[nH]6)C=C5)C=C4)cc2)c1
REMARK SMILES IDX 22 1 21 2 20 3 19 4 18 5 16 6 17 7 15 8 14 9 13 10 10 11
REMARK SMILES IDX 11 12 93 13 12 14 8 15 7 16 9 18 6 19 1 20 2 21 3 22 4 23
REMARK SMILES IDX 5 24 23 25 24 26 25 27 26 28 27 29 28 30 29 31 30 32 31 33
REMARK SMILES IDX 92 34 32 35 91 36 33 37 34 38 35 39 85 40 36 41 90 42 84 43
REMARK SMILES IDX 86 44 37 45 89 46 83 47 82 48 38 50 70 51 50 52 69 53 51 54
REMARK SMILES IDX 54 55 68 56 87 57 52 58 53 59 67 61 88 62 55 63 39 64 40 65
REMARK SMILES IDX 48 66 41 67 43 68 49 69 42 70 44 71 45 72 46 73 47 74 71 75
REMARK SMILES IDX 72 76 80 77 73 78 75 79 81 80 74 81 76 82 77 83 78 84 79 85
REMARK SMILES IDX 56 86 57 87 65 88 58 89 60 90 66 91 59 92 61 93 62 94 63 95
REMARK SMILES IDX 64 96
REMARK H PARENT 7 17 86 49 54 60
REMARK Flexibility Score: inf
ROOT
ATOM      1  C   UNL A   1      34.413  33.273  28.884  1.00  0.00     0.188 C 
ENDROOT
BRANCH   1   2
ATOM      2  O   UNL A   1      34.778  32.735  27.636  1.00  0.00    -0.376 OA
BRANCH   2   3
ATOM      3  C   UNL A   1      35.232  31.398  27.522  1.00  0.00     0.202 C 
BRANCH   3   4
ATOM      4  C   UNL A   1      34.350  30.149  27.322  1.00  0.00     0.261 C 
BRANCH   4   5
ATOM      5  O   UNL A   1      32.967  30.238  27.670  1.00  0.00    -0.460 OA
BRANCH   5   6
ATOM      6  C   UNL A   1      32.101  30.140  26.630  1.00  0.00     0.330 C 
ATOM      7  O   UNL A   1      31.745  31.050  25.898  1.00  0.00    -0.247 OA
BRANCH   6   8
ATOM      8  C   UNL A   1      31.691  28.747  26.374  1.00  0.00     0.095 C 
ATOM      9  C   UNL A   1      32.094  28.010  25.326  1.00  0.00     0.026 C 
BRANCH   9  10
ATOM     10  C   UNL A   1      31.714  26.642  25.157  1.00  0.00     0.028 A 
ATOM     11  C   UNL A   1      31.303  24.351  25.647  1.00  0.00     0.051 A 
ATOM     12  C   UNL A   1      30.728  24.492  24.401  1.00  0.00     0.079 A 
ATOM     13  C   UNL A   1      31.874  25.607  26.064  1.00  0.00     0.033 A 
ATOM     14  S   UNL A   1      30.977  26.037  23.722  1.00  0.00    -0.144 S 
BRANCH  11  15
ATOM     15  C   UNL A   1      31.241  23.169  26.502  1.00  0.00     0.252 C 
ATOM     16  N   UNL A   1      31.932  22.025  26.196  1.00  0.00    -0.349 N 
ATOM     17  H   UNL A   1      31.673  21.240  26.730  1.00  0.00     0.164 HD
ATOM     18  O   UNL A   1      30.570  23.168  27.534  1.00  0.00    -0.269 OA
BRANCH  16  19
ATOM     19  C   UNL A   1      32.985  21.766  25.217  1.00  0.00     0.085 C 
ATOM     20  C   UNL A   1      35.256  20.656  25.020  1.00  0.00     0.010 C 
ATOM     21  C   UNL A   1      33.873  20.596  25.671  1.00  0.00     0.008 C 
ATOM     22  C   UNL A   1      33.090  19.363  25.223  1.00  0.00     0.005 C 
ATOM     23  C   UNL A   1      32.424  19.763  23.911  1.00  0.00     0.002 C 
ATOM     24  C   UNL A   1      32.371  21.293  23.896  1.00  0.00     0.025 C 
ENDBRANCH  16  19
ENDBRANCH  11  15
ENDBRANCH   9  10
ENDBRANCH   6   8
ENDBRANCH   5   6
ENDBRANCH   4   5
ENDBRANCH   3   4
ENDBRANCH   2   3
ENDBRANCH   1   2
BRANCH   1  25
ATOM     25  C   UNL A   1      33.385  34.420  28.855  1.00  0.00     0.188 C 
BRANCH  25  26
ATOM     26  O   UNL A   1      33.608  35.595  29.613  1.00  0.00    -0.376 OA
BRANCH  26  27
ATOM     27  C   UNL A   1      32.722  35.934  30.669  1.00  0.00     0.202 C 
BRANCH  27  28
ATOM     28  C   UNL A   1      32.901  35.493  32.136  1.00  0.00     0.261 C 
BRANCH  28  29
ATOM     29  O   UNL A   1      34.209  35.085  32.548  1.00  0.00    -0.460 OA
BRANCH  29  30
ATOM     30  C   UNL A   1      34.371  33.749  32.729  1.00  0.00     0.338 C 
ATOM     31  O   UNL A   1      33.520  32.933  33.023  1.00  0.00    -0.246 OA
BRANCH  30  32
ATOM     32  C   UNL A   1      35.747  33.388  32.339  1.00  0.00     0.060 A 
ATOM     33  C   UNL A   1      36.393  32.346  33.019  1.00  0.00     0.016 A 
ATOM     34  C   UNL A   1      36.404  34.097  31.334  1.00  0.00     0.016 A 
ATOM     35  C   UNL A   1      37.705  32.007  32.693  1.00  0.00     0.010 A 
ATOM     36  C   UNL A   1      37.727  33.772  31.027  1.00  0.00     0.010 A 
ATOM     37  C   UNL A   1      38.390  32.739  31.717  1.00  0.00    -0.014 A 
BRANCH  37  38
ATOM     38  C   UNL A   1      39.842  32.532  31.507  1.00  0.00     0.031 A 
ATOM     39  C   UNL A   1      40.807  33.464  32.186  1.00  0.00     0.074 A 
ATOM     40  C   UNL A   1      40.293  31.553  30.703  1.00  0.00     0.049 A 
ATOM     41  N   UNL A   1      42.105  33.545  32.064  1.00  0.00    -0.248 NA
ATOM     42  C   UNL A   1      40.227  34.440  33.124  1.00  0.00     0.031 C 
ATOM     43  C   UNL A   1      39.457  30.574  30.011  1.00  0.00     0.029 A 
ATOM     44  N   UNL A   1      41.571  31.247  30.306  1.00  0.00    -0.354 N 
ATOM     45  C   UNL A   1      42.497  34.596  32.885  1.00  0.00     0.074 A 
ATOM     46  C   UNL A   1      41.296  35.129  33.493  1.00  0.00     0.031 C 
ATOM     47  C   UNL A   1      40.242  29.797  29.243  1.00  0.00     0.029 A 
ATOM     48  C   UNL A   1      41.627  30.249  29.362  1.00  0.00     0.049 A 
ATOM     49  H   UNL A   1      42.370  31.699  30.663  1.00  0.00     0.167 HD
ATOM     50  C   UNL A   1      43.744  35.067  33.120  1.00  0.00     0.034 A 
ATOM     51  C   UNL A   1      42.673  29.781  28.651  1.00  0.00     0.034 A 
ATOM     52  C   UNL A   1      44.932  34.531  32.516  1.00  0.00     0.049 A 
ATOM     53  C   UNL A   1      44.043  30.370  28.882  1.00  0.00     0.074 A 
ATOM     54  C   UNL A   1      46.246  34.920  32.712  1.00  0.00     0.029 A 
ATOM     55  N   UNL A   1      44.954  33.502  31.588  1.00  0.00    -0.354 N 
ATOM     56  N   UNL A   1      44.414  31.293  29.735  1.00  0.00    -0.248 NA
ATOM     57  C   UNL A   1      45.144  29.834  28.066  1.00  0.00     0.031 C 
ATOM     58  C   UNL A   1      47.059  34.150  31.876  1.00  0.00     0.029 A 
ATOM     59  C   UNL A   1      46.255  33.254  31.188  1.00  0.00     0.049 A 
ATOM     60  H   UNL A   1      44.161  33.020  31.260  1.00  0.00     0.167 HD
ATOM     61  C   UNL A   1      45.792  31.419  29.589  1.00  0.00     0.074 A 
ATOM     62  C   UNL A   1      46.193  30.465  28.577  1.00  0.00     0.031 C 
ATOM     63  C   UNL A   1      46.648  32.258  30.223  1.00  0.00     0.034 A 
BRANCH  50  64
ATOM     64  C   UNL A   1      43.888  36.210  34.089  1.00  0.00     0.023 A 
ATOM     65  C   UNL A   1      44.112  35.943  35.454  1.00  0.00     0.012 A 
ATOM     66  C   UNL A   1      43.860  37.545  33.641  1.00  0.00     0.148 A 
ATOM     67  C   UNL A   1      44.273  36.987  36.365  1.00  0.00     0.002 A 
ATOM     68  C   UNL A   1      44.068  38.579  34.546  1.00  0.00     0.091 A 
ATOM     69  F   UNL A   1      43.626  37.780  32.342  1.00  0.00    -0.205 F 
ATOM     70  C   UNL A   1      44.262  38.302  35.910  1.00  0.00     0.022 A 
BRANCH  68  71
ATOM     71  S   UNL A   1      44.149  40.303  34.050  1.00  0.00     0.127 S 
ATOM     72  O   UNL A   1      44.995  40.229  32.861  1.00  0.00    -0.237 OA
ATOM     73  O   UNL A   1      42.744  40.609  33.781  1.00  0.00    -0.237 OA
ATOM     74  O   UNL A   1      44.724  41.021  35.179  1.00  0.00    -0.744 OA
ENDBRANCH  68  71
ENDBRANCH  50  64
BRANCH  51  75
ATOM     75  C   UNL A   1      42.481  28.687  27.656  1.00  0.00     0.023 A 
ATOM     76  C   UNL A   1      42.222  29.010  26.310  1.00  0.00     0.012 A 
ATOM     77  C   UNL A   1      42.534  27.331  28.036  1.00  0.00     0.148 A 
ATOM     78  C   UNL A   1      41.981  28.008  25.369  1.00  0.00     0.002 A 
ATOM     79  C   UNL A   1      42.347  26.336  27.084  1.00  0.00     0.091 A 
ATOM     80  F   UNL A   1      42.764  27.041  29.325  1.00  0.00    -0.205 F 
ATOM     81  C   UNL A   1      42.052  26.672  25.753  1.00  0.00     0.022 A 
BRANCH  79  82
ATOM     82  S   UNL A   1      42.531  24.590  27.462  1.00  0.00     0.127 S 
ATOM     83  O   UNL A   1      43.841  24.561  28.109  1.00  0.00    -0.237 OA
ATOM     84  O   UNL A   1      41.397  24.354  28.355  1.00  0.00    -0.237 OA
ATOM     85  O   UNL A   1      42.444  23.898  26.182  1.00  0.00    -0.744 OA
ENDBRANCH  79  82
ENDBRANCH  51  75
BRANCH  63  86
ATOM     86  C   UNL A   1      48.115  32.156  29.891  1.00  0.00     0.023 A 
ATOM     87  C   UNL A   1      48.938  31.258  30.599  1.00  0.00     0.012 A 
ATOM     88  C   UNL A   1      48.656  32.885  28.812  1.00  0.00     0.148 A 
ATOM     89  C   UNL A   1      50.282  31.108  30.256  1.00  0.00     0.002 A 
ATOM     90  C   UNL A   1      49.981  32.691  28.443  1.00  0.00     0.091 A 
ATOM     91  F   UNL A   1      47.859  33.743  28.159  1.00  0.00    -0.205 F 
ATOM     92  C   UNL A   1      50.799  31.813  29.173  1.00  0.00     0.022 A 
BRANCH  90  93
ATOM     93  S   UNL A   1      50.711  33.479  27.003  1.00  0.00     0.127 S 
ATOM     94  O   UNL A   1      52.132  33.189  27.192  1.00  0.00    -0.237 OA
ATOM     95  O   UNL A   1      50.081  32.750  25.901  1.00  0.00    -0.237 OA
ATOM     96  O   UNL A   1      50.349  34.887  27.085  1.00  0.00    -0.744 OA
ENDBRANCH  90  93
ENDBRANCH  63  86
ENDBRANCH  37  38
ENDBRANCH  30  32
ENDBRANCH  29  30
ENDBRANCH  28  29
ENDBRANCH  27  28
ENDBRANCH  26  27
ENDBRANCH  25  26
ENDBRANCH   1  25
TORSDOF 23
ENDMDL
MODEL 3
REMARK VINA RESULT:      -8.3      5.781     10.017
REMARK SMILES C[C@@H]1CCC[C@H]1NC(=O)c1csc(/C=C/C(=O)OCCOCCOCCOC(=O)c2ccc(-c3c4nc(c(-c5cccc(S(=O)(=O)[O-])c5F)c5ccc([nH]5)c(-c5cccc(S(=O)(=O)[O-])c5F)c5nc(c(-c6cccc(S(=O)(=O)[O-])c6F)c6ccc3[nH]6)C=C5)C=C4)cc2)c1
REMARK SMILES IDX 22 1 21 2 20 3 19 4 18 5 16 6 17 7 15 8 14 9 13 10 10 11
REMARK SMILES IDX 11 12 93 13 12 14 8 15 7 16 9 18 6 19 1 20 2 21 3 22 4 23
REMARK SMILES IDX 5 24 23 25 24 26 25 27 26 28 27 29 28 30 29 31 30 32 31 33
REMARK SMILES IDX 92 34 32 35 91 36 33 37 34 38 35 39 85 40 36 41 90 42 84 43
REMARK SMILES IDX 86 44 37 45 89 46 83 47 82 48 38 50 70 51 50 52 69 53 51 54
REMARK SMILES IDX 54 55 68 56 87 57 52 58 53 59 67 61 88 62 55 63 39 64 40 65
REMARK SMILES IDX 48 66 41 67 43 68 49 69 42 70 44 71 45 72 46 73 47 74 71 75
REMARK SMILES IDX 72 76 80 77 73 78 75 79 81 80 74 81 76 82 77 83 78 84 79 85
REMARK SMILES IDX 56 86 57 87 65 88 58 89 60 90 66 91 59 92 61 93 62 94 63 95
REMARK SMILES IDX 64 96
REMARK H PARENT 7 17 86 49 54 60
REMARK Flexibility Score: inf
ROOT
ATOM      1  C   UNL A   1      33.670  36.957  31.416  1.00  0.00     0.188 C 
ENDROOT
BRANCH   1   2
ATOM      2  O   UNL A   1      32.682  36.268  30.688  1.00  0.00    -0.376 OA
BRANCH   2   3
ATOM      3  C   UNL A   1      33.034  35.316  29.701  1.00  0.00     0.202 C 
BRANCH   3   4
ATOM      4  C   UNL A   1      34.226  34.340  29.758  1.00  0.00     0.261 C 
BRANCH   4   5
ATOM      5  O   UNL A   1      33.972  32.951  29.537  1.00  0.00    -0.460 OA
BRANCH   5   6
ATOM      6  C   UNL A   1      34.650  32.398  28.501  1.00  0.00     0.330 C 
ATOM      7  O   UNL A   1      35.811  32.621  28.195  1.00  0.00    -0.247 OA
BRANCH   6   8
ATOM      8  C   UNL A   1      33.861  31.365  27.804  1.00  0.00     0.095 C 
ATOM      9  C   UNL A   1      34.382  30.353  27.092  1.00  0.00     0.026 C 
BRANCH   9  10
ATOM     10  C   UNL A   1      33.572  29.342  26.486  1.00  0.00     0.028 A 
ATOM     11  C   UNL A   1      32.546  27.235  26.078  1.00  0.00     0.051 A 
ATOM     12  C   UNL A   1      31.859  28.068  25.219  1.00  0.00     0.079 A 
ATOM     13  C   UNL A   1      33.538  27.993  26.799  1.00  0.00     0.033 A 
ATOM     14  S   UNL A   1      32.471  29.660  25.200  1.00  0.00    -0.144 S 
BRANCH  11  15
ATOM     15  C   UNL A   1      32.251  25.831  26.346  1.00  0.00     0.252 C 
ATOM     16  N   UNL A   1      33.064  24.827  25.890  1.00  0.00    -0.349 N 
ATOM     17  H   UNL A   1      32.676  23.926  25.964  1.00  0.00     0.164 HD
ATOM     18  O   UNL A   1      31.260  25.506  27.003  1.00  0.00    -0.269 OA
BRANCH  16  19
ATOM     19  C   UNL A   1      34.405  24.858  25.312  1.00  0.00     0.085 C 
ATOM     20  C   UNL A   1      36.695  23.809  25.601  1.00  0.00     0.010 C 
ATOM     21  C   UNL A   1      35.184  23.584  25.677  1.00  0.00     0.008 C 
ATOM     22  C   UNL A   1      34.710  22.569  24.637  1.00  0.00     0.005 C 
ATOM     23  C   UNL A   1      34.498  23.373  23.358  1.00  0.00     0.002 C 
ATOM     24  C   UNL A   1      34.320  24.833  23.783  1.00  0.00     0.025 C 
ENDBRANCH  16  19
ENDBRANCH  11  15
ENDBRANCH   9  10
ENDBRANCH   6   8
ENDBRANCH   5   6
ENDBRANCH   4   5
ENDBRANCH   3   4
ENDBRANCH   2   3
ENDBRANCH   1   2
BRANCH   1  25
ATOM     25  C   UNL A   1      33.527  36.931  32.949  1.00  0.00     0.188 C 
BRANCH  25  26
ATOM     26  O   UNL A   1      34.468  36.231  33.741  1.00  0.00    -0.376 OA
BRANCH  26  27
ATOM     27  C   UNL A   1      34.877  34.925  33.365  1.00  0.00     0.202 C 
BRANCH  27  28
ATOM     28  C   UNL A   1      36.303  34.368  33.553  1.00  0.00     0.261 C 
BRANCH  28  29
ATOM     29  O   UNL A   1      37.294  34.747  32.594  1.00  0.00    -0.460 OA
BRANCH  29  30
ATOM     30  C   UNL A   1      37.674  33.768  31.733  1.00  0.00     0.338 C 
ATOM     31  O   UNL A   1      37.053  32.770  31.426  1.00  0.00    -0.246 OA
BRANCH  30  32
ATOM     32  C   UNL A   1      38.923  34.187  31.070  1.00  0.00     0.060 A 
ATOM     33  C   UNL A   1      38.904  34.441  29.691  1.00  0.00     0.016 A 
ATOM     34  C   UNL A   1      40.107  34.295  31.798  1.00  0.00     0.016 A 
ATOM     35  C   UNL A   1      40.078  34.807  29.033  1.00  0.00     0.010 A 
ATOM     36  C   UNL A   1      41.286  34.635  31.131  1.00  0.00     0.010 A 
ATOM     37  C   UNL A   1      41.281  34.875  29.744  1.00  0.00    -0.014 A 
BRANCH  37  38
ATOM     38  C   UNL A   1      42.565  35.053  29.027  1.00  0.00     0.031 A 
ATOM     39  C   UNL A   1      43.472  33.865  28.869  1.00  0.00     0.074 A 
ATOM     40  C   UNL A   1      42.932  36.257  28.553  1.00  0.00     0.049 A 
ATOM     41  N   UNL A   1      44.682  33.806  28.380  1.00  0.00    -0.248 NA
ATOM     42  C   UNL A   1      42.943  32.570  29.329  1.00  0.00     0.031 C 
ATOM     43  C   UNL A   1      42.128  37.476  28.625  1.00  0.00     0.029 A 
ATOM     44  N   UNL A   1      44.098  36.657  27.949  1.00  0.00    -0.354 N 
ATOM     45  C   UNL A   1      45.073  32.478  28.499  1.00  0.00     0.074 A 
ATOM     46  C   UNL A   1      43.974  31.766  29.115  1.00  0.00     0.031 C 
ATOM     47  C   UNL A   1      42.841  38.498  28.118  1.00  0.00     0.029 A 
ATOM     48  C   UNL A   1      44.161  38.012  27.721  1.00  0.00     0.049 A 
ATOM     49  H   UNL A   1      44.819  36.033  27.701  1.00  0.00     0.167 HD
ATOM     50  C   UNL A   1      46.237  31.900  28.119  1.00  0.00     0.034 A 
ATOM     51  C   UNL A   1      45.182  38.774  27.279  1.00  0.00     0.034 A 
ATOM     52  C   UNL A   1      47.324  32.612  27.504  1.00  0.00     0.049 A 
ATOM     53  C   UNL A   1      46.493  38.115  26.926  1.00  0.00     0.074 A 
ATOM     54  C   UNL A   1      48.534  32.111  27.056  1.00  0.00     0.029 A 
ATOM     55  N   UNL A   1      47.341  33.976  27.263  1.00  0.00    -0.354 N 
ATOM     56  N   UNL A   1      46.814  36.844  26.948  1.00  0.00    -0.248 NA
ATOM     57  C   UNL A   1      47.577  38.996  26.465  1.00  0.00     0.031 C 
ATOM     58  C   UNL A   1      49.297  33.180  26.576  1.00  0.00     0.029 A 
ATOM     59  C   UNL A   1      48.547  34.339  26.689  1.00  0.00     0.049 A 
ATOM     60  H   UNL A   1      46.605  34.596  27.471  1.00  0.00     0.167 HD
ATOM     61  C   UNL A   1      48.117  36.769  26.466  1.00  0.00     0.074 A 
ATOM     62  C   UNL A   1      48.522  38.121  26.144  1.00  0.00     0.031 C 
ATOM     63  C   UNL A   1      48.914  35.682  26.316  1.00  0.00     0.034 A 
BRANCH  50  64
ATOM     64  C   UNL A   1      46.388  30.419  28.340  1.00  0.00     0.023 A 
ATOM     65  C   UNL A   1      46.924  29.946  29.555  1.00  0.00     0.012 A 
ATOM     66  C   UNL A   1      45.948  29.494  27.373  1.00  0.00     0.148 A 
ATOM     67  C   UNL A   1      47.050  28.578  29.792  1.00  0.00     0.002 A 
ATOM     68  C   UNL A   1      46.033  28.133  27.635  1.00  0.00     0.091 A 
ATOM     69  F   UNL A   1      45.460  29.963  26.216  1.00  0.00    -0.205 F 
ATOM     70  C   UNL A   1      46.595  27.673  28.838  1.00  0.00     0.022 A 
BRANCH  68  71
ATOM     71  S   UNL A   1      45.406  26.885  26.505  1.00  0.00     0.127 S 
ATOM     72  O   UNL A   1      44.052  27.373  26.248  1.00  0.00    -0.237 OA
ATOM     73  O   UNL A   1      46.324  27.010  25.372  1.00  0.00    -0.237 OA
ATOM     74  O   UNL A   1      45.486  25.618  27.217  1.00  0.00    -0.744 OA
ENDBRANCH  68  71
ENDBRANCH  50  64
BRANCH  51  75
ATOM     75  C   UNL A   1      45.015  40.248  27.127  1.00  0.00     0.023 A 
ATOM     76  C   UNL A   1      44.463  40.764  25.939  1.00  0.00     0.012 A 
ATOM     77  C   UNL A   1      45.414  41.141  28.141  1.00  0.00     0.148 A 
ATOM     78  C   UNL A   1      44.350  42.142  25.745  1.00  0.00     0.002 A 
ATOM     79  C   UNL A   1      45.247  42.509  27.965  1.00  0.00     0.091 A 
ATOM     80  F   UNL A   1      45.953  40.633  29.259  1.00  0.00    -0.205 F 
ATOM     81  C   UNL A   1      44.733  43.013  26.760  1.00  0.00     0.022 A 
BRANCH  79  82
ATOM     82  S   UNL A   1      45.607  43.701  29.260  1.00  0.00     0.127 S 
ATOM     83  O   UNL A   1      47.061  43.818  29.162  1.00  0.00    -0.237 OA
ATOM     84  O   UNL A   1      44.862  44.874  28.804  1.00  0.00    -0.237 OA
ATOM     85  O   UNL A   1      45.104  43.109  30.492  1.00  0.00    -0.744 OA
ENDBRANCH  79  82
ENDBRANCH  51  75
BRANCH  63  86
ATOM     86  C   UNL A   1      50.288  35.888  25.732  1.00  0.00     0.023 A 
ATOM     87  C   UNL A   1      50.466  35.899  24.334  1.00  0.00     0.012 A 
ATOM     88  C   UNL A   1      51.388  36.164  26.571  1.00  0.00     0.148 A 
ATOM     89  C   UNL A   1      51.721  36.153  23.782  1.00  0.00     0.002 A 
ATOM     90  C   UNL A   1      52.623  36.468  26.012  1.00  0.00     0.091 A 
ATOM     91  F   UNL A   1      51.201  36.137  27.898  1.00  0.00    -0.205 F 
ATOM     92  C   UNL A   1      52.794  36.450  24.618  1.00  0.00     0.022 A 
BRANCH  90  93
ATOM     93  S   UNL A   1      54.039  36.959  27.002  1.00  0.00     0.127 S 
ATOM     94  O   UNL A   1      53.525  38.143  27.692  1.00  0.00    -0.237 OA
ATOM     95  O   UNL A   1      54.235  35.791  27.860  1.00  0.00    -0.237 OA
ATOM     96  O   UNL A   1      55.122  37.211  26.062  1.00  0.00    -0.744 OA
ENDBRANCH  90  93
ENDBRANCH  63  86
ENDBRANCH  37  38
ENDBRANCH  30  32
ENDBRANCH  29  30
ENDBRANCH  28  29
ENDBRANCH  27  28
ENDBRANCH  26  27
ENDBRANCH  25  26
ENDBRANCH   1  25
TORSDOF 23
ENDMDL
