MODEL 1
REMARK VINA RESULT:     -12.5      0.000      0.000
REMARK SMILES COc1ccc(-c2cc(Cl)cc3c2O[C@H](C(F)(F)F)C(C(=O)OCCOCCOCCOC(=O)c2ccc(-c4c5nc(c(-c6cccc(S(=O)(=O)[O-])c6F)c6ccc([nH]6)c(-c6cccc(S(=O)(=O)[O-])c6F)c6nc(c(-c7cccc(S(=O)(=O)[O-])c7F)c7ccc4[nH]7)C=C6)C=C5)cc2)=C3)cc1C
REMARK SMILES IDX 28 1 27 2 26 3 25 4 24 5 23 6 21 7 22 8 20 9 7 10 8 11 13 12
REMARK SMILES IDX 9 13 12 14 14 15 10 16 11 17 98 18 15 19 6 20 3 21 4 22
REMARK SMILES IDX 100 23 5 24 99 25 101 26 2 27 1 28 16 29 17 30 18 31 19 32
REMARK SMILES IDX 29 33 30 34 31 35 32 36 33 37 34 38 35 39 36 40 97 41 37 42
REMARK SMILES IDX 96 43 38 44 39 45 40 46 90 47 41 48 95 49 89 50 91 51 42 52
REMARK SMILES IDX 94 53 88 54 87 55 43 57 75 58 55 59 74 60 56 61 59 62 73 63
REMARK SMILES IDX 92 64 57 65 58 66 72 68 93 69 60 70 44 71 45 72 53 73 46 74
REMARK SMILES IDX 48 75 54 76 47 77 49 78 50 79 51 80 52 81 76 82 77 83 85 84
REMARK SMILES IDX 78 85 80 86 86 87 79 88 81 89 82 90 83 91 84 92 61 93 62 94
REMARK SMILES IDX 70 95 63 96 65 97 71 98 64 99 66 100 67 101 68 102 69 103
REMARK H PARENT 91 56 59 67
REMARK Flexibility Score: inf
ROOT
ATOM      1  C   UNL A   1      33.286  34.467  28.786  1.00  0.00     0.188 C 
ENDROOT
BRANCH   1   2
ATOM      2  C   UNL A   1      32.716  33.983  27.469  1.00  0.00     0.188 C 
BRANCH   2   3
ATOM      3  O   UNL A   1      31.789  32.951  27.477  1.00  0.00    -0.376 OA
BRANCH   3   4
ATOM      4  C   UNL A   1      32.290  31.783  26.825  1.00  0.00     0.202 C 
BRANCH   4   5
ATOM      5  C   UNL A   1      31.419  30.593  26.008  1.00  0.00     0.261 C 
BRANCH   5   6
ATOM      6  O   UNL A   1      31.741  29.048  25.065  1.00  0.00    -0.460 OA
BRANCH   6   7
ATOM      7  C   UNL A   1      32.226  28.149  23.747  1.00  0.00     0.338 C 
ATOM      8  O   UNL A   1      31.988  28.743  22.686  1.00  0.00    -0.246 OA
BRANCH   7   9
ATOM      9  C   UNL A   1      32.829  26.452  23.543  1.00  0.00     0.087 C 
ATOM     10  C   UNL A   1      35.427  22.873  25.047  1.00  0.00     0.026 A 
ATOM     11  C   UNL A   1      34.721  21.714  25.073  1.00  0.00     0.033 A 
ATOM     12  C   UNL A   1      34.558  24.019  24.267  1.00  0.00     0.135 A 
ATOM     13  C   UNL A   1      33.565  21.670  24.234  1.00  0.00     0.042 A 
ATOM     14  C   UNL A   1      33.752  23.988  23.136  1.00  0.00     0.019 A 
ATOM     15  O   UNL A   1      33.040  24.297  25.098  1.00  0.00    -0.475 OA
ATOM     16  Cl  UNL A   1      32.489  20.343  24.564  1.00  0.00    -0.084 Cl
ATOM     17  C   UNL A   1      33.139  22.713  23.217  1.00  0.00     0.032 A 
ATOM     18  C   UNL A   1      33.371  25.501  22.677  1.00  0.00     0.027 C 
ATOM     19  C   UNL A   1      32.141  25.550  24.572  1.00  0.00     0.316 C 
BRANCH  10  20
ATOM     20  C   UNL A   1      37.174  22.779  25.330  1.00  0.00    -0.014 A 
ATOM     21  C   UNL A   1      39.765  22.057  26.703  1.00  0.00     0.121 A 
ATOM     22  C   UNL A   1      39.233  21.310  25.675  1.00  0.00     0.047 A 
ATOM     23  C   UNL A   1      39.246  23.340  26.795  1.00  0.00    -0.008 A 
ATOM     24  C   UNL A   1      38.043  21.741  24.942  1.00  0.00     0.013 A 
ATOM     25  C   UNL A   1      37.999  23.694  26.080  1.00  0.00     0.016 A 
ATOM     26  C   UNL A   1      40.000  24.323  27.660  1.00  0.00     0.048 C 
BRANCH  21  27
ATOM     27  O   UNL A   1      40.931  21.677  27.324  1.00  0.00    -0.496 OA
ATOM     28  C   UNL A   1      40.992  20.305  27.751  1.00  0.00     0.278 C 
ENDBRANCH  21  27
ENDBRANCH  10  20
BRANCH  19  29
ATOM     29  C   UNL A   1      30.728  25.230  23.948  1.00  0.00     0.430 C 
ATOM     30  F   UNL A   1      30.628  25.492  22.625  1.00  0.00    -0.167 F 
ATOM     31  F   UNL A   1      30.356  23.939  24.131  1.00  0.00    -0.167 F 
ATOM     32  F   UNL A   1      29.725  25.969  24.523  1.00  0.00    -0.167 F 
ENDBRANCH  19  29
ENDBRANCH   7   9
ENDBRANCH   6   7
ENDBRANCH   5   6
ENDBRANCH   4   5
ENDBRANCH   3   4
ENDBRANCH   2   3
ENDBRANCH   1   2
BRANCH   1  33
ATOM     33  O   UNL A   1      34.671  34.309  28.962  1.00  0.00    -0.376 OA
BRANCH  33  34
ATOM     34  C   UNL A   1      35.028  33.250  29.838  1.00  0.00     0.202 C 
BRANCH  34  35
ATOM     35  C   UNL A   1      35.102  31.794  29.259  1.00  0.00     0.261 C 
BRANCH  35  36
ATOM     36  O   UNL A   1      36.217  31.559  28.320  1.00  0.00    -0.460 OA
BRANCH  36  37
ATOM     37  C   UNL A   1      37.113  30.515  28.320  1.00  0.00     0.338 C 
ATOM     38  O   UNL A   1      37.323  29.819  27.336  1.00  0.00    -0.246 OA
BRANCH  37  39
ATOM     39  C   UNL A   1      37.963  30.402  29.526  1.00  0.00     0.060 A 
ATOM     40  C   UNL A   1      38.885  31.340  29.821  1.00  0.00     0.016 A 
ATOM     41  C   UNL A   1      37.840  29.552  30.587  1.00  0.00     0.016 A 
ATOM     42  C   UNL A   1      40.050  30.924  30.515  1.00  0.00     0.010 A 
ATOM     43  C   UNL A   1      39.043  29.204  31.282  1.00  0.00     0.010 A 
ATOM     44  C   UNL A   1      40.362  29.642  30.875  1.00  0.00    -0.014 A 
BRANCH  44  45
ATOM     45  C   UNL A   1      42.051  28.966  31.066  1.00  0.00     0.031 A 
ATOM     46  C   UNL A   1      42.900  27.477  30.343  1.00  0.00     0.074 A 
ATOM     47  C   UNL A   1      42.947  29.817  31.596  1.00  0.00     0.049 A 
ATOM     48  N   UNL A   1      43.848  26.734  30.858  1.00  0.00    -0.248 NA
ATOM     49  C   UNL A   1      42.532  26.679  28.988  1.00  0.00     0.031 C 
ATOM     50  C   UNL A   1      44.404  29.668  31.757  1.00  0.00     0.029 A 
ATOM     51  N   UNL A   1      42.679  31.003  32.265  1.00  0.00    -0.354 N 
ATOM     52  C   UNL A   1      44.147  25.749  29.863  1.00  0.00     0.074 A 
ATOM     53  C   UNL A   1      42.986  25.459  29.142  1.00  0.00     0.031 C 
ATOM     54  C   UNL A   1      44.774  30.429  32.809  1.00  0.00     0.029 A 
ATOM     55  C   UNL A   1      43.521  30.874  33.379  1.00  0.00     0.049 A 
ATOM     56  H   UNL A   1      42.065  31.734  32.023  1.00  0.00     0.167 HD
ATOM     57  C   UNL A   1      45.398  25.582  29.345  1.00  0.00     0.034 A 
ATOM     58  C   UNL A   1      42.935  30.193  34.399  1.00  0.00     0.034 A 
ATOM     59  C   UNL A   1      46.317  25.983  30.361  1.00  0.00     0.049 A 
ATOM     60  C   UNL A   1      43.823  28.694  34.709  1.00  0.00     0.074 A 
ATOM     61  C   UNL A   1      47.109  27.082  30.600  1.00  0.00     0.029 A 
ATOM     62  N   UNL A   1      46.140  25.333  31.557  1.00  0.00    -0.354 N 
ATOM     63  N   UNL A   1      44.584  27.984  33.859  1.00  0.00    -0.248 NA
ATOM     64  C   UNL A   1      44.020  28.012  36.004  1.00  0.00     0.031 C 
ATOM     65  C   UNL A   1      47.161  27.226  32.019  1.00  0.00     0.029 A 
ATOM     66  C   UNL A   1      46.435  26.191  32.581  1.00  0.00     0.049 A 
ATOM     67  H   UNL A   1      45.847  24.398  31.660  1.00  0.00     0.167 HD
ATOM     68  C   UNL A   1      45.182  26.841  34.467  1.00  0.00     0.074 A 
ATOM     69  C   UNL A   1      44.798  26.947  35.823  1.00  0.00     0.031 C 
ATOM     70  C   UNL A   1      45.949  25.846  33.890  1.00  0.00     0.034 A 
BRANCH  57  71
ATOM     71  C   UNL A   1      45.790  25.168  27.915  1.00  0.00     0.023 A 
ATOM     72  C   UNL A   1      46.537  26.123  27.195  1.00  0.00     0.012 A 
ATOM     73  C   UNL A   1      45.405  24.011  27.164  1.00  0.00     0.148 A 
ATOM     74  C   UNL A   1      46.871  25.963  25.842  1.00  0.00     0.002 A 
ATOM     75  C   UNL A   1      45.798  23.820  25.831  1.00  0.00     0.091 A 
ATOM     76  F   UNL A   1      44.564  23.106  27.674  1.00  0.00    -0.205 F 
ATOM     77  C   UNL A   1      46.517  24.808  25.162  1.00  0.00     0.022 A 
BRANCH  75  78
ATOM     78  S   UNL A   1      45.397  22.333  24.876  1.00  0.00     0.127 S 
ATOM     79  O   UNL A   1      45.416  22.839  23.503  1.00  0.00    -0.237 OA
ATOM     80  O   UNL A   1      46.507  21.440  25.209  1.00  0.00    -0.237 OA
ATOM     81  O   UNL A   1      44.093  21.882  25.345  1.00  0.00    -0.744 OA
ENDBRANCH  75  78
ENDBRANCH  57  71
BRANCH  58  82
ATOM     82  C   UNL A   1      41.342  30.791  34.499  1.00  0.00     0.023 A 
ATOM     83  C   UNL A   1      40.165  29.985  34.476  1.00  0.00     0.012 A 
ATOM     84  C   UNL A   1      40.954  32.113  34.737  1.00  0.00     0.148 A 
ATOM     85  C   UNL A   1      38.830  30.523  34.431  1.00  0.00     0.002 A 
ATOM     86  C   UNL A   1      39.670  32.734  34.574  1.00  0.00     0.091 A 
ATOM     87  F   UNL A   1      41.807  32.617  35.593  1.00  0.00    -0.205 F 
ATOM     88  C   UNL A   1      38.590  31.896  34.392  1.00  0.00     0.022 A 
BRANCH  86  89
ATOM     89  S   UNL A   1      39.279  34.529  34.852  1.00  0.00     0.127 S 
ATOM     90  O   UNL A   1      38.717  34.509  36.217  1.00  0.00    -0.237 OA
ATOM     91  O   UNL A   1      40.594  35.169  34.771  1.00  0.00    -0.237 OA
ATOM     92  O   UNL A   1      38.400  34.948  33.792  1.00  0.00    -0.744 OA
ENDBRANCH  86  89
ENDBRANCH  58  82
BRANCH  70  93
ATOM     93  C   UNL A   1      46.285  24.392  34.431  1.00  0.00     0.023 A 
ATOM     94  C   UNL A   1      45.346  23.350  34.561  1.00  0.00     0.012 A 
ATOM     95  C   UNL A   1      47.639  23.978  34.680  1.00  0.00     0.148 A 
ATOM     96  C   UNL A   1      45.708  22.028  34.913  1.00  0.00     0.002 A 
ATOM     97  C   UNL A   1      48.009  22.640  34.871  1.00  0.00     0.091 A 
ATOM     98  F   UNL A   1      48.618  24.888  34.789  1.00  0.00    -0.205 F 
ATOM     99  C   UNL A   1      47.041  21.661  35.024  1.00  0.00     0.022 A 
BRANCH  97 100
ATOM    100  S   UNL A   1      49.736  22.124  34.732  1.00  0.00     0.127 S 
ATOM    101  O   UNL A   1      49.784  20.961  35.614  1.00  0.00    -0.237 OA
ATOM    102  O   UNL A   1      49.864  21.814  33.307  1.00  0.00    -0.237 OA
ATOM    103  O   UNL A   1      50.499  23.292  35.156  1.00  0.00    -0.744 OA
ENDBRANCH  97 100
ENDBRANCH  70  93
ENDBRANCH  44  45
ENDBRANCH  37  39
ENDBRANCH  36  37
ENDBRANCH  35  36
ENDBRANCH  34  35
ENDBRANCH  33  34
ENDBRANCH   1  33
TORSDOF 23
ENDMDL
MODEL 2
REMARK VINA RESULT:     -12.1      4.304      7.358
REMARK SMILES COc1ccc(-c2cc(Cl)cc3c2O[C@H](C(F)(F)F)C(C(=O)OCCOCCOCCOC(=O)c2ccc(-c4c5nc(c(-c6cccc(S(=O)(=O)[O-])c6F)c6ccc([nH]6)c(-c6cccc(S(=O)(=O)[O-])c6F)c6nc(c(-c7cccc(S(=O)(=O)[O-])c7F)c7ccc4[nH]7)C=C6)C=C5)cc2)=C3)cc1C
REMARK SMILES IDX 28 1 27 2 26 3 25 4 24 5 23 6 21 7 22 8 20 9 7 10 8 11 13 12
REMARK SMILES IDX 9 13 12 14 14 15 10 16 11 17 98 18 15 19 6 20 3 21 4 22
REMARK SMILES IDX 100 23 5 24 99 25 101 26 2 27 1 28 16 29 17 30 18 31 19 32
REMARK SMILES IDX 29 33 30 34 31 35 32 36 33 37 34 38 35 39 36 40 97 41 37 42
REMARK SMILES IDX 96 43 38 44 39 45 40 46 90 47 41 48 95 49 89 50 91 51 42 52
REMARK SMILES IDX 94 53 88 54 87 55 43 57 75 58 55 59 74 60 56 61 59 62 73 63
REMARK SMILES IDX 92 64 57 65 58 66 72 68 93 69 60 70 44 71 45 72 53 73 46 74
REMARK SMILES IDX 48 75 54 76 47 77 49 78 50 79 51 80 52 81 76 82 77 83 85 84
REMARK SMILES IDX 78 85 80 86 86 87 79 88 81 89 82 90 83 91 84 92 61 93 62 94
REMARK SMILES IDX 70 95 63 96 65 97 71 98 64 99 66 100 67 101 68 102 69 103
REMARK H PARENT 91 56 59 67
REMARK Flexibility Score: inf
ROOT
ATOM      1  C   UNL A   1      33.224  36.666  30.994  1.00  0.00     0.188 C 
ENDROOT
BRANCH   1   2
ATOM      2  C   UNL A   1      32.988  35.384  30.222  1.00  0.00     0.188 C 
BRANCH   2   3
ATOM      3  O   UNL A   1      34.033  34.485  30.076  1.00  0.00    -0.376 OA
BRANCH   3   4
ATOM      4  C   UNL A   1      34.394  34.307  28.706  1.00  0.00     0.202 C 
BRANCH   4   5
ATOM      5  C   UNL A   1      35.113  32.964  27.984  1.00  0.00     0.261 C 
BRANCH   5   6
ATOM      6  O   UNL A   1      34.881  31.142  27.915  1.00  0.00    -0.460 OA
BRANCH   6   7
ATOM      7  C   UNL A   1      35.037  29.618  27.258  1.00  0.00     0.338 C 
ATOM      8  O   UNL A   1      36.093  29.079  27.619  1.00  0.00    -0.246 OA
BRANCH   7   9
ATOM      9  C   UNL A   1      34.108  28.694  26.005  1.00  0.00     0.087 C 
ATOM     10  C   UNL A   1      32.187  24.705  24.517  1.00  0.00     0.026 A 
ATOM     11  C   UNL A   1      30.905  24.885  24.108  1.00  0.00     0.033 A 
ATOM     12  C   UNL A   1      32.885  26.164  24.767  1.00  0.00     0.135 A 
ATOM     13  C   UNL A   1      30.547  26.221  23.749  1.00  0.00     0.042 A 
ATOM     14  C   UNL A   1      32.822  27.372  24.084  1.00  0.00     0.019 A 
ATOM     15  O   UNL A   1      32.013  27.046  26.005  1.00  0.00    -0.475 OA
ATOM     16  Cl  UNL A   1      28.834  26.489  23.595  1.00  0.00    -0.084 Cl
ATOM     17  C   UNL A   1      31.480  27.412  23.631  1.00  0.00     0.032 A 
ATOM     18  C   UNL A   1      33.953  28.395  24.650  1.00  0.00     0.027 C 
ATOM     19  C   UNL A   1      32.691  28.435  26.524  1.00  0.00     0.316 C 
BRANCH  10  20
ATOM     20  C   UNL A   1      32.940  23.134  24.194  1.00  0.00    -0.014 A 
ATOM     21  C   UNL A   1      33.795  20.276  24.664  1.00  0.00     0.121 A 
ATOM     22  C   UNL A   1      32.659  20.608  23.960  1.00  0.00     0.047 A 
ATOM     23  C   UNL A   1      34.700  21.320  24.799  1.00  0.00    -0.008 A 
ATOM     24  C   UNL A   1      32.326  21.996  23.637  1.00  0.00     0.013 A 
ATOM     25  C   UNL A   1      34.280  22.711  24.521  1.00  0.00     0.016 A 
ATOM     26  C   UNL A   1      36.096  20.960  25.252  1.00  0.00     0.048 C 
BRANCH  21  27
ATOM     27  O   UNL A   1      34.133  18.962  24.884  1.00  0.00    -0.496 OA
ATOM     28  C   UNL A   1      33.555  18.008  23.975  1.00  0.00     0.278 C 
ENDBRANCH  21  27
ENDBRANCH  10  20
BRANCH  19  29
ATOM     29  C   UNL A   1      31.910  29.778  26.258  1.00  0.00     0.430 C 
ATOM     30  F   UNL A   1      32.668  30.774  25.747  1.00  0.00    -0.167 F 
ATOM     31  F   UNL A   1      30.852  29.612  25.426  1.00  0.00    -0.167 F 
ATOM     32  F   UNL A   1      31.374  30.306  27.406  1.00  0.00    -0.167 F 
ENDBRANCH  19  29
ENDBRANCH   7   9
ENDBRANCH   6   7
ENDBRANCH   5   6
ENDBRANCH   4   5
ENDBRANCH   3   4
ENDBRANCH   2   3
ENDBRANCH   1   2
BRANCH   1  33
ATOM     33  O   UNL A   1      34.241  36.632  31.964  1.00  0.00    -0.376 OA
BRANCH  33  34
ATOM     34  C   UNL A   1      33.871  35.983  33.171  1.00  0.00     0.202 C 
BRANCH  34  35
ATOM     35  C   UNL A   1      34.888  34.984  33.825  1.00  0.00     0.261 C 
BRANCH  35  36
ATOM     36  O   UNL A   1      34.928  33.647  33.202  1.00  0.00    -0.460 OA
BRANCH  36  37
ATOM     37  C   UNL A   1      35.918  33.117  32.406  1.00  0.00     0.338 C 
ATOM     38  O   UNL A   1      35.723  32.190  31.632  1.00  0.00    -0.246 OA
BRANCH  37  39
ATOM     39  C   UNL A   1      37.195  33.866  32.390  1.00  0.00     0.060 A 
ATOM     40  C   UNL A   1      37.637  34.467  31.268  1.00  0.00     0.016 A 
ATOM     41  C   UNL A   1      37.974  34.256  33.440  1.00  0.00     0.016 A 
ATOM     42  C   UNL A   1      39.040  34.576  31.088  1.00  0.00     0.010 A 
ATOM     43  C   UNL A   1      39.377  34.397  33.189  1.00  0.00     0.010 A 
ATOM     44  C   UNL A   1      40.003  34.079  31.922  1.00  0.00    -0.014 A 
BRANCH  44  45
ATOM     45  C   UNL A   1      41.678  33.541  31.420  1.00  0.00     0.031 A 
ATOM     46  C   UNL A   1      42.668  33.797  29.867  1.00  0.00     0.074 A 
ATOM     47  C   UNL A   1      42.465  33.120  32.426  1.00  0.00     0.049 A 
ATOM     48  N   UNL A   1      43.570  33.018  29.323  1.00  0.00    -0.248 NA
ATOM     49  C   UNL A   1      42.509  34.964  28.763  1.00  0.00     0.031 C 
ATOM     50  C   UNL A   1      43.894  32.761  32.414  1.00  0.00     0.029 A 
ATOM     51  N   UNL A   1      42.068  32.779  33.711  1.00  0.00    -0.354 N 
ATOM     52  C   UNL A   1      44.031  33.716  28.162  1.00  0.00     0.074 A 
ATOM     53  C   UNL A   1      42.985  34.481  27.641  1.00  0.00     0.031 C 
ATOM     54  C   UNL A   1      44.096  31.877  33.414  1.00  0.00     0.029 A 
ATOM     55  C   UNL A   1      42.764  31.576  33.892  1.00  0.00     0.049 A 
ATOM     56  H   UNL A   1      41.463  33.253  34.327  1.00  0.00     0.167 HD
ATOM     57  C   UNL A   1      45.345  34.033  27.967  1.00  0.00     0.034 A 
ATOM     58  C   UNL A   1      42.078  30.501  33.419  1.00  0.00     0.034 A 
ATOM     59  C   UNL A   1      46.109  33.036  28.645  1.00  0.00     0.049 A 
ATOM     60  C   UNL A   1      42.975  29.752  32.090  1.00  0.00     0.074 A 
ATOM     61  C   UNL A   1      46.821  32.967  29.820  1.00  0.00     0.029 A 
ATOM     62  N   UNL A   1      45.805  31.752  28.269  1.00  0.00    -0.354 N 
ATOM     63  N   UNL A   1      43.866  30.321  31.259  1.00  0.00    -0.248 NA
ATOM     64  C   UNL A   1      43.030  28.322  31.730  1.00  0.00     0.031 C 
ATOM     65  C   UNL A   1      46.685  31.623  30.282  1.00  0.00     0.029 A 
ATOM     66  C   UNL A   1      45.933  30.926  29.353  1.00  0.00     0.049 A 
ATOM     67  H   UNL A   1      45.536  31.471  27.364  1.00  0.00     0.167 HD
ATOM     68  C   UNL A   1      44.424  29.401  30.325  1.00  0.00     0.074 A 
ATOM     69  C   UNL A   1      43.864  28.160  30.705  1.00  0.00     0.031 C 
ATOM     70  C   UNL A   1      45.296  29.639  29.279  1.00  0.00     0.034 A 
BRANCH  57  71
ATOM     71  C   UNL A   1      45.933  35.273  27.270  1.00  0.00     0.023 A 
ATOM     72  C   UNL A   1      46.893  35.005  26.273  1.00  0.00     0.012 A 
ATOM     73  C   UNL A   1      45.741  36.661  27.567  1.00  0.00     0.148 A 
ATOM     74  C   UNL A   1      47.618  36.016  25.625  1.00  0.00     0.002 A 
ATOM     75  C   UNL A   1      46.417  37.674  26.869  1.00  0.00     0.091 A 
ATOM     76  F   UNL A   1      44.982  37.048  28.595  1.00  0.00    -0.205 F 
ATOM     77  C   UNL A   1      47.372  37.350  25.909  1.00  0.00     0.022 A 
BRANCH  75  78
ATOM     78  S   UNL A   1      46.141  39.441  27.163  1.00  0.00     0.127 S 
ATOM     79  O   UNL A   1      47.034  40.056  26.180  1.00  0.00    -0.237 OA
ATOM     80  O   UNL A   1      44.717  39.588  26.863  1.00  0.00    -0.237 OA
ATOM     81  O   UNL A   1      46.497  39.688  28.554  1.00  0.00    -0.744 OA
ENDBRANCH  75  78
ENDBRANCH  57  71
BRANCH  58  82
ATOM     82  C   UNL A   1      40.464  30.728  33.917  1.00  0.00     0.023 A 
ATOM     83  C   UNL A   1      39.316  30.439  33.121  1.00  0.00     0.012 A 
ATOM     84  C   UNL A   1      40.022  31.105  35.188  1.00  0.00     0.148 A 
ATOM     85  C   UNL A   1      37.969  30.762  33.515  1.00  0.00     0.002 A 
ATOM     86  C   UNL A   1      38.730  31.567  35.610  1.00  0.00     0.091 A 
ATOM     87  F   UNL A   1      40.810  30.524  36.058  1.00  0.00    -0.205 F 
ATOM     88  C   UNL A   1      37.687  31.403  34.721  1.00  0.00     0.022 A 
BRANCH  86  89
ATOM     89  S   UNL A   1      38.267  32.113  37.324  1.00  0.00     0.127 S 
ATOM     90  O   UNL A   1      37.489  30.958  37.812  1.00  0.00    -0.237 OA
ATOM     91  O   UNL A   1      39.566  32.263  37.984  1.00  0.00    -0.237 OA
ATOM     92  O   UNL A   1      37.567  33.365  37.203  1.00  0.00    -0.744 OA
ENDBRANCH  86  89
ENDBRANCH  58  82
BRANCH  70  93
ATOM     93  C   UNL A   1      45.614  28.741  28.008  1.00  0.00     0.023 A 
ATOM     94  C   UNL A   1      46.898  28.287  27.650  1.00  0.00     0.012 A 
ATOM     95  C   UNL A   1      44.561  28.179  27.206  1.00  0.00     0.148 A 
ATOM     96  C   UNL A   1      47.123  27.374  26.593  1.00  0.00     0.002 A 
ATOM     97  C   UNL A   1      44.774  27.158  26.269  1.00  0.00     0.091 A 
ATOM     98  F   UNL A   1      43.312  28.658  27.292  1.00  0.00    -0.205 F 
ATOM     99  C   UNL A   1      46.062  26.775  25.931  1.00  0.00     0.022 A 
BRANCH  97 100
ATOM    100  S   UNL A   1      43.393  26.187  25.623  1.00  0.00     0.127 S 
ATOM    101  O   UNL A   1      44.077  25.126  24.890  1.00  0.00    -0.237 OA
ATOM    102  O   UNL A   1      42.712  25.746  26.842  1.00  0.00    -0.237 OA
ATOM    103  O   UNL A   1      42.625  27.135  24.824  1.00  0.00    -0.744 OA
ENDBRANCH  97 100
ENDBRANCH  70  93
ENDBRANCH  44  45
ENDBRANCH  37  39
ENDBRANCH  36  37
ENDBRANCH  35  36
ENDBRANCH  34  35
ENDBRANCH  33  34
ENDBRANCH   1  33
TORSDOF 23
ENDMDL
MODEL 3
REMARK VINA RESULT:     -11.9      3.072      6.573
REMARK SMILES COc1ccc(-c2cc(Cl)cc3c2O[C@H](C(F)(F)F)C(C(=O)OCCOCCOCCOC(=O)c2ccc(-c4c5nc(c(-c6cccc(S(=O)(=O)[O-])c6F)c6ccc([nH]6)c(-c6cccc(S(=O)(=O)[O-])c6F)c6nc(c(-c7cccc(S(=O)(=O)[O-])c7F)c7ccc4[nH]7)C=C6)C=C5)cc2)=C3)cc1C
REMARK SMILES IDX 28 1 27 2 26 3 25 4 24 5 23 6 21 7 22 8 20 9 7 10 8 11 13 12
REMARK SMILES IDX 9 13 12 14 14 15 10 16 11 17 98 18 15 19 6 20 3 21 4 22
REMARK SMILES IDX 100 23 5 24 99 25 101 26 2 27 1 28 16 29 17 30 18 31 19 32
REMARK SMILES IDX 29 33 30 34 31 35 32 36 33 37 34 38 35 39 36 40 97 41 37 42
REMARK SMILES IDX 96 43 38 44 39 45 40 46 90 47 41 48 95 49 89 50 91 51 42 52
REMARK SMILES IDX 94 53 88 54 87 55 43 57 75 58 55 59 74 60 56 61 59 62 73 63
REMARK SMILES IDX 92 64 57 65 58 66 72 68 93 69 60 70 44 71 45 72 53 73 46 74
REMARK SMILES IDX 48 75 54 76 47 77 49 78 50 79 51 80 52 81 76 82 77 83 85 84
REMARK SMILES IDX 78 85 80 86 86 87 79 88 81 89 82 90 83 91 84 92 61 93 62 94
REMARK SMILES IDX 70 95 63 96 65 97 71 98 64 99 66 100 67 101 68 102 69 103
REMARK H PARENT 91 56 59 67
REMARK Flexibility Score: inf
ROOT
ATOM      1  C   UNL A   1      39.623  23.163  27.104  1.00  0.00     0.188 C 
ENDROOT
BRANCH   1   2
ATOM      2  C   UNL A   1      40.106  22.181  26.058  1.00  0.00     0.188 C 
BRANCH   2   3
ATOM      3  O   UNL A   1      40.155  20.832  26.374  1.00  0.00    -0.376 OA
BRANCH   3   4
ATOM      4  C   UNL A   1      39.239  20.069  25.589  1.00  0.00     0.202 C 
BRANCH   4   5
ATOM      5  C   UNL A   1      37.770  20.565  24.926  1.00  0.00     0.261 C 
BRANCH   5   6
ATOM      6  O   UNL A   1      36.878  22.130  24.559  1.00  0.00    -0.460 OA
BRANCH   6   7
ATOM      7  C   UNL A   1      35.719  23.078  23.827  1.00  0.00     0.338 C 
ATOM      8  O   UNL A   1      35.868  23.101  22.596  1.00  0.00    -0.246 OA
BRANCH   7   9
ATOM      9  C   UNL A   1      34.446  24.207  24.453  1.00  0.00     0.087 C 
ATOM     10  C   UNL A   1      33.080  28.520  25.615  1.00  0.00     0.026 A 
ATOM     11  C   UNL A   1      31.880  28.834  25.064  1.00  0.00     0.033 A 
ATOM     12  C   UNL A   1      33.374  26.925  25.399  1.00  0.00     0.135 A 
ATOM     13  C   UNL A   1      31.063  27.726  24.678  1.00  0.00     0.042 A 
ATOM     14  C   UNL A   1      32.567  25.797  25.470  1.00  0.00     0.019 A 
ATOM     15  O   UNL A   1      33.417  26.544  23.689  1.00  0.00    -0.475 OA
ATOM     16  Cl  UNL A   1      29.722  28.147  23.651  1.00  0.00    -0.084 Cl
ATOM     17  C   UNL A   1      31.328  26.259  24.959  1.00  0.00     0.032 A 
ATOM     18  C   UNL A   1      33.480  24.450  25.431  1.00  0.00     0.027 C 
ATOM     19  C   UNL A   1      33.899  25.039  23.290  1.00  0.00     0.316 C 
BRANCH  10  20
ATOM     20  C   UNL A   1      33.755  29.641  26.811  1.00  0.00    -0.014 A 
ATOM     21  C   UNL A   1      35.159  32.083  27.896  1.00  0.00     0.121 A 
ATOM     22  C   UNL A   1      33.789  31.999  27.786  1.00  0.00     0.047 A 
ATOM     23  C   UNL A   1      35.806  30.857  27.843  1.00  0.00    -0.008 A 
ATOM     24  C   UNL A   1      33.121  30.765  27.374  1.00  0.00     0.013 A 
ATOM     25  C   UNL A   1      35.092  29.657  27.352  1.00  0.00     0.016 A 
ATOM     26  C   UNL A   1      37.250  30.825  28.288  1.00  0.00     0.048 C 
BRANCH  21  27
ATOM     27  O   UNL A   1      35.763  33.226  28.365  1.00  0.00    -0.496 OA
ATOM     28  C   UNL A   1      35.179  33.799  29.548  1.00  0.00     0.278 C 
ENDBRANCH  21  27
ENDBRANCH  10  20
BRANCH  19  29
ATOM     29  C   UNL A   1      32.856  24.098  22.574  1.00  0.00     0.430 C 
ATOM     30  F   UNL A   1      32.535  22.986  23.272  1.00  0.00    -0.167 F 
ATOM     31  F   UNL A   1      31.695  24.735  22.278  1.00  0.00    -0.167 F 
ATOM     32  F   UNL A   1      33.316  23.630  21.369  1.00  0.00    -0.167 F 
ENDBRANCH  19  29
ENDBRANCH   7   9
ENDBRANCH   6   7
ENDBRANCH   5   6
ENDBRANCH   4   5
ENDBRANCH   3   4
ENDBRANCH   2   3
ENDBRANCH   1   2
BRANCH   1  33
ATOM     33  O   UNL A   1      39.547  24.510  26.708  1.00  0.00    -0.376 OA
BRANCH  33  34
ATOM     34  C   UNL A   1      40.362  25.387  27.469  1.00  0.00     0.202 C 
BRANCH  34  35
ATOM     35  C   UNL A   1      39.682  26.275  28.568  1.00  0.00     0.261 C 
BRANCH  35  36
ATOM     36  O   UNL A   1      39.204  27.588  28.093  1.00  0.00    -0.460 OA
BRANCH  36  37
ATOM     37  C   UNL A   1      39.941  28.590  27.504  1.00  0.00     0.338 C 
ATOM     38  O   UNL A   1      39.651  29.081  26.422  1.00  0.00    -0.246 OA
BRANCH  37  39
ATOM     39  C   UNL A   1      40.999  29.188  28.350  1.00  0.00     0.060 A 
ATOM     40  C   UNL A   1      42.302  29.060  28.032  1.00  0.00     0.016 A 
ATOM     41  C   UNL A   1      40.876  30.085  29.371  1.00  0.00     0.016 A 
ATOM     42  C   UNL A   1      43.240  29.033  29.096  1.00  0.00     0.010 A 
ATOM     43  C   UNL A   1      41.879  30.046  30.393  1.00  0.00     0.010 A 
ATOM     44  C   UNL A   1      42.949  29.070  30.431  1.00  0.00    -0.014 A 
BRANCH  44  45
ATOM     45  C   UNL A   1      43.954  28.323  31.766  1.00  0.00     0.031 A 
ATOM     46  C   UNL A   1      45.457  27.228  31.745  1.00  0.00     0.074 A 
ATOM     47  C   UNL A   1      43.768  28.858  32.985  1.00  0.00     0.049 A 
ATOM     48  N   UNL A   1      45.825  26.312  32.606  1.00  0.00    -0.248 NA
ATOM     49  C   UNL A   1      46.552  27.058  30.570  1.00  0.00     0.031 C 
ATOM     50  C   UNL A   1      44.498  28.613  34.241  1.00  0.00     0.029 A 
ATOM     51  N   UNL A   1      42.724  29.680  33.386  1.00  0.00    -0.354 N 
ATOM     52  C   UNL A   1      47.072  25.805  32.118  1.00  0.00     0.074 A 
ATOM     53  C   UNL A   1      47.077  25.867  30.722  1.00  0.00     0.031 C 
ATOM     54  C   UNL A   1      43.650  28.871  35.258  1.00  0.00     0.029 A 
ATOM     55  C   UNL A   1      42.375  29.086  34.607  1.00  0.00     0.049 A 
ATOM     56  H   UNL A   1      42.336  30.465  32.936  1.00  0.00     0.167 HD
ATOM     57  C   UNL A   1      48.216  25.824  32.861  1.00  0.00     0.034 A 
ATOM     58  C   UNL A   1      41.487  28.069  34.457  1.00  0.00     0.034 A 
ATOM     59  C   UNL A   1      47.815  25.750  34.229  1.00  0.00     0.049 A 
ATOM     60  C   UNL A   1      42.221  26.546  34.979  1.00  0.00     0.074 A 
ATOM     61  C   UNL A   1      47.716  26.634  35.279  1.00  0.00     0.029 A 
ATOM     62  N   UNL A   1      47.007  24.677  34.514  1.00  0.00    -0.354 N 
ATOM     63  N   UNL A   1      43.524  26.217  35.015  1.00  0.00    -0.248 NA
ATOM     64  C   UNL A   1      41.555  25.392  35.616  1.00  0.00     0.031 C 
ATOM     65  C   UNL A   1      46.607  26.190  36.061  1.00  0.00     0.029 A 
ATOM     66  C   UNL A   1      46.107  25.038  35.479  1.00  0.00     0.049 A 
ATOM     67  H   UNL A   1      47.066  23.791  34.089  1.00  0.00     0.167 HD
ATOM     68  C   UNL A   1      43.756  24.909  35.532  1.00  0.00     0.074 A 
ATOM     69  C   UNL A   1      42.467  24.468  35.910  1.00  0.00     0.031 C 
ATOM     70  C   UNL A   1      44.943  24.209  35.638  1.00  0.00     0.034 A 
BRANCH  57  71
ATOM     71  C   UNL A   1      49.665  26.012  32.376  1.00  0.00     0.023 A 
ATOM     72  C   UNL A   1      50.494  24.879  32.503  1.00  0.00     0.012 A 
ATOM     73  C   UNL A   1      50.329  27.200  31.930  1.00  0.00     0.148 A 
ATOM     74  C   UNL A   1      51.868  24.908  32.226  1.00  0.00     0.002 A 
ATOM     75  C   UNL A   1      51.690  27.211  31.588  1.00  0.00     0.091 A 
ATOM     76  F   UNL A   1      49.700  28.379  31.919  1.00  0.00    -0.205 F 
ATOM     77  C   UNL A   1      52.466  26.067  31.754  1.00  0.00     0.022 A 
BRANCH  75  78
ATOM     78  S   UNL A   1      52.543  28.675  30.945  1.00  0.00     0.127 S 
ATOM     79  O   UNL A   1      51.613  29.142  29.916  1.00  0.00    -0.237 OA
ATOM     80  O   UNL A   1      52.621  29.534  32.126  1.00  0.00    -0.237 OA
ATOM     81  O   UNL A   1      53.830  28.213  30.443  1.00  0.00    -0.744 OA
ENDBRANCH  75  78
ENDBRANCH  57  71
BRANCH  58  82
ATOM     82  C   UNL A   1      40.336  28.623  33.328  1.00  0.00     0.023 A 
ATOM     83  C   UNL A   1      39.803  27.846  32.258  1.00  0.00     0.012 A 
ATOM     84  C   UNL A   1      39.663  29.849  33.348  1.00  0.00     0.148 A 
ATOM     85  C   UNL A   1      38.932  28.379  31.242  1.00  0.00     0.002 A 
ATOM     86  C   UNL A   1      38.898  30.490  32.317  1.00  0.00     0.091 A 
ATOM     87  F   UNL A   1      39.414  30.132  34.602  1.00  0.00    -0.205 F 
ATOM     88  C   UNL A   1      38.552  29.720  31.225  1.00  0.00     0.022 A 
BRANCH  86  89
ATOM     89  S   UNL A   1      38.100  32.164  32.426  1.00  0.00     0.127 S 
ATOM     90  O   UNL A   1      36.747  31.825  32.908  1.00  0.00    -0.237 OA
ATOM     91  O   UNL A   1      38.920  32.855  33.423  1.00  0.00    -0.237 OA
ATOM     92  O   UNL A   1      38.194  32.772  31.124  1.00  0.00    -0.744 OA
ENDBRANCH  86  89
ENDBRANCH  58  82
BRANCH  70  93
ATOM     93  C   UNL A   1      45.180  22.650  35.826  1.00  0.00     0.023 A 
ATOM     94  C   UNL A   1      45.160  21.706  34.781  1.00  0.00     0.012 A 
ATOM     95  C   UNL A   1      45.604  22.103  37.086  1.00  0.00     0.148 A 
ATOM     96  C   UNL A   1      45.515  20.348  34.964  1.00  0.00     0.002 A 
ATOM     97  C   UNL A   1      46.104  20.801  37.227  1.00  0.00     0.091 A 
ATOM     98  F   UNL A   1      45.488  22.821  38.212  1.00  0.00    -0.205 F 
ATOM     99  C   UNL A   1      46.029  19.904  36.173  1.00  0.00     0.022 A 
BRANCH  97 100
ATOM    100  S   UNL A   1      47.028  20.314  38.702  1.00  0.00     0.127 S 
ATOM    101  O   UNL A   1      45.988  20.297  39.727  1.00  0.00    -0.237 OA
ATOM    102  O   UNL A   1      47.546  18.995  38.336  1.00  0.00    -0.237 OA
ATOM    103  O   UNL A   1      48.057  21.338  38.840  1.00  0.00    -0.744 OA
ENDBRANCH  97 100
ENDBRANCH  70  93
ENDBRANCH  44  45
ENDBRANCH  37  39
ENDBRANCH  36  37
ENDBRANCH  35  36
ENDBRANCH  34  35
ENDBRANCH  33  34
ENDBRANCH   1  33
TORSDOF 23
ENDMDL
