MODEL 1
REMARK VINA RESULT:      -8.8      0.000      0.000
REMARK SMILES O=C(NCc1ccc(C(=O)OCCOCCOCCOC(=O)c2ccc(-c3c4nc(c(-c5cccc(S(=O)(=O)[O-])c5F)c5ccc([nH]5)c(-c5cccc(S(=O)(=O)[O-])c5F)c5nc(c(-c6cccc(S(=O)(=O)[O-])c6F)c6ccc3[nH]6)C=C5)C=C4)cc2)o1)Nc1ccc(F)c(Cl)c1
REMARK SMILES IDX 15 1 14 2 13 3 12 4 11 5 9 6 10 7 8 8 5 9 6 10 86 11 7 12
REMARK SMILES IDX 4 13 3 14 1 15 2 16 87 17 88 20 89 21 95 22 90 23 93 24
REMARK SMILES IDX 91 25 94 26 92 27 16 28 17 29 18 30 19 31 20 32 21 33 22 34
REMARK SMILES IDX 23 35 24 36 85 37 25 38 84 39 26 40 27 41 28 42 78 43 29 44
REMARK SMILES IDX 83 45 77 46 79 47 30 48 82 49 76 50 75 51 31 53 63 54 43 55
REMARK SMILES IDX 62 56 44 57 47 58 61 59 80 60 45 61 46 62 60 64 81 65 48 66
REMARK SMILES IDX 32 67 33 68 41 69 34 70 36 71 42 72 35 73 37 74 38 75 39 76
REMARK SMILES IDX 40 77 64 78 65 79 73 80 66 81 68 82 74 83 67 84 69 85 70 86
REMARK SMILES IDX 71 87 72 88 49 89 50 90 58 91 51 92 53 93 59 94 52 95 54 96
REMARK SMILES IDX 55 97 56 98 57 99
REMARK H PARENT 3 18 87 19 79 52 47 63
REMARK Flexibility Score: inf
ROOT
ATOM      1  C   UNL A   1      33.979  34.848  28.895  1.00  0.00     0.188 C 
ENDROOT
BRANCH   1   2
ATOM      2  O   UNL A   1      33.275  33.818  28.211  1.00  0.00    -0.376 OA
BRANCH   2   3
ATOM      3  C   UNL A   1      33.866  32.527  28.106  1.00  0.00     0.202 C 
BRANCH   3   4
ATOM      4  C   UNL A   1      35.059  32.239  29.022  1.00  0.00     0.261 C 
BRANCH   4   5
ATOM      5  O   UNL A   1      36.268  32.061  28.262  1.00  0.00    -0.457 OA
BRANCH   5   6
ATOM      6  C   UNL A   1      37.414  31.947  28.995  1.00  0.00     0.374 C 
ATOM      7  O   UNL A   1      37.885  32.830  29.699  1.00  0.00    -0.242 OA
BRANCH   6   8
ATOM      8  C   UNL A   1      37.903  30.591  28.904  1.00  0.00     0.211 A 
ATOM      9  C   UNL A   1      39.503  29.085  28.663  1.00  0.00     0.124 A 
ATOM     10  C   UNL A   1      38.361  28.389  28.998  1.00  0.00     0.048 A 
ATOM     11  O   UNL A   1      39.220  30.417  28.579  1.00  0.00    -0.452 OA
ATOM     12  C   UNL A   1      37.339  29.357  29.176  1.00  0.00     0.058 A 
BRANCH   9  13
ATOM     13  C   UNL A   1      40.913  28.693  28.410  1.00  0.00     0.193 C 
BRANCH  13  14
ATOM     14  N   UNL A   1      40.995  28.097  27.103  1.00  0.00    -0.331 N 
ATOM     15  O   UNL A   1      41.326  26.617  25.522  1.00  0.00    -0.248 OA
ATOM     16  C   UNL A   1      41.170  26.812  26.725  1.00  0.00     0.319 C 
ATOM     17  N   UNL A   1      41.124  25.854  27.701  1.00  0.00    -0.308 N 
ATOM     18  H   UNL A   1      40.908  28.734  26.358  1.00  0.00     0.165 HD
ATOM     19  H   UNL A   1      40.860  26.130  28.608  1.00  0.00     0.171 HD
BRANCH  17  20
ATOM     20  C   UNL A   1      41.432  24.490  27.489  1.00  0.00     0.044 A 
ATOM     21  C   UNL A   1      42.631  23.974  27.995  1.00  0.00     0.029 A 
ATOM     22  C   UNL A   1      40.540  23.635  26.841  1.00  0.00     0.049 A 
ATOM     23  C   UNL A   1      42.878  22.596  27.942  1.00  0.00     0.043 A 
ATOM     24  C   UNL A   1      40.756  22.262  26.843  1.00  0.00     0.078 A 
ATOM     25  C   UNL A   1      41.922  21.745  27.396  1.00  0.00     0.141 A 
ATOM     26  Cl  UNL A   1      39.487  21.255  26.271  1.00  0.00    -0.081 Cl
ATOM     27  F   UNL A   1      42.129  20.422  27.452  1.00  0.00    -0.205 F 
ENDBRANCH  17  20
ENDBRANCH  13  14
ENDBRANCH   9  13
ENDBRANCH   6   8
ENDBRANCH   5   6
ENDBRANCH   4   5
ENDBRANCH   3   4
ENDBRANCH   2   3
ENDBRANCH   1   2
BRANCH   1  28
ATOM     28  C   UNL A   1      33.304  35.504  30.114  1.00  0.00     0.188 C 
BRANCH  28  29
ATOM     29  O   UNL A   1      33.212  34.664  31.256  1.00  0.00    -0.376 OA
BRANCH  29  30
ATOM     30  C   UNL A   1      34.432  34.440  31.952  1.00  0.00     0.202 C 
BRANCH  30  31
ATOM     31  C   UNL A   1      34.433  33.189  32.839  1.00  0.00     0.261 C 
BRANCH  31  32
ATOM     32  O   UNL A   1      35.653  32.429  32.820  1.00  0.00    -0.460 OA
BRANCH  32  33
ATOM     33  C   UNL A   1      36.482  32.569  33.879  1.00  0.00     0.338 C 
ATOM     34  O   UNL A   1      36.222  33.086  34.951  1.00  0.00    -0.246 OA
BRANCH  33  35
ATOM     35  C   UNL A   1      37.732  31.838  33.587  1.00  0.00     0.060 A 
ATOM     36  C   UNL A   1      38.935  32.321  34.114  1.00  0.00     0.016 A 
ATOM     37  C   UNL A   1      37.719  30.697  32.778  1.00  0.00     0.016 A 
ATOM     38  C   UNL A   1      40.138  31.683  33.797  1.00  0.00     0.010 A 
ATOM     39  C   UNL A   1      38.924  30.067  32.455  1.00  0.00     0.010 A 
ATOM     40  C   UNL A   1      40.143  30.577  32.934  1.00  0.00    -0.014 A 
BRANCH  40  41
ATOM     41  C   UNL A   1      41.432  30.068  32.398  1.00  0.00     0.031 A 
ATOM     42  C   UNL A   1      42.073  30.815  31.259  1.00  0.00     0.074 A 
ATOM     43  C   UNL A   1      42.007  28.954  32.891  1.00  0.00     0.049 A 
ATOM     44  N   UNL A   1      43.251  30.646  30.717  1.00  0.00    -0.248 NA
ATOM     45  C   UNL A   1      41.283  31.900  30.647  1.00  0.00     0.031 C 
ATOM     46  C   UNL A   1      41.449  28.118  33.952  1.00  0.00     0.029 A 
ATOM     47  N   UNL A   1      43.176  28.318  32.546  1.00  0.00    -0.354 N 
ATOM     48  C   UNL A   1      43.333  31.579  29.689  1.00  0.00     0.074 A 
ATOM     49  C   UNL A   1      42.087  32.312  29.678  1.00  0.00     0.031 C 
ATOM     50  C   UNL A   1      42.260  27.063  34.151  1.00  0.00     0.029 A 
ATOM     51  C   UNL A   1      43.397  27.142  33.234  1.00  0.00     0.049 A 
ATOM     52  H   UNL A   1      43.798  28.669  31.869  1.00  0.00     0.167 HD
ATOM     53  C   UNL A   1      44.363  31.816  28.843  1.00  0.00     0.034 A 
ATOM     54  C   UNL A   1      44.409  26.249  33.135  1.00  0.00     0.034 A 
ATOM     55  C   UNL A   1      45.609  31.102  28.881  1.00  0.00     0.049 A 
ATOM     56  C   UNL A   1      45.573  26.606  32.224  1.00  0.00     0.074 A 
ATOM     57  C   UNL A   1      46.751  31.316  28.131  1.00  0.00     0.029 A 
ATOM     58  N   UNL A   1      45.866  30.019  29.705  1.00  0.00    -0.354 N 
ATOM     59  N   UNL A   1      45.770  27.693  31.509  1.00  0.00    -0.248 NA
ATOM     60  C   UNL A   1      46.691  25.653  32.159  1.00  0.00     0.031 C 
ATOM     61  C   UNL A   1      47.697  30.352  28.496  1.00  0.00     0.029 A 
ATOM     62  C   UNL A   1      47.143  29.541  29.473  1.00  0.00     0.049 A 
ATOM     63  H   UNL A   1      45.234  29.643  30.359  1.00  0.00     0.167 HD
ATOM     64  C   UNL A   1      47.058  27.581  30.986  1.00  0.00     0.074 A 
ATOM     65  C   UNL A   1      47.610  26.350  31.507  1.00  0.00     0.031 C 
ATOM     66  C   UNL A   1      47.717  28.389  30.116  1.00  0.00     0.034 A 
BRANCH  53  67
ATOM     67  C   UNL A   1      44.205  32.922  27.835  1.00  0.00     0.023 A 
ATOM     68  C   UNL A   1      43.960  32.596  26.486  1.00  0.00     0.012 A 
ATOM     69  C   UNL A   1      44.237  34.273  28.227  1.00  0.00     0.148 A 
ATOM     70  C   UNL A   1      43.770  33.600  25.537  1.00  0.00     0.002 A 
ATOM     71  C   UNL A   1      44.013  35.269  27.280  1.00  0.00     0.091 A 
ATOM     72  F   UNL A   1      44.501  34.563  29.509  1.00  0.00    -0.205 F 
ATOM     73  C   UNL A   1      43.787  34.934  25.936  1.00  0.00     0.022 A 
BRANCH  71  74
ATOM     74  S   UNL A   1      43.951  37.011  27.711  1.00  0.00     0.127 S 
ATOM     75  O   UNL A   1      43.144  37.556  26.621  1.00  0.00    -0.237 OA
ATOM     76  O   UNL A   1      43.281  36.987  29.011  1.00  0.00    -0.237 OA
ATOM     77  O   UNL A   1      45.336  37.460  27.754  1.00  0.00    -0.744 OA
ENDBRANCH  71  74
ENDBRANCH  53  67
BRANCH  54  78
ATOM     78  C   UNL A   1      44.453  25.012  33.995  1.00  0.00     0.023 A 
ATOM     79  C   UNL A   1      44.024  23.779  33.465  1.00  0.00     0.012 A 
ATOM     80  C   UNL A   1      44.917  25.022  35.328  1.00  0.00     0.148 A 
ATOM     81  C   UNL A   1      44.034  22.603  34.218  1.00  0.00     0.002 A 
ATOM     82  C   UNL A   1      45.000  23.832  36.052  1.00  0.00     0.091 A 
ATOM     83  F   UNL A   1      45.284  26.193  35.865  1.00  0.00    -0.205 F 
ATOM     84  C   UNL A   1      44.545  22.625  35.505  1.00  0.00     0.022 A 
BRANCH  82  85
ATOM     85  S   UNL A   1      45.749  23.729  37.683  1.00  0.00     0.127 S 
ATOM     86  O   UNL A   1      45.691  22.293  37.952  1.00  0.00    -0.237 OA
ATOM     87  O   UNL A   1      47.091  24.253  37.430  1.00  0.00    -0.237 OA
ATOM     88  O   UNL A   1      44.925  24.557  38.553  1.00  0.00    -0.744 OA
ENDBRANCH  82  85
ENDBRANCH  54  78
BRANCH  66  89
ATOM     89  C   UNL A   1      49.123  28.000  29.727  1.00  0.00     0.023 A 
ATOM     90  C   UNL A   1      50.210  28.467  30.493  1.00  0.00     0.012 A 
ATOM     91  C   UNL A   1      49.370  27.135  28.643  1.00  0.00     0.148 A 
ATOM     92  C   UNL A   1      51.520  28.131  30.154  1.00  0.00     0.002 A 
ATOM     93  C   UNL A   1      50.676  26.759  28.343  1.00  0.00     0.091 A 
ATOM     94  F   UNL A   1      48.332  26.702  27.912  1.00  0.00    -0.205 F 
ATOM     95  C   UNL A   1      51.753  27.269  29.086  1.00  0.00     0.022 A 
BRANCH  93  96
ATOM     96  S   UNL A   1      51.043  25.559  27.055  1.00  0.00     0.127 S 
ATOM     97  O   UNL A   1      50.325  24.378  27.529  1.00  0.00    -0.237 OA
ATOM     98  O   UNL A   1      50.467  26.183  25.862  1.00  0.00    -0.237 OA
ATOM     99  O   UNL A   1      52.496  25.455  27.029  1.00  0.00    -0.744 OA
ENDBRANCH  93  96
ENDBRANCH  66  89
ENDBRANCH  40  41
ENDBRANCH  33  35
ENDBRANCH  32  33
ENDBRANCH  31  32
ENDBRANCH  30  31
ENDBRANCH  29  30
ENDBRANCH  28  29
ENDBRANCH   1  28
TORSDOF 23
ENDMDL
MODEL 2
REMARK VINA RESULT:      -8.6      4.751     11.740
REMARK SMILES O=C(NCc1ccc(C(=O)OCCOCCOCCOC(=O)c2ccc(-c3c4nc(c(-c5cccc(S(=O)(=O)[O-])c5F)c5ccc([nH]5)c(-c5cccc(S(=O)(=O)[O-])c5F)c5nc(c(-c6cccc(S(=O)(=O)[O-])c6F)c6ccc3[nH]6)C=C5)C=C4)cc2)o1)Nc1ccc(F)c(Cl)c1
REMARK SMILES IDX 15 1 14 2 13 3 12 4 11 5 9 6 10 7 8 8 5 9 6 10 86 11 7 12
REMARK SMILES IDX 4 13 3 14 1 15 2 16 87 17 88 20 89 21 95 22 90 23 93 24
REMARK SMILES IDX 91 25 94 26 92 27 16 28 17 29 18 30 19 31 20 32 21 33 22 34
REMARK SMILES IDX 23 35 24 36 85 37 25 38 84 39 26 40 27 41 28 42 78 43 29 44
REMARK SMILES IDX 83 45 77 46 79 47 30 48 82 49 76 50 75 51 31 53 63 54 43 55
REMARK SMILES IDX 62 56 44 57 47 58 61 59 80 60 45 61 46 62 60 64 81 65 48 66
REMARK SMILES IDX 32 67 33 68 41 69 34 70 36 71 42 72 35 73 37 74 38 75 39 76
REMARK SMILES IDX 40 77 64 78 65 79 73 80 66 81 68 82 74 83 67 84 69 85 70 86
REMARK SMILES IDX 71 87 72 88 49 89 50 90 58 91 51 92 53 93 59 94 52 95 54 96
REMARK SMILES IDX 55 97 56 98 57 99
REMARK H PARENT 3 18 87 19 79 52 47 63
REMARK Flexibility Score: inf
ROOT
ATOM      1  C   UNL A   1      40.738  19.863  26.085  1.00  0.00     0.188 C 
ENDROOT
BRANCH   1   2
ATOM      2  O   UNL A   1      39.720  19.079  25.473  1.00  0.00    -0.376 OA
BRANCH   2   3
ATOM      3  C   UNL A   1      38.452  19.672  25.211  1.00  0.00     0.202 C 
BRANCH   3   4
ATOM      4  C   UNL A   1      38.366  21.196  25.335  1.00  0.00     0.261 C 
BRANCH   4   5
ATOM      5  O   UNL A   1      37.478  21.749  24.346  1.00  0.00    -0.457 OA
BRANCH   5   6
ATOM      6  C   UNL A   1      36.560  22.646  24.814  1.00  0.00     0.374 C 
ATOM      7  O   UNL A   1      36.646  23.861  24.694  1.00  0.00    -0.242 OA
BRANCH   6   8
ATOM      8  C   UNL A   1      35.429  21.930  25.355  1.00  0.00     0.211 A 
ATOM      9  C   UNL A   1      33.743  21.683  26.763  1.00  0.00     0.124 A 
ATOM     10  C   UNL A   1      33.622  20.674  25.830  1.00  0.00     0.048 A 
ATOM     11  O   UNL A   1      34.853  22.427  26.491  1.00  0.00    -0.452 OA
ATOM     12  C   UNL A   1      34.690  20.847  24.912  1.00  0.00     0.058 A 
BRANCH   9  13
ATOM     13  C   UNL A   1      32.932  22.110  27.931  1.00  0.00     0.193 C 
BRANCH  13  14
ATOM     14  N   UNL A   1      31.753  22.780  27.449  1.00  0.00    -0.331 N 
ATOM     15  O   UNL A   1      30.457  24.326  26.595  1.00  0.00    -0.248 OA
ATOM     16  C   UNL A   1      31.610  23.936  26.765  1.00  0.00     0.319 C 
ATOM     17  N   UNL A   1      32.746  24.540  26.298  1.00  0.00    -0.308 N 
ATOM     18  H   UNL A   1      30.908  22.317  27.652  1.00  0.00     0.165 HD
ATOM     19  H   UNL A   1      33.598  24.055  26.387  1.00  0.00     0.171 HD
BRANCH  17  20
ATOM     20  C   UNL A   1      32.773  25.819  25.696  1.00  0.00     0.044 A 
ATOM     21  C   UNL A   1      32.686  26.958  26.506  1.00  0.00     0.029 A 
ATOM     22  C   UNL A   1      32.949  25.972  24.320  1.00  0.00     0.049 A 
ATOM     23  C   UNL A   1      32.878  28.229  25.950  1.00  0.00     0.043 A 
ATOM     24  C   UNL A   1      33.201  27.227  23.779  1.00  0.00     0.078 A 
ATOM     25  C   UNL A   1      33.168  28.352  24.595  1.00  0.00     0.141 A 
ATOM     26  Cl  UNL A   1      33.677  27.303  22.130  1.00  0.00    -0.081 Cl
ATOM     27  F   UNL A   1      33.456  29.566  24.104  1.00  0.00    -0.205 F 
ENDBRANCH  17  20
ENDBRANCH  13  14
ENDBRANCH   9  13
ENDBRANCH   6   8
ENDBRANCH   5   6
ENDBRANCH   4   5
ENDBRANCH   3   4
ENDBRANCH   2   3
ENDBRANCH   1   2
BRANCH   1  28
ATOM     28  C   UNL A   1      42.086  19.187  26.396  1.00  0.00     0.188 C 
BRANCH  28  29
ATOM     29  O   UNL A   1      42.764  18.677  25.256  1.00  0.00    -0.376 OA
BRANCH  29  30
ATOM     30  C   UNL A   1      44.178  18.831  25.264  1.00  0.00     0.202 C 
BRANCH  30  31
ATOM     31  C   UNL A   1      44.681  20.095  24.556  1.00  0.00     0.261 C 
BRANCH  31  32
ATOM     32  O   UNL A   1      44.567  21.308  25.318  1.00  0.00    -0.460 OA
BRANCH  32  33
ATOM     33  C   UNL A   1      44.067  22.390  24.682  1.00  0.00     0.338 C 
ATOM     34  O   UNL A   1      43.875  22.515  23.485  1.00  0.00    -0.246 OA
BRANCH  33  35
ATOM     35  C   UNL A   1      43.627  23.364  25.702  1.00  0.00     0.060 A 
ATOM     36  C   UNL A   1      44.173  24.653  25.686  1.00  0.00     0.016 A 
ATOM     37  C   UNL A   1      42.702  22.999  26.685  1.00  0.00     0.016 A 
ATOM     38  C   UNL A   1      43.822  25.569  26.680  1.00  0.00     0.010 A 
ATOM     39  C   UNL A   1      42.360  23.914  27.685  1.00  0.00     0.010 A 
ATOM     40  C   UNL A   1      42.944  25.192  27.707  1.00  0.00    -0.014 A 
BRANCH  40  41
ATOM     41  C   UNL A   1      42.777  26.072  28.893  1.00  0.00     0.031 A 
ATOM     42  C   UNL A   1      43.786  25.965  30.006  1.00  0.00     0.074 A 
ATOM     43  C   UNL A   1      41.741  26.926  28.994  1.00  0.00     0.049 A 
ATOM     44  N   UNL A   1      43.929  26.712  31.069  1.00  0.00    -0.248 NA
ATOM     45  C   UNL A   1      44.768  24.869  29.909  1.00  0.00     0.031 C 
ATOM     46  C   UNL A   1      40.673  27.074  28.007  1.00  0.00     0.029 A 
ATOM     47  N   UNL A   1      41.401  27.814  29.987  1.00  0.00    -0.354 N 
ATOM     48  C   UNL A   1      44.993  26.165  31.777  1.00  0.00     0.074 A 
ATOM     49  C   UNL A   1      45.461  25.020  31.028  1.00  0.00     0.031 C 
ATOM     50  C   UNL A   1      39.781  27.974  28.458  1.00  0.00     0.029 A 
ATOM     51  C   UNL A   1      40.208  28.472  29.766  1.00  0.00     0.049 A 
ATOM     52  H   UNL A   1      41.958  27.966  30.785  1.00  0.00     0.167 HD
ATOM     53  C   UNL A   1      45.543  26.591  32.939  1.00  0.00     0.034 A 
ATOM     54  C   UNL A   1      39.554  29.376  30.531  1.00  0.00     0.034 A 
ATOM     55  C   UNL A   1      45.090  27.747  33.661  1.00  0.00     0.049 A 
ATOM     56  C   UNL A   1      40.256  29.871  31.787  1.00  0.00     0.074 A 
ATOM     57  C   UNL A   1      45.626  28.319  34.800  1.00  0.00     0.029 A 
ATOM     58  N   UNL A   1      43.975  28.496  33.322  1.00  0.00    -0.354 N 
ATOM     59  N   UNL A   1      41.449  29.567  32.251  1.00  0.00    -0.248 NA
ATOM     60  C   UNL A   1      39.559  30.889  32.587  1.00  0.00     0.031 C 
ATOM     61  C   UNL A   1      44.826  29.411  35.155  1.00  0.00     0.029 A 
ATOM     62  C   UNL A   1      43.794  29.516  34.236  1.00  0.00     0.049 A 
ATOM     63  H   UNL A   1      43.395  28.326  32.544  1.00  0.00     0.167 HD
ATOM     64  C   UNL A   1      41.666  30.411  33.338  1.00  0.00     0.074 A 
ATOM     65  C   UNL A   1      40.507  31.273  33.430  1.00  0.00     0.031 C 
ATOM     66  C   UNL A   1      42.700  30.451  34.218  1.00  0.00     0.034 A 
BRANCH  53  67
ATOM     67  C   UNL A   1      46.724  25.831  33.478  1.00  0.00     0.023 A 
ATOM     68  C   UNL A   1      48.027  26.262  33.156  1.00  0.00     0.012 A 
ATOM     69  C   UNL A   1      46.551  24.736  34.345  1.00  0.00     0.148 A 
ATOM     70  C   UNL A   1      49.141  25.601  33.673  1.00  0.00     0.002 A 
ATOM     71  C   UNL A   1      47.666  24.102  34.884  1.00  0.00     0.091 A 
ATOM     72  F   UNL A   1      45.304  24.323  34.615  1.00  0.00    -0.205 F 
ATOM     73  C   UNL A   1      48.960  24.529  34.544  1.00  0.00     0.022 A 
BRANCH  71  74
ATOM     74  S   UNL A   1      47.533  22.755  36.064  1.00  0.00     0.127 S 
ATOM     75  O   UNL A   1      47.013  23.446  37.242  1.00  0.00    -0.237 OA
ATOM     76  O   UNL A   1      46.576  21.862  35.410  1.00  0.00    -0.237 OA
ATOM     77  O   UNL A   1      48.877  22.208  36.196  1.00  0.00    -0.744 OA
ENDBRANCH  71  74
ENDBRANCH  53  67
BRANCH  54  78
ATOM     78  C   UNL A   1      38.244  29.976  30.093  1.00  0.00     0.023 A 
ATOM     79  C   UNL A   1      37.074  29.190  30.116  1.00  0.00     0.012 A 
ATOM     80  C   UNL A   1      38.121  31.313  29.657  1.00  0.00     0.148 A 
ATOM     81  C   UNL A   1      35.835  29.690  29.711  1.00  0.00     0.002 A 
ATOM     82  C   UNL A   1      36.868  31.834  29.329  1.00  0.00     0.091 A 
ATOM     83  F   UNL A   1      39.229  32.062  29.583  1.00  0.00    -0.205 F 
ATOM     84  C   UNL A   1      35.727  31.020  29.341  1.00  0.00     0.022 A 
BRANCH  82  85
ATOM     85  S   UNL A   1      36.599  33.569  28.946  1.00  0.00     0.127 S 
ATOM     86  O   UNL A   1      36.055  33.498  27.591  1.00  0.00    -0.237 OA
ATOM     87  O   UNL A   1      35.635  33.957  29.976  1.00  0.00    -0.237 OA
ATOM     88  O   UNL A   1      37.902  34.208  29.058  1.00  0.00    -0.744 OA
ENDBRANCH  82  85
ENDBRANCH  54  78
BRANCH  66  89
ATOM     89  C   UNL A   1      42.653  31.494  35.309  1.00  0.00     0.023 A 
ATOM     90  C   UNL A   1      42.125  31.154  36.571  1.00  0.00     0.012 A 
ATOM     91  C   UNL A   1      43.176  32.787  35.110  1.00  0.00     0.148 A 
ATOM     92  C   UNL A   1      42.061  32.097  37.596  1.00  0.00     0.002 A 
ATOM     93  C   UNL A   1      43.159  33.706  36.154  1.00  0.00     0.091 A 
ATOM     94  F   UNL A   1      43.668  33.105  33.903  1.00  0.00    -0.205 F 
ATOM     95  C   UNL A   1      42.588  33.369  37.391  1.00  0.00     0.022 A 
BRANCH  93  96
ATOM     96  S   UNL A   1      43.926  35.325  36.000  1.00  0.00     0.127 S 
ATOM     97  O   UNL A   1      43.099  36.138  36.889  1.00  0.00    -0.237 OA
ATOM     98  O   UNL A   1      45.286  35.084  36.485  1.00  0.00    -0.237 OA
ATOM     99  O   UNL A   1      43.851  35.652  34.581  1.00  0.00    -0.744 OA
ENDBRANCH  93  96
ENDBRANCH  66  89
ENDBRANCH  40  41
ENDBRANCH  33  35
ENDBRANCH  32  33
ENDBRANCH  31  32
ENDBRANCH  30  31
ENDBRANCH  29  30
ENDBRANCH  28  29
ENDBRANCH   1  28
TORSDOF 23
ENDMDL
MODEL 3
REMARK VINA RESULT:      -8.6      5.053     11.121
REMARK SMILES O=C(NCc1ccc(C(=O)OCCOCCOCCOC(=O)c2ccc(-c3c4nc(c(-c5cccc(S(=O)(=O)[O-])c5F)c5ccc([nH]5)c(-c5cccc(S(=O)(=O)[O-])c5F)c5nc(c(-c6cccc(S(=O)(=O)[O-])c6F)c6ccc3[nH]6)C=C5)C=C4)cc2)o1)Nc1ccc(F)c(Cl)c1
REMARK SMILES IDX 15 1 14 2 13 3 12 4 11 5 9 6 10 7 8 8 5 9 6 10 86 11 7 12
REMARK SMILES IDX 4 13 3 14 1 15 2 16 87 17 88 20 89 21 95 22 90 23 93 24
REMARK SMILES IDX 91 25 94 26 92 27 16 28 17 29 18 30 19 31 20 32 21 33 22 34
REMARK SMILES IDX 23 35 24 36 85 37 25 38 84 39 26 40 27 41 28 42 78 43 29 44
REMARK SMILES IDX 83 45 77 46 79 47 30 48 82 49 76 50 75 51 31 53 63 54 43 55
REMARK SMILES IDX 62 56 44 57 47 58 61 59 80 60 45 61 46 62 60 64 81 65 48 66
REMARK SMILES IDX 32 67 33 68 41 69 34 70 36 71 42 72 35 73 37 74 38 75 39 76
REMARK SMILES IDX 40 77 64 78 65 79 73 80 66 81 68 82 74 83 67 84 69 85 70 86
REMARK SMILES IDX 71 87 72 88 49 89 50 90 58 91 51 92 53 93 59 94 52 95 54 96
REMARK SMILES IDX 55 97 56 98 57 99
REMARK H PARENT 3 18 87 19 79 52 47 63
REMARK Flexibility Score: inf
ROOT
ATOM      1  C   UNL A   1      41.012  19.947  26.034  1.00  0.00     0.188 C 
ENDROOT
BRANCH   1   2
ATOM      2  O   UNL A   1      40.010  19.128  25.441  1.00  0.00    -0.376 OA
BRANCH   2   3
ATOM      3  C   UNL A   1      38.667  19.600  25.399  1.00  0.00     0.202 C 
BRANCH   3   4
ATOM      4  C   UNL A   1      38.470  21.118  25.382  1.00  0.00     0.261 C 
BRANCH   4   5
ATOM      5  O   UNL A   1      37.386  21.494  24.512  1.00  0.00    -0.457 OA
BRANCH   5   6
ATOM      6  C   UNL A   1      36.450  22.322  25.061  1.00  0.00     0.374 C 
ATOM      7  O   UNL A   1      36.619  23.512  25.293  1.00  0.00    -0.242 OA
BRANCH   6   8
ATOM      8  C   UNL A   1      35.206  21.604  25.205  1.00  0.00     0.211 A 
ATOM      9  C   UNL A   1      33.038  21.480  25.616  1.00  0.00     0.124 A 
ATOM     10  C   UNL A   1      33.418  20.235  25.162  1.00  0.00     0.048 A 
ATOM     11  O   UNL A   1      34.125  22.302  25.668  1.00  0.00    -0.452 OA
ATOM     12  C   UNL A   1      34.806  20.320  24.876  1.00  0.00     0.058 A 
BRANCH   9  13
ATOM     13  C   UNL A   1      31.738  22.079  26.017  1.00  0.00     0.193 C 
BRANCH  13  14
ATOM     14  N   UNL A   1      31.097  22.609  24.842  1.00  0.00    -0.331 N 
ATOM     15  O   UNL A   1      30.490  24.011  23.272  1.00  0.00    -0.248 OA
ATOM     16  C   UNL A   1      31.279  23.774  24.184  1.00  0.00     0.319 C 
ATOM     17  N   UNL A   1      32.335  24.558  24.565  1.00  0.00    -0.308 N 
ATOM     18  H   UNL A   1      30.410  22.021  24.452  1.00  0.00     0.165 HD
ATOM     19  H   UNL A   1      32.970  24.190  25.221  1.00  0.00     0.171 HD
BRANCH  17  20
ATOM     20  C   UNL A   1      32.569  25.864  24.076  1.00  0.00     0.044 A 
ATOM     21  C   UNL A   1      33.396  26.037  22.960  1.00  0.00     0.029 A 
ATOM     22  C   UNL A   1      31.945  26.976  24.642  1.00  0.00     0.049 A 
ATOM     23  C   UNL A   1      33.508  27.298  22.360  1.00  0.00     0.043 A 
ATOM     24  C   UNL A   1      32.006  28.212  24.012  1.00  0.00     0.078 A 
ATOM     25  C   UNL A   1      32.784  28.371  22.872  1.00  0.00     0.141 A 
ATOM     26  Cl  UNL A   1      30.994  29.464  24.613  1.00  0.00    -0.081 Cl
ATOM     27  F   UNL A   1      32.820  29.541  22.220  1.00  0.00    -0.205 F 
ENDBRANCH  17  20
ENDBRANCH  13  14
ENDBRANCH   9  13
ENDBRANCH   6   8
ENDBRANCH   5   6
ENDBRANCH   4   5
ENDBRANCH   3   4
ENDBRANCH   2   3
ENDBRANCH   1   2
BRANCH   1  28
ATOM     28  C   UNL A   1      42.425  19.356  26.202  1.00  0.00     0.188 C 
BRANCH  28  29
ATOM     29  O   UNL A   1      43.297  19.600  25.107  1.00  0.00    -0.376 OA
BRANCH  29  30
ATOM     30  C   UNL A   1      44.668  19.774  25.442  1.00  0.00     0.202 C 
BRANCH  30  31
ATOM     31  C   UNL A   1      45.230  21.160  25.104  1.00  0.00     0.261 C 
BRANCH  31  32
ATOM     32  O   UNL A   1      44.592  22.258  25.775  1.00  0.00    -0.460 OA
BRANCH  32  33
ATOM     33  C   UNL A   1      43.798  23.059  25.029  1.00  0.00     0.338 C 
ATOM     34  O   UNL A   1      43.260  22.779  23.972  1.00  0.00    -0.246 OA
BRANCH  33  35
ATOM     35  C   UNL A   1      43.548  24.300  25.789  1.00  0.00     0.060 A 
ATOM     36  C   UNL A   1      43.201  25.462  25.090  1.00  0.00     0.016 A 
ATOM     37  C   UNL A   1      43.681  24.324  27.181  1.00  0.00     0.016 A 
ATOM     38  C   UNL A   1      43.024  26.663  25.782  1.00  0.00     0.010 A 
ATOM     39  C   UNL A   1      43.513  25.528  27.870  1.00  0.00     0.010 A 
ATOM     40  C   UNL A   1      43.218  26.711  27.171  1.00  0.00    -0.014 A 
BRANCH  40  41
ATOM     41  C   UNL A   1      43.285  28.026  27.860  1.00  0.00     0.031 A 
ATOM     42  C   UNL A   1      44.630  28.687  28.003  1.00  0.00     0.074 A 
ATOM     43  C   UNL A   1      42.183  28.608  28.371  1.00  0.00     0.049 A 
ATOM     44  N   UNL A   1      44.922  29.884  28.440  1.00  0.00    -0.248 NA
ATOM     45  C   UNL A   1      45.806  27.895  27.598  1.00  0.00     0.031 C 
ATOM     46  C   UNL A   1      40.839  28.034  28.343  1.00  0.00     0.029 A 
ATOM     47  N   UNL A   1      42.022  29.799  29.037  1.00  0.00    -0.354 N 
ATOM     48  C   UNL A   1      46.308  29.979  28.389  1.00  0.00     0.074 A 
ATOM     49  C   UNL A   1      46.804  28.720  27.881  1.00  0.00     0.031 C 
ATOM     50  C   UNL A   1      39.997  28.860  28.991  1.00  0.00     0.029 A 
ATOM     51  C   UNL A   1      40.735  30.023  29.482  1.00  0.00     0.049 A 
ATOM     52  H   UNL A   1      42.759  30.435  29.185  1.00  0.00     0.167 HD
ATOM     53  C   UNL A   1      47.096  31.030  28.717  1.00  0.00     0.034 A 
ATOM     54  C   UNL A   1      40.223  31.055  30.191  1.00  0.00     0.034 A 
ATOM     55  C   UNL A   1      46.593  32.289  29.193  1.00  0.00     0.049 A 
ATOM     56  C   UNL A   1      41.136  32.240  30.466  1.00  0.00     0.074 A 
ATOM     57  C   UNL A   1      47.291  33.448  29.474  1.00  0.00     0.029 A 
ATOM     58  N   UNL A   1      45.261  32.542  29.479  1.00  0.00    -0.354 N 
ATOM     59  N   UNL A   1      42.382  32.437  30.091  1.00  0.00    -0.248 NA
ATOM     60  C   UNL A   1      40.558  33.378  31.196  1.00  0.00     0.031 C 
ATOM     61  C   UNL A   1      46.379  34.403  29.940  1.00  0.00     0.029 A 
ATOM     62  C   UNL A   1      45.116  33.834  29.948  1.00  0.00     0.049 A 
ATOM     63  H   UNL A   1      44.525  31.897  29.365  1.00  0.00     0.167 HD
ATOM     64  C   UNL A   1      42.695  33.742  30.469  1.00  0.00     0.074 A 
ATOM     65  C   UNL A   1      41.496  34.303  31.052  1.00  0.00     0.031 C 
ATOM     66  C   UNL A   1      43.874  34.412  30.391  1.00  0.00     0.034 A 
BRANCH  53  67
ATOM     67  C   UNL A   1      48.581  30.881  28.530  1.00  0.00     0.023 A 
ATOM     68  C   UNL A   1      49.332  30.182  29.497  1.00  0.00     0.012 A 
ATOM     69  C   UNL A   1      49.223  31.375  27.379  1.00  0.00     0.148 A 
ATOM     70  C   UNL A   1      50.704  29.994  29.330  1.00  0.00     0.002 A 
ATOM     71  C   UNL A   1      50.585  31.154  27.203  1.00  0.00     0.091 A 
ATOM     72  F   UNL A   1      48.497  32.063  26.485  1.00  0.00    -0.205 F 
ATOM     73  C   UNL A   1      51.327  30.471  28.180  1.00  0.00     0.022 A 
BRANCH  71  74
ATOM     74  S   UNL A   1      51.463  31.673  25.724  1.00  0.00     0.127 S 
ATOM     75  O   UNL A   1      51.363  30.479  24.887  1.00  0.00    -0.237 OA
ATOM     76  O   UNL A   1      50.658  32.806  25.266  1.00  0.00    -0.237 OA
ATOM     77  O   UNL A   1      52.807  32.024  26.162  1.00  0.00    -0.744 OA
ENDBRANCH  71  74
ENDBRANCH  53  67
BRANCH  54  78
ATOM     78  C   UNL A   1      38.767  31.098  30.578  1.00  0.00     0.023 A 
ATOM     79  C   UNL A   1      38.342  30.469  31.766  1.00  0.00     0.012 A 
ATOM     80  C   UNL A   1      37.787  31.752  29.802  1.00  0.00     0.148 A 
ATOM     81  C   UNL A   1      37.005  30.468  32.169  1.00  0.00     0.002 A 
ATOM     82  C   UNL A   1      36.465  31.819  30.247  1.00  0.00     0.091 A 
ATOM     83  F   UNL A   1      38.163  32.315  28.646  1.00  0.00    -0.205 F 
ATOM     84  C   UNL A   1      36.070  31.164  31.421  1.00  0.00     0.022 A 
BRANCH  82  85
ATOM     85  S   UNL A   1      35.199  32.787  29.415  1.00  0.00     0.127 S 
ATOM     86  O   UNL A   1      35.867  34.077  29.247  1.00  0.00    -0.237 OA
ATOM     87  O   UNL A   1      35.007  32.028  28.179  1.00  0.00    -0.237 OA
ATOM     88  O   UNL A   1      34.052  32.794  30.311  1.00  0.00    -0.744 OA
ENDBRANCH  82  85
ENDBRANCH  54  78
BRANCH  66  89
ATOM     89  C   UNL A   1      43.905  35.837  30.889  1.00  0.00     0.023 A 
ATOM     90  C   UNL A   1      44.169  36.090  32.251  1.00  0.00     0.012 A 
ATOM     91  C   UNL A   1      43.728  36.924  30.011  1.00  0.00     0.148 A 
ATOM     92  C   UNL A   1      44.196  37.395  32.742  1.00  0.00     0.002 A 
ATOM     93  C   UNL A   1      43.812  38.225  30.497  1.00  0.00     0.091 A 
ATOM     94  F   UNL A   1      43.468  36.675  28.719  1.00  0.00    -0.205 F 
ATOM     95  C   UNL A   1      44.028  38.462  31.864  1.00  0.00     0.022 A 
BRANCH  93  96
ATOM     96  S   UNL A   1      43.723  39.650  29.405  1.00  0.00     0.127 S 
ATOM     97  O   UNL A   1      42.368  39.540  28.872  1.00  0.00    -0.237 OA
ATOM     98  O   UNL A   1      43.926  40.772  30.323  1.00  0.00    -0.237 OA
ATOM     99  O   UNL A   1      44.804  39.465  28.444  1.00  0.00    -0.744 OA
ENDBRANCH  93  96
ENDBRANCH  66  89
ENDBRANCH  40  41
ENDBRANCH  33  35
ENDBRANCH  32  33
ENDBRANCH  31  32
ENDBRANCH  30  31
ENDBRANCH  29  30
ENDBRANCH  28  29
ENDBRANCH   1  28
TORSDOF 23
ENDMDL
