MODEL 1
REMARK VINA RESULT:     -11.0      0.000      0.000
REMARK SMILES Cc1ccc(NC(=O)c2cccnc2C(=O)OCCOCCOCCOC(=O)c2ccc(-c3c4nc(c(-c5cccc(S(=O)(=O)[O-])c5F)c5ccc([nH]5)c(-c5cccc(S(=O)(=O)[O-])c5F)c5nc(c(-c6cccc(S(=O)(=O)[O-])c6F)c6ccc3[nH]6)C=C5)C=C4)cc2)nc1
REMARK SMILES IDX 22 1 21 2 20 3 19 4 18 5 17 6 15 7 16 8 14 9 9 10 10 11
REMARK SMILES IDX 11 12 13 13 12 14 7 15 6 16 8 18 5 19 1 20 2 21 3 22 93 23
REMARK SMILES IDX 4 24 92 25 23 26 24 27 25 28 26 29 27 30 28 31 29 32 30 33
REMARK SMILES IDX 91 34 31 35 90 36 32 37 33 38 34 39 84 40 35 41 89 42 83 43
REMARK SMILES IDX 85 44 36 45 88 46 82 47 81 48 37 50 69 51 49 52 68 53 50 54
REMARK SMILES IDX 53 55 67 56 86 57 51 58 52 59 66 61 87 62 54 63 38 64 39 65
REMARK SMILES IDX 47 66 40 67 42 68 48 69 41 70 43 71 44 72 45 73 46 74 70 75
REMARK SMILES IDX 71 76 79 77 72 78 74 79 80 80 73 81 75 82 76 83 77 84 78 85
REMARK SMILES IDX 55 86 56 87 64 88 57 89 59 90 65 91 58 92 60 93 61 94 62 95
REMARK SMILES IDX 63 96
REMARK H PARENT 6 17 85 49 53 60
REMARK Flexibility Score: inf
ROOT
ATOM      1  C   UNL A   1      32.047  28.448  26.876  1.00  0.00     0.188 C 
ENDROOT
BRANCH   1   2
ATOM      2  C   UNL A   1      31.525  27.574  25.712  1.00  0.00     0.188 C 
BRANCH   2   3
ATOM      3  O   UNL A   1      32.017  27.817  24.407  1.00  0.00    -0.376 OA
BRANCH   3   4
ATOM      4  C   UNL A   1      32.978  26.943  23.827  1.00  0.00     0.202 C 
BRANCH   4   5
ATOM      5  C   UNL A   1      32.598  25.684  23.040  1.00  0.00     0.261 C 
BRANCH   5   6
ATOM      6  O   UNL A   1      33.704  25.033  22.412  1.00  0.00    -0.458 OA
BRANCH   6   7
ATOM      7  C   UNL A   1      33.688  23.681  22.555  1.00  0.00     0.357 C 
ATOM      8  O   UNL A   1      33.098  22.879  21.848  1.00  0.00    -0.244 OA
BRANCH   7   9
ATOM      9  C   UNL A   1      34.667  23.276  23.596  1.00  0.00     0.161 A 
ATOM     10  C   UNL A   1      34.288  22.770  24.836  1.00  0.00     0.073 A 
ATOM     11  C   UNL A   1      35.312  22.195  25.598  1.00  0.00     0.018 A 
ATOM     12  C   UNL A   1      36.644  22.277  25.189  1.00  0.00     0.021 A 
ATOM     13  N   UNL A   1      35.969  23.369  23.170  1.00  0.00    -0.248 NA
ATOM     14  C   UNL A   1      36.924  22.886  23.984  1.00  0.00     0.112 A 
BRANCH  10  15
ATOM     15  C   UNL A   1      32.861  22.718  25.235  1.00  0.00     0.259 C 
ATOM     16  N   UNL A   1      32.047  21.621  25.089  1.00  0.00    -0.306 N 
ATOM     17  H   UNL A   1      31.093  21.822  25.229  1.00  0.00     0.171 HD
ATOM     18  O   UNL A   1      32.318  23.748  25.639  1.00  0.00    -0.269 OA
BRANCH  16  19
ATOM     19  C   UNL A   1      32.291  20.283  24.782  1.00  0.00     0.132 A 
ATOM     20  C   UNL A   1      33.502  16.369  23.633  1.00  0.00     0.046 C 
ATOM     21  C   UNL A   1      33.011  17.733  24.002  1.00  0.00    -0.033 A 
ATOM     22  C   UNL A   1      32.626  18.660  23.039  1.00  0.00     0.009 A 
ATOM     23  C   UNL A   1      32.948  18.137  25.330  1.00  0.00     0.117 A 
ATOM     24  C   UNL A   1      32.242  19.940  23.434  1.00  0.00     0.047 A 
ATOM     25  N   UNL A   1      32.605  19.386  25.730  1.00  0.00    -0.239 NA
ENDBRANCH  16  19
ENDBRANCH  10  15
ENDBRANCH   7   9
ENDBRANCH   6   7
ENDBRANCH   5   6
ENDBRANCH   4   5
ENDBRANCH   3   4
ENDBRANCH   2   3
ENDBRANCH   1   2
BRANCH   1  26
ATOM     26  O   UNL A   1      32.466  29.787  26.669  1.00  0.00    -0.376 OA
BRANCH  26  27
ATOM     27  C   UNL A   1      31.507  30.832  26.700  1.00  0.00     0.202 C 
BRANCH  27  28
ATOM     28  C   UNL A   1      31.916  32.279  26.996  1.00  0.00     0.261 C 
BRANCH  28  29
ATOM     29  O   UNL A   1      33.321  32.540  26.901  1.00  0.00    -0.460 OA
BRANCH  29  30
ATOM     30  C   UNL A   1      33.876  33.070  28.016  1.00  0.00     0.338 C 
ATOM     31  O   UNL A   1      33.375  33.883  28.778  1.00  0.00    -0.246 OA
BRANCH  30  32
ATOM     32  C   UNL A   1      35.149  32.390  28.310  1.00  0.00     0.060 A 
ATOM     33  C   UNL A   1      35.108  31.017  28.588  1.00  0.00     0.016 A 
ATOM     34  C   UNL A   1      36.350  33.096  28.378  1.00  0.00     0.016 A 
ATOM     35  C   UNL A   1      36.267  30.352  28.978  1.00  0.00     0.010 A 
ATOM     36  C   UNL A   1      37.508  32.431  28.788  1.00  0.00     0.010 A 
ATOM     37  C   UNL A   1      37.462  31.065  29.123  1.00  0.00    -0.014 A 
BRANCH  37  38
ATOM     38  C   UNL A   1      38.615  30.416  29.790  1.00  0.00     0.031 A 
ATOM     39  C   UNL A   1      38.982  30.850  31.183  1.00  0.00     0.074 A 
ATOM     40  C   UNL A   1      39.311  29.443  29.175  1.00  0.00     0.049 A 
ATOM     41  N   UNL A   1      39.933  30.411  31.963  1.00  0.00    -0.248 NA
ATOM     42  C   UNL A   1      38.165  31.925  31.775  1.00  0.00     0.031 C 
ATOM     43  C   UNL A   1      39.052  28.938  27.828  1.00  0.00     0.029 A 
ATOM     44  N   UNL A   1      40.396  28.721  29.604  1.00  0.00    -0.354 N 
ATOM     45  C   UNL A   1      39.845  31.165  33.128  1.00  0.00     0.074 A 
ATOM     46  C   UNL A   1      38.757  32.100  32.947  1.00  0.00     0.031 C 
ATOM     47  C   UNL A   1      39.973  28.005  27.530  1.00  0.00     0.029 A 
ATOM     48  C   UNL A   1      40.890  27.857  28.658  1.00  0.00     0.049 A 
ATOM     49  H   UNL A   1      40.784  28.814  30.505  1.00  0.00     0.167 HD
ATOM     50  C   UNL A   1      40.590  31.074  34.255  1.00  0.00     0.034 A 
ATOM     51  C   UNL A   1      41.967  27.046  28.699  1.00  0.00     0.034 A 
ATOM     52  C   UNL A   1      41.664  30.136  34.439  1.00  0.00     0.049 A 
ATOM     53  C   UNL A   1      42.785  26.972  29.963  1.00  0.00     0.074 A 
ATOM     54  C   UNL A   1      42.459  29.947  35.556  1.00  0.00     0.029 A 
ATOM     55  N   UNL A   1      42.100  29.237  33.479  1.00  0.00    -0.354 N 
ATOM     56  N   UNL A   1      42.611  27.601  31.101  1.00  0.00    -0.248 NA
ATOM     57  C   UNL A   1      43.926  26.045  29.962  1.00  0.00     0.031 C 
ATOM     58  C   UNL A   1      43.387  28.941  35.264  1.00  0.00     0.029 A 
ATOM     59  C   UNL A   1      43.153  28.488  33.975  1.00  0.00     0.049 A 
ATOM     60  H   UNL A   1      41.717  29.143  32.577  1.00  0.00     0.167 HD
ATOM     61  C   UNL A   1      43.588  27.112  31.962  1.00  0.00     0.074 A 
ATOM     62  C   UNL A   1      44.340  26.122  31.219  1.00  0.00     0.031 C 
ATOM     63  C   UNL A   1      43.849  27.460  33.247  1.00  0.00     0.034 A 
BRANCH  50  64
ATOM     64  C   UNL A   1      40.241  31.993  35.395  1.00  0.00     0.023 A 
ATOM     65  C   UNL A   1      40.948  33.202  35.552  1.00  0.00     0.012 A 
ATOM     66  C   UNL A   1      39.184  31.689  36.275  1.00  0.00     0.148 A 
ATOM     67  C   UNL A   1      40.628  34.083  36.584  1.00  0.00     0.002 A 
ATOM     68  C   UNL A   1      38.844  32.592  37.276  1.00  0.00     0.091 A 
ATOM     69  F   UNL A   1      38.541  30.522  36.124  1.00  0.00    -0.205 F 
ATOM     70  C   UNL A   1      39.570  33.783  37.438  1.00  0.00     0.022 A 
BRANCH  68  71
ATOM     71  S   UNL A   1      37.451  32.332  38.380  1.00  0.00     0.127 S 
ATOM     72  O   UNL A   1      37.915  32.990  39.601  1.00  0.00    -0.237 OA
ATOM     73  O   UNL A   1      36.372  33.033  37.684  1.00  0.00    -0.237 OA
ATOM     74  O   UNL A   1      37.276  30.890  38.475  1.00  0.00    -0.744 OA
ENDBRANCH  68  71
ENDBRANCH  50  64
BRANCH  51  75
ATOM     75  C   UNL A   1      42.307  26.193  27.526  1.00  0.00     0.023 A 
ATOM     76  C   UNL A   1      43.016  26.751  26.444  1.00  0.00     0.012 A 
ATOM     77  C   UNL A   1      41.932  24.837  27.474  1.00  0.00     0.148 A 
ATOM     78  C   UNL A   1      43.313  25.985  25.317  1.00  0.00     0.002 A 
ATOM     79  C   UNL A   1      42.275  24.065  26.369  1.00  0.00     0.091 A 
ATOM     80  F   UNL A   1      41.240  24.329  28.504  1.00  0.00    -0.205 F 
ATOM     81  C   UNL A   1      42.951  24.641  25.283  1.00  0.00     0.022 A 
BRANCH  79  82
ATOM     82  S   UNL A   1      41.945  22.301  26.290  1.00  0.00     0.127 S 
ATOM     83  O   UNL A   1      42.785  21.891  25.168  1.00  0.00    -0.237 OA
ATOM     84  O   UNL A   1      42.405  21.847  27.602  1.00  0.00    -0.237 OA
ATOM     85  O   UNL A   1      40.507  22.183  26.084  1.00  0.00    -0.744 OA
ENDBRANCH  79  82
ENDBRANCH  51  75
BRANCH  63  86
ATOM     86  C   UNL A   1      44.960  26.730  33.958  1.00  0.00     0.023 A 
ATOM     87  C   UNL A   1      46.279  27.219  33.890  1.00  0.00     0.012 A 
ATOM     88  C   UNL A   1      44.683  25.597  34.749  1.00  0.00     0.148 A 
ATOM     89  C   UNL A   1      47.312  26.570  34.566  1.00  0.00     0.002 A 
ATOM     90  C   UNL A   1      45.710  24.984  35.459  1.00  0.00     0.091 A 
ATOM     91  F   UNL A   1      43.426  25.133  34.789  1.00  0.00    -0.205 F 
ATOM     92  C   UNL A   1      47.026  25.460  35.359  1.00  0.00     0.022 A 
BRANCH  90  93
ATOM     93  S   UNL A   1      45.406  23.610  36.578  1.00  0.00     0.127 S 
ATOM     94  O   UNL A   1      44.567  22.738  35.760  1.00  0.00    -0.237 OA
ATOM     95  O   UNL A   1      46.756  23.101  36.825  1.00  0.00    -0.237 OA
ATOM     96  O   UNL A   1      44.763  24.191  37.750  1.00  0.00    -0.744 OA
ENDBRANCH  90  93
ENDBRANCH  63  86
ENDBRANCH  37  38
ENDBRANCH  30  32
ENDBRANCH  29  30
ENDBRANCH  28  29
ENDBRANCH  27  28
ENDBRANCH  26  27
ENDBRANCH   1  26
TORSDOF 22
ENDMDL
MODEL 2
REMARK VINA RESULT:     -10.9      5.144      8.406
REMARK SMILES Cc1ccc(NC(=O)c2cccnc2C(=O)OCCOCCOCCOC(=O)c2ccc(-c3c4nc(c(-c5cccc(S(=O)(=O)[O-])c5F)c5ccc([nH]5)c(-c5cccc(S(=O)(=O)[O-])c5F)c5nc(c(-c6cccc(S(=O)(=O)[O-])c6F)c6ccc3[nH]6)C=C5)C=C4)cc2)nc1
REMARK SMILES IDX 22 1 21 2 20 3 19 4 18 5 17 6 15 7 16 8 14 9 9 10 10 11
REMARK SMILES IDX 11 12 13 13 12 14 7 15 6 16 8 18 5 19 1 20 2 21 3 22 93 23
REMARK SMILES IDX 4 24 92 25 23 26 24 27 25 28 26 29 27 30 28 31 29 32 30 33
REMARK SMILES IDX 91 34 31 35 90 36 32 37 33 38 34 39 84 40 35 41 89 42 83 43
REMARK SMILES IDX 85 44 36 45 88 46 82 47 81 48 37 50 69 51 49 52 68 53 50 54
REMARK SMILES IDX 53 55 67 56 86 57 51 58 52 59 66 61 87 62 54 63 38 64 39 65
REMARK SMILES IDX 47 66 40 67 42 68 48 69 41 70 43 71 44 72 45 73 46 74 70 75
REMARK SMILES IDX 71 76 79 77 72 78 74 79 80 80 73 81 75 82 76 83 77 84 78 85
REMARK SMILES IDX 55 86 56 87 64 88 57 89 59 90 65 91 58 92 60 93 61 94 62 95
REMARK SMILES IDX 63 96
REMARK H PARENT 6 17 85 49 53 60
REMARK Flexibility Score: inf
ROOT
ATOM      1  C   UNL A   1      33.993  19.781  24.968  1.00  0.00     0.188 C 
ENDROOT
BRANCH   1   2
ATOM      2  C   UNL A   1      32.485  19.780  24.622  1.00  0.00     0.188 C 
BRANCH   2   3
ATOM      3  O   UNL A   1      31.654  20.766  25.206  1.00  0.00    -0.376 OA
BRANCH   3   4
ATOM      4  C   UNL A   1      31.711  22.113  24.753  1.00  0.00     0.202 C 
BRANCH   4   5
ATOM      5  C   UNL A   1      31.862  22.495  23.276  1.00  0.00     0.261 C 
BRANCH   5   6
ATOM      6  O   UNL A   1      31.939  23.903  23.043  1.00  0.00    -0.458 OA
BRANCH   6   7
ATOM      7  C   UNL A   1      33.212  24.359  22.903  1.00  0.00     0.357 C 
ATOM      8  O   UNL A   1      33.981  24.108  21.987  1.00  0.00    -0.244 OA
BRANCH   7   9
ATOM      9  C   UNL A   1      33.491  25.388  23.935  1.00  0.00     0.161 A 
ATOM     10  C   UNL A   1      33.404  26.755  23.686  1.00  0.00     0.073 A 
ATOM     11  C   UNL A   1      33.440  27.584  24.815  1.00  0.00     0.018 A 
ATOM     12  C   UNL A   1      33.705  27.061  26.081  1.00  0.00     0.021 A 
ATOM     13  N   UNL A   1      33.752  24.849  25.171  1.00  0.00    -0.248 NA
ATOM     14  C   UNL A   1      33.872  25.698  26.207  1.00  0.00     0.112 A 
BRANCH  10  15
ATOM     15  C   UNL A   1      33.135  27.265  22.321  1.00  0.00     0.259 C 
ATOM     16  N   UNL A   1      31.890  27.576  21.831  1.00  0.00    -0.306 N 
ATOM     17  H   UNL A   1      31.878  27.718  20.856  1.00  0.00     0.171 HD
ATOM     18  O   UNL A   1      34.067  27.333  21.517  1.00  0.00    -0.269 OA
BRANCH  16  19
ATOM     19  C   UNL A   1      30.639  27.732  22.428  1.00  0.00     0.132 A 
ATOM     20  C   UNL A   1      26.621  28.185  23.753  1.00  0.00     0.046 C 
ATOM     21  C   UNL A   1      28.052  28.086  23.328  1.00  0.00    -0.033 A 
ATOM     22  C   UNL A   1      28.692  29.124  22.657  1.00  0.00     0.009 A 
ATOM     23  C   UNL A   1      28.792  26.934  23.563  1.00  0.00     0.117 A 
ATOM     24  C   UNL A   1      30.005  28.953  22.222  1.00  0.00     0.047 A 
ATOM     25  N   UNL A   1      30.059  26.740  23.122  1.00  0.00    -0.239 NA
ENDBRANCH  16  19
ENDBRANCH  10  15
ENDBRANCH   7   9
ENDBRANCH   6   7
ENDBRANCH   5   6
ENDBRANCH   4   5
ENDBRANCH   3   4
ENDBRANCH   2   3
ENDBRANCH   1   2
BRANCH   1  26
ATOM     26  O   UNL A   1      34.841  20.852  24.588  1.00  0.00    -0.376 OA
BRANCH  26  27
ATOM     27  C   UNL A   1      35.981  21.153  25.377  1.00  0.00     0.202 C 
BRANCH  27  28
ATOM     28  C   UNL A   1      37.279  20.350  25.237  1.00  0.00     0.261 C 
BRANCH  28  29
ATOM     29  O   UNL A   1      38.470  21.141  25.137  1.00  0.00    -0.460 OA
BRANCH  29  30
ATOM     30  C   UNL A   1      39.379  20.923  26.115  1.00  0.00     0.338 C 
ATOM     31  O   UNL A   1      39.888  19.857  26.429  1.00  0.00    -0.246 OA
BRANCH  30  32
ATOM     32  C   UNL A   1      39.833  22.210  26.668  1.00  0.00     0.060 A 
ATOM     33  C   UNL A   1      39.251  23.381  26.163  1.00  0.00     0.016 A 
ATOM     34  C   UNL A   1      40.857  22.272  27.613  1.00  0.00     0.016 A 
ATOM     35  C   UNL A   1      39.722  24.624  26.574  1.00  0.00     0.010 A 
ATOM     36  C   UNL A   1      41.342  23.522  28.009  1.00  0.00     0.010 A 
ATOM     37  C   UNL A   1      40.799  24.700  27.464  1.00  0.00    -0.014 A 
BRANCH  37  38
ATOM     38  C   UNL A   1      41.464  26.006  27.686  1.00  0.00     0.031 A 
ATOM     39  C   UNL A   1      40.731  27.066  28.461  1.00  0.00     0.074 A 
ATOM     40  C   UNL A   1      42.705  26.237  27.223  1.00  0.00     0.049 A 
ATOM     41  N   UNL A   1      41.122  28.268  28.792  1.00  0.00    -0.248 NA
ATOM     42  C   UNL A   1      39.375  26.724  28.926  1.00  0.00     0.031 C 
ATOM     43  C   UNL A   1      43.514  25.288  26.459  1.00  0.00     0.029 A 
ATOM     44  N   UNL A   1      43.493  27.357  27.314  1.00  0.00    -0.354 N 
ATOM     45  C   UNL A   1      40.058  28.835  29.485  1.00  0.00     0.074 A 
ATOM     46  C   UNL A   1      38.998  27.850  29.514  1.00  0.00     0.031 C 
ATOM     47  C   UNL A   1      44.676  25.879  26.126  1.00  0.00     0.029 A 
ATOM     48  C   UNL A   1      44.686  27.246  26.643  1.00  0.00     0.049 A 
ATOM     49  H   UNL A   1      43.227  28.163  27.813  1.00  0.00     0.167 HD
ATOM     50  C   UNL A   1      39.976  30.056  30.062  1.00  0.00     0.034 A 
ATOM     51  C   UNL A   1      45.668  28.151  26.461  1.00  0.00     0.034 A 
ATOM     52  C   UNL A   1      41.034  31.030  30.043  1.00  0.00     0.049 A 
ATOM     53  C   UNL A   1      45.547  29.508  27.107  1.00  0.00     0.074 A 
ATOM     54  C   UNL A   1      41.059  32.286  30.624  1.00  0.00     0.029 A 
ATOM     55  N   UNL A   1      42.251  30.861  29.401  1.00  0.00    -0.354 N 
ATOM     56  N   UNL A   1      44.588  29.983  27.865  1.00  0.00    -0.248 NA
ATOM     57  C   UNL A   1      46.665  30.442  26.904  1.00  0.00     0.031 C 
ATOM     58  C   UNL A   1      42.288  32.883  30.320  1.00  0.00     0.029 A 
ATOM     59  C   UNL A   1      43.036  31.989  29.571  1.00  0.00     0.049 A 
ATOM     60  H   UNL A   1      42.519  30.058  28.899  1.00  0.00     0.167 HD
ATOM     61  C   UNL A   1      45.007  31.247  28.266  1.00  0.00     0.074 A 
ATOM     62  C   UNL A   1      46.315  31.457  27.681  1.00  0.00     0.031 C 
ATOM     63  C   UNL A   1      44.363  32.158  29.038  1.00  0.00     0.034 A 
BRANCH  50  64
ATOM     64  C   UNL A   1      38.708  30.395  30.799  1.00  0.00     0.023 A 
ATOM     65  C   UNL A   1      38.577  30.031  32.154  1.00  0.00     0.012 A 
ATOM     66  C   UNL A   1      37.673  31.115  30.171  1.00  0.00     0.148 A 
ATOM     67  C   UNL A   1      37.424  30.355  32.868  1.00  0.00     0.002 A 
ATOM     68  C   UNL A   1      36.544  31.470  30.901  1.00  0.00     0.091 A 
ATOM     69  F   UNL A   1      37.808  31.429  28.875  1.00  0.00    -0.205 F 
ATOM     70  C   UNL A   1      36.414  31.082  32.245  1.00  0.00     0.022 A 
BRANCH  68  71
ATOM     71  S   UNL A   1      35.222  32.470  30.210  1.00  0.00     0.127 S 
ATOM     72  O   UNL A   1      34.349  32.647  31.370  1.00  0.00    -0.237 OA
ATOM     73  O   UNL A   1      35.935  33.678  29.795  1.00  0.00    -0.237 OA
ATOM     74  O   UNL A   1      34.658  31.692  29.117  1.00  0.00    -0.744 OA
ENDBRANCH  68  71
ENDBRANCH  50  64
BRANCH  51  75
ATOM     75  C   UNL A   1      46.884  27.791  25.678  1.00  0.00     0.023 A 
ATOM     76  C   UNL A   1      46.878  27.945  24.278  1.00  0.00     0.012 A 
ATOM     77  C   UNL A   1      48.041  27.296  26.310  1.00  0.00     0.148 A 
ATOM     78  C   UNL A   1      47.988  27.578  23.518  1.00  0.00     0.002 A 
ATOM     79  C   UNL A   1      49.163  26.980  25.551  1.00  0.00     0.091 A 
ATOM     80  F   UNL A   1      48.020  27.137  27.642  1.00  0.00    -0.205 F 
ATOM     81  C   UNL A   1      49.133  27.104  24.154  1.00  0.00     0.022 A 
BRANCH  79  82
ATOM     82  S   UNL A   1      50.714  26.468  26.298  1.00  0.00     0.127 S 
ATOM     83  O   UNL A   1      50.988  27.577  27.207  1.00  0.00    -0.237 OA
ATOM     84  O   UNL A   1      50.337  25.215  26.952  1.00  0.00    -0.237 OA
ATOM     85  O   UNL A   1      51.646  26.310  25.189  1.00  0.00    -0.744 OA
ENDBRANCH  79  82
ENDBRANCH  51  75
BRANCH  63  86
ATOM     86  C   UNL A   1      45.080  33.448  29.345  1.00  0.00     0.023 A 
ATOM     87  C   UNL A   1      46.003  33.504  30.408  1.00  0.00     0.012 A 
ATOM     88  C   UNL A   1      44.887  34.586  28.538  1.00  0.00     0.148 A 
ATOM     89  C   UNL A   1      46.694  34.682  30.686  1.00  0.00     0.002 A 
ATOM     90  C   UNL A   1      45.615  35.743  28.791  1.00  0.00     0.091 A 
ATOM     91  F   UNL A   1      43.991  34.523  27.542  1.00  0.00    -0.205 F 
ATOM     92  C   UNL A   1      46.509  35.798  29.872  1.00  0.00     0.022 A 
BRANCH  90  93
ATOM     93  S   UNL A   1      45.506  37.189  27.730  1.00  0.00     0.127 S 
ATOM     94  O   UNL A   1      45.926  36.645  26.440  1.00  0.00    -0.237 OA
ATOM     95  O   UNL A   1      44.087  37.535  27.813  1.00  0.00    -0.237 OA
ATOM     96  O   UNL A   1      46.399  38.180  28.318  1.00  0.00    -0.744 OA
ENDBRANCH  90  93
ENDBRANCH  63  86
ENDBRANCH  37  38
ENDBRANCH  30  32
ENDBRANCH  29  30
ENDBRANCH  28  29
ENDBRANCH  27  28
ENDBRANCH  26  27
ENDBRANCH   1  26
TORSDOF 22
ENDMDL
MODEL 3
REMARK VINA RESULT:     -10.8      4.947     10.202
REMARK SMILES Cc1ccc(NC(=O)c2cccnc2C(=O)OCCOCCOCCOC(=O)c2ccc(-c3c4nc(c(-c5cccc(S(=O)(=O)[O-])c5F)c5ccc([nH]5)c(-c5cccc(S(=O)(=O)[O-])c5F)c5nc(c(-c6cccc(S(=O)(=O)[O-])c6F)c6ccc3[nH]6)C=C5)C=C4)cc2)nc1
REMARK SMILES IDX 22 1 21 2 20 3 19 4 18 5 17 6 15 7 16 8 14 9 9 10 10 11
REMARK SMILES IDX 11 12 13 13 12 14 7 15 6 16 8 18 5 19 1 20 2 21 3 22 93 23
REMARK SMILES IDX 4 24 92 25 23 26 24 27 25 28 26 29 27 30 28 31 29 32 30 33
REMARK SMILES IDX 91 34 31 35 90 36 32 37 33 38 34 39 84 40 35 41 89 42 83 43
REMARK SMILES IDX 85 44 36 45 88 46 82 47 81 48 37 50 69 51 49 52 68 53 50 54
REMARK SMILES IDX 53 55 67 56 86 57 51 58 52 59 66 61 87 62 54 63 38 64 39 65
REMARK SMILES IDX 47 66 40 67 42 68 48 69 41 70 43 71 44 72 45 73 46 74 70 75
REMARK SMILES IDX 71 76 79 77 72 78 74 79 80 80 73 81 75 82 76 83 77 84 78 85
REMARK SMILES IDX 55 86 56 87 64 88 57 89 59 90 65 91 58 92 60 93 61 94 62 95
REMARK SMILES IDX 63 96
REMARK H PARENT 6 17 85 49 53 60
REMARK Flexibility Score: inf
ROOT
ATOM      1  C   UNL A   1      33.953  21.915  24.668  1.00  0.00     0.188 C 
ENDROOT
BRANCH   1   2
ATOM      2  C   UNL A   1      34.113  22.991  25.767  1.00  0.00     0.188 C 
BRANCH   2   3
ATOM      3  O   UNL A   1      34.029  24.355  25.399  1.00  0.00    -0.376 OA
BRANCH   3   4
ATOM      4  C   UNL A   1      34.776  24.848  24.293  1.00  0.00     0.202 C 
BRANCH   4   5
ATOM      5  C   UNL A   1      34.126  25.321  22.988  1.00  0.00     0.261 C 
BRANCH   5   6
ATOM      6  O   UNL A   1      33.081  26.278  23.170  1.00  0.00    -0.458 OA
BRANCH   6   7
ATOM      7  C   UNL A   1      33.432  27.539  22.804  1.00  0.00     0.357 C 
ATOM      8  O   UNL A   1      34.002  27.869  21.774  1.00  0.00    -0.244 OA
BRANCH   7   9
ATOM      9  C   UNL A   1      32.845  28.518  23.753  1.00  0.00     0.161 A 
ATOM     10  C   UNL A   1      31.483  28.804  23.801  1.00  0.00     0.073 A 
ATOM     11  C   UNL A   1      31.055  29.543  24.911  1.00  0.00     0.018 A 
ATOM     12  C   UNL A   1      31.973  30.081  25.813  1.00  0.00     0.021 A 
ATOM     13  N   UNL A   1      33.769  29.035  24.627  1.00  0.00    -0.248 NA
ATOM     14  C   UNL A   1      33.313  29.818  25.621  1.00  0.00     0.112 A 
BRANCH  10  15
ATOM     15  C   UNL A   1      30.547  28.221  22.811  1.00  0.00     0.259 C 
ATOM     16  N   UNL A   1      30.064  26.935  22.850  1.00  0.00    -0.306 N 
ATOM     17  H   UNL A   1      29.610  26.663  22.020  1.00  0.00     0.171 HD
ATOM     18  O   UNL A   1      30.240  28.886  21.820  1.00  0.00    -0.269 OA
BRANCH  16  19
ATOM     19  C   UNL A   1      30.087  25.936  23.823  1.00  0.00     0.132 A 
ATOM     20  C   UNL A   1      30.690  22.913  26.756  1.00  0.00     0.046 C 
ATOM     21  C   UNL A   1      30.432  23.929  25.689  1.00  0.00    -0.033 A 
ATOM     22  C   UNL A   1      30.703  23.671  24.349  1.00  0.00     0.009 A 
ATOM     23  C   UNL A   1      29.933  25.187  26.003  1.00  0.00     0.117 A 
ATOM     24  C   UNL A   1      30.509  24.677  23.404  1.00  0.00     0.047 A 
ATOM     25  N   UNL A   1      29.765  26.186  25.101  1.00  0.00    -0.239 NA
ENDBRANCH  16  19
ENDBRANCH  10  15
ENDBRANCH   7   9
ENDBRANCH   6   7
ENDBRANCH   5   6
ENDBRANCH   4   5
ENDBRANCH   3   4
ENDBRANCH   2   3
ENDBRANCH   1   2
BRANCH   1  26
ATOM     26  O   UNL A   1      34.789  20.770  24.622  1.00  0.00    -0.376 OA
BRANCH  26  27
ATOM     27  C   UNL A   1      35.918  20.696  25.478  1.00  0.00     0.202 C 
BRANCH  27  28
ATOM     28  C   UNL A   1      37.297  20.295  24.944  1.00  0.00     0.261 C 
BRANCH  28  29
ATOM     29  O   UNL A   1      38.299  21.315  25.035  1.00  0.00    -0.460 OA
BRANCH  29  30
ATOM     30  C   UNL A   1      39.269  21.077  25.948  1.00  0.00     0.338 C 
ATOM     31  O   UNL A   1      39.865  20.027  26.140  1.00  0.00    -0.246 OA
BRANCH  30  32
ATOM     32  C   UNL A   1      39.661  22.340  26.597  1.00  0.00     0.060 A 
ATOM     33  C   UNL A   1      39.021  23.516  26.182  1.00  0.00     0.016 A 
ATOM     34  C   UNL A   1      40.684  22.380  27.545  1.00  0.00     0.016 A 
ATOM     35  C   UNL A   1      39.432  24.746  26.687  1.00  0.00     0.010 A 
ATOM     36  C   UNL A   1      41.108  23.618  28.036  1.00  0.00     0.010 A 
ATOM     37  C   UNL A   1      40.507  24.807  27.581  1.00  0.00    -0.014 A 
BRANCH  37  38
ATOM     38  C   UNL A   1      41.108  26.123  27.902  1.00  0.00     0.031 A 
ATOM     39  C   UNL A   1      42.514  26.403  27.448  1.00  0.00     0.074 A 
ATOM     40  C   UNL A   1      40.408  27.058  28.567  1.00  0.00     0.049 A 
ATOM     41  N   UNL A   1      43.232  27.486  27.597  1.00  0.00    -0.248 NA
ATOM     42  C   UNL A   1      43.204  25.318  26.728  1.00  0.00     0.031 C 
ATOM     43  C   UNL A   1      39.040  26.903  29.058  1.00  0.00     0.029 A 
ATOM     44  N   UNL A   1      40.767  28.323  28.961  1.00  0.00    -0.354 N 
ATOM     45  C   UNL A   1      44.461  27.208  27.011  1.00  0.00     0.074 A 
ATOM     46  C   UNL A   1      44.399  25.850  26.516  1.00  0.00     0.031 C 
ATOM     47  C   UNL A   1      38.684  28.022  29.714  1.00  0.00     0.029 A 
ATOM     48  C   UNL A   1      39.801  28.964  29.698  1.00  0.00     0.049 A 
ATOM     49  H   UNL A   1      41.635  28.731  28.737  1.00  0.00     0.167 HD
ATOM     50  C   UNL A   1      45.539  28.017  26.878  1.00  0.00     0.034 A 
ATOM     51  C   UNL A   1      39.824  30.171  30.298  1.00  0.00     0.034 A 
ATOM     52  C   UNL A   1      45.596  29.370  27.359  1.00  0.00     0.049 A 
ATOM     53  C   UNL A   1      41.042  31.047  30.143  1.00  0.00     0.074 A 
ATOM     54  C   UNL A   1      46.633  30.281  27.248  1.00  0.00     0.029 A 
ATOM     55  N   UNL A   1      44.577  30.006  28.052  1.00  0.00    -0.354 N 
ATOM     56  N   UNL A   1      42.148  30.817  29.478  1.00  0.00    -0.248 NA
ATOM     57  C   UNL A   1      40.996  32.367  30.789  1.00  0.00     0.031 C 
ATOM     58  C   UNL A   1      46.245  31.463  27.887  1.00  0.00     0.029 A 
ATOM     59  C   UNL A   1      44.959  31.296  28.375  1.00  0.00     0.049 A 
ATOM     60  H   UNL A   1      43.710  29.600  28.281  1.00  0.00     0.167 HD
ATOM     61  C   UNL A   1      42.907  31.978  29.586  1.00  0.00     0.074 A 
ATOM     62  C   UNL A   1      42.127  32.915  30.367  1.00  0.00     0.031 C 
ATOM     63  C   UNL A   1      44.145  32.241  29.095  1.00  0.00     0.034 A 
BRANCH  50  64
ATOM     64  C   UNL A   1      46.735  27.467  26.148  1.00  0.00     0.023 A 
ATOM     65  C   UNL A   1      46.850  27.670  24.758  1.00  0.00     0.012 A 
ATOM     66  C   UNL A   1      47.765  26.801  26.839  1.00  0.00     0.148 A 
ATOM     67  C   UNL A   1      47.960  27.195  24.061  1.00  0.00     0.002 A 
ATOM     68  C   UNL A   1      48.888  26.367  26.144  1.00  0.00     0.091 A 
ATOM     69  F   UNL A   1      47.624  26.597  28.156  1.00  0.00    -0.205 F 
ATOM     70  C   UNL A   1      48.982  26.553  24.755  1.00  0.00     0.022 A 
BRANCH  68  71
ATOM     71  S   UNL A   1      50.292  25.597  26.958  1.00  0.00     0.127 S 
ATOM     72  O   UNL A   1      51.225  25.431  25.845  1.00  0.00    -0.237 OA
ATOM     73  O   UNL A   1      50.680  26.617  27.932  1.00  0.00    -0.237 OA
ATOM     74  O   UNL A   1      49.789  24.361  27.542  1.00  0.00    -0.744 OA
ENDBRANCH  68  71
ENDBRANCH  50  64
BRANCH  51  75
ATOM     75  C   UNL A   1      38.636  30.653  31.058  1.00  0.00     0.023 A 
ATOM     76  C   UNL A   1      38.550  30.407  32.442  1.00  0.00     0.012 A 
ATOM     77  C   UNL A   1      37.593  31.349  30.418  1.00  0.00     0.148 A 
ATOM     78  C   UNL A   1      37.432  30.812  33.169  1.00  0.00     0.002 A 
ATOM     79  C   UNL A   1      36.503  31.796  31.158  1.00  0.00     0.091 A 
ATOM     80  F   UNL A   1      37.682  31.556  29.096  1.00  0.00    -0.205 F 
ATOM     81  C   UNL A   1      36.413  31.514  32.530  1.00  0.00     0.022 A 
BRANCH  79  82
ATOM     82  S   UNL A   1      35.200  32.800  30.438  1.00  0.00     0.127 S 
ATOM     83  O   UNL A   1      34.721  31.940  29.360  1.00  0.00    -0.237 OA
ATOM     84  O   UNL A   1      34.276  32.951  31.562  1.00  0.00    -0.237 OA
ATOM     85  O   UNL A   1      35.847  34.039  30.024  1.00  0.00    -0.744 OA
ENDBRANCH  79  82
ENDBRANCH  51  75
BRANCH  63  86
ATOM     86  C   UNL A   1      44.717  33.614  29.337  1.00  0.00     0.023 A 
ATOM     87  C   UNL A   1      45.573  33.836  30.434  1.00  0.00     0.012 A 
ATOM     88  C   UNL A   1      44.458  34.669  28.439  1.00  0.00     0.148 A 
ATOM     89  C   UNL A   1      46.132  35.095  30.654  1.00  0.00     0.002 A 
ATOM     90  C   UNL A   1      45.057  35.908  28.638  1.00  0.00     0.091 A 
ATOM     91  F   UNL A   1      43.625  34.447  27.412  1.00  0.00    -0.205 F 
ATOM     92  C   UNL A   1      45.884  36.127  29.751  1.00  0.00     0.022 A 
BRANCH  90  93
ATOM     93  S   UNL A   1      44.865  37.258  27.468  1.00  0.00     0.127 S 
ATOM     94  O   UNL A   1      45.979  37.021  26.553  1.00  0.00    -0.237 OA
ATOM     95  O   UNL A   1      43.542  36.996  26.899  1.00  0.00    -0.237 OA
ATOM     96  O   UNL A   1      44.944  38.480  28.258  1.00  0.00    -0.744 OA
ENDBRANCH  90  93
ENDBRANCH  63  86
ENDBRANCH  37  38
ENDBRANCH  30  32
ENDBRANCH  29  30
ENDBRANCH  28  29
ENDBRANCH  27  28
ENDBRANCH  26  27
ENDBRANCH   1  26
TORSDOF 22
ENDMDL
