MODEL 1
REMARK VINA RESULT:     -10.6      0.000      0.000
REMARK SMILES Cc1c(Br)c(C)c2c(c1Br)O[C@H](C(F)(F)F)C(C(=O)OCCOCCOCCOC(=O)c1ccc(-c3c4nc(c(-c5cccc(S(=O)(=O)[O-])c5F)c5ccc([nH]5)c(-c5cccc(S(=O)(=O)[O-])c5F)c5nc(c(-c6cccc(S(=O)(=O)[O-])c6F)c6ccc3[nH]6)C=C5)C=C4)cc1)=C2
REMARK SMILES IDX 25 1 24 2 23 3 22 4 21 5 20 6 18 7 19 8 17 9 1 10 2 11 3 12
REMARK SMILES IDX 9 13 4 14 5 15 8 16 10 17 6 18 7 19 11 20 95 21 12 22 13 23
REMARK SMILES IDX 14 24 15 25 16 26 26 27 27 28 28 29 29 30 30 31 31 32 32 33
REMARK SMILES IDX 33 34 94 35 34 36 93 37 35 38 36 39 37 40 87 41 38 42 92 43
REMARK SMILES IDX 86 44 88 45 39 46 91 47 85 48 84 49 40 51 72 52 52 53 71 54
REMARK SMILES IDX 53 55 56 56 70 57 89 58 54 59 55 60 69 62 90 63 57 64 41 65
REMARK SMILES IDX 42 66 50 67 43 68 45 69 51 70 44 71 46 72 47 73 48 74 49 75
REMARK SMILES IDX 73 76 74 77 82 78 75 79 77 80 83 81 76 82 78 83 79 84 80 85
REMARK SMILES IDX 81 86 58 87 59 88 67 89 60 90 62 91 68 92 61 93 63 94 64 95
REMARK SMILES IDX 65 96 66 97
REMARK H PARENT 88 50 56 61
REMARK Flexibility Score: inf
ROOT
ATOM      1  C   UNL A   1      33.346  29.444  26.490  1.00  0.00     0.188 C 
ENDROOT
BRANCH   1   2
ATOM      2  C   UNL A   1      32.590  29.451  25.144  1.00  0.00     0.188 C 
BRANCH   2   3
ATOM      3  O   UNL A   1      33.297  29.392  23.923  1.00  0.00    -0.376 OA
BRANCH   3   4
ATOM      4  C   UNL A   1      32.824  28.621  22.833  1.00  0.00     0.202 C 
BRANCH   4   5
ATOM      5  C   UNL A   1      32.385  27.161  22.982  1.00  0.00     0.261 C 
BRANCH   5   6
ATOM      6  O   UNL A   1      33.224  26.369  23.828  1.00  0.00    -0.460 OA
BRANCH   6   7
ATOM      7  C   UNL A   1      32.567  25.655  24.773  1.00  0.00     0.338 C 
ATOM      8  O   UNL A   1      31.561  25.987  25.378  1.00  0.00    -0.246 OA
BRANCH   7   9
ATOM      9  C   UNL A   1      33.195  24.331  24.914  1.00  0.00     0.087 C 
ATOM     10  C   UNL A   1      37.271  19.230  24.938  1.00  0.00     0.047 C 
ATOM     11  C   UNL A   1      36.521  20.530  25.125  1.00  0.00    -0.019 A 
ATOM     12  C   UNL A   1      37.220  21.699  25.524  1.00  0.00     0.025 A 
ATOM     13  C   UNL A   1      35.131  20.628  24.913  1.00  0.00     0.064 A 
ATOM     14  Br  UNL A   1      39.105  21.566  25.871  1.00  0.00    -0.050 Br
ATOM     15  C   UNL A   1      36.565  22.948  25.656  1.00  0.00    -0.026 A 
ATOM     16  C   UNL A   1      34.472  21.868  25.003  1.00  0.00     0.142 A 
ATOM     17  Br  UNL A   1      34.079  19.087  24.470  1.00  0.00    -0.046 Br
ATOM     18  C   UNL A   1      37.289  24.197  26.115  1.00  0.00     0.046 C 
ATOM     19  C   UNL A   1      35.188  23.029  25.328  1.00  0.00     0.022 A 
ATOM     20  O   UNL A   1      33.121  21.864  24.767  1.00  0.00    -0.474 OA
ATOM     21  C   UNL A   1      34.488  24.313  25.259  1.00  0.00     0.027 C 
ATOM     22  C   UNL A   1      32.383  23.103  24.654  1.00  0.00     0.316 C 
BRANCH  22  23
ATOM     23  C   UNL A   1      31.687  23.131  23.286  1.00  0.00     0.430 C 
ATOM     24  F   UNL A   1      32.447  23.770  22.362  1.00  0.00    -0.167 F 
ATOM     25  F   UNL A   1      31.469  21.884  22.805  1.00  0.00    -0.167 F 
ATOM     26  F   UNL A   1      30.493  23.763  23.333  1.00  0.00    -0.167 F 
ENDBRANCH  22  23
ENDBRANCH   7   9
ENDBRANCH   6   7
ENDBRANCH   5   6
ENDBRANCH   4   5
ENDBRANCH   3   4
ENDBRANCH   2   3
ENDBRANCH   1   2
BRANCH   1  27
ATOM     27  O   UNL A   1      33.008  30.340  27.530  1.00  0.00    -0.376 OA
BRANCH  27  28
ATOM     28  C   UNL A   1      33.619  31.619  27.589  1.00  0.00     0.202 C 
BRANCH  28  29
ATOM     29  C   UNL A   1      32.812  32.923  27.598  1.00  0.00     0.261 C 
BRANCH  29  30
ATOM     30  O   UNL A   1      33.564  34.113  27.853  1.00  0.00    -0.460 OA
BRANCH  30  31
ATOM     31  C   UNL A   1      33.460  34.590  29.118  1.00  0.00     0.338 C 
ATOM     32  O   UNL A   1      32.526  35.208  29.600  1.00  0.00    -0.246 OA
BRANCH  31  33
ATOM     33  C   UNL A   1      34.582  34.078  29.926  1.00  0.00     0.060 A 
ATOM     34  C   UNL A   1      35.885  34.352  29.488  1.00  0.00     0.016 A 
ATOM     35  C   UNL A   1      34.358  33.303  31.063  1.00  0.00     0.016 A 
ATOM     36  C   UNL A   1      36.974  33.821  30.173  1.00  0.00     0.010 A 
ATOM     37  C   UNL A   1      35.451  32.747  31.733  1.00  0.00     0.010 A 
ATOM     38  C   UNL A   1      36.759  32.977  31.269  1.00  0.00    -0.014 A 
BRANCH  38  39
ATOM     39  C   UNL A   1      37.883  32.170  31.794  1.00  0.00     0.031 A 
ATOM     40  C   UNL A   1      38.450  32.531  33.139  1.00  0.00     0.074 A 
ATOM     41  C   UNL A   1      38.384  31.134  31.100  1.00  0.00     0.049 A 
ATOM     42  N   UNL A   1      39.445  31.990  33.790  1.00  0.00    -0.248 NA
ATOM     43  C   UNL A   1      37.802  33.649  33.848  1.00  0.00     0.031 C 
ATOM     44  C   UNL A   1      37.902  30.672  29.801  1.00  0.00     0.029 A 
ATOM     45  N   UNL A   1      39.429  30.293  31.392  1.00  0.00    -0.354 N 
ATOM     46  C   UNL A   1      39.552  32.705  34.976  1.00  0.00     0.074 A 
ATOM     47  C   UNL A   1      38.530  33.728  34.953  1.00  0.00     0.031 C 
ATOM     48  C   UNL A   1      38.668  29.645  29.394  1.00  0.00     0.029 A 
ATOM     49  C   UNL A   1      39.709  29.394  30.390  1.00  0.00     0.049 A 
ATOM     50  H   UNL A   1      39.931  30.330  32.239  1.00  0.00     0.167 HD
ATOM     51  C   UNL A   1      40.413  32.518  36.003  1.00  0.00     0.034 A 
ATOM     52  C   UNL A   1      40.704  28.490  30.286  1.00  0.00     0.034 A 
ATOM     53  C   UNL A   1      41.429  31.503  36.027  1.00  0.00     0.049 A 
ATOM     54  C   UNL A   1      41.693  28.345  31.416  1.00  0.00     0.074 A 
ATOM     55  C   UNL A   1      42.341  31.226  37.030  1.00  0.00     0.029 A 
ATOM     56  N   UNL A   1      41.677  30.606  35.000  1.00  0.00    -0.354 N 
ATOM     57  N   UNL A   1      41.721  28.959  32.574  1.00  0.00    -0.248 NA
ATOM     58  C   UNL A   1      42.774  27.364  31.234  1.00  0.00     0.031 C 
ATOM     59  C   UNL A   1      43.157  30.177  36.599  1.00  0.00     0.029 A 
ATOM     60  C   UNL A   1      42.737  29.783  35.338  1.00  0.00     0.049 A 
ATOM     61  H   UNL A   1      41.173  30.561  34.155  1.00  0.00     0.167 HD
ATOM     62  C   UNL A   1      42.802  28.422  33.268  1.00  0.00     0.074 A 
ATOM     63  C   UNL A   1      43.387  27.412  32.410  1.00  0.00     0.031 C 
ATOM     64  C   UNL A   1      43.280  28.747  34.496  1.00  0.00     0.034 A 
BRANCH  51  65
ATOM     65  C   UNL A   1      40.273  33.412  37.204  1.00  0.00     0.023 A 
ATOM     66  C   UNL A   1      40.978  34.632  37.242  1.00  0.00     0.012 A 
ATOM     67  C   UNL A   1      39.396  33.085  38.254  1.00  0.00     0.148 A 
ATOM     68  C   UNL A   1      40.825  35.505  38.317  1.00  0.00     0.002 A 
ATOM     69  C   UNL A   1      39.218  33.978  39.303  1.00  0.00     0.091 A 
ATOM     70  F   UNL A   1      38.757  31.907  38.209  1.00  0.00    -0.205 F 
ATOM     71  C   UNL A   1      39.937  35.184  39.340  1.00  0.00     0.022 A 
BRANCH  69  72
ATOM     72  S   UNL A   1      38.042  33.695  40.632  1.00  0.00     0.127 S 
ATOM     73  O   UNL A   1      37.896  35.039  41.187  1.00  0.00    -0.237 OA
ATOM     74  O   UNL A   1      36.871  33.203  39.905  1.00  0.00    -0.237 OA
ATOM     75  O   UNL A   1      38.663  32.720  41.518  1.00  0.00    -0.744 OA
ENDBRANCH  69  72
ENDBRANCH  51  65
BRANCH  52  76
ATOM     76  C   UNL A   1      40.795  27.620  29.077  1.00  0.00     0.023 A 
ATOM     77  C   UNL A   1      39.954  26.496  28.969  1.00  0.00     0.012 A 
ATOM     78  C   UNL A   1      41.692  27.910  28.030  1.00  0.00     0.148 A 
ATOM     79  C   UNL A   1      40.019  25.664  27.851  1.00  0.00     0.002 A 
ATOM     80  C   UNL A   1      41.711  27.109  26.894  1.00  0.00     0.091 A 
ATOM     81  F   UNL A   1      42.500  28.972  28.161  1.00  0.00    -0.205 F 
ATOM     82  C   UNL A   1      40.888  25.977  26.809  1.00  0.00     0.022 A 
BRANCH  80  83
ATOM     83  S   UNL A   1      42.703  27.507  25.449  1.00  0.00     0.127 S 
ATOM     84  O   UNL A   1      42.584  26.284  24.658  1.00  0.00    -0.237 OA
ATOM     85  O   UNL A   1      41.989  28.664  24.907  1.00  0.00    -0.237 OA
ATOM     86  O   UNL A   1      44.035  27.804  25.955  1.00  0.00    -0.744 OA
ENDBRANCH  80  83
ENDBRANCH  52  76
BRANCH  64  87
ATOM     87  C   UNL A   1      44.491  28.008  35.006  1.00  0.00     0.023 A 
ATOM     88  C   UNL A   1      45.772  28.565  34.827  1.00  0.00     0.012 A 
ATOM     89  C   UNL A   1      44.353  26.822  35.756  1.00  0.00     0.148 A 
ATOM     90  C   UNL A   1      46.899  27.943  35.364  1.00  0.00     0.002 A 
ATOM     91  C   UNL A   1      45.475  26.233  36.331  1.00  0.00     0.091 A 
ATOM     92  F   UNL A   1      43.128  26.295  35.904  1.00  0.00    -0.205 F 
ATOM     93  C   UNL A   1      46.749  26.786  36.125  1.00  0.00     0.022 A 
BRANCH  91  94
ATOM     94  S   UNL A   1      45.364  24.805  37.415  1.00  0.00     0.127 S 
ATOM     95  O   UNL A   1      44.362  25.244  38.384  1.00  0.00    -0.237 OA
ATOM     96  O   UNL A   1      44.910  23.755  36.502  1.00  0.00    -0.237 OA
ATOM     97  O   UNL A   1      46.704  24.602  37.947  1.00  0.00    -0.744 OA
ENDBRANCH  91  94
ENDBRANCH  64  87
ENDBRANCH  38  39
ENDBRANCH  31  33
ENDBRANCH  30  31
ENDBRANCH  29  30
ENDBRANCH  28  29
ENDBRANCH  27  28
ENDBRANCH   1  27
TORSDOF 21
ENDMDL
MODEL 2
REMARK VINA RESULT:     -10.1      5.654      9.931
REMARK SMILES Cc1c(Br)c(C)c2c(c1Br)O[C@H](C(F)(F)F)C(C(=O)OCCOCCOCCOC(=O)c1ccc(-c3c4nc(c(-c5cccc(S(=O)(=O)[O-])c5F)c5ccc([nH]5)c(-c5cccc(S(=O)(=O)[O-])c5F)c5nc(c(-c6cccc(S(=O)(=O)[O-])c6F)c6ccc3[nH]6)C=C5)C=C4)cc1)=C2
REMARK SMILES IDX 25 1 24 2 23 3 22 4 21 5 20 6 18 7 19 8 17 9 1 10 2 11 3 12
REMARK SMILES IDX 9 13 4 14 5 15 8 16 10 17 6 18 7 19 11 20 95 21 12 22 13 23
REMARK SMILES IDX 14 24 15 25 16 26 26 27 27 28 28 29 29 30 30 31 31 32 32 33
REMARK SMILES IDX 33 34 94 35 34 36 93 37 35 38 36 39 37 40 87 41 38 42 92 43
REMARK SMILES IDX 86 44 88 45 39 46 91 47 85 48 84 49 40 51 72 52 52 53 71 54
REMARK SMILES IDX 53 55 56 56 70 57 89 58 54 59 55 60 69 62 90 63 57 64 41 65
REMARK SMILES IDX 42 66 50 67 43 68 45 69 51 70 44 71 46 72 47 73 48 74 49 75
REMARK SMILES IDX 73 76 74 77 82 78 75 79 77 80 83 81 76 82 78 83 79 84 80 85
REMARK SMILES IDX 81 86 58 87 59 88 67 89 60 90 62 91 68 92 61 93 63 94 64 95
REMARK SMILES IDX 65 96 66 97
REMARK H PARENT 88 50 56 61
REMARK Flexibility Score: inf
ROOT
ATOM      1  C   UNL A   1      37.377  21.546  24.769  1.00  0.00     0.188 C 
ENDROOT
BRANCH   1   2
ATOM      2  C   UNL A   1      36.169  21.074  25.606  1.00  0.00     0.188 C 
BRANCH   2   3
ATOM      3  O   UNL A   1      35.251  22.009  26.132  1.00  0.00    -0.376 OA
BRANCH   3   4
ATOM      4  C   UNL A   1      33.912  21.647  26.421  1.00  0.00     0.202 C 
BRANCH   4   5
ATOM      5  C   UNL A   1      32.743  22.628  26.286  1.00  0.00     0.261 C 
BRANCH   5   6
ATOM      6  O   UNL A   1      33.128  23.995  26.105  1.00  0.00    -0.460 OA
BRANCH   6   7
ATOM      7  C   UNL A   1      33.125  24.421  24.820  1.00  0.00     0.338 C 
ATOM      8  O   UNL A   1      33.356  23.756  23.823  1.00  0.00    -0.246 OA
BRANCH   7   9
ATOM      9  C   UNL A   1      32.694  25.829  24.771  1.00  0.00     0.087 C 
ATOM     10  C   UNL A   1      31.118  32.015  26.136  1.00  0.00     0.047 C 
ATOM     11  C   UNL A   1      31.755  30.663  25.908  1.00  0.00    -0.019 A 
ATOM     12  C   UNL A   1      32.914  30.296  26.640  1.00  0.00     0.025 A 
ATOM     13  C   UNL A   1      31.235  29.738  24.982  1.00  0.00     0.064 A 
ATOM     14  Br  UNL A   1      33.667  31.569  27.865  1.00  0.00    -0.050 Br
ATOM     15  C   UNL A   1      33.508  29.017  26.498  1.00  0.00    -0.026 A 
ATOM     16  C   UNL A   1      31.791  28.451  24.855  1.00  0.00     0.142 A 
ATOM     17  Br  UNL A   1      29.735  30.176  23.870  1.00  0.00    -0.046 Br
ATOM     18  C   UNL A   1      34.766  28.622  27.246  1.00  0.00     0.046 C 
ATOM     19  C   UNL A   1      32.892  28.075  25.638  1.00  0.00     0.022 A 
ATOM     20  O   UNL A   1      31.206  27.617  23.936  1.00  0.00    -0.474 OA
ATOM     21  C   UNL A   1      33.335  26.681  25.579  1.00  0.00     0.027 C 
ATOM     22  C   UNL A   1      31.580  26.223  23.856  1.00  0.00     0.316 C 
BRANCH  22  23
ATOM     23  C   UNL A   1      30.319  25.370  24.057  1.00  0.00     0.430 C 
ATOM     24  F   UNL A   1      29.209  26.031  23.646  1.00  0.00    -0.167 F 
ATOM     25  F   UNL A   1      30.367  24.222  23.340  1.00  0.00    -0.167 F 
ATOM     26  F   UNL A   1      30.132  25.031  25.352  1.00  0.00    -0.167 F 
ENDBRANCH  22  23
ENDBRANCH   7   9
ENDBRANCH   6   7
ENDBRANCH   5   6
ENDBRANCH   4   5
ENDBRANCH   3   4
ENDBRANCH   2   3
ENDBRANCH   1   2
BRANCH   1  27
ATOM     27  O   UNL A   1      38.623  21.833  25.371  1.00  0.00    -0.376 OA
BRANCH  27  28
ATOM     28  C   UNL A   1      39.221  20.891  26.247  1.00  0.00     0.202 C 
BRANCH  28  29
ATOM     29  C   UNL A   1      39.947  19.637  25.745  1.00  0.00     0.261 C 
BRANCH  29  30
ATOM     30  O   UNL A   1      41.150  19.299  26.441  1.00  0.00    -0.460 OA
BRANCH  30  31
ATOM     31  C   UNL A   1      42.285  19.787  25.883  1.00  0.00     0.338 C 
ATOM     32  O   UNL A   1      42.990  19.244  25.049  1.00  0.00    -0.246 OA
BRANCH  31  33
ATOM     33  C   UNL A   1      42.460  21.194  26.284  1.00  0.00     0.060 A 
ATOM     34  C   UNL A   1      42.559  22.158  25.271  1.00  0.00     0.016 A 
ATOM     35  C   UNL A   1      42.574  21.554  27.626  1.00  0.00     0.016 A 
ATOM     36  C   UNL A   1      42.804  23.489  25.599  1.00  0.00     0.010 A 
ATOM     37  C   UNL A   1      42.848  22.884  27.953  1.00  0.00     0.010 A 
ATOM     38  C   UNL A   1      42.999  23.848  26.938  1.00  0.00    -0.014 A 
BRANCH  38  39
ATOM     39  C   UNL A   1      43.565  25.177  27.257  1.00  0.00     0.031 A 
ATOM     40  C   UNL A   1      42.637  26.239  27.781  1.00  0.00     0.074 A 
ATOM     41  C   UNL A   1      44.875  25.436  27.099  1.00  0.00     0.049 A 
ATOM     42  N   UNL A   1      42.896  27.477  28.103  1.00  0.00    -0.248 NA
ATOM     43  C   UNL A   1      41.230  25.846  27.971  1.00  0.00     0.031 C 
ATOM     44  C   UNL A   1      45.875  24.481  26.626  1.00  0.00     0.029 A 
ATOM     45  N   UNL A   1      45.581  26.594  27.304  1.00  0.00    -0.354 N 
ATOM     46  C   UNL A   1      41.687  28.017  28.523  1.00  0.00     0.074 A 
ATOM     47  C   UNL A   1      40.689  26.977  28.402  1.00  0.00     0.031 C 
ATOM     48  C   UNL A   1      47.065  25.102  26.551  1.00  0.00     0.029 A 
ATOM     49  C   UNL A   1      46.905  26.502  26.946  1.00  0.00     0.049 A 
ATOM     50  H   UNL A   1      45.178  27.414  27.671  1.00  0.00     0.167 HD
ATOM     51  C   UNL A   1      41.430  29.263  28.983  1.00  0.00     0.034 A 
ATOM     52  C   UNL A   1      47.868  27.446  26.922  1.00  0.00     0.034 A 
ATOM     53  C   UNL A   1      42.420  30.297  29.103  1.00  0.00     0.049 A 
ATOM     54  C   UNL A   1      47.541  28.847  27.378  1.00  0.00     0.074 A 
ATOM     55  C   UNL A   1      42.258  31.588  29.573  1.00  0.00     0.029 A 
ATOM     56  N   UNL A   1      43.750  30.166  28.740  1.00  0.00    -0.354 N 
ATOM     57  N   UNL A   1      46.418  29.317  27.866  1.00  0.00    -0.248 NA
ATOM     58  C   UNL A   1      48.621  29.842  27.302  1.00  0.00     0.031 C 
ATOM     59  C   UNL A   1      43.487  32.246  29.471  1.00  0.00     0.029 A 
ATOM     60  C   UNL A   1      44.420  31.356  28.962  1.00  0.00     0.049 A 
ATOM     61  H   UNL A   1      44.159  29.346  28.378  1.00  0.00     0.167 HD
ATOM     62  C   UNL A   1      46.664  30.650  28.180  1.00  0.00     0.074 A 
ATOM     63  C   UNL A   1      48.051  30.906  27.852  1.00  0.00     0.031 C 
ATOM     64  C   UNL A   1      45.814  31.585  28.677  1.00  0.00     0.034 A 
BRANCH  51  65
ATOM     65  C   UNL A   1      40.025  29.569  29.425  1.00  0.00     0.023 A 
ATOM     66  C   UNL A   1      39.036  29.822  28.454  1.00  0.00     0.012 A 
ATOM     67  C   UNL A   1      39.669  29.535  30.786  1.00  0.00     0.148 A 
ATOM     68  C   UNL A   1      37.715  30.054  28.832  1.00  0.00     0.002 A 
ATOM     69  C   UNL A   1      38.343  29.728  31.153  1.00  0.00     0.091 A 
ATOM     70  F   UNL A   1      40.632  29.319  31.693  1.00  0.00    -0.205 F 
ATOM     71  C   UNL A   1      37.367  29.995  30.179  1.00  0.00     0.022 A 
BRANCH  69  72
ATOM     72  S   UNL A   1      37.777  29.597  32.853  1.00  0.00     0.127 S 
ATOM     73  O   UNL A   1      38.956  30.048  33.591  1.00  0.00    -0.237 OA
ATOM     74  O   UNL A   1      36.650  30.531  32.873  1.00  0.00    -0.237 OA
ATOM     75  O   UNL A   1      37.415  28.201  33.051  1.00  0.00    -0.744 OA
ENDBRANCH  69  72
ENDBRANCH  51  65
BRANCH  52  76
ATOM     76  C   UNL A   1      49.248  27.091  26.483  1.00  0.00     0.023 A 
ATOM     77  C   UNL A   1      50.077  26.346  27.343  1.00  0.00     0.012 A 
ATOM     78  C   UNL A   1      49.736  27.468  25.216  1.00  0.00     0.148 A 
ATOM     79  C   UNL A   1      51.374  26.001  26.960  1.00  0.00     0.002 A 
ATOM     80  C   UNL A   1      51.008  27.072  24.818  1.00  0.00     0.091 A 
ATOM     81  F   UNL A   1      48.940  28.196  24.420  1.00  0.00    -0.205 F 
ATOM     82  C   UNL A   1      51.834  26.353  25.694  1.00  0.00     0.022 A 
BRANCH  80  83
ATOM     83  S   UNL A   1      51.637  27.367  23.161  1.00  0.00     0.127 S 
ATOM     84  O   UNL A   1      52.925  26.680  23.203  1.00  0.00    -0.237 OA
ATOM     85  O   UNL A   1      50.618  26.719  22.336  1.00  0.00    -0.237 OA
ATOM     86  O   UNL A   1      51.698  28.815  23.015  1.00  0.00    -0.744 OA
ENDBRANCH  80  83
ENDBRANCH  52  76
BRANCH  64  87
ATOM     87  C   UNL A   1      46.346  32.977  28.911  1.00  0.00     0.023 A 
ATOM     88  C   UNL A   1      46.924  33.300  30.155  1.00  0.00     0.012 A 
ATOM     89  C   UNL A   1      46.375  33.926  27.869  1.00  0.00     0.148 A 
ATOM     90  C   UNL A   1      47.499  34.552  30.366  1.00  0.00     0.002 A 
ATOM     91  C   UNL A   1      46.995  35.155  28.072  1.00  0.00     0.091 A 
ATOM     92  F   UNL A   1      45.807  33.609  26.697  1.00  0.00    -0.205 F 
ATOM     93  C   UNL A   1      47.546  35.474  29.323  1.00  0.00     0.022 A 
BRANCH  91  94
ATOM     94  S   UNL A   1      47.197  36.360  26.754  1.00  0.00     0.127 S 
ATOM     95  O   UNL A   1      47.729  37.511  27.481  1.00  0.00    -0.237 OA
ATOM     96  O   UNL A   1      48.161  35.698  25.873  1.00  0.00    -0.237 OA
ATOM     97  O   UNL A   1      45.875  36.542  26.172  1.00  0.00    -0.744 OA
ENDBRANCH  91  94
ENDBRANCH  64  87
ENDBRANCH  38  39
ENDBRANCH  31  33
ENDBRANCH  30  31
ENDBRANCH  29  30
ENDBRANCH  28  29
ENDBRANCH  27  28
ENDBRANCH   1  27
TORSDOF 21
ENDMDL
MODEL 3
REMARK VINA RESULT:      -9.6      2.785      8.598
REMARK SMILES Cc1c(Br)c(C)c2c(c1Br)O[C@H](C(F)(F)F)C(C(=O)OCCOCCOCCOC(=O)c1ccc(-c3c4nc(c(-c5cccc(S(=O)(=O)[O-])c5F)c5ccc([nH]5)c(-c5cccc(S(=O)(=O)[O-])c5F)c5nc(c(-c6cccc(S(=O)(=O)[O-])c6F)c6ccc3[nH]6)C=C5)C=C4)cc1)=C2
REMARK SMILES IDX 25 1 24 2 23 3 22 4 21 5 20 6 18 7 19 8 17 9 1 10 2 11 3 12
REMARK SMILES IDX 9 13 4 14 5 15 8 16 10 17 6 18 7 19 11 20 95 21 12 22 13 23
REMARK SMILES IDX 14 24 15 25 16 26 26 27 27 28 28 29 29 30 30 31 31 32 32 33
REMARK SMILES IDX 33 34 94 35 34 36 93 37 35 38 36 39 37 40 87 41 38 42 92 43
REMARK SMILES IDX 86 44 88 45 39 46 91 47 85 48 84 49 40 51 72 52 52 53 71 54
REMARK SMILES IDX 53 55 56 56 70 57 89 58 54 59 55 60 69 62 90 63 57 64 41 65
REMARK SMILES IDX 42 66 50 67 43 68 45 69 51 70 44 71 46 72 47 73 48 74 49 75
REMARK SMILES IDX 73 76 74 77 82 78 75 79 77 80 83 81 76 82 78 83 79 84 80 85
REMARK SMILES IDX 81 86 58 87 59 88 67 89 60 90 62 91 68 92 61 93 63 94 64 95
REMARK SMILES IDX 65 96 66 97
REMARK H PARENT 88 50 56 61
REMARK Flexibility Score: inf
ROOT
ATOM      1  C   UNL A   1      40.559  21.756  27.451  1.00  0.00     0.188 C 
ENDROOT
BRANCH   1   2
ATOM      2  C   UNL A   1      39.493  22.439  26.569  1.00  0.00     0.188 C 
BRANCH   2   3
ATOM      3  O   UNL A   1      38.504  21.672  25.914  1.00  0.00    -0.376 OA
BRANCH   3   4
ATOM      4  C   UNL A   1      37.646  22.246  24.945  1.00  0.00     0.202 C 
BRANCH   4   5
ATOM      5  C   UNL A   1      36.862  23.537  25.196  1.00  0.00     0.261 C 
BRANCH   5   6
ATOM      6  O   UNL A   1      35.507  23.513  24.733  1.00  0.00    -0.460 OA
BRANCH   6   7
ATOM      7  C   UNL A   1      34.588  23.908  25.645  1.00  0.00     0.338 C 
ATOM      8  O   UNL A   1      34.412  23.445  26.760  1.00  0.00    -0.246 OA
BRANCH   7   9
ATOM      9  C   UNL A   1      33.859  25.080  25.132  1.00  0.00     0.087 C 
ATOM     10  C   UNL A   1      30.403  30.575  24.434  1.00  0.00     0.047 C 
ATOM     11  C   UNL A   1      31.400  29.478  24.734  1.00  0.00    -0.019 A 
ATOM     12  C   UNL A   1      32.293  29.615  25.828  1.00  0.00     0.025 A 
ATOM     13  C   UNL A   1      31.478  28.306  23.956  1.00  0.00     0.064 A 
ATOM     14  Br  UNL A   1      32.236  31.232  26.862  1.00  0.00    -0.050 Br
ATOM     15  C   UNL A   1      33.203  28.586  26.177  1.00  0.00    -0.026 A 
ATOM     16  C   UNL A   1      32.349  27.260  24.311  1.00  0.00     0.142 A 
ATOM     17  Br  UNL A   1      30.386  28.069  22.397  1.00  0.00    -0.046 Br
ATOM     18  C   UNL A   1      34.187  28.730  27.321  1.00  0.00     0.046 C 
ATOM     19  C   UNL A   1      33.175  27.377  25.439  1.00  0.00     0.022 A 
ATOM     20  O   UNL A   1      32.344  26.153  23.500  1.00  0.00    -0.474 OA
ATOM     21  C   UNL A   1      33.949  26.205  25.852  1.00  0.00     0.027 C 
ATOM     22  C   UNL A   1      33.062  24.955  23.874  1.00  0.00     0.316 C 
BRANCH  22  23
ATOM     23  C   UNL A   1      32.067  23.787  23.917  1.00  0.00     0.430 C 
ATOM     24  F   UNL A   1      31.069  23.957  23.016  1.00  0.00    -0.167 F 
ATOM     25  F   UNL A   1      32.659  22.608  23.611  1.00  0.00    -0.167 F 
ATOM     26  F   UNL A   1      31.493  23.648  25.134  1.00  0.00    -0.167 F 
ENDBRANCH  22  23
ENDBRANCH   7   9
ENDBRANCH   6   7
ENDBRANCH   5   6
ENDBRANCH   4   5
ENDBRANCH   3   4
ENDBRANCH   2   3
ENDBRANCH   1   2
BRANCH   1  27
ATOM     27  O   UNL A   1      41.921  22.126  27.381  1.00  0.00    -0.376 OA
BRANCH  27  28
ATOM     28  C   UNL A   1      42.394  22.882  26.277  1.00  0.00     0.202 C 
BRANCH  28  29
ATOM     29  C   UNL A   1      42.586  24.403  26.336  1.00  0.00     0.261 C 
BRANCH  29  30
ATOM     30  O   UNL A   1      41.777  25.091  27.293  1.00  0.00    -0.460 OA
BRANCH  30  31
ATOM     31  C   UNL A   1      40.830  25.902  26.759  1.00  0.00     0.338 C 
ATOM     32  O   UNL A   1      40.308  25.805  25.661  1.00  0.00    -0.246 OA
BRANCH  31  33
ATOM     33  C   UNL A   1      40.351  26.837  27.792  1.00  0.00     0.060 A 
ATOM     34  C   UNL A   1      40.716  28.185  27.677  1.00  0.00     0.016 A 
ATOM     35  C   UNL A   1      39.600  26.390  28.879  1.00  0.00     0.016 A 
ATOM     36  C   UNL A   1      40.354  29.091  28.671  1.00  0.00     0.010 A 
ATOM     37  C   UNL A   1      39.262  27.293  29.890  1.00  0.00     0.010 A 
ATOM     38  C   UNL A   1      39.669  28.638  29.805  1.00  0.00    -0.014 A 
BRANCH  38  39
ATOM     39  C   UNL A   1      39.565  29.519  30.989  1.00  0.00     0.031 A 
ATOM     40  C   UNL A   1      40.620  29.404  32.056  1.00  0.00     0.074 A 
ATOM     41  C   UNL A   1      38.566  30.410  31.114  1.00  0.00     0.049 A 
ATOM     42  N   UNL A   1      40.726  30.047  33.187  1.00  0.00    -0.248 NA
ATOM     43  C   UNL A   1      41.704  28.437  31.807  1.00  0.00     0.031 C 
ATOM     44  C   UNL A   1      37.503  30.632  30.136  1.00  0.00     0.029 A 
ATOM     45  N   UNL A   1      38.278  31.283  32.132  1.00  0.00    -0.354 N 
ATOM     46  C   UNL A   1      41.876  29.557  33.792  1.00  0.00     0.074 A 
ATOM     47  C   UNL A   1      42.429  28.554  32.910  1.00  0.00     0.031 C 
ATOM     48  C   UNL A   1      36.661  31.564  30.616  1.00  0.00     0.029 A 
ATOM     49  C   UNL A   1      37.111  31.984  31.943  1.00  0.00     0.049 A 
ATOM     50  H   UNL A   1      38.852  31.395  32.924  1.00  0.00     0.167 HD
ATOM     51  C   UNL A   1      42.434  29.921  34.969  1.00  0.00     0.034 A 
ATOM     52  C   UNL A   1      36.473  32.847  32.758  1.00  0.00     0.034 A 
ATOM     53  C   UNL A   1      41.886  30.917  35.846  1.00  0.00     0.049 A 
ATOM     54  C   UNL A   1      37.081  33.188  34.096  1.00  0.00     0.074 A 
ATOM     55  C   UNL A   1      42.388  31.365  37.056  1.00  0.00     0.029 A 
ATOM     56  N   UNL A   1      40.709  31.612  35.619  1.00  0.00    -0.354 N 
ATOM     57  N   UNL A   1      38.221  32.793  34.611  1.00  0.00    -0.248 NA
ATOM     58  C   UNL A   1      36.326  34.113  34.957  1.00  0.00     0.031 C 
ATOM     59  C   UNL A   1      41.500  32.313  37.571  1.00  0.00     0.029 A 
ATOM     60  C   UNL A   1      40.459  32.476  36.670  1.00  0.00     0.049 A 
ATOM     61  H   UNL A   1      40.135  31.507  34.825  1.00  0.00     0.167 HD
ATOM     62  C   UNL A   1      38.333  33.440  35.839  1.00  0.00     0.074 A 
ATOM     63  C   UNL A   1      37.157  34.274  35.979  1.00  0.00     0.031 C 
ATOM     64  C   UNL A   1      39.310  33.339  36.776  1.00  0.00     0.034 A 
BRANCH  51  65
ATOM     65  C   UNL A   1      43.726  29.260  35.364  1.00  0.00     0.023 A 
ATOM     66  C   UNL A   1      44.948  29.878  35.030  1.00  0.00     0.012 A 
ATOM     67  C   UNL A   1      43.732  28.076  36.124  1.00  0.00     0.148 A 
ATOM     68  C   UNL A   1      46.158  29.316  35.430  1.00  0.00     0.002 A 
ATOM     69  C   UNL A   1      44.941  27.543  36.555  1.00  0.00     0.091 A 
ATOM     70  F   UNL A   1      42.559  27.492  36.407  1.00  0.00    -0.205 F 
ATOM     71  C   UNL A   1      46.155  28.157  36.202  1.00  0.00     0.022 A 
BRANCH  69  72
ATOM     72  S   UNL A   1      45.043  26.097  37.616  1.00  0.00     0.127 S 
ATOM     73  O   UNL A   1      44.517  25.052  36.739  1.00  0.00    -0.237 OA
ATOM     74  O   UNL A   1      46.480  26.009  37.877  1.00  0.00    -0.237 OA
ATOM     75  O   UNL A   1      44.227  26.397  38.784  1.00  0.00    -0.744 OA
ENDBRANCH  69  72
ENDBRANCH  51  65
BRANCH  52  76
ATOM     76  C   UNL A   1      35.198  33.484  32.318  1.00  0.00     0.023 A 
ATOM     77  C   UNL A   1      34.091  33.492  33.189  1.00  0.00     0.012 A 
ATOM     78  C   UNL A   1      35.081  34.096  31.054  1.00  0.00     0.148 A 
ATOM     79  C   UNL A   1      32.885  34.078  32.802  1.00  0.00     0.002 A 
ATOM     80  C   UNL A   1      33.895  34.728  30.698  1.00  0.00     0.091 A 
ATOM     81  F   UNL A   1      36.138  34.059  30.231  1.00  0.00    -0.205 F 
ATOM     82  C   UNL A   1      32.791  34.706  31.563  1.00  0.00     0.022 A 
BRANCH  80  83
ATOM     83  S   UNL A   1      33.723  35.674  29.179  1.00  0.00     0.127 S 
ATOM     84  O   UNL A   1      32.496  35.114  28.617  1.00  0.00    -0.237 OA
ATOM     85  O   UNL A   1      33.600  37.039  29.691  1.00  0.00    -0.237 OA
ATOM     86  O   UNL A   1      34.938  35.422  28.419  1.00  0.00    -0.744 OA
ENDBRANCH  80  83
ENDBRANCH  52  76
BRANCH  64  87
ATOM     87  C   UNL A   1      39.170  34.150  38.039  1.00  0.00     0.023 A 
ATOM     88  C   UNL A   1      39.589  35.495  38.050  1.00  0.00     0.012 A 
ATOM     89  C   UNL A   1      38.526  33.618  39.175  1.00  0.00     0.148 A 
ATOM     90  C   UNL A   1      39.392  36.290  39.179  1.00  0.00     0.002 A 
ATOM     91  C   UNL A   1      38.288  34.431  40.278  1.00  0.00     0.091 A 
ATOM     92  F   UNL A   1      38.148  32.331  39.154  1.00  0.00    -0.205 F 
ATOM     93  C   UNL A   1      38.731  35.763  40.286  1.00  0.00     0.022 A 
BRANCH  91  94
ATOM     94  S   UNL A   1      37.350  33.869  41.704  1.00  0.00     0.127 S 
ATOM     95  O   UNL A   1      37.150  35.116  42.440  1.00  0.00    -0.237 OA
ATOM     96  O   UNL A   1      36.140  33.325  41.086  1.00  0.00    -0.237 OA
ATOM     97  O   UNL A   1      38.186  32.877  42.366  1.00  0.00    -0.744 OA
ENDBRANCH  91  94
ENDBRANCH  64  87
ENDBRANCH  38  39
ENDBRANCH  31  33
ENDBRANCH  30  31
ENDBRANCH  29  30
ENDBRANCH  28  29
ENDBRANCH  27  28
ENDBRANCH   1  27
TORSDOF 21
ENDMDL
