MODEL 1
REMARK VINA RESULT:     -10.7      0.000      0.000
REMARK SMILES O=C(OCCOCCOCCOC(=O)c1ccccc1C(=O)N1CCS[C@H]1c1ccccc1)c1ccc(-c2c3nc(c(-c4cccc(S(=O)(=O)[O-])c4F)c4ccc([nH]4)c(-c4cccc(S(=O)(=O)[O-])c4F)c4nc(c(-c5cccc(S(=O)(=O)[O-])c5F)c5ccc2[nH]5)C=C4)C=C3)cc1
REMARK SMILES IDX 7 1 6 2 5 3 4 4 3 5 2 6 1 7 34 8 35 9 96 10 36 11 95 12
REMARK SMILES IDX 37 13 38 14 39 15 89 16 40 17 94 18 88 19 90 20 41 21 93 22
REMARK SMILES IDX 87 23 86 24 42 26 74 27 54 28 73 29 55 30 58 31 72 32 91 33
REMARK SMILES IDX 56 34 57 35 71 37 92 38 59 39 43 40 44 41 52 42 45 43 47 44
REMARK SMILES IDX 53 45 46 46 48 47 49 48 50 49 51 50 75 51 76 52 84 53 77 54
REMARK SMILES IDX 79 55 85 56 78 57 80 58 81 59 82 60 83 61 60 62 61 63 69 64
REMARK SMILES IDX 62 65 64 66 70 67 63 68 65 69 66 70 67 71 68 72 8 73 9 74
REMARK SMILES IDX 10 75 11 76 12 77 13 78 14 79 15 80 16 81 20 82 17 83 19 84
REMARK SMILES IDX 18 85 21 86 22 87 23 88 24 89 27 90 25 91 26 92 28 93 29 94
REMARK SMILES IDX 33 95 30 96 32 97 31 98
REMARK H PARENT 90 25 58 36
REMARK Flexibility Score: inf
ROOT
ATOM      1  C   UNL A   1      35.048  20.372  25.142  1.00  0.00     0.188 C 
ENDROOT
BRANCH   1   2
ATOM      2  O   UNL A   1      36.192  21.118  25.565  1.00  0.00    -0.376 OA
BRANCH   2   3
ATOM      3  C   UNL A   1      37.261  21.141  24.622  1.00  0.00     0.202 C 
BRANCH   3   4
ATOM      4  C   UNL A   1      38.231  19.981  24.839  1.00  0.00     0.261 C 
BRANCH   4   5
ATOM      5  O   UNL A   1      38.813  20.048  26.152  1.00  0.00    -0.460 OA
BRANCH   5   6
ATOM      6  C   UNL A   1      40.048  20.525  26.458  1.00  0.00     0.338 C 
ATOM      7  O   UNL A   1      41.035  19.833  26.215  1.00  0.00    -0.246 OA
BRANCH   6   8
ATOM      8  C   UNL A   1      40.265  21.929  26.917  1.00  0.00     0.060 A 
ATOM      9  C   UNL A   1      39.556  23.047  26.468  1.00  0.00     0.016 A 
ATOM     10  C   UNL A   1      41.241  22.113  27.909  1.00  0.00     0.016 A 
ATOM     11  C   UNL A   1      39.927  24.333  26.863  1.00  0.00     0.010 A 
ATOM     12  C   UNL A   1      41.573  23.394  28.357  1.00  0.00     0.010 A 
ATOM     13  C   UNL A   1      40.963  24.516  27.783  1.00  0.00    -0.014 A 
BRANCH  13  14
ATOM     14  C   UNL A   1      41.490  25.876  28.044  1.00  0.00     0.031 A 
ATOM     15  C   UNL A   1      42.882  26.211  27.595  1.00  0.00     0.074 A 
ATOM     16  C   UNL A   1      40.720  26.812  28.626  1.00  0.00     0.049 A 
ATOM     17  N   UNL A   1      43.549  27.326  27.742  1.00  0.00    -0.248 NA
ATOM     18  C   UNL A   1      43.617  25.161  26.870  1.00  0.00     0.031 C 
ATOM     19  C   UNL A   1      39.340  26.609  29.050  1.00  0.00     0.029 A 
ATOM     20  N   UNL A   1      40.987  28.113  28.967  1.00  0.00    -0.354 N 
ATOM     21  C   UNL A   1      44.781  27.106  27.142  1.00  0.00     0.074 A 
ATOM     22  C   UNL A   1      44.782  25.747  26.647  1.00  0.00     0.031 C 
ATOM     23  C   UNL A   1      38.883  27.739  29.612  1.00  0.00     0.029 A 
ATOM     24  C   UNL A   1      39.949  28.730  29.626  1.00  0.00     0.049 A 
ATOM     25  H   UNL A   1      41.839  28.563  28.760  1.00  0.00     0.167 HD
ATOM     26  C   UNL A   1      45.811  27.970  26.990  1.00  0.00     0.034 A 
ATOM     27  C   UNL A   1      39.870  29.949  30.194  1.00  0.00     0.034 A 
ATOM     28  C   UNL A   1      45.801  29.321  27.474  1.00  0.00     0.049 A 
ATOM     29  C   UNL A   1      41.047  30.874  30.060  1.00  0.00     0.074 A 
ATOM     30  C   UNL A   1      46.805  30.268  27.408  1.00  0.00     0.029 A 
ATOM     31  N   UNL A   1      44.723  29.917  28.113  1.00  0.00    -0.354 N 
ATOM     32  N   UNL A   1      42.185  30.668  29.442  1.00  0.00    -0.248 NA
ATOM     33  C   UNL A   1      40.924  32.205  30.667  1.00  0.00     0.031 C 
ATOM     34  C   UNL A   1      46.333  31.443  28.008  1.00  0.00     0.029 A 
ATOM     35  C   UNL A   1      45.034  31.224  28.443  1.00  0.00     0.049 A 
ATOM     36  H   UNL A   1      43.865  29.476  28.303  1.00  0.00     0.167 HD
ATOM     37  C   UNL A   1      42.902  31.850  29.559  1.00  0.00     0.074 A 
ATOM     38  C   UNL A   1      42.060  32.777  30.291  1.00  0.00     0.031 C 
ATOM     39  C   UNL A   1      44.153  32.139  29.122  1.00  0.00     0.034 A 
BRANCH  26  40
ATOM     40  C   UNL A   1      47.008  27.470  26.232  1.00  0.00     0.023 A 
ATOM     41  C   UNL A   1      47.042  27.622  24.831  1.00  0.00     0.012 A 
ATOM     42  C   UNL A   1      48.081  26.841  26.889  1.00  0.00     0.148 A 
ATOM     43  C   UNL A   1      48.115  27.131  24.090  1.00  0.00     0.002 A 
ATOM     44  C   UNL A   1      49.160  26.377  26.146  1.00  0.00     0.091 A 
ATOM     45  F   UNL A   1      48.010  26.677  28.217  1.00  0.00    -0.205 F 
ATOM     46  C   UNL A   1      49.177  26.514  24.747  1.00  0.00     0.022 A 
BRANCH  44  47
ATOM     47  S   UNL A   1      50.589  25.597  26.905  1.00  0.00     0.127 S 
ATOM     48  O   UNL A   1      51.464  25.398  25.751  1.00  0.00    -0.237 OA
ATOM     49  O   UNL A   1      51.041  26.625  27.843  1.00  0.00    -0.237 OA
ATOM     50  O   UNL A   1      50.090  24.382  27.535  1.00  0.00    -0.744 OA
ENDBRANCH  44  47
ENDBRANCH  26  40
BRANCH  27  51
ATOM     51  C   UNL A   1      38.622  30.362  30.896  1.00  0.00     0.023 A 
ATOM     52  C   UNL A   1      38.462  30.083  32.265  1.00  0.00     0.012 A 
ATOM     53  C   UNL A   1      37.613  31.084  30.227  1.00  0.00     0.148 A 
ATOM     54  C   UNL A   1      37.314  30.494  32.948  1.00  0.00     0.002 A 
ATOM     55  C   UNL A   1      36.498  31.538  30.924  1.00  0.00     0.091 A 
ATOM     56  F   UNL A   1      37.759  31.329  28.915  1.00  0.00    -0.205 F 
ATOM     57  C   UNL A   1      36.338  31.233  32.282  1.00  0.00     0.022 A 
BRANCH  55  58
ATOM     58  S   UNL A   1      35.302  32.612  30.122  1.00  0.00     0.127 S 
ATOM     59  O   UNL A   1      34.834  31.781  29.019  1.00  0.00    -0.237 OA
ATOM     60  O   UNL A   1      34.312  32.846  31.174  1.00  0.00    -0.237 OA
ATOM     61  O   UNL A   1      36.073  33.799  29.764  1.00  0.00    -0.744 OA
ENDBRANCH  55  58
ENDBRANCH  27  51
BRANCH  39  62
ATOM     62  C   UNL A   1      44.682  33.515  29.410  1.00  0.00     0.023 A 
ATOM     63  C   UNL A   1      45.404  33.740  30.597  1.00  0.00     0.012 A 
ATOM     64  C   UNL A   1      44.534  34.557  28.476  1.00  0.00     0.148 A 
ATOM     65  C   UNL A   1      45.960  34.991  30.859  1.00  0.00     0.002 A 
ATOM     66  C   UNL A   1      45.124  35.790  28.726  1.00  0.00     0.091 A 
ATOM     67  F   UNL A   1      43.818  34.328  27.365  1.00  0.00    -0.205 F 
ATOM     68  C   UNL A   1      45.832  36.011  29.919  1.00  0.00     0.022 A 
BRANCH  66  69
ATOM     69  S   UNL A   1      45.071  37.119  27.520  1.00  0.00     0.127 S 
ATOM     70  O   UNL A   1      45.897  36.579  26.441  1.00  0.00    -0.237 OA
ATOM     71  O   UNL A   1      43.644  37.210  27.207  1.00  0.00    -0.237 OA
ATOM     72  O   UNL A   1      45.607  38.287  28.206  1.00  0.00    -0.744 OA
ENDBRANCH  66  69
ENDBRANCH  39  62
ENDBRANCH  13  14
ENDBRANCH   6   8
ENDBRANCH   5   6
ENDBRANCH   4   5
ENDBRANCH   3   4
ENDBRANCH   2   3
ENDBRANCH   1   2
BRANCH   1  73
ATOM     73  C   UNL A   1      33.842  20.740  26.002  1.00  0.00     0.188 C 
BRANCH  73  74
ATOM     74  O   UNL A   1      32.594  20.322  25.451  1.00  0.00    -0.376 OA
BRANCH  74  75
ATOM     75  C   UNL A   1      32.558  20.120  24.039  1.00  0.00     0.202 C 
BRANCH  75  76
ATOM     76  C   UNL A   1      32.224  21.337  23.176  1.00  0.00     0.261 C 
BRANCH  76  77
ATOM     77  O   UNL A   1      33.043  22.516  23.277  1.00  0.00    -0.460 OA
BRANCH  77  78
ATOM     78  C   UNL A   1      32.382  23.578  23.806  1.00  0.00     0.339 C 
ATOM     79  O   UNL A   1      31.771  23.579  24.863  1.00  0.00    -0.246 OA
BRANCH  78  80
ATOM     80  C   UNL A   1      32.535  24.828  23.050  1.00  0.00     0.072 A 
ATOM     81  C   UNL A   1      32.168  24.737  21.690  1.00  0.00     0.016 A 
ATOM     82  C   UNL A   1      33.255  25.940  23.511  1.00  0.00     0.054 A 
ATOM     83  C   UNL A   1      32.531  25.730  20.780  1.00  0.00     0.001 A 
ATOM     84  C   UNL A   1      33.651  26.905  22.557  1.00  0.00     0.015 A 
ATOM     85  C   UNL A   1      33.296  26.805  21.211  1.00  0.00     0.001 A 
BRANCH  82  86
ATOM     86  C   UNL A   1      33.663  26.264  24.914  1.00  0.00     0.255 C 
ATOM     87  O   UNL A   1      34.376  25.478  25.538  1.00  0.00    -0.269 OA
BRANCH  86  88
ATOM     88  N   UNL A   1      33.284  27.461  25.525  1.00  0.00    -0.322 N 
ATOM     89  C   UNL A   1      34.227  27.885  26.557  1.00  0.00     0.132 C 
ATOM     90  C   UNL A   1      31.916  27.462  26.047  1.00  0.00     0.174 C 
ATOM     91  C   UNL A   1      33.634  28.974  27.430  1.00  0.00     0.093 C 
ATOM     92  S   UNL A   1      31.842  28.815  27.276  1.00  0.00    -0.130 SA
BRANCH  90  93
ATOM     93  C   UNL A   1      30.851  27.497  24.960  1.00  0.00    -0.015 A 
ATOM     94  C   UNL A   1      29.887  26.494  24.763  1.00  0.00     0.007 A 
ATOM     95  C   UNL A   1      30.760  28.650  24.153  1.00  0.00     0.007 A 
ATOM     96  C   UNL A   1      28.832  26.672  23.862  1.00  0.00     0.000 A 
ATOM     97  C   UNL A   1      29.705  28.830  23.258  1.00  0.00     0.000 A 
ATOM     98  C   UNL A   1      28.731  27.847  23.124  1.00  0.00     0.000 A 
ENDBRANCH  90  93
ENDBRANCH  86  88
ENDBRANCH  82  86
ENDBRANCH  78  80
ENDBRANCH  77  78
ENDBRANCH  76  77
ENDBRANCH  75  76
ENDBRANCH  74  75
ENDBRANCH  73  74
ENDBRANCH   1  73
TORSDOF 23
ENDMDL
MODEL 2
REMARK VINA RESULT:     -10.1      2.028      2.910
REMARK SMILES O=C(OCCOCCOCCOC(=O)c1ccccc1C(=O)N1CCS[C@H]1c1ccccc1)c1ccc(-c2c3nc(c(-c4cccc(S(=O)(=O)[O-])c4F)c4ccc([nH]4)c(-c4cccc(S(=O)(=O)[O-])c4F)c4nc(c(-c5cccc(S(=O)(=O)[O-])c5F)c5ccc2[nH]5)C=C4)C=C3)cc1
REMARK SMILES IDX 7 1 6 2 5 3 4 4 3 5 2 6 1 7 34 8 35 9 96 10 36 11 95 12
REMARK SMILES IDX 37 13 38 14 39 15 89 16 40 17 94 18 88 19 90 20 41 21 93 22
REMARK SMILES IDX 87 23 86 24 42 26 74 27 54 28 73 29 55 30 58 31 72 32 91 33
REMARK SMILES IDX 56 34 57 35 71 37 92 38 59 39 43 40 44 41 52 42 45 43 47 44
REMARK SMILES IDX 53 45 46 46 48 47 49 48 50 49 51 50 75 51 76 52 84 53 77 54
REMARK SMILES IDX 79 55 85 56 78 57 80 58 81 59 82 60 83 61 60 62 61 63 69 64
REMARK SMILES IDX 62 65 64 66 70 67 63 68 65 69 66 70 67 71 68 72 8 73 9 74
REMARK SMILES IDX 10 75 11 76 12 77 13 78 14 79 15 80 16 81 20 82 17 83 19 84
REMARK SMILES IDX 18 85 21 86 22 87 23 88 24 89 27 90 25 91 26 92 28 93 29 94
REMARK SMILES IDX 33 95 30 96 32 97 31 98
REMARK H PARENT 90 25 58 36
REMARK Flexibility Score: inf
ROOT
ATOM      1  C   UNL A   1      35.879  21.845  24.336  1.00  0.00     0.188 C 
ENDROOT
BRANCH   1   2
ATOM      2  O   UNL A   1      36.947  20.899  24.239  1.00  0.00    -0.376 OA
BRANCH   2   3
ATOM      3  C   UNL A   1      37.813  20.872  25.372  1.00  0.00     0.202 C 
BRANCH   3   4
ATOM      4  C   UNL A   1      38.666  19.606  25.401  1.00  0.00     0.261 C 
BRANCH   4   5
ATOM      5  O   UNL A   1      40.047  19.933  25.635  1.00  0.00    -0.460 OA
BRANCH   5   6
ATOM      6  C   UNL A   1      40.587  20.330  26.817  1.00  0.00     0.338 C 
ATOM      7  O   UNL A   1      41.097  19.489  27.555  1.00  0.00    -0.246 OA
BRANCH   6   8
ATOM      8  C   UNL A   1      40.741  21.772  27.174  1.00  0.00     0.060 A 
ATOM      9  C   UNL A   1      40.061  22.834  26.570  1.00  0.00     0.016 A 
ATOM     10  C   UNL A   1      41.617  22.058  28.233  1.00  0.00     0.016 A 
ATOM     11  C   UNL A   1      40.376  24.155  26.888  1.00  0.00     0.010 A 
ATOM     12  C   UNL A   1      41.887  23.378  28.600  1.00  0.00     0.010 A 
ATOM     13  C   UNL A   1      41.318  24.436  27.880  1.00  0.00    -0.014 A 
BRANCH  13  14
ATOM     14  C   UNL A   1      41.799  25.824  28.073  1.00  0.00     0.031 A 
ATOM     15  C   UNL A   1      43.153  26.201  27.544  1.00  0.00     0.074 A 
ATOM     16  C   UNL A   1      41.021  26.746  28.666  1.00  0.00     0.049 A 
ATOM     17  N   UNL A   1      43.778  27.346  27.623  1.00  0.00    -0.248 NA
ATOM     18  C   UNL A   1      43.894  25.158  26.813  1.00  0.00     0.031 C 
ATOM     19  C   UNL A   1      39.673  26.500  29.166  1.00  0.00     0.029 A 
ATOM     20  N   UNL A   1      41.249  28.067  28.953  1.00  0.00    -0.354 N 
ATOM     21  C   UNL A   1      44.987  27.157  26.968  1.00  0.00     0.074 A 
ATOM     22  C   UNL A   1      45.020  25.785  26.514  1.00  0.00     0.031 C 
ATOM     23  C   UNL A   1      39.197  27.628  29.717  1.00  0.00     0.029 A 
ATOM     24  C   UNL A   1      40.220  28.662  29.646  1.00  0.00     0.049 A 
ATOM     25  H   UNL A   1      42.070  28.544  28.690  1.00  0.00     0.167 HD
ATOM     26  C   UNL A   1      45.971  28.057  26.738  1.00  0.00     0.034 A 
ATOM     27  C   UNL A   1      40.118  29.894  30.181  1.00  0.00     0.034 A 
ATOM     28  C   UNL A   1      45.927  29.421  27.181  1.00  0.00     0.049 A 
ATOM     29  C   UNL A   1      41.247  30.861  29.960  1.00  0.00     0.074 A 
ATOM     30  C   UNL A   1      46.886  30.406  27.035  1.00  0.00     0.029 A 
ATOM     31  N   UNL A   1      44.859  29.994  27.856  1.00  0.00    -0.354 N 
ATOM     32  N   UNL A   1      42.360  30.682  29.290  1.00  0.00    -0.248 NA
ATOM     33  C   UNL A   1      41.098  32.205  30.532  1.00  0.00     0.031 C 
ATOM     34  C   UNL A   1      46.395  31.579  27.624  1.00  0.00     0.029 A 
ATOM     35  C   UNL A   1      45.130  31.322  28.131  1.00  0.00     0.049 A 
ATOM     36  H   UNL A   1      44.030  29.524  28.103  1.00  0.00     0.167 HD
ATOM     37  C   UNL A   1      43.032  31.896  29.336  1.00  0.00     0.074 A 
ATOM     38  C   UNL A   1      42.188  32.810  30.081  1.00  0.00     0.031 C 
ATOM     39  C   UNL A   1      44.246  32.222  28.827  1.00  0.00     0.034 A 
BRANCH  26  40
ATOM     40  C   UNL A   1      47.148  27.583  25.935  1.00  0.00     0.023 A 
ATOM     41  C   UNL A   1      48.204  26.921  26.595  1.00  0.00     0.012 A 
ATOM     42  C   UNL A   1      47.225  27.802  24.547  1.00  0.00     0.148 A 
ATOM     43  C   UNL A   1      49.333  26.507  25.890  1.00  0.00     0.002 A 
ATOM     44  C   UNL A   1      48.341  27.362  23.846  1.00  0.00     0.091 A 
ATOM     45  F   UNL A   1      46.225  28.464  23.948  1.00  0.00    -0.205 F 
ATOM     46  C   UNL A   1      49.398  26.721  24.515  1.00  0.00     0.022 A 
BRANCH  44  47
ATOM     47  S   UNL A   1      48.505  27.564  22.069  1.00  0.00     0.127 S 
ATOM     48  O   UNL A   1      49.640  28.481  21.980  1.00  0.00    -0.237 OA
ATOM     49  O   UNL A   1      48.789  26.198  21.627  1.00  0.00    -0.237 OA
ATOM     50  O   UNL A   1      47.229  28.094  21.610  1.00  0.00    -0.744 OA
ENDBRANCH  44  47
ENDBRANCH  26  40
BRANCH  27  51
ATOM     51  C   UNL A   1      38.890  30.278  30.933  1.00  0.00     0.023 A 
ATOM     52  C   UNL A   1      38.798  30.008  32.311  1.00  0.00     0.012 A 
ATOM     53  C   UNL A   1      37.833  30.964  30.302  1.00  0.00     0.148 A 
ATOM     54  C   UNL A   1      37.670  30.393  33.039  1.00  0.00     0.002 A 
ATOM     55  C   UNL A   1      36.736  31.393  31.044  1.00  0.00     0.091 A 
ATOM     56  F   UNL A   1      37.914  31.200  28.984  1.00  0.00    -0.205 F 
ATOM     57  C   UNL A   1      36.644  31.097  32.410  1.00  0.00     0.022 A 
BRANCH  55  58
ATOM     58  S   UNL A   1      35.475  32.423  30.286  1.00  0.00     0.127 S 
ATOM     59  O   UNL A   1      34.464  32.494  31.335  1.00  0.00    -0.237 OA
ATOM     60  O   UNL A   1      36.184  33.679  30.033  1.00  0.00    -0.237 OA
ATOM     61  O   UNL A   1      35.106  31.700  29.073  1.00  0.00    -0.744 OA
ENDBRANCH  55  58
ENDBRANCH  27  51
BRANCH  39  62
ATOM     62  C   UNL A   1      44.729  33.626  29.046  1.00  0.00     0.023 A 
ATOM     63  C   UNL A   1      44.385  34.626  28.116  1.00  0.00     0.012 A 
ATOM     64  C   UNL A   1      45.450  33.971  30.204  1.00  0.00     0.148 A 
ATOM     65  C   UNL A   1      44.767  35.949  28.328  1.00  0.00     0.002 A 
ATOM     66  C   UNL A   1      45.793  35.298  30.428  1.00  0.00     0.091 A 
ATOM     67  F   UNL A   1      45.791  32.998  31.062  1.00  0.00    -0.205 F 
ATOM     68  C   UNL A   1      45.458  36.288  29.489  1.00  0.00     0.022 A 
BRANCH  66  69
ATOM     69  S   UNL A   1      46.608  35.816  31.942  1.00  0.00     0.127 S 
ATOM     70  O   UNL A   1      46.888  37.224  31.665  1.00  0.00    -0.237 OA
ATOM     71  O   UNL A   1      45.577  35.588  32.954  1.00  0.00    -0.237 OA
ATOM     72  O   UNL A   1      47.773  34.951  32.072  1.00  0.00    -0.744 OA
ENDBRANCH  66  69
ENDBRANCH  39  62
ENDBRANCH  13  14
ENDBRANCH   6   8
ENDBRANCH   5   6
ENDBRANCH   4   5
ENDBRANCH   3   4
ENDBRANCH   2   3
ENDBRANCH   1   2
BRANCH   1  73
ATOM     73  C   UNL A   1      35.042  21.555  25.579  1.00  0.00     0.188 C 
BRANCH  73  74
ATOM     74  O   UNL A   1      34.703  22.721  26.329  1.00  0.00    -0.376 OA
BRANCH  74  75
ATOM     75  C   UNL A   1      33.749  22.548  27.375  1.00  0.00     0.202 C 
BRANCH  75  76
ATOM     76  C   UNL A   1      32.459  23.362  27.273  1.00  0.00     0.261 C 
BRANCH  76  77
ATOM     77  O   UNL A   1      32.429  24.530  26.433  1.00  0.00    -0.460 OA
BRANCH  77  78
ATOM     78  C   UNL A   1      31.411  24.512  25.534  1.00  0.00     0.339 C 
ATOM     79  O   UNL A   1      30.290  24.959  25.721  1.00  0.00    -0.246 OA
BRANCH  78  80
ATOM     80  C   UNL A   1      31.777  23.989  24.212  1.00  0.00     0.072 A 
ATOM     81  C   UNL A   1      31.695  22.585  24.096  1.00  0.00     0.016 A 
ATOM     82  C   UNL A   1      32.437  24.739  23.227  1.00  0.00     0.054 A 
ATOM     83  C   UNL A   1      32.286  21.917  23.022  1.00  0.00     0.001 A 
ATOM     84  C   UNL A   1      33.068  24.031  22.179  1.00  0.00     0.015 A 
ATOM     85  C   UNL A   1      32.995  22.641  22.075  1.00  0.00     0.001 A 
BRANCH  82  86
ATOM     86  C   UNL A   1      32.561  26.226  23.122  1.00  0.00     0.255 C 
ATOM     87  O   UNL A   1      33.609  26.722  22.706  1.00  0.00    -0.269 OA
BRANCH  86  88
ATOM     88  N   UNL A   1      31.500  27.071  23.451  1.00  0.00    -0.322 N 
ATOM     89  C   UNL A   1      30.494  27.142  22.395  1.00  0.00     0.132 C 
ATOM     90  C   UNL A   1      31.908  28.416  23.864  1.00  0.00     0.174 C 
ATOM     91  C   UNL A   1      29.545  28.306  22.616  1.00  0.00     0.093 C 
ATOM     92  S   UNL A   1      30.432  29.478  23.664  1.00  0.00    -0.130 SA
BRANCH  90  93
ATOM     93  C   UNL A   1      32.570  28.455  25.235  1.00  0.00    -0.015 A 
ATOM     94  C   UNL A   1      33.892  28.870  25.462  1.00  0.00     0.007 A 
ATOM     95  C   UNL A   1      31.784  28.146  26.364  1.00  0.00     0.007 A 
ATOM     96  C   UNL A   1      34.380  29.049  26.762  1.00  0.00     0.000 A 
ATOM     97  C   UNL A   1      32.268  28.329  27.659  1.00  0.00     0.000 A 
ATOM     98  C   UNL A   1      33.563  28.797  27.858  1.00  0.00     0.000 A 
ENDBRANCH  90  93
ENDBRANCH  86  88
ENDBRANCH  82  86
ENDBRANCH  78  80
ENDBRANCH  77  78
ENDBRANCH  76  77
ENDBRANCH  75  76
ENDBRANCH  74  75
ENDBRANCH  73  74
ENDBRANCH   1  73
TORSDOF 23
ENDMDL
MODEL 3
REMARK VINA RESULT:      -9.9      3.289      5.348
REMARK SMILES O=C(OCCOCCOCCOC(=O)c1ccccc1C(=O)N1CCS[C@H]1c1ccccc1)c1ccc(-c2c3nc(c(-c4cccc(S(=O)(=O)[O-])c4F)c4ccc([nH]4)c(-c4cccc(S(=O)(=O)[O-])c4F)c4nc(c(-c5cccc(S(=O)(=O)[O-])c5F)c5ccc2[nH]5)C=C4)C=C3)cc1
REMARK SMILES IDX 7 1 6 2 5 3 4 4 3 5 2 6 1 7 34 8 35 9 96 10 36 11 95 12
REMARK SMILES IDX 37 13 38 14 39 15 89 16 40 17 94 18 88 19 90 20 41 21 93 22
REMARK SMILES IDX 87 23 86 24 42 26 74 27 54 28 73 29 55 30 58 31 72 32 91 33
REMARK SMILES IDX 56 34 57 35 71 37 92 38 59 39 43 40 44 41 52 42 45 43 47 44
REMARK SMILES IDX 53 45 46 46 48 47 49 48 50 49 51 50 75 51 76 52 84 53 77 54
REMARK SMILES IDX 79 55 85 56 78 57 80 58 81 59 82 60 83 61 60 62 61 63 69 64
REMARK SMILES IDX 62 65 64 66 70 67 63 68 65 69 66 70 67 71 68 72 8 73 9 74
REMARK SMILES IDX 10 75 11 76 12 77 13 78 14 79 15 80 16 81 20 82 17 83 19 84
REMARK SMILES IDX 18 85 21 86 22 87 23 88 24 89 27 90 25 91 26 92 28 93 29 94
REMARK SMILES IDX 33 95 30 96 32 97 31 98
REMARK H PARENT 90 25 58 36
REMARK Flexibility Score: inf
ROOT
ATOM      1  C   UNL A   1      41.937  20.753  26.150  1.00  0.00     0.188 C 
ENDROOT
BRANCH   1   2
ATOM      2  O   UNL A   1      42.139  19.536  25.428  1.00  0.00    -0.376 OA
BRANCH   2   3
ATOM      3  C   UNL A   1      42.654  18.464  26.214  1.00  0.00     0.202 C 
BRANCH   3   4
ATOM      4  C   UNL A   1      44.066  18.073  25.783  1.00  0.00     0.261 C 
BRANCH   4   5
ATOM      5  O   UNL A   1      44.403  18.697  24.532  1.00  0.00    -0.460 OA
BRANCH   5   6
ATOM      6  C   UNL A   1      45.403  19.594  24.329  1.00  0.00     0.338 C 
ATOM      7  O   UNL A   1      46.393  19.253  23.684  1.00  0.00    -0.246 OA
BRANCH   6   8
ATOM      8  C   UNL A   1      45.269  21.032  24.711  1.00  0.00     0.060 A 
ATOM      9  C   UNL A   1      44.916  22.071  23.844  1.00  0.00     0.016 A 
ATOM     10  C   UNL A   1      45.483  21.336  26.064  1.00  0.00     0.016 A 
ATOM     11  C   UNL A   1      44.948  23.398  24.272  1.00  0.00     0.010 A 
ATOM     12  C   UNL A   1      45.452  22.659  26.512  1.00  0.00     0.010 A 
ATOM     13  C   UNL A   1      45.252  23.703  25.601  1.00  0.00    -0.014 A 
BRANCH  13  14
ATOM     14  C   UNL A   1      45.486  25.110  26.003  1.00  0.00     0.031 A 
ATOM     15  C   UNL A   1      46.887  25.649  25.968  1.00  0.00     0.074 A 
ATOM     16  C   UNL A   1      44.460  25.908  26.345  1.00  0.00     0.049 A 
ATOM     17  N   UNL A   1      47.320  26.837  26.299  1.00  0.00    -0.248 NA
ATOM     18  C   UNL A   1      47.936  24.739  25.478  1.00  0.00     0.031 C 
ATOM     19  C   UNL A   1      43.059  25.502  26.360  1.00  0.00     0.029 A 
ATOM     20  N   UNL A   1      44.433  27.218  26.749  1.00  0.00    -0.354 N 
ATOM     21  C   UNL A   1      48.690  26.811  26.073  1.00  0.00     0.074 A 
ATOM     22  C   UNL A   1      49.022  25.487  25.596  1.00  0.00     0.031 C 
ATOM     23  C   UNL A   1      42.307  26.534  26.772  1.00  0.00     0.029 A 
ATOM     24  C   UNL A   1      43.175  27.660  27.088  1.00  0.00     0.049 A 
ATOM     25  H   UNL A   1      45.236  27.787  26.794  1.00  0.00     0.167 HD
ATOM     26  C   UNL A   1      49.587  27.813  26.220  1.00  0.00     0.034 A 
ATOM     27  C   UNL A   1      42.768  28.832  27.613  1.00  0.00     0.034 A 
ATOM     28  C   UNL A   1      49.250  29.128  26.684  1.00  0.00     0.049 A 
ATOM     29  C   UNL A   1      43.792  29.912  27.821  1.00  0.00     0.074 A 
ATOM     30  C   UNL A   1      50.088  30.205  26.907  1.00  0.00     0.029 A 
ATOM     31  N   UNL A   1      47.963  29.546  26.993  1.00  0.00    -0.354 N 
ATOM     32  N   UNL A   1      45.075  29.889  27.549  1.00  0.00    -0.248 NA
ATOM     33  C   UNL A   1      43.316  31.188  28.370  1.00  0.00     0.031 C 
ATOM     34  C   UNL A   1      49.304  31.278  27.351  1.00  0.00     0.029 A 
ATOM     35  C   UNL A   1      47.981  30.867  27.399  1.00  0.00     0.049 A 
ATOM     36  H   UNL A   1      47.158  28.984  26.931  1.00  0.00     0.167 HD
ATOM     37  C   UNL A   1      45.555  31.151  27.867  1.00  0.00     0.074 A 
ATOM     38  C   UNL A   1      44.419  31.924  28.332  1.00  0.00     0.031 C 
ATOM     39  C   UNL A   1      46.824  31.626  27.803  1.00  0.00     0.034 A 
BRANCH  26  40
ATOM     40  C   UNL A   1      51.006  27.512  25.832  1.00  0.00     0.023 A 
ATOM     41  C   UNL A   1      51.943  27.209  26.842  1.00  0.00     0.012 A 
ATOM     42  C   UNL A   1      51.421  27.545  24.488  1.00  0.00     0.148 A 
ATOM     43  C   UNL A   1      53.278  26.969  26.523  1.00  0.00     0.002 A 
ATOM     44  C   UNL A   1      52.748  27.278  24.174  1.00  0.00     0.091 A 
ATOM     45  F   UNL A   1      50.521  27.870  23.549  1.00  0.00    -0.205 F 
ATOM     46  C   UNL A   1      53.680  26.997  25.189  1.00  0.00     0.022 A 
BRANCH  44  47
ATOM     47  S   UNL A   1      53.356  27.261  22.484  1.00  0.00     0.127 S 
ATOM     48  O   UNL A   1      54.775  26.971  22.684  1.00  0.00    -0.237 OA
ATOM     49  O   UNL A   1      52.587  26.166  21.891  1.00  0.00    -0.237 OA
ATOM     50  O   UNL A   1      53.052  28.577  21.940  1.00  0.00    -0.744 OA
ENDBRANCH  44  47
ENDBRANCH  26  40
BRANCH  27  51
ATOM     51  C   UNL A   1      41.328  29.043  27.934  1.00  0.00     0.023 A 
ATOM     52  C   UNL A   1      40.392  29.190  26.894  1.00  0.00     0.012 A 
ATOM     53  C   UNL A   1      40.869  29.041  29.266  1.00  0.00     0.148 A 
ATOM     54  C   UNL A   1      39.033  29.353  27.175  1.00  0.00     0.002 A 
ATOM     55  C   UNL A   1      39.508  29.149  29.538  1.00  0.00     0.091 A 
ATOM     56  F   UNL A   1      41.767  28.923  30.256  1.00  0.00    -0.205 F 
ATOM     57  C   UNL A   1      38.588  29.319  28.495  1.00  0.00     0.022 A 
BRANCH  55  58
ATOM     58  S   UNL A   1      38.901  28.964  31.219  1.00  0.00     0.127 S 
ATOM     59  O   UNL A   1      39.363  27.625  31.566  1.00  0.00    -0.237 OA
ATOM     60  O   UNL A   1      39.576  30.048  31.934  1.00  0.00    -0.237 OA
ATOM     61  O   UNL A   1      37.458  29.146  31.098  1.00  0.00    -0.744 OA
ENDBRANCH  55  58
ENDBRANCH  27  51
BRANCH  39  62
ATOM     62  C   UNL A   1      47.050  33.047  28.231  1.00  0.00     0.023 A 
ATOM     63  C   UNL A   1      47.283  33.327  29.592  1.00  0.00     0.012 A 
ATOM     64  C   UNL A   1      47.112  34.086  27.285  1.00  0.00     0.148 A 
ATOM     65  C   UNL A   1      47.558  34.628  30.007  1.00  0.00     0.002 A 
ATOM     66  C   UNL A   1      47.425  35.374  27.702  1.00  0.00     0.091 A 
ATOM     67  F   UNL A   1      46.859  33.802  26.000  1.00  0.00    -0.205 F 
ATOM     68  C   UNL A   1      47.643  35.649  29.062  1.00  0.00     0.022 A 
BRANCH  66  69
ATOM     69  S   UNL A   1      47.634  36.718  26.528  1.00  0.00     0.127 S 
ATOM     70  O   UNL A   1      48.506  36.107  25.526  1.00  0.00    -0.237 OA
ATOM     71  O   UNL A   1      46.264  36.963  26.076  1.00  0.00    -0.237 OA
ATOM     72  O   UNL A   1      48.215  37.814  27.292  1.00  0.00    -0.744 OA
ENDBRANCH  66  69
ENDBRANCH  39  62
ENDBRANCH  13  14
ENDBRANCH   6   8
ENDBRANCH   5   6
ENDBRANCH   4   5
ENDBRANCH   3   4
ENDBRANCH   2   3
ENDBRANCH   1   2
BRANCH   1  73
ATOM     73  C   UNL A   1      40.455  20.924  26.472  1.00  0.00     0.188 C 
BRANCH  73  74
ATOM     74  O   UNL A   1      39.854  22.048  25.834  1.00  0.00    -0.376 OA
BRANCH  74  75
ATOM     75  C   UNL A   1      38.462  22.248  26.076  1.00  0.00     0.202 C 
BRANCH  75  76
ATOM     76  C   UNL A   1      37.722  23.183  25.120  1.00  0.00     0.261 C 
BRANCH  76  77
ATOM     77  O   UNL A   1      37.182  22.652  23.895  1.00  0.00    -0.460 OA
BRANCH  77  78
ATOM     78  C   UNL A   1      35.869  22.953  23.720  1.00  0.00     0.339 C 
ATOM     79  O   UNL A   1      35.350  23.280  22.664  1.00  0.00    -0.246 OA
BRANCH  78  80
ATOM     80  C   UNL A   1      35.035  22.754  24.912  1.00  0.00     0.072 A 
ATOM     81  C   UNL A   1      34.665  23.946  25.571  1.00  0.00     0.016 A 
ATOM     82  C   UNL A   1      34.853  21.515  25.544  1.00  0.00     0.054 A 
ATOM     83  C   UNL A   1      34.139  23.918  26.864  1.00  0.00     0.001 A 
ATOM     84  C   UNL A   1      34.365  21.522  26.871  1.00  0.00     0.015 A 
ATOM     85  C   UNL A   1      34.011  22.704  27.523  1.00  0.00     0.001 A 
BRANCH  82  86
ATOM     86  C   UNL A   1      35.100  20.146  24.991  1.00  0.00     0.255 C 
ATOM     87  O   UNL A   1      36.255  19.755  24.825  1.00  0.00    -0.269 OA
BRANCH  86  88
ATOM     88  N   UNL A   1      34.045  19.282  24.689  1.00  0.00    -0.322 N 
ATOM     89  C   UNL A   1      34.492  17.905  24.489  1.00  0.00     0.132 C 
ATOM     90  C   UNL A   1      33.211  19.720  23.568  1.00  0.00     0.174 C 
ATOM     91  C   UNL A   1      33.410  17.067  23.834  1.00  0.00     0.093 C 
ATOM     92  S   UNL A   1      32.325  18.231  22.982  1.00  0.00    -0.130 SA
BRANCH  90  93
ATOM     93  C   UNL A   1      32.338  20.923  23.895  1.00  0.00    -0.015 A 
ATOM     94  C   UNL A   1      31.671  21.108  25.118  1.00  0.00     0.007 A 
ATOM     95  C   UNL A   1      32.262  21.969  22.952  1.00  0.00     0.007 A 
ATOM     96  C   UNL A   1      31.030  22.315  25.417  1.00  0.00     0.000 A 
ATOM     97  C   UNL A   1      31.628  23.175  23.251  1.00  0.00     0.000 A 
ATOM     98  C   UNL A   1      31.025  23.354  24.492  1.00  0.00     0.000 A 
ENDBRANCH  90  93
ENDBRANCH  86  88
ENDBRANCH  82  86
ENDBRANCH  78  80
ENDBRANCH  77  78
ENDBRANCH  76  77
ENDBRANCH  75  76
ENDBRANCH  74  75
ENDBRANCH  73  74
ENDBRANCH   1  73
TORSDOF 23
ENDMDL
