MODEL 1
REMARK VINA RESULT:     -13.1      0.000      0.000
REMARK SMILES Cc1ccc(-c2cc(C(=O)OCCOCCOCCOC(=O)c3ccc(-c4c5nc(c(-c6cccc(S(=O)(=O)[O-])c6F)c6ccc([nH]6)c(-c6cccc(S(=O)(=O)[O-])c6F)c6nc(c(-c7cccc(S(=O)(=O)[O-])c7F)c7ccc4[nH]7)C=C6)C=C5)cc3)c3c(-c4cccc([N+](=O)[O-])c4)[nH]nc3n2)cc1
REMARK SMILES IDX 16 1 15 2 14 3 13 4 12 5 11 6 9 7 10 8 8 9 6 10 7 11 100 12
REMARK SMILES IDX 99 13 86 14 98 15 87 16 97 17 5 19 1 20 2 21 3 22 102 23
REMARK SMILES IDX 4 24 101 25 88 26 89 27 96 28 90 29 92 30 91 31 93 32 94 33
REMARK SMILES IDX 95 34 17 35 18 36 19 37 20 38 21 39 22 40 23 41 24 42 85 43
REMARK SMILES IDX 25 44 84 45 26 46 27 47 28 48 78 49 29 50 83 51 77 52 79 53
REMARK SMILES IDX 30 54 82 55 76 56 75 57 31 59 63 60 43 61 62 62 44 63 47 64
REMARK SMILES IDX 61 65 80 66 45 67 46 68 60 70 81 71 48 72 32 73 33 74 41 75
REMARK SMILES IDX 34 76 36 77 42 78 35 79 37 80 38 81 39 82 40 83 64 84 65 85
REMARK SMILES IDX 73 86 66 87 68 88 74 89 67 90 69 91 70 92 71 93 72 94 49 95
REMARK SMILES IDX 50 96 58 97 51 98 53 99 59 100 52 101 54 102 55 103 56 104
REMARK SMILES IDX 57 105
REMARK H PARENT 97 18 79 58 47 69
REMARK Flexibility Score: inf
ROOT
ATOM      1  C   UNL A   1      40.184  21.774  27.415  1.00  0.00     0.188 C 
ENDROOT
BRANCH   1   2
ATOM      2  C   UNL A   1      39.460  22.668  26.399  1.00  0.00     0.188 C 
BRANCH   2   3
ATOM      3  O   UNL A   1      38.323  21.881  25.937  1.00  0.00    -0.376 OA
BRANCH   3   4
ATOM      4  C   UNL A   1      37.173  22.622  25.453  1.00  0.00     0.202 C 
BRANCH   4   5
ATOM      5  C   UNL A   1      36.766  22.215  23.856  1.00  0.00     0.261 C 
BRANCH   5   6
ATOM      6  O   UNL A   1      35.509  22.937  22.804  1.00  0.00    -0.460 OA
BRANCH   6   7
ATOM      7  C   UNL A   1      34.112  23.493  22.737  1.00  0.00     0.339 C 
ATOM      8  O   UNL A   1      33.677  24.541  22.259  1.00  0.00    -0.246 OA
BRANCH   7   9
ATOM      9  C   UNL A   1      33.074  22.917  23.557  1.00  0.00     0.075 A 
ATOM     10  C   UNL A   1      32.732  20.750  24.619  1.00  0.00     0.074 A 
ATOM     11  C   UNL A   1      33.346  21.568  23.682  1.00  0.00     0.045 A 
ATOM     12  N   UNL A   1      31.779  21.115  25.495  1.00  0.00    -0.226 NA
ATOM     13  C   UNL A   1      31.533  22.450  25.491  1.00  0.00     0.182 A 
ATOM     14  C   UNL A   1      32.172  23.416  24.578  1.00  0.00     0.061 A 
ATOM     15  N   UNL A   1      30.670  23.010  26.328  1.00  0.00    -0.154 NA
ATOM     16  C   UNL A   1      31.665  24.656  25.045  1.00  0.00     0.076 A 
ATOM     17  N   UNL A   1      30.776  24.297  26.046  1.00  0.00    -0.275 N 
ATOM     18  H   UNL A   1      30.246  24.973  26.528  1.00  0.00     0.190 HD
BRANCH  10  19
ATOM     19  C   UNL A   1      33.056  19.344  24.450  1.00  0.00     0.000 A 
ATOM     20  C   UNL A   1      34.649  15.484  25.408  1.00  0.00     0.044 C 
ATOM     21  C   UNL A   1      34.064  16.806  25.026  1.00  0.00    -0.051 A 
ATOM     22  C   UNL A   1      34.884  17.774  24.429  1.00  0.00     0.004 A 
ATOM     23  C   UNL A   1      32.720  17.092  25.283  1.00  0.00     0.004 A 
ATOM     24  C   UNL A   1      34.380  19.032  24.136  1.00  0.00     0.010 A 
ATOM     25  C   UNL A   1      32.211  18.352  24.986  1.00  0.00     0.010 A 
ENDBRANCH  10  19
BRANCH  16  26
ATOM     26  C   UNL A   1      31.662  26.138  24.885  1.00  0.00     0.007 A 
ATOM     27  C   UNL A   1      32.089  26.995  25.921  1.00  0.00     0.011 A 
ATOM     28  C   UNL A   1      30.798  26.712  23.920  1.00  0.00     0.096 A 
ATOM     29  C   UNL A   1      31.731  28.366  25.960  1.00  0.00     0.008 A 
ATOM     30  C   UNL A   1      30.468  28.093  23.943  1.00  0.00     0.270 A 
ATOM     31  C   UNL A   1      30.935  28.926  24.960  1.00  0.00     0.085 A 
BRANCH  30  32
ATOM     32  N   UNL A   1      29.690  28.686  22.839  1.00  0.00     0.062 N 
ATOM     33  O   UNL A   1      28.450  28.609  22.893  1.00  0.00    -0.258 OA
ATOM     34  O   UNL A   1      30.322  29.102  21.853  1.00  0.00    -0.258 OA
ENDBRANCH  30  32
ENDBRANCH  16  26
ENDBRANCH   7   9
ENDBRANCH   6   7
ENDBRANCH   5   6
ENDBRANCH   4   5
ENDBRANCH   3   4
ENDBRANCH   2   3
ENDBRANCH   1   2
BRANCH   1  35
ATOM     35  O   UNL A   1      40.830  20.590  26.994  1.00  0.00    -0.376 OA
BRANCH  35  36
ATOM     36  C   UNL A   1      41.646  20.585  25.836  1.00  0.00     0.202 C 
BRANCH  36  37
ATOM     37  C   UNL A   1      43.189  20.727  25.888  1.00  0.00     0.261 C 
BRANCH  37  38
ATOM     38  O   UNL A   1      43.732  22.015  26.235  1.00  0.00    -0.460 OA
BRANCH  38  39
ATOM     39  C   UNL A   1      43.459  23.019  25.313  1.00  0.00     0.338 C 
ATOM     40  O   UNL A   1      43.554  22.862  24.107  1.00  0.00    -0.246 OA
BRANCH  39  41
ATOM     41  C   UNL A   1      42.807  24.191  25.962  1.00  0.00     0.060 A 
ATOM     42  C   UNL A   1      42.452  25.421  25.434  1.00  0.00     0.016 A 
ATOM     43  C   UNL A   1      42.592  24.074  27.279  1.00  0.00     0.016 A 
ATOM     44  C   UNL A   1      42.322  26.636  26.258  1.00  0.00     0.010 A 
ATOM     45  C   UNL A   1      42.565  25.254  28.026  1.00  0.00     0.010 A 
ATOM     46  C   UNL A   1      42.530  26.646  27.633  1.00  0.00    -0.014 A 
BRANCH  46  47
ATOM     47  C   UNL A   1      42.497  28.080  28.651  1.00  0.00     0.031 A 
ATOM     48  C   UNL A   1      41.249  29.317  29.036  1.00  0.00     0.074 A 
ATOM     49  C   UNL A   1      43.649  28.403  29.292  1.00  0.00     0.049 A 
ATOM     50  N   UNL A   1      41.483  30.438  29.701  1.00  0.00    -0.248 NA
ATOM     51  C   UNL A   1      39.779  29.421  28.672  1.00  0.00     0.031 C 
ATOM     52  C   UNL A   1      43.755  29.295  30.441  1.00  0.00     0.029 A 
ATOM     53  N   UNL A   1      44.974  28.123  28.979  1.00  0.00    -0.354 N 
ATOM     54  C   UNL A   1      40.280  31.100  30.020  1.00  0.00     0.074 A 
ATOM     55  C   UNL A   1      39.263  30.442  29.323  1.00  0.00     0.031 C 
ATOM     56  C   UNL A   1      44.998  29.770  30.512  1.00  0.00     0.029 A 
ATOM     57  C   UNL A   1      45.753  29.211  29.416  1.00  0.00     0.049 A 
ATOM     58  H   UNL A   1      45.307  27.312  28.531  1.00  0.00     0.167 HD
ATOM     59  C   UNL A   1      40.176  32.129  30.901  1.00  0.00     0.034 A 
ATOM     60  C   UNL A   1      46.717  29.882  28.734  1.00  0.00     0.034 A 
ATOM     61  C   UNL A   1      41.479  32.735  31.069  1.00  0.00     0.049 A 
ATOM     62  C   UNL A   1      46.337  31.346  28.503  1.00  0.00     0.074 A 
ATOM     63  C   UNL A   1      42.474  32.679  32.021  1.00  0.00     0.029 A 
ATOM     64  N   UNL A   1      42.035  33.322  29.945  1.00  0.00    -0.354 N 
ATOM     65  N   UNL A   1      45.540  32.067  29.249  1.00  0.00    -0.248 NA
ATOM     66  C   UNL A   1      46.782  32.089  27.324  1.00  0.00     0.031 C 
ATOM     67  C   UNL A   1      43.671  33.163  31.416  1.00  0.00     0.029 A 
ATOM     68  C   UNL A   1      43.390  33.538  30.113  1.00  0.00     0.049 A 
ATOM     69  H   UNL A   1      41.530  33.556  29.133  1.00  0.00     0.167 HD
ATOM     70  C   UNL A   1      45.197  33.235  28.581  1.00  0.00     0.074 A 
ATOM     71  C   UNL A   1      46.095  33.240  27.439  1.00  0.00     0.031 C 
ATOM     72  C   UNL A   1      44.151  34.045  28.970  1.00  0.00     0.034 A 
BRANCH  59  73
ATOM     73  C   UNL A   1      38.941  32.385  31.795  1.00  0.00     0.023 A 
ATOM     74  C   UNL A   1      38.915  31.705  33.032  1.00  0.00     0.012 A 
ATOM     75  C   UNL A   1      37.733  33.065  31.470  1.00  0.00     0.148 A 
ATOM     76  C   UNL A   1      37.746  31.569  33.801  1.00  0.00     0.002 A 
ATOM     77  C   UNL A   1      36.544  32.856  32.185  1.00  0.00     0.091 A 
ATOM     78  F   UNL A   1      37.716  34.033  30.552  1.00  0.00    -0.205 F 
ATOM     79  C   UNL A   1      36.544  32.093  33.347  1.00  0.00     0.022 A 
BRANCH  77  80
ATOM     80  S   UNL A   1      34.948  33.425  31.550  1.00  0.00     0.127 S 
ATOM     81  O   UNL A   1      33.993  32.682  32.376  1.00  0.00    -0.237 OA
ATOM     82  O   UNL A   1      34.986  34.861  31.814  1.00  0.00    -0.237 OA
ATOM     83  O   UNL A   1      34.930  33.039  30.142  1.00  0.00    -0.744 OA
ENDBRANCH  77  80
ENDBRANCH  59  73
BRANCH  60  84
ATOM     84  C   UNL A   1      47.616  29.026  27.912  1.00  0.00     0.023 A 
ATOM     85  C   UNL A   1      48.776  28.496  28.525  1.00  0.00     0.012 A 
ATOM     86  C   UNL A   1      47.100  28.351  26.808  1.00  0.00     0.148 A 
ATOM     87  C   UNL A   1      49.375  27.308  28.071  1.00  0.00     0.002 A 
ATOM     88  C   UNL A   1      47.617  27.091  26.488  1.00  0.00     0.091 A 
ATOM     89  F   UNL A   1      45.955  28.809  26.284  1.00  0.00    -0.205 F 
ATOM     90  C   UNL A   1      48.777  26.588  27.058  1.00  0.00     0.022 A 
BRANCH  88  91
ATOM     91  S   UNL A   1      46.527  25.869  25.811  1.00  0.00     0.127 S 
ATOM     92  O   UNL A   1      45.826  26.550  24.714  1.00  0.00    -0.237 OA
ATOM     93  O   UNL A   1      47.494  24.850  25.371  1.00  0.00    -0.237 OA
ATOM     94  O   UNL A   1      45.701  25.552  26.917  1.00  0.00    -0.744 OA
ENDBRANCH  88  91
ENDBRANCH  60  84
BRANCH  72  95
ATOM     95  C   UNL A   1      43.624  35.335  28.291  1.00  0.00     0.023 A 
ATOM     96  C   UNL A   1      42.675  35.351  27.254  1.00  0.00     0.012 A 
ATOM     97  C   UNL A   1      44.022  36.626  28.765  1.00  0.00     0.148 A 
ATOM     98  C   UNL A   1      42.163  36.547  26.715  1.00  0.00     0.002 A 
ATOM     99  C   UNL A   1      43.427  37.804  28.307  1.00  0.00     0.091 A 
ATOM    100  F   UNL A   1      45.018  36.738  29.656  1.00  0.00    -0.205 F 
ATOM    101  C   UNL A   1      42.513  37.773  27.260  1.00  0.00     0.022 A 
BRANCH  99 102
ATOM    102  S   UNL A   1      43.716  39.363  29.166  1.00  0.00     0.127 S 
ATOM    103  O   UNL A   1      45.099  39.665  28.810  1.00  0.00    -0.237 OA
ATOM    104  O   UNL A   1      42.726  40.257  28.560  1.00  0.00    -0.237 OA
ATOM    105  O   UNL A   1      43.451  39.048  30.563  1.00  0.00    -0.744 OA
ENDBRANCH  99 102
ENDBRANCH  72  95
ENDBRANCH  46  47
ENDBRANCH  39  41
ENDBRANCH  38  39
ENDBRANCH  37  38
ENDBRANCH  36  37
ENDBRANCH  35  36
ENDBRANCH   1  35
TORSDOF 23
ENDMDL
MODEL 2
REMARK VINA RESULT:     -12.8      2.683      6.431
REMARK SMILES Cc1ccc(-c2cc(C(=O)OCCOCCOCCOC(=O)c3ccc(-c4c5nc(c(-c6cccc(S(=O)(=O)[O-])c6F)c6ccc([nH]6)c(-c6cccc(S(=O)(=O)[O-])c6F)c6nc(c(-c7cccc(S(=O)(=O)[O-])c7F)c7ccc4[nH]7)C=C6)C=C5)cc3)c3c(-c4cccc([N+](=O)[O-])c4)[nH]nc3n2)cc1
REMARK SMILES IDX 16 1 15 2 14 3 13 4 12 5 11 6 9 7 10 8 8 9 6 10 7 11 100 12
REMARK SMILES IDX 99 13 86 14 98 15 87 16 97 17 5 19 1 20 2 21 3 22 102 23
REMARK SMILES IDX 4 24 101 25 88 26 89 27 96 28 90 29 92 30 91 31 93 32 94 33
REMARK SMILES IDX 95 34 17 35 18 36 19 37 20 38 21 39 22 40 23 41 24 42 85 43
REMARK SMILES IDX 25 44 84 45 26 46 27 47 28 48 78 49 29 50 83 51 77 52 79 53
REMARK SMILES IDX 30 54 82 55 76 56 75 57 31 59 63 60 43 61 62 62 44 63 47 64
REMARK SMILES IDX 61 65 80 66 45 67 46 68 60 70 81 71 48 72 32 73 33 74 41 75
REMARK SMILES IDX 34 76 36 77 42 78 35 79 37 80 38 81 39 82 40 83 64 84 65 85
REMARK SMILES IDX 73 86 66 87 68 88 74 89 67 90 69 91 70 92 71 93 72 94 49 95
REMARK SMILES IDX 50 96 58 97 51 98 53 99 59 100 52 101 54 102 55 103 56 104
REMARK SMILES IDX 57 105
REMARK H PARENT 97 18 79 58 47 69
REMARK Flexibility Score: inf
ROOT
ATOM      1  C   UNL A   1      35.189  23.147  23.726  1.00  0.00     0.188 C 
ENDROOT
BRANCH   1   2
ATOM      2  C   UNL A   1      33.946  23.894  23.226  1.00  0.00     0.188 C 
BRANCH   2   3
ATOM      3  O   UNL A   1      33.975  25.185  23.904  1.00  0.00    -0.376 OA
BRANCH   3   4
ATOM      4  C   UNL A   1      34.291  25.170  25.319  1.00  0.00     0.202 C 
BRANCH   4   5
ATOM      5  C   UNL A   1      33.672  26.524  26.136  1.00  0.00     0.261 C 
BRANCH   5   6
ATOM      6  O   UNL A   1      34.393  28.154  26.303  1.00  0.00    -0.460 OA
BRANCH   6   7
ATOM      7  C   UNL A   1      34.551  29.361  27.189  1.00  0.00     0.339 C 
ATOM      8  O   UNL A   1      35.342  29.599  28.102  1.00  0.00    -0.246 OA
BRANCH   7   9
ATOM      9  C   UNL A   1      33.502  30.349  27.244  1.00  0.00     0.075 A 
ATOM     10  C   UNL A   1      33.357  32.655  28.020  1.00  0.00     0.074 A 
ATOM     11  C   UNL A   1      33.974  31.413  27.988  1.00  0.00     0.045 A 
ATOM     12  N   UNL A   1      32.221  32.997  27.388  1.00  0.00    -0.226 NA
ATOM     13  C   UNL A   1      31.755  32.026  26.561  1.00  0.00     0.182 A 
ATOM     14  C   UNL A   1      32.367  30.694  26.409  1.00  0.00     0.061 A 
ATOM     15  N   UNL A   1      30.679  32.201  25.806  1.00  0.00    -0.154 NA
ATOM     16  C   UNL A   1      31.584  30.116  25.375  1.00  0.00     0.076 A 
ATOM     17  N   UNL A   1      30.611  31.071  25.123  1.00  0.00    -0.275 N 
ATOM     18  H   UNL A   1      29.899  30.915  24.460  1.00  0.00     0.190 HD
BRANCH  10  19
ATOM     19  C   UNL A   1      33.940  33.558  28.997  1.00  0.00     0.000 A 
ATOM     20  C   UNL A   1      34.384  35.664  32.702  1.00  0.00     0.044 C 
ATOM     21  C   UNL A   1      34.285  34.948  31.393  1.00  0.00    -0.051 A 
ATOM     22  C   UNL A   1      33.461  35.469  30.385  1.00  0.00     0.004 A 
ATOM     23  C   UNL A   1      34.983  33.756  31.178  1.00  0.00     0.004 A 
ATOM     24  C   UNL A   1      33.296  34.782  29.192  1.00  0.00     0.010 A 
ATOM     25  C   UNL A   1      34.822  33.067  29.980  1.00  0.00     0.010 A 
ENDBRANCH  10  19
BRANCH  16  26
ATOM     26  C   UNL A   1      31.356  28.930  24.503  1.00  0.00     0.007 A 
ATOM     27  C   UNL A   1      30.938  29.068  23.162  1.00  0.00     0.011 A 
ATOM     28  C   UNL A   1      31.079  27.683  25.115  1.00  0.00     0.096 A 
ATOM     29  C   UNL A   1      30.338  28.000  22.448  1.00  0.00     0.008 A 
ATOM     30  C   UNL A   1      30.509  26.606  24.387  1.00  0.00     0.270 A 
ATOM     31  C   UNL A   1      30.139  26.759  23.050  1.00  0.00     0.085 A 
BRANCH  30  32
ATOM     32  N   UNL A   1      30.375  25.278  25.015  1.00  0.00     0.062 N 
ATOM     33  O   UNL A   1      30.505  25.201  26.249  1.00  0.00    -0.258 OA
ATOM     34  O   UNL A   1      30.280  24.295  24.261  1.00  0.00    -0.258 OA
ENDBRANCH  30  32
ENDBRANCH  16  26
ENDBRANCH   7   9
ENDBRANCH   6   7
ENDBRANCH   5   6
ENDBRANCH   4   5
ENDBRANCH   3   4
ENDBRANCH   2   3
ENDBRANCH   1   2
BRANCH   1  35
ATOM     35  O   UNL A   1      35.069  21.865  24.307  1.00  0.00    -0.376 OA
BRANCH  35  36
ATOM     36  C   UNL A   1      35.839  21.511  25.441  1.00  0.00     0.202 C 
BRANCH  36  37
ATOM     37  C   UNL A   1      37.281  20.949  25.343  1.00  0.00     0.261 C 
BRANCH  37  38
ATOM     38  O   UNL A   1      38.340  21.873  25.029  1.00  0.00    -0.460 OA
BRANCH  38  39
ATOM     39  C   UNL A   1      39.233  22.096  26.070  1.00  0.00     0.338 C 
ATOM     40  O   UNL A   1      40.032  21.259  26.455  1.00  0.00    -0.246 OA
BRANCH  39  41
ATOM     41  C   UNL A   1      39.260  23.532  26.466  1.00  0.00     0.060 A 
ATOM     42  C   UNL A   1      39.847  24.620  25.842  1.00  0.00     0.016 A 
ATOM     43  C   UNL A   1      38.693  23.815  27.647  1.00  0.00     0.016 A 
ATOM     44  C   UNL A   1      40.255  25.835  26.570  1.00  0.00     0.010 A 
ATOM     45  C   UNL A   1      39.179  24.929  28.335  1.00  0.00     0.010 A 
ATOM     46  C   UNL A   1      40.072  25.996  27.939  1.00  0.00    -0.014 A 
BRANCH  46  47
ATOM     47  C   UNL A   1      40.634  27.372  28.880  1.00  0.00     0.031 A 
ATOM     48  C   UNL A   1      39.925  28.967  29.317  1.00  0.00     0.074 A 
ATOM     49  C   UNL A   1      41.888  27.292  29.391  1.00  0.00     0.049 A 
ATOM     50  N   UNL A   1      40.594  29.951  29.897  1.00  0.00    -0.248 NA
ATOM     51  C   UNL A   1      38.547  29.560  29.088  1.00  0.00     0.031 C 
ATOM     52  C   UNL A   1      42.412  28.113  30.477  1.00  0.00     0.029 A 
ATOM     53  N   UNL A   1      43.000  26.572  28.969  1.00  0.00    -0.354 N 
ATOM     54  C   UNL A   1      39.727  30.990  30.294  1.00  0.00     0.074 A 
ATOM     55  C   UNL A   1      38.479  30.707  29.731  1.00  0.00     0.031 C 
ATOM     56  C   UNL A   1      43.742  28.137  30.405  1.00  0.00     0.029 A 
ATOM     57  C   UNL A   1      44.143  27.335  29.274  1.00  0.00     0.049 A 
ATOM     58  H   UNL A   1      42.990  25.689  28.534  1.00  0.00     0.167 HD
ATOM     59  C   UNL A   1      40.071  32.007  31.126  1.00  0.00     0.034 A 
ATOM     60  C   UNL A   1      45.198  27.626  28.469  1.00  0.00     0.034 A 
ATOM     61  C   UNL A   1      41.512  32.134  31.138  1.00  0.00     0.049 A 
ATOM     62  C   UNL A   1      45.312  29.127  28.200  1.00  0.00     0.074 A 
ATOM     63  C   UNL A   1      42.525  31.758  31.993  1.00  0.00     0.029 A 
ATOM     64  N   UNL A   1      42.111  32.477  29.938  1.00  0.00    -0.354 N 
ATOM     65  N   UNL A   1      44.890  30.090  28.979  1.00  0.00    -0.248 NA
ATOM     66  C   UNL A   1      45.854  29.655  26.947  1.00  0.00     0.031 C 
ATOM     67  C   UNL A   1      43.743  31.794  31.254  1.00  0.00     0.029 A 
ATOM     68  C   UNL A   1      43.468  32.220  29.965  1.00  0.00     0.049 A 
ATOM     69  H   UNL A   1      41.631  32.856  29.166  1.00  0.00     0.167 HD
ATOM     70  C   UNL A   1      44.893  31.293  28.287  1.00  0.00     0.074 A 
ATOM     71  C   UNL A   1      45.613  30.972  27.067  1.00  0.00     0.031 C 
ATOM     72  C   UNL A   1      44.229  32.418  28.731  1.00  0.00     0.034 A 
BRANCH  59  73
ATOM     73  C   UNL A   1      39.098  32.684  32.118  1.00  0.00     0.023 A 
ATOM     74  C   UNL A   1      38.657  33.980  31.772  1.00  0.00     0.012 A 
ATOM     75  C   UNL A   1      38.724  32.263  33.425  1.00  0.00     0.148 A 
ATOM     76  C   UNL A   1      38.046  34.847  32.695  1.00  0.00     0.002 A 
ATOM     77  C   UNL A   1      38.200  33.153  34.374  1.00  0.00     0.091 A 
ATOM     78  F   UNL A   1      38.733  30.971  33.759  1.00  0.00    -0.205 F 
ATOM     79  C   UNL A   1      37.873  34.456  34.015  1.00  0.00     0.022 A 
BRANCH  77  80
ATOM     80  S   UNL A   1      38.078  32.706  36.124  1.00  0.00     0.127 S 
ATOM     81  O   UNL A   1      39.435  32.960  36.613  1.00  0.00    -0.237 OA
ATOM     82  O   UNL A   1      37.069  33.633  36.627  1.00  0.00    -0.237 OA
ATOM     83  O   UNL A   1      37.705  31.294  36.138  1.00  0.00    -0.744 OA
ENDBRANCH  77  80
ENDBRANCH  59  73
BRANCH  60  84
ATOM     84  C   UNL A   1      45.662  26.500  27.611  1.00  0.00     0.023 A 
ATOM     85  C   UNL A   1      46.814  25.785  28.015  1.00  0.00     0.012 A 
ATOM     86  C   UNL A   1      44.751  25.849  26.783  1.00  0.00     0.148 A 
ATOM     87  C   UNL A   1      47.025  24.449  27.635  1.00  0.00     0.002 A 
ATOM     88  C   UNL A   1      44.906  24.476  26.562  1.00  0.00     0.091 A 
ATOM     89  F   UNL A   1      43.622  26.501  26.473  1.00  0.00    -0.205 F 
ATOM     90  C   UNL A   1      46.052  23.782  26.920  1.00  0.00     0.022 A 
BRANCH  88  91
ATOM     91  S   UNL A   1      43.457  23.475  26.366  1.00  0.00     0.127 S 
ATOM     92  O   UNL A   1      42.848  23.928  25.109  1.00  0.00    -0.237 OA
ATOM     93  O   UNL A   1      44.057  22.132  26.298  1.00  0.00    -0.237 OA
ATOM     94  O   UNL A   1      42.706  23.798  27.522  1.00  0.00    -0.744 OA
ENDBRANCH  88  91
ENDBRANCH  60  84
BRANCH  72  95
ATOM     95  C   UNL A   1      44.100  33.799  28.039  1.00  0.00     0.023 A 
ATOM     96  C   UNL A   1      43.472  34.006  26.799  1.00  0.00     0.012 A 
ATOM     97  C   UNL A   1      44.549  34.990  28.693  1.00  0.00     0.148 A 
ATOM     98  C   UNL A   1      43.305  35.287  26.238  1.00  0.00     0.002 A 
ATOM     99  C   UNL A   1      44.280  36.265  28.188  1.00  0.00     0.091 A 
ATOM    100  F   UNL A   1      45.281  34.907  29.815  1.00  0.00    -0.205 F 
ATOM    101  C   UNL A   1      43.680  36.420  26.945  1.00  0.00     0.022 A 
BRANCH  99 102
ATOM    102  S   UNL A   1      44.565  37.726  29.207  1.00  0.00     0.127 S 
ATOM    103  O   UNL A   1      44.030  38.798  28.375  1.00  0.00    -0.237 OA
ATOM    104  O   UNL A   1      43.777  37.441  30.410  1.00  0.00    -0.237 OA
ATOM    105  O   UNL A   1      46.005  37.722  29.429  1.00  0.00    -0.744 OA
ENDBRANCH  99 102
ENDBRANCH  72  95
ENDBRANCH  46  47
ENDBRANCH  39  41
ENDBRANCH  38  39
ENDBRANCH  37  38
ENDBRANCH  36  37
ENDBRANCH  35  36
ENDBRANCH   1  35
TORSDOF 23
ENDMDL
MODEL 3
REMARK VINA RESULT:     -12.4      5.223      8.392
REMARK SMILES Cc1ccc(-c2cc(C(=O)OCCOCCOCCOC(=O)c3ccc(-c4c5nc(c(-c6cccc(S(=O)(=O)[O-])c6F)c6ccc([nH]6)c(-c6cccc(S(=O)(=O)[O-])c6F)c6nc(c(-c7cccc(S(=O)(=O)[O-])c7F)c7ccc4[nH]7)C=C6)C=C5)cc3)c3c(-c4cccc([N+](=O)[O-])c4)[nH]nc3n2)cc1
REMARK SMILES IDX 16 1 15 2 14 3 13 4 12 5 11 6 9 7 10 8 8 9 6 10 7 11 100 12
REMARK SMILES IDX 99 13 86 14 98 15 87 16 97 17 5 19 1 20 2 21 3 22 102 23
REMARK SMILES IDX 4 24 101 25 88 26 89 27 96 28 90 29 92 30 91 31 93 32 94 33
REMARK SMILES IDX 95 34 17 35 18 36 19 37 20 38 21 39 22 40 23 41 24 42 85 43
REMARK SMILES IDX 25 44 84 45 26 46 27 47 28 48 78 49 29 50 83 51 77 52 79 53
REMARK SMILES IDX 30 54 82 55 76 56 75 57 31 59 63 60 43 61 62 62 44 63 47 64
REMARK SMILES IDX 61 65 80 66 45 67 46 68 60 70 81 71 48 72 32 73 33 74 41 75
REMARK SMILES IDX 34 76 36 77 42 78 35 79 37 80 38 81 39 82 40 83 64 84 65 85
REMARK SMILES IDX 73 86 66 87 68 88 74 89 67 90 69 91 70 92 71 93 72 94 49 95
REMARK SMILES IDX 50 96 58 97 51 98 53 99 59 100 52 101 54 102 55 103 56 104
REMARK SMILES IDX 57 105
REMARK H PARENT 97 18 79 58 47 69
REMARK Flexibility Score: inf
ROOT
ATOM      1  C   UNL A   1      34.592  31.289  28.048  1.00  0.00     0.188 C 
ENDROOT
BRANCH   1   2
ATOM      2  C   UNL A   1      34.913  30.062  27.185  1.00  0.00     0.188 C 
BRANCH   2   3
ATOM      3  O   UNL A   1      34.134  28.972  27.761  1.00  0.00    -0.376 OA
BRANCH   3   4
ATOM      4  C   UNL A   1      33.561  28.019  26.830  1.00  0.00     0.202 C 
BRANCH   4   5
ATOM      5  C   UNL A   1      31.915  27.728  27.132  1.00  0.00     0.261 C 
BRANCH   5   6
ATOM      6  O   UNL A   1      30.935  26.296  26.694  1.00  0.00    -0.460 OA
BRANCH   6   7
ATOM      7  C   UNL A   1      30.805  25.110  25.776  1.00  0.00     0.339 C 
ATOM      8  O   UNL A   1      30.141  24.077  25.872  1.00  0.00    -0.246 OA
BRANCH   7   9
ATOM      9  C   UNL A   1      31.760  24.923  24.711  1.00  0.00     0.075 A 
ATOM     10  C   UNL A   1      32.724  22.984  23.593  1.00  0.00     0.074 A 
ATOM     11  C   UNL A   1      32.064  23.577  24.659  1.00  0.00     0.045 A 
ATOM     12  N   UNL A   1      33.193  23.609  22.498  1.00  0.00    -0.226 NA
ATOM     13  C   UNL A   1      32.843  24.920  22.440  1.00  0.00     0.182 A 
ATOM     14  C   UNL A   1      32.094  25.632  23.490  1.00  0.00     0.061 A 
ATOM     15  N   UNL A   1      33.160  25.688  21.406  1.00  0.00    -0.154 NA
ATOM     16  C   UNL A   1      31.899  26.913  22.909  1.00  0.00     0.076 A 
ATOM     17  N   UNL A   1      32.590  26.842  21.709  1.00  0.00    -0.275 N 
ATOM     18  H   UNL A   1      32.651  27.618  21.106  1.00  0.00     0.190 HD
BRANCH  10  19
ATOM     19  C   UNL A   1      33.077  21.597  23.838  1.00  0.00     0.000 A 
ATOM     20  C   UNL A   1      32.890  17.692  25.593  1.00  0.00     0.044 C 
ATOM     21  C   UNL A   1      32.994  19.033  24.939  1.00  0.00    -0.051 A 
ATOM     22  C   UNL A   1      33.732  20.048  25.564  1.00  0.00     0.004 A 
ATOM     23  C   UNL A   1      32.343  19.288  23.728  1.00  0.00     0.004 A 
ATOM     24  C   UNL A   1      33.779  21.319  25.013  1.00  0.00     0.010 A 
ATOM     25  C   UNL A   1      32.393  20.562  23.171  1.00  0.00     0.010 A 
ENDBRANCH  10  19
BRANCH  16  26
ATOM     26  C   UNL A   1      31.312  28.274  23.066  1.00  0.00     0.007 A 
ATOM     27  C   UNL A   1      31.727  29.143  24.097  1.00  0.00     0.011 A 
ATOM     28  C   UNL A   1      30.031  28.524  22.519  1.00  0.00     0.096 A 
ATOM     29  C   UNL A   1      30.937  30.244  24.516  1.00  0.00     0.008 A 
ATOM     30  C   UNL A   1      29.257  29.646  22.917  1.00  0.00     0.270 A 
ATOM     31  C   UNL A   1      29.708  30.512  23.914  1.00  0.00     0.085 A 
BRANCH  30  32
ATOM     32  N   UNL A   1      27.996  29.960  22.219  1.00  0.00     0.062 N 
ATOM     33  O   UNL A   1      28.036  30.124  20.987  1.00  0.00    -0.258 OA
ATOM     34  O   UNL A   1      26.994  30.181  22.920  1.00  0.00    -0.258 OA
ENDBRANCH  30  32
ENDBRANCH  16  26
ENDBRANCH   7   9
ENDBRANCH   6   7
ENDBRANCH   5   6
ENDBRANCH   4   5
ENDBRANCH   3   4
ENDBRANCH   2   3
ENDBRANCH   1   2
BRANCH   1  35
ATOM     35  O   UNL A   1      34.745  32.592  27.524  1.00  0.00    -0.376 OA
BRANCH  35  36
ATOM     36  C   UNL A   1      33.878  33.638  27.925  1.00  0.00     0.202 C 
BRANCH  36  37
ATOM     37  C   UNL A   1      33.785  34.148  29.386  1.00  0.00     0.261 C 
BRANCH  37  38
ATOM     38  O   UNL A   1      35.012  34.285  30.127  1.00  0.00    -0.460 OA
BRANCH  38  39
ATOM     39  C   UNL A   1      35.219  33.294  31.080  1.00  0.00     0.338 C 
ATOM     40  O   UNL A   1      34.370  32.473  31.383  1.00  0.00    -0.246 OA
BRANCH  39  41
ATOM     41  C   UNL A   1      36.652  33.212  31.477  1.00  0.00     0.060 A 
ATOM     42  C   UNL A   1      37.258  32.486  32.489  1.00  0.00     0.016 A 
ATOM     43  C   UNL A   1      37.484  34.019  30.804  1.00  0.00     0.016 A 
ATOM     44  C   UNL A   1      38.536  32.887  33.104  1.00  0.00     0.010 A 
ATOM     45  C   UNL A   1      38.639  34.438  31.468  1.00  0.00     0.010 A 
ATOM     46  C   UNL A   1      39.246  34.016  32.712  1.00  0.00    -0.014 A 
BRANCH  46  47
ATOM     47  C   UNL A   1      40.715  34.606  33.479  1.00  0.00     0.031 A 
ATOM     48  C   UNL A   1      41.059  35.569  34.959  1.00  0.00     0.074 A 
ATOM     49  C   UNL A   1      41.885  34.338  32.846  1.00  0.00     0.049 A 
ATOM     50  N   UNL A   1      42.245  36.066  35.272  1.00  0.00    -0.248 NA
ATOM     51  C   UNL A   1      40.158  36.070  36.073  1.00  0.00     0.031 C 
ATOM     52  C   UNL A   1      43.208  34.394  33.457  1.00  0.00     0.029 A 
ATOM     53  N   UNL A   1      42.161  34.099  31.504  1.00  0.00    -0.354 N 
ATOM     54  C   UNL A   1      42.246  36.594  36.578  1.00  0.00     0.074 A 
ATOM     55  C   UNL A   1      40.917  36.603  37.009  1.00  0.00     0.031 C 
ATOM     56  C   UNL A   1      44.124  34.561  32.503  1.00  0.00     0.029 A 
ATOM     57  C   UNL A   1      43.440  34.621  31.233  1.00  0.00     0.049 A 
ATOM     58  H   UNL A   1      41.569  33.648  30.860  1.00  0.00     0.167 HD
ATOM     59  C   UNL A   1      43.363  36.944  37.269  1.00  0.00     0.034 A 
ATOM     60  C   UNL A   1      43.822  35.415  30.199  1.00  0.00     0.034 A 
ATOM     61  C   UNL A   1      44.446  37.153  36.333  1.00  0.00     0.049 A 
ATOM     62  C   UNL A   1      44.298  36.786  30.680  1.00  0.00     0.074 A 
ATOM     63  C   UNL A   1      45.538  36.425  35.914  1.00  0.00     0.029 A 
ATOM     64  N   UNL A   1      44.285  38.186  35.426  1.00  0.00    -0.354 N 
ATOM     65  N   UNL A   1      44.816  37.062  31.849  1.00  0.00    -0.248 NA
ATOM     66  C   UNL A   1      44.134  37.995  29.871  1.00  0.00     0.031 C 
ATOM     67  C   UNL A   1      45.981  36.988  34.682  1.00  0.00     0.029 A 
ATOM     68  C   UNL A   1      45.176  38.072  34.375  1.00  0.00     0.049 A 
ATOM     69  H   UNL A   1      43.624  38.910  35.519  1.00  0.00     0.167 HD
ATOM     70  C   UNL A   1      44.851  38.438  32.037  1.00  0.00     0.074 A 
ATOM     71  C   UNL A   1      44.520  38.961  30.723  1.00  0.00     0.031 C 
ATOM     72  C   UNL A   1      45.058  39.023  33.269  1.00  0.00     0.034 A 
BRANCH  59  73
ATOM     73  C   UNL A   1      43.509  36.821  38.803  1.00  0.00     0.023 A 
ATOM     74  C   UNL A   1      43.844  38.005  39.494  1.00  0.00     0.012 A 
ATOM     75  C   UNL A   1      43.535  35.644  39.603  1.00  0.00     0.148 A 
ATOM     76  C   UNL A   1      44.325  38.005  40.815  1.00  0.00     0.002 A 
ATOM     77  C   UNL A   1      44.099  35.626  40.887  1.00  0.00     0.091 A 
ATOM     78  F   UNL A   1      42.900  34.536  39.214  1.00  0.00    -0.205 F 
ATOM     79  C   UNL A   1      44.511  36.809  41.493  1.00  0.00     0.022 A 
BRANCH  77  80
ATOM     80  S   UNL A   1      44.463  34.072  41.739  1.00  0.00     0.127 S 
ATOM     81  O   UNL A   1      45.252  33.341  40.745  1.00  0.00    -0.237 OA
ATOM     82  O   UNL A   1      45.220  34.511  42.908  1.00  0.00    -0.237 OA
ATOM     83  O   UNL A   1      43.163  33.467  42.016  1.00  0.00    -0.744 OA
ENDBRANCH  77  80
ENDBRANCH  59  73
BRANCH  60  84
ATOM     84  C   UNL A   1      43.227  35.058  28.881  1.00  0.00     0.023 A 
ATOM     85  C   UNL A   1      42.318  35.968  28.292  1.00  0.00     0.012 A 
ATOM     86  C   UNL A   1      43.904  34.179  28.039  1.00  0.00     0.148 A 
ATOM     87  C   UNL A   1      42.125  36.023  26.900  1.00  0.00     0.002 A 
ATOM     88  C   UNL A   1      43.815  34.372  26.656  1.00  0.00     0.091 A 
ATOM     89  F   UNL A   1      44.825  33.379  28.592  1.00  0.00    -0.205 F 
ATOM     90  C   UNL A   1      42.896  35.233  26.074  1.00  0.00     0.022 A 
BRANCH  88  91
ATOM     91  S   UNL A   1      45.224  33.992  25.649  1.00  0.00     0.127 S 
ATOM     92  O   UNL A   1      44.807  34.305  24.277  1.00  0.00    -0.237 OA
ATOM     93  O   UNL A   1      46.219  34.923  26.207  1.00  0.00    -0.237 OA
ATOM     94  O   UNL A   1      45.410  32.611  25.898  1.00  0.00    -0.744 OA
ENDBRANCH  88  91
ENDBRANCH  60  84
BRANCH  72  95
ATOM     95  C   UNL A   1      45.064  40.530  33.633  1.00  0.00     0.023 A 
ATOM     96  C   UNL A   1      46.165  41.204  34.190  1.00  0.00     0.012 A 
ATOM     97  C   UNL A   1      43.940  41.361  33.325  1.00  0.00     0.148 A 
ATOM     98  C   UNL A   1      46.159  42.590  34.435  1.00  0.00     0.002 A 
ATOM     99  C   UNL A   1      43.981  42.751  33.463  1.00  0.00     0.091 A 
ATOM    100  F   UNL A   1      42.787  40.811  32.917  1.00  0.00    -0.205 F 
ATOM    101  C   UNL A   1      45.081  43.371  34.044  1.00  0.00     0.022 A 
BRANCH  99 102
ATOM    102  S   UNL A   1      42.678  43.774  32.751  1.00  0.00     0.127 S 
ATOM    103  O   UNL A   1      42.015  42.848  31.840  1.00  0.00    -0.237 OA
ATOM    104  O   UNL A   1      41.881  44.146  33.923  1.00  0.00    -0.237 OA
ATOM    105  O   UNL A   1      43.397  44.888  32.148  1.00  0.00    -0.744 OA
ENDBRANCH  99 102
ENDBRANCH  72  95
ENDBRANCH  46  47
ENDBRANCH  39  41
ENDBRANCH  38  39
ENDBRANCH  37  38
ENDBRANCH  36  37
ENDBRANCH  35  36
ENDBRANCH   1  35
TORSDOF 23
ENDMDL
