MODEL 1
REMARK VINA RESULT:      -9.2      0.000      0.000
REMARK SMILES CCC([NH3+])(CC)C(=O)N(CCC(=O)OCCOCCOCCOC(=O)c1ccc(-c2c3nc(c(-c4cccc(S(=O)(=O)[O-])c4F)c4ccc([nH]4)c(-c4cccc(S(=O)(=O)[O-])c4F)c4nc(c(-c5cccc(S(=O)(=O)[O-])c5F)c5ccc2[nH]5)C=C4)C=C3)cc1)C(C)C
REMARK SMILES IDX 18 1 17 2 16 3 15 4 14 5 12 6 13 7 11 8 10 9 9 10 7 11 8 12
REMARK SMILES IDX 3 13 2 14 1 15 4 16 5 20 6 21 89 22 90 23 91 24 19 25 20 26
REMARK SMILES IDX 21 27 22 28 23 29 24 30 25 31 26 32 27 33 88 34 28 35 87 36
REMARK SMILES IDX 29 37 30 38 31 39 81 40 32 41 86 42 80 43 82 44 33 45 85 46
REMARK SMILES IDX 79 47 78 48 34 50 66 51 46 52 65 53 47 54 50 55 64 56 83 57
REMARK SMILES IDX 48 58 49 59 63 61 84 62 51 63 35 64 36 65 44 66 37 67 39 68
REMARK SMILES IDX 45 69 38 70 40 71 41 72 42 73 43 74 67 75 68 76 76 77 69 78
REMARK SMILES IDX 71 79 77 80 70 81 72 82 73 83 74 84 75 85 52 86 53 87 61 88
REMARK SMILES IDX 54 89 56 90 62 91 55 92 57 93 58 94 59 95 60 96
REMARK H PARENT 4 17 4 18 4 19 82 49 50 60
REMARK Flexibility Score: inf
ROOT
ATOM      1  C   UNL A   1      38.806  23.896  26.895  1.00  0.00     0.188 C 
ENDROOT
BRANCH   1   2
ATOM      2  O   UNL A   1      37.928  23.889  25.776  1.00  0.00    -0.376 OA
BRANCH   2   3
ATOM      3  C   UNL A   1      37.334  22.638  25.435  1.00  0.00     0.202 C 
BRANCH   3   4
ATOM      4  C   UNL A   1      36.842  22.537  23.989  1.00  0.00     0.261 C 
BRANCH   4   5
ATOM      5  O   UNL A   1      35.409  22.399  23.920  1.00  0.00    -0.463 OA
BRANCH   5   6
ATOM      6  C   UNL A   1      34.704  23.481  23.518  1.00  0.00     0.307 C 
ATOM      7  O   UNL A   1      34.373  23.705  22.358  1.00  0.00    -0.252 OA
BRANCH   6   8
ATOM      8  C   UNL A   1      34.321  24.424  24.639  1.00  0.00     0.144 C 
BRANCH   8   9
ATOM      9  C   UNL A   1      33.426  23.950  25.788  1.00  0.00     0.131 C 
BRANCH   9  10
ATOM     10  N   UNL A   1      31.993  24.289  25.671  1.00  0.00    -0.334 N 
BRANCH  10  11
ATOM     11  C   UNL A   1      31.409  25.561  25.687  1.00  0.00     0.284 C 
ATOM     12  O   UNL A   1      31.415  26.214  26.741  1.00  0.00    -0.268 OA
BRANCH  11  13
ATOM     13  C   UNL A   1      30.728  26.214  24.424  1.00  0.00     0.173 C 
BRANCH  13  14
ATOM     14  C   UNL A   1      29.167  26.129  24.573  1.00  0.00     0.075 C 
ATOM     15  C   UNL A   1      28.346  27.071  23.685  1.00  0.00     0.011 C 
ENDBRANCH  13  14
BRANCH  13  16
ATOM     16  N   UNL A   1      31.053  25.467  23.184  1.00  0.00    -0.345 N 
ATOM     17  H   UNL A   1      31.622  24.654  23.416  1.00  0.00     0.345 HD
ATOM     18  H   UNL A   1      31.569  26.074  22.547  1.00  0.00     0.345 HD
ATOM     19  H   UNL A   1      30.189  25.160  22.736  1.00  0.00     0.345 HD
ENDBRANCH  13  16
BRANCH  13  20
ATOM     20  C   UNL A   1      31.116  27.704  24.259  1.00  0.00     0.075 C 
ATOM     21  C   UNL A   1      32.112  27.974  23.132  1.00  0.00     0.011 C 
ENDBRANCH  13  20
ENDBRANCH  11  13
ENDBRANCH  10  11
BRANCH  10  22
ATOM     22  C   UNL A   1      31.076  23.127  25.612  1.00  0.00     0.079 C 
ATOM     23  C   UNL A   1      31.785  21.824  25.239  1.00  0.00     0.031 C 
ATOM     24  C   UNL A   1      30.221  22.979  26.875  1.00  0.00     0.031 C 
ENDBRANCH  10  22
ENDBRANCH   9  10
ENDBRANCH   8   9
ENDBRANCH   6   8
ENDBRANCH   5   6
ENDBRANCH   4   5
ENDBRANCH   3   4
ENDBRANCH   2   3
ENDBRANCH   1   2
BRANCH   1  25
ATOM     25  C   UNL A   1      40.280  23.666  26.561  1.00  0.00     0.188 C 
BRANCH  25  26
ATOM     26  O   UNL A   1      40.607  22.337  26.178  1.00  0.00    -0.376 OA
BRANCH  26  27
ATOM     27  C   UNL A   1      41.954  21.907  26.389  1.00  0.00     0.202 C 
BRANCH  27  28
ATOM     28  C   UNL A   1      42.994  22.080  25.265  1.00  0.00     0.261 C 
BRANCH  28  29
ATOM     29  O   UNL A   1      43.102  23.391  24.686  1.00  0.00    -0.460 OA
BRANCH  29  30
ATOM     30  C   UNL A   1      44.061  24.235  25.130  1.00  0.00     0.338 C 
ATOM     31  O   UNL A   1      45.169  24.397  24.648  1.00  0.00    -0.246 OA
BRANCH  30  32
ATOM     32  C   UNL A   1      43.411  25.148  26.115  1.00  0.00     0.060 A 
ATOM     33  C   UNL A   1      42.807  26.327  25.648  1.00  0.00     0.016 A 
ATOM     34  C   UNL A   1      43.277  24.782  27.459  1.00  0.00     0.016 A 
ATOM     35  C   UNL A   1      42.096  27.152  26.525  1.00  0.00     0.010 A 
ATOM     36  C   UNL A   1      42.575  25.608  28.335  1.00  0.00     0.010 A 
ATOM     37  C   UNL A   1      42.013  26.814  27.880  1.00  0.00    -0.014 A 
BRANCH  37  38
ATOM     38  C   UNL A   1      41.604  27.816  28.893  1.00  0.00     0.031 A 
ATOM     39  C   UNL A   1      42.349  27.802  30.198  1.00  0.00     0.074 A 
ATOM     40  C   UNL A   1      40.558  28.640  28.716  1.00  0.00     0.049 A 
ATOM     41  N   UNL A   1      42.085  28.421  31.316  1.00  0.00    -0.248 NA
ATOM     42  C   UNL A   1      43.548  26.946  30.249  1.00  0.00     0.031 C 
ATOM     43  C   UNL A   1      39.763  28.753  27.497  1.00  0.00     0.029 A 
ATOM     44  N   UNL A   1      39.957  29.506  29.599  1.00  0.00    -0.354 N 
ATOM     45  C   UNL A   1      43.048  27.987  32.217  1.00  0.00     0.074 A 
ATOM     46  C   UNL A   1      43.902  27.054  31.517  1.00  0.00     0.031 C 
ATOM     47  C   UNL A   1      38.743  29.601  27.724  1.00  0.00     0.029 A 
ATOM     48  C   UNL A   1      38.792  30.054  29.114  1.00  0.00     0.049 A 
ATOM     49  H   UNL A   1      40.323  29.712  30.489  1.00  0.00     0.167 HD
ATOM     50  C   UNL A   1      43.211  28.332  33.515  1.00  0.00     0.034 A 
ATOM     51  C   UNL A   1      37.852  30.796  29.738  1.00  0.00     0.034 A 
ATOM     52  C   UNL A   1      42.364  29.261  34.205  1.00  0.00     0.049 A 
ATOM     53  C   UNL A   1      38.036  31.160  31.191  1.00  0.00     0.074 A 
ATOM     54  C   UNL A   1      42.473  29.722  35.503  1.00  0.00     0.029 A 
ATOM     55  N   UNL A   1      41.238  29.856  33.657  1.00  0.00    -0.354 N 
ATOM     56  N   UNL A   1      39.008  30.829  32.007  1.00  0.00    -0.248 NA
ATOM     57  C   UNL A   1      37.009  32.016  31.804  1.00  0.00     0.031 C 
ATOM     58  C   UNL A   1      41.387  30.566  35.753  1.00  0.00     0.029 A 
ATOM     59  C   UNL A   1      40.632  30.669  34.595  1.00  0.00     0.049 A 
ATOM     60  H   UNL A   1      40.918  29.719  32.736  1.00  0.00     0.167 HD
ATOM     61  C   UNL A   1      38.734  31.470  33.213  1.00  0.00     0.074 A 
ATOM     62  C   UNL A   1      37.502  32.208  33.021  1.00  0.00     0.031 C 
ATOM     63  C   UNL A   1      39.439  31.446  34.371  1.00  0.00     0.034 A 
BRANCH  50  64
ATOM     64  C   UNL A   1      44.341  27.679  34.263  1.00  0.00     0.023 A 
ATOM     65  C   UNL A   1      45.594  28.321  34.350  1.00  0.00     0.012 A 
ATOM     66  C   UNL A   1      44.163  26.424  34.875  1.00  0.00     0.148 A 
ATOM     67  C   UNL A   1      46.666  27.699  34.988  1.00  0.00     0.002 A 
ATOM     68  C   UNL A   1      45.221  25.835  35.556  1.00  0.00     0.091 A 
ATOM     69  F   UNL A   1      42.975  25.815  34.755  1.00  0.00    -0.205 F 
ATOM     70  C   UNL A   1      46.477  26.462  35.598  1.00  0.00     0.022 A 
BRANCH  68  71
ATOM     71  S   UNL A   1      45.047  24.283  36.441  1.00  0.00     0.127 S 
ATOM     72  O   UNL A   1      43.882  23.696  35.782  1.00  0.00    -0.237 OA
ATOM     73  O   UNL A   1      46.315  23.617  36.146  1.00  0.00    -0.237 OA
ATOM     74  O   UNL A   1      44.865  24.642  37.841  1.00  0.00    -0.744 OA
ENDBRANCH  68  71
ENDBRANCH  50  64
BRANCH  51  75
ATOM     75  C   UNL A   1      36.651  31.247  28.980  1.00  0.00     0.023 A 
ATOM     76  C   UNL A   1      36.453  32.619  28.737  1.00  0.00     0.012 A 
ATOM     77  C   UNL A   1      35.732  30.317  28.455  1.00  0.00     0.148 A 
ATOM     78  C   UNL A   1      35.353  33.060  27.998  1.00  0.00     0.002 A 
ATOM     79  C   UNL A   1      34.670  30.756  27.674  1.00  0.00     0.091 A 
ATOM     80  F   UNL A   1      35.934  29.016  28.710  1.00  0.00    -0.205 F 
ATOM     81  C   UNL A   1      34.469  32.128  27.457  1.00  0.00     0.022 A 
BRANCH  79  82
ATOM     82  S   UNL A   1      33.551  29.629  26.835  1.00  0.00     0.127 S 
ATOM     83  O   UNL A   1      34.451  28.549  26.442  1.00  0.00    -0.237 OA
ATOM     84  O   UNL A   1      32.613  29.292  27.906  1.00  0.00    -0.237 OA
ATOM     85  O   UNL A   1      32.970  30.391  25.737  1.00  0.00    -0.744 OA
ENDBRANCH  79  82
ENDBRANCH  51  75
BRANCH  63  86
ATOM     86  C   UNL A   1      38.958  32.291  35.522  1.00  0.00     0.023 A 
ATOM     87  C   UNL A   1      38.101  31.742  36.497  1.00  0.00     0.012 A 
ATOM     88  C   UNL A   1      39.483  33.586  35.710  1.00  0.00     0.148 A 
ATOM     89  C   UNL A   1      37.766  32.477  37.635  1.00  0.00     0.002 A 
ATOM     90  C   UNL A   1      39.186  34.290  36.869  1.00  0.00     0.091 A 
ATOM     91  F   UNL A   1      40.285  34.092  34.762  1.00  0.00    -0.205 F 
ATOM     92  C   UNL A   1      38.320  33.741  37.829  1.00  0.00     0.022 A 
BRANCH  90  93
ATOM     93  S   UNL A   1      39.938  35.876  37.255  1.00  0.00     0.127 S 
ATOM     94  O   UNL A   1      41.345  35.508  37.407  1.00  0.00    -0.237 OA
ATOM     95  O   UNL A   1      39.638  36.659  36.056  1.00  0.00    -0.237 OA
ATOM     96  O   UNL A   1      39.286  36.349  38.469  1.00  0.00    -0.744 OA
ENDBRANCH  90  93
ENDBRANCH  63  86
ENDBRANCH  37  38
ENDBRANCH  30  32
ENDBRANCH  29  30
ENDBRANCH  28  29
ENDBRANCH  27  28
ENDBRANCH  26  27
ENDBRANCH  25  26
ENDBRANCH   1  25
TORSDOF 28
ENDMDL
MODEL 2
REMARK VINA RESULT:      -8.8      4.188      5.315
REMARK SMILES CCC([NH3+])(CC)C(=O)N(CCC(=O)OCCOCCOCCOC(=O)c1ccc(-c2c3nc(c(-c4cccc(S(=O)(=O)[O-])c4F)c4ccc([nH]4)c(-c4cccc(S(=O)(=O)[O-])c4F)c4nc(c(-c5cccc(S(=O)(=O)[O-])c5F)c5ccc2[nH]5)C=C4)C=C3)cc1)C(C)C
REMARK SMILES IDX 18 1 17 2 16 3 15 4 14 5 12 6 13 7 11 8 10 9 9 10 7 11 8 12
REMARK SMILES IDX 3 13 2 14 1 15 4 16 5 20 6 21 89 22 90 23 91 24 19 25 20 26
REMARK SMILES IDX 21 27 22 28 23 29 24 30 25 31 26 32 27 33 88 34 28 35 87 36
REMARK SMILES IDX 29 37 30 38 31 39 81 40 32 41 86 42 80 43 82 44 33 45 85 46
REMARK SMILES IDX 79 47 78 48 34 50 66 51 46 52 65 53 47 54 50 55 64 56 83 57
REMARK SMILES IDX 48 58 49 59 63 61 84 62 51 63 35 64 36 65 44 66 37 67 39 68
REMARK SMILES IDX 45 69 38 70 40 71 41 72 42 73 43 74 67 75 68 76 76 77 69 78
REMARK SMILES IDX 71 79 77 80 70 81 72 82 73 83 74 84 75 85 52 86 53 87 61 88
REMARK SMILES IDX 54 89 56 90 62 91 55 92 57 93 58 94 59 95 60 96
REMARK H PARENT 4 17 4 18 4 19 82 49 50 60
REMARK Flexibility Score: inf
ROOT
ATOM      1  C   UNL A   1      38.376  23.960  26.775  1.00  0.00     0.188 C 
ENDROOT
BRANCH   1   2
ATOM      2  O   UNL A   1      37.917  24.065  25.432  1.00  0.00    -0.376 OA
BRANCH   2   3
ATOM      3  C   UNL A   1      37.226  22.938  24.901  1.00  0.00     0.202 C 
BRANCH   3   4
ATOM      4  C   UNL A   1      36.546  23.181  23.552  1.00  0.00     0.261 C 
BRANCH   4   5
ATOM      5  O   UNL A   1      35.256  22.543  23.479  1.00  0.00    -0.463 OA
BRANCH   5   6
ATOM      6  C   UNL A   1      34.218  23.298  23.054  1.00  0.00     0.307 C 
ATOM      7  O   UNL A   1      33.618  23.127  21.998  1.00  0.00    -0.252 OA
BRANCH   6   8
ATOM      8  C   UNL A   1      33.818  24.400  24.012  1.00  0.00     0.144 C 
BRANCH   8   9
ATOM      9  C   UNL A   1      32.460  24.365  24.721  1.00  0.00     0.131 C 
BRANCH   9  10
ATOM     10  N   UNL A   1      31.705  25.635  24.731  1.00  0.00    -0.334 N 
BRANCH  10  11
ATOM     11  C   UNL A   1      31.733  26.642  25.702  1.00  0.00     0.284 C 
ATOM     12  O   UNL A   1      31.006  26.536  26.700  1.00  0.00    -0.268 OA
BRANCH  11  13
ATOM     13  C   UNL A   1      32.644  27.924  25.590  1.00  0.00     0.173 C 
BRANCH  13  14
ATOM     14  C   UNL A   1      33.386  28.155  26.955  1.00  0.00     0.075 C 
ATOM     15  C   UNL A   1      34.403  29.301  26.990  1.00  0.00     0.011 C 
ENDBRANCH  13  14
BRANCH  13  16
ATOM     16  N   UNL A   1      31.834  29.146  25.363  1.00  0.00    -0.345 N 
ATOM     17  H   UNL A   1      31.992  29.805  26.124  1.00  0.00     0.345 HD
ATOM     18  H   UNL A   1      30.845  28.898  25.326  1.00  0.00     0.345 HD
ATOM     19  H   UNL A   1      32.109  29.576  24.479  1.00  0.00     0.345 HD
ENDBRANCH  13  16
BRANCH  13  20
ATOM     20  C   UNL A   1      33.711  27.784  24.478  1.00  0.00     0.075 C 
ATOM     21  C   UNL A   1      33.666  28.885  23.419  1.00  0.00     0.011 C 
ENDBRANCH  13  20
ENDBRANCH  11  13
ENDBRANCH  10  11
BRANCH  10  22
ATOM     22  C   UNL A   1      30.751  25.805  23.610  1.00  0.00     0.079 C 
ATOM     23  C   UNL A   1      29.549  26.678  23.974  1.00  0.00     0.031 C 
ATOM     24  C   UNL A   1      31.430  26.265  22.316  1.00  0.00     0.031 C 
ENDBRANCH  10  22
ENDBRANCH   9  10
ENDBRANCH   8   9
ENDBRANCH   6   8
ENDBRANCH   5   6
ENDBRANCH   4   5
ENDBRANCH   3   4
ENDBRANCH   2   3
ENDBRANCH   1   2
BRANCH   1  25
ATOM     25  C   UNL A   1      39.721  23.255  26.945  1.00  0.00     0.188 C 
BRANCH  25  26
ATOM     26  O   UNL A   1      39.702  21.859  26.680  1.00  0.00    -0.376 OA
BRANCH  26  27
ATOM     27  C   UNL A   1      40.729  21.064  27.280  1.00  0.00     0.202 C 
BRANCH  27  28
ATOM     28  C   UNL A   1      41.958  20.652  26.448  1.00  0.00     0.261 C 
BRANCH  28  29
ATOM     29  O   UNL A   1      42.428  21.605  25.481  1.00  0.00    -0.460 OA
BRANCH  29  30
ATOM     30  C   UNL A   1      43.654  22.156  25.633  1.00  0.00     0.338 C 
ATOM     31  O   UNL A   1      44.702  21.738  25.172  1.00  0.00    -0.246 OA
BRANCH  30  32
ATOM     32  C   UNL A   1      43.448  23.520  26.197  1.00  0.00     0.060 A 
ATOM     33  C   UNL A   1      43.124  24.572  25.323  1.00  0.00     0.016 A 
ATOM     34  C   UNL A   1      43.437  23.737  27.580  1.00  0.00     0.016 A 
ATOM     35  C   UNL A   1      42.818  25.840  25.826  1.00  0.00     0.010 A 
ATOM     36  C   UNL A   1      43.141  25.003  28.081  1.00  0.00     0.010 A 
ATOM     37  C   UNL A   1      42.866  26.068  27.206  1.00  0.00    -0.014 A 
BRANCH  37  38
ATOM     38  C   UNL A   1      42.917  27.445  27.751  1.00  0.00     0.031 A 
ATOM     39  C   UNL A   1      44.281  28.028  27.992  1.00  0.00     0.074 A 
ATOM     40  C   UNL A   1      41.815  28.123  28.112  1.00  0.00     0.049 A 
ATOM     41  N   UNL A   1      44.624  29.113  28.630  1.00  0.00    -0.248 NA
ATOM     42  C   UNL A   1      45.417  27.256  27.457  1.00  0.00     0.031 C 
ATOM     43  C   UNL A   1      40.440  27.671  27.924  1.00  0.00     0.029 A 
ATOM     44  N   UNL A   1      41.693  29.326  28.767  1.00  0.00    -0.354 N 
ATOM     45  C   UNL A   1      46.013  29.126  28.621  1.00  0.00     0.074 A 
ATOM     46  C   UNL A   1      46.449  27.942  27.916  1.00  0.00     0.031 C 
ATOM     47  C   UNL A   1      39.610  28.561  28.498  1.00  0.00     0.029 A 
ATOM     48  C   UNL A   1      40.399  29.620  29.129  1.00  0.00     0.049 A 
ATOM     49  H   UNL A   1      42.456  29.918  28.958  1.00  0.00     0.167 HD
ATOM     50  C   UNL A   1      46.854  30.041  29.153  1.00  0.00     0.034 A 
ATOM     51  C   UNL A   1      39.915  30.603  29.918  1.00  0.00     0.034 A 
ATOM     52  C   UNL A   1      46.418  31.217  29.848  1.00  0.00     0.049 A 
ATOM     53  C   UNL A   1      40.866  31.607  30.520  1.00  0.00     0.074 A 
ATOM     54  C   UNL A   1      47.186  32.236  30.378  1.00  0.00     0.029 A 
ATOM     55  N   UNL A   1      45.095  31.520  30.128  1.00  0.00    -0.354 N 
ATOM     56  N   UNL A   1      42.173  31.671  30.419  1.00  0.00    -0.248 NA
ATOM     57  C   UNL A   1      40.279  32.690  31.326  1.00  0.00     0.031 C 
ATOM     58  C   UNL A   1      46.327  33.137  31.015  1.00  0.00     0.029 A 
ATOM     59  C   UNL A   1      45.022  32.703  30.837  1.00  0.00     0.049 A 
ATOM     60  H   UNL A   1      44.320  30.973  29.861  1.00  0.00     0.167 HD
ATOM     61  C   UNL A   1      42.559  32.818  31.107  1.00  0.00     0.074 A 
ATOM     62  C   UNL A   1      41.347  33.419  31.625  1.00  0.00     0.031 C 
ATOM     63  C   UNL A   1      43.803  33.323  31.294  1.00  0.00     0.034 A 
BRANCH  50  64
ATOM     64  C   UNL A   1      48.330  29.783  29.010  1.00  0.00     0.023 A 
ATOM     65  C   UNL A   1      49.049  29.192  30.069  1.00  0.00     0.012 A 
ATOM     66  C   UNL A   1      49.005  30.132  27.825  1.00  0.00     0.148 A 
ATOM     67  C   UNL A   1      50.427  29.003  29.972  1.00  0.00     0.002 A 
ATOM     68  C   UNL A   1      50.369  29.891  27.716  1.00  0.00     0.091 A 
ATOM     69  F   UNL A   1      48.311  30.722  26.841  1.00  0.00    -0.205 F 
ATOM     70  C   UNL A   1      51.084  29.343  28.793  1.00  0.00     0.022 A 
BRANCH  68  71
ATOM     71  S   UNL A   1      51.282  30.222  26.206  1.00  0.00     0.127 S 
ATOM     72  O   UNL A   1      50.903  31.605  25.927  1.00  0.00    -0.237 OA
ATOM     73  O   UNL A   1      52.668  30.045  26.640  1.00  0.00    -0.237 OA
ATOM     74  O   UNL A   1      50.823  29.235  25.238  1.00  0.00    -0.744 OA
ENDBRANCH  68  71
ENDBRANCH  50  64
BRANCH  51  75
ATOM     75  C   UNL A   1      38.450  30.681  30.178  1.00  0.00     0.023 A 
ATOM     76  C   UNL A   1      37.868  29.848  31.151  1.00  0.00     0.012 A 
ATOM     77  C   UNL A   1      37.641  31.614  29.499  1.00  0.00     0.148 A 
ATOM     78  C   UNL A   1      36.503  29.931  31.435  1.00  0.00     0.002 A 
ATOM     79  C   UNL A   1      36.295  31.731  29.824  1.00  0.00     0.091 A 
ATOM     80  F   UNL A   1      38.215  32.388  28.566  1.00  0.00    -0.205 F 
ATOM     81  C   UNL A   1      35.720  30.880  30.781  1.00  0.00     0.022 A 
BRANCH  79  82
ATOM     82  S   UNL A   1      35.235  33.001  29.126  1.00  0.00     0.127 S 
ATOM     83  O   UNL A   1      33.943  32.679  29.727  1.00  0.00    -0.237 OA
ATOM     84  O   UNL A   1      35.863  34.222  29.631  1.00  0.00    -0.237 OA
ATOM     85  O   UNL A   1      35.312  32.833  27.681  1.00  0.00    -0.744 OA
ENDBRANCH  79  82
ENDBRANCH  51  75
BRANCH  63  86
ATOM     86  C   UNL A   1      43.945  34.631  32.029  1.00  0.00     0.023 A 
ATOM     87  C   UNL A   1      43.897  35.850  31.325  1.00  0.00     0.012 A 
ATOM     88  C   UNL A   1      43.977  34.644  33.438  1.00  0.00     0.148 A 
ATOM     89  C   UNL A   1      43.889  37.062  32.015  1.00  0.00     0.002 A 
ATOM     90  C   UNL A   1      43.918  35.853  34.119  1.00  0.00     0.091 A 
ATOM     91  F   UNL A   1      44.037  33.471  34.085  1.00  0.00    -0.205 F 
ATOM     92  C   UNL A   1      43.884  37.064  33.409  1.00  0.00     0.022 A 
BRANCH  90  93
ATOM     93  S   UNL A   1      43.796  35.947  35.909  1.00  0.00     0.127 S 
ATOM     94  O   UNL A   1      45.091  35.411  36.325  1.00  0.00    -0.237 OA
ATOM     95  O   UNL A   1      43.631  37.384  36.131  1.00  0.00    -0.237 OA
ATOM     96  O   UNL A   1      42.642  35.139  36.280  1.00  0.00    -0.744 OA
ENDBRANCH  90  93
ENDBRANCH  63  86
ENDBRANCH  37  38
ENDBRANCH  30  32
ENDBRANCH  29  30
ENDBRANCH  28  29
ENDBRANCH  27  28
ENDBRANCH  26  27
ENDBRANCH  25  26
ENDBRANCH   1  25
TORSDOF 28
ENDMDL
MODEL 3
REMARK VINA RESULT:      -8.5      4.175      5.032
REMARK SMILES CCC([NH3+])(CC)C(=O)N(CCC(=O)OCCOCCOCCOC(=O)c1ccc(-c2c3nc(c(-c4cccc(S(=O)(=O)[O-])c4F)c4ccc([nH]4)c(-c4cccc(S(=O)(=O)[O-])c4F)c4nc(c(-c5cccc(S(=O)(=O)[O-])c5F)c5ccc2[nH]5)C=C4)C=C3)cc1)C(C)C
REMARK SMILES IDX 18 1 17 2 16 3 15 4 14 5 12 6 13 7 11 8 10 9 9 10 7 11 8 12
REMARK SMILES IDX 3 13 2 14 1 15 4 16 5 20 6 21 89 22 90 23 91 24 19 25 20 26
REMARK SMILES IDX 21 27 22 28 23 29 24 30 25 31 26 32 27 33 88 34 28 35 87 36
REMARK SMILES IDX 29 37 30 38 31 39 81 40 32 41 86 42 80 43 82 44 33 45 85 46
REMARK SMILES IDX 79 47 78 48 34 50 66 51 46 52 65 53 47 54 50 55 64 56 83 57
REMARK SMILES IDX 48 58 49 59 63 61 84 62 51 63 35 64 36 65 44 66 37 67 39 68
REMARK SMILES IDX 45 69 38 70 40 71 41 72 42 73 43 74 67 75 68 76 76 77 69 78
REMARK SMILES IDX 71 79 77 80 70 81 72 82 73 83 74 84 75 85 52 86 53 87 61 88
REMARK SMILES IDX 54 89 56 90 62 91 55 92 57 93 58 94 59 95 60 96
REMARK H PARENT 4 17 4 18 4 19 82 49 50 60
REMARK Flexibility Score: inf
ROOT
ATOM      1  C   UNL A   1      38.108  23.726  26.532  1.00  0.00     0.188 C 
ENDROOT
BRANCH   1   2
ATOM      2  O   UNL A   1      37.676  23.724  25.176  1.00  0.00    -0.376 OA
BRANCH   2   3
ATOM      3  C   UNL A   1      37.290  22.466  24.628  1.00  0.00     0.202 C 
BRANCH   3   4
ATOM      4  C   UNL A   1      35.921  22.458  23.945  1.00  0.00     0.261 C 
BRANCH   4   5
ATOM      5  O   UNL A   1      34.847  22.612  24.895  1.00  0.00    -0.463 OA
BRANCH   5   6
ATOM      6  C   UNL A   1      33.858  23.476  24.573  1.00  0.00     0.307 C 
ATOM      7  O   UNL A   1      32.690  23.155  24.375  1.00  0.00    -0.252 OA
BRANCH   6   8
ATOM      8  C   UNL A   1      34.299  24.922  24.486  1.00  0.00     0.144 C 
BRANCH   8   9
ATOM      9  C   UNL A   1      34.082  25.877  25.663  1.00  0.00     0.131 C 
BRANCH   9  10
ATOM     10  N   UNL A   1      32.968  26.838  25.517  1.00  0.00    -0.334 N 
BRANCH  10  11
ATOM     11  C   UNL A   1      32.827  27.845  24.556  1.00  0.00     0.284 C 
ATOM     12  O   UNL A   1      33.508  28.875  24.658  1.00  0.00    -0.268 OA
BRANCH  11  13
ATOM     13  C   UNL A   1      31.828  27.745  23.340  1.00  0.00     0.173 C 
BRANCH  13  14
ATOM     14  C   UNL A   1      31.759  26.256  22.846  1.00  0.00     0.075 C 
ATOM     15  C   UNL A   1      32.387  25.962  21.480  1.00  0.00     0.011 C 
ENDBRANCH  13  14
BRANCH  13  16
ATOM     16  N   UNL A   1      32.308  28.530  22.177  1.00  0.00    -0.345 N 
ATOM     17  H   UNL A   1      33.325  28.593  22.205  1.00  0.00     0.345 HD
ATOM     18  H   UNL A   1      31.908  29.468  22.211  1.00  0.00     0.345 HD
ATOM     19  H   UNL A   1      32.019  28.070  21.313  1.00  0.00     0.345 HD
ENDBRANCH  13  16
BRANCH  13  20
ATOM     20  C   UNL A   1      30.397  28.192  23.724  1.00  0.00     0.075 C 
ATOM     21  C   UNL A   1      30.165  29.700  23.640  1.00  0.00     0.011 C 
ENDBRANCH  13  20
ENDBRANCH  11  13
ENDBRANCH  10  11
BRANCH  10  22
ATOM     22  C   UNL A   1      31.930  26.759  26.570  1.00  0.00     0.079 C 
ATOM     23  C   UNL A   1      31.488  28.132  27.079  1.00  0.00     0.031 C 
ATOM     24  C   UNL A   1      30.741  25.881  26.169  1.00  0.00     0.031 C 
ENDBRANCH  10  22
ENDBRANCH   9  10
ENDBRANCH   8   9
ENDBRANCH   6   8
ENDBRANCH   5   6
ENDBRANCH   4   5
ENDBRANCH   3   4
ENDBRANCH   2   3
ENDBRANCH   1   2
BRANCH   1  25
ATOM     25  C   UNL A   1      39.535  23.227  26.755  1.00  0.00     0.188 C 
BRANCH  25  26
ATOM     26  O   UNL A   1      39.682  21.814  26.751  1.00  0.00    -0.376 OA
BRANCH  26  27
ATOM     27  C   UNL A   1      40.803  21.269  27.453  1.00  0.00     0.202 C 
BRANCH  27  28
ATOM     28  C   UNL A   1      42.133  21.046  26.709  1.00  0.00     0.261 C 
BRANCH  28  29
ATOM     29  O   UNL A   1      42.291  21.731  25.456  1.00  0.00    -0.460 OA
BRANCH  29  30
ATOM     30  C   UNL A   1      43.432  22.415  25.212  1.00  0.00     0.338 C 
ATOM     31  O   UNL A   1      44.322  22.096  24.443  1.00  0.00    -0.246 OA
BRANCH  30  32
ATOM     32  C   UNL A   1      43.261  23.769  25.813  1.00  0.00     0.060 A 
ATOM     33  C   UNL A   1      42.865  24.831  24.984  1.00  0.00     0.016 A 
ATOM     34  C   UNL A   1      43.354  23.963  27.195  1.00  0.00     0.016 A 
ATOM     35  C   UNL A   1      42.590  26.089  25.529  1.00  0.00     0.010 A 
ATOM     36  C   UNL A   1      43.088  25.219  27.739  1.00  0.00     0.010 A 
ATOM     37  C   UNL A   1      42.741  26.296  26.905  1.00  0.00    -0.014 A 
BRANCH  37  38
ATOM     38  C   UNL A   1      42.825  27.665  27.467  1.00  0.00     0.031 A 
ATOM     39  C   UNL A   1      44.199  28.255  27.611  1.00  0.00     0.074 A 
ATOM     40  C   UNL A   1      41.750  28.328  27.924  1.00  0.00     0.049 A 
ATOM     41  N   UNL A   1      44.583  29.332  28.237  1.00  0.00    -0.248 NA
ATOM     42  C   UNL A   1      45.296  27.501  26.976  1.00  0.00     0.031 C 
ATOM     43  C   UNL A   1      40.367  27.867  27.835  1.00  0.00     0.029 A 
ATOM     44  N   UNL A   1      41.670  29.519  28.606  1.00  0.00    -0.354 N 
ATOM     45  C   UNL A   1      45.967  29.357  28.121  1.00  0.00     0.074 A 
ATOM     46  C   UNL A   1      46.355  28.188  27.365  1.00  0.00     0.031 C 
ATOM     47  C   UNL A   1      39.578  28.740  28.487  1.00  0.00     0.029 A 
ATOM     48  C   UNL A   1      40.406  29.796  29.072  1.00  0.00     0.049 A 
ATOM     49  H   UNL A   1      42.442  30.114  28.747  1.00  0.00     0.167 HD
ATOM     50  C   UNL A   1      46.841  30.270  28.601  1.00  0.00     0.034 A 
ATOM     51  C   UNL A   1      39.979  30.762  29.912  1.00  0.00     0.034 A 
ATOM     52  C   UNL A   1      46.452  31.432  29.348  1.00  0.00     0.049 A 
ATOM     53  C   UNL A   1      40.966  31.765  30.455  1.00  0.00     0.074 A 
ATOM     54  C   UNL A   1      47.251  32.449  29.833  1.00  0.00     0.029 A 
ATOM     55  N   UNL A   1      45.152  31.719  29.734  1.00  0.00    -0.354 N 
ATOM     56  N   UNL A   1      42.261  31.840  30.254  1.00  0.00    -0.248 NA
ATOM     57  C   UNL A   1      40.436  32.829  31.322  1.00  0.00     0.031 C 
ATOM     58  C   UNL A   1      46.438  33.332  30.550  1.00  0.00     0.029 A 
ATOM     59  C   UNL A   1      45.127  32.890  30.466  1.00  0.00     0.049 A 
ATOM     60  H   UNL A   1      44.363  31.169  29.519  1.00  0.00     0.167 HD
ATOM     61  C   UNL A   1      42.691  32.979  30.929  1.00  0.00     0.074 A 
ATOM     62  C   UNL A   1      41.519  33.563  31.549  1.00  0.00     0.031 C 
ATOM     63  C   UNL A   1      43.942  33.492  31.027  1.00  0.00     0.034 A 
BRANCH  50  64
ATOM     64  C   UNL A   1      48.302  30.027  28.339  1.00  0.00     0.023 A 
ATOM     65  C   UNL A   1      48.935  30.642  27.238  1.00  0.00     0.012 A 
ATOM     66  C   UNL A   1      49.049  29.181  29.182  1.00  0.00     0.148 A 
ATOM     67  C   UNL A   1      50.273  30.376  26.951  1.00  0.00     0.002 A 
ATOM     68  C   UNL A   1      50.395  28.964  28.919  1.00  0.00     0.091 A 
ATOM     69  F   UNL A   1      48.423  28.581  30.204  1.00  0.00    -0.205 F 
ATOM     70  C   UNL A   1      51.004  29.546  27.795  1.00  0.00     0.022 A 
BRANCH  68  71
ATOM     71  S   UNL A   1      51.435  27.976  29.998  1.00  0.00     0.127 S 
ATOM     72  O   UNL A   1      52.734  28.085  29.338  1.00  0.00    -0.237 OA
ATOM     73  O   UNL A   1      51.333  28.696  31.268  1.00  0.00    -0.237 OA
ATOM     74  O   UNL A   1      50.844  26.645  30.010  1.00  0.00    -0.744 OA
ENDBRANCH  68  71
ENDBRANCH  50  64
BRANCH  51  75
ATOM     75  C   UNL A   1      38.537  30.824  30.286  1.00  0.00     0.023 A 
ATOM     76  C   UNL A   1      38.063  30.057  31.367  1.00  0.00     0.012 A 
ATOM     77  C   UNL A   1      37.647  31.679  29.607  1.00  0.00     0.148 A 
ATOM     78  C   UNL A   1      36.723  30.129  31.756  1.00  0.00     0.002 A 
ATOM     79  C   UNL A   1      36.329  31.788  30.033  1.00  0.00     0.091 A 
ATOM     80  F   UNL A   1      38.119  32.391  28.573  1.00  0.00    -0.205 F 
ATOM     81  C   UNL A   1      35.860  31.002  31.098  1.00  0.00     0.022 A 
BRANCH  79  82
ATOM     82  S   UNL A   1      35.176  32.972  29.329  1.00  0.00     0.127 S 
ATOM     83  O   UNL A   1      34.056  32.893  30.264  1.00  0.00    -0.237 OA
ATOM     84  O   UNL A   1      35.948  34.212  29.396  1.00  0.00    -0.237 OA
ATOM     85  O   UNL A   1      34.899  32.502  27.979  1.00  0.00    -0.744 OA
ENDBRANCH  79  82
ENDBRANCH  51  75
BRANCH  63  86
ATOM     86  C   UNL A   1      44.132  34.789  31.769  1.00  0.00     0.023 A 
ATOM     87  C   UNL A   1      44.041  36.018  31.088  1.00  0.00     0.012 A 
ATOM     88  C   UNL A   1      44.253  34.782  33.174  1.00  0.00     0.148 A 
ATOM     89  C   UNL A   1      44.079  37.220  31.794  1.00  0.00     0.002 A 
ATOM     90  C   UNL A   1      44.238  35.981  33.875  1.00  0.00     0.091 A 
ATOM     91  F   UNL A   1      44.352  33.600  33.799  1.00  0.00    -0.205 F 
ATOM     92  C   UNL A   1      44.161  37.202  33.186  1.00  0.00     0.022 A 
BRANCH  90  93
ATOM     93  S   UNL A   1      44.229  36.050  35.670  1.00  0.00     0.127 S 
ATOM     94  O   UNL A   1      43.036  35.268  35.992  1.00  0.00    -0.237 OA
ATOM     95  O   UNL A   1      45.495  35.400  36.010  1.00  0.00    -0.237 OA
ATOM     96  O   UNL A   1      44.158  37.462  36.021  1.00  0.00    -0.744 OA
ENDBRANCH  90  93
ENDBRANCH  63  86
ENDBRANCH  37  38
ENDBRANCH  30  32
ENDBRANCH  29  30
ENDBRANCH  28  29
ENDBRANCH  27  28
ENDBRANCH  26  27
ENDBRANCH  25  26
ENDBRANCH   1  25
TORSDOF 28
ENDMDL
