MODEL 1
REMARK VINA RESULT:     -10.7      0.000      0.000
REMARK SMILES O=C(OCCOCCOCCOC(=O)[C@H]1CC(=O)N(c2cccc(OC(F)(F)F)c2)C1)c1ccc(-c2c3nc(c(-c4cccc(S(=O)(=O)[O-])c4F)c4ccc([nH]4)c(-c4cccc(S(=O)(=O)[O-])c4F)c4nc(c(-c5cccc(S(=O)(=O)[O-])c5F)c5ccc2[nH]5)C=C4)C=C3)cc1
REMARK SMILES IDX 7 1 6 2 5 3 4 4 3 5 2 6 1 7 32 8 33 9 94 10 34 11 93 12
REMARK SMILES IDX 35 13 36 14 37 15 87 16 38 17 92 18 86 19 88 20 39 21 91 22
REMARK SMILES IDX 85 23 84 24 40 26 72 27 52 28 71 29 53 30 56 31 70 32 89 33
REMARK SMILES IDX 54 34 55 35 69 37 90 38 57 39 41 40 42 41 50 42 43 43 45 44
REMARK SMILES IDX 51 45 44 46 46 47 47 48 48 49 49 50 73 51 74 52 82 53 75 54
REMARK SMILES IDX 77 55 83 56 76 57 78 58 79 59 80 60 81 61 58 62 59 63 67 64
REMARK SMILES IDX 60 65 62 66 68 67 61 68 63 69 64 70 65 71 66 72 8 73 9 74
REMARK SMILES IDX 10 75 11 76 12 77 13 78 14 79 15 80 16 81 31 82 17 83 19 84
REMARK SMILES IDX 18 85 20 86 21 87 30 88 22 89 24 90 23 91 25 92 26 93 27 94
REMARK SMILES IDX 28 95 29 96
REMARK H PARENT 88 25 56 36
REMARK Flexibility Score: inf
ROOT
ATOM      1  C   UNL A   1      31.012  27.143  26.642  1.00  0.00     0.188 C 
ENDROOT
BRANCH   1   2
ATOM      2  O   UNL A   1      31.992  28.057  26.136  1.00  0.00    -0.376 OA
BRANCH   2   3
ATOM      3  C   UNL A   1      31.426  29.274  25.633  1.00  0.00     0.202 C 
BRANCH   3   4
ATOM      4  C   UNL A   1      32.341  30.510  25.691  1.00  0.00     0.261 C 
BRANCH   4   5
ATOM      5  O   UNL A   1      32.410  31.120  26.991  1.00  0.00    -0.460 OA
BRANCH   5   6
ATOM      6  C   UNL A   1      33.393  31.885  27.534  1.00  0.00     0.338 C 
ATOM      7  O   UNL A   1      33.151  33.078  27.716  1.00  0.00    -0.246 OA
BRANCH   6   8
ATOM      8  C   UNL A   1      34.749  31.372  27.916  1.00  0.00     0.060 A 
ATOM      9  C   UNL A   1      35.071  30.034  28.131  1.00  0.00     0.016 A 
ATOM     10  C   UNL A   1      35.783  32.317  28.066  1.00  0.00     0.016 A 
ATOM     11  C   UNL A   1      36.308  29.644  28.617  1.00  0.00     0.010 A 
ATOM     12  C   UNL A   1      37.054  31.930  28.515  1.00  0.00     0.010 A 
ATOM     13  C   UNL A   1      37.289  30.594  28.861  1.00  0.00    -0.014 A 
BRANCH  13  14
ATOM     14  C   UNL A   1      38.401  30.183  29.742  1.00  0.00     0.031 A 
ATOM     15  C   UNL A   1      39.385  29.195  29.167  1.00  0.00     0.074 A 
ATOM     16  C   UNL A   1      38.616  30.818  30.912  1.00  0.00     0.049 A 
ATOM     17  N   UNL A   1      40.439  28.660  29.715  1.00  0.00    -0.248 NA
ATOM     18  C   UNL A   1      39.170  28.775  27.766  1.00  0.00     0.031 C 
ATOM     19  C   UNL A   1      37.778  31.891  31.465  1.00  0.00     0.029 A 
ATOM     20  N   UNL A   1      39.594  30.655  31.855  1.00  0.00    -0.354 N 
ATOM     21  C   UNL A   1      40.992  27.831  28.742  1.00  0.00     0.074 A 
ATOM     22  C   UNL A   1      40.154  27.913  27.573  1.00  0.00     0.031 C 
ATOM     23  C   UNL A   1      38.239  32.240  32.678  1.00  0.00     0.029 A 
ATOM     24  C   UNL A   1      39.371  31.384  33.005  1.00  0.00     0.049 A 
ATOM     25  H   UNL A   1      40.380  30.074  31.726  1.00  0.00     0.167 HD
ATOM     26  C   UNL A   1      42.119  27.088  28.820  1.00  0.00     0.034 A 
ATOM     27  C   UNL A   1      39.954  31.271  34.215  1.00  0.00     0.034 A 
ATOM     28  C   UNL A   1      42.923  27.047  30.007  1.00  0.00     0.049 A 
ATOM     29  C   UNL A   1      41.074  30.279  34.338  1.00  0.00     0.074 A 
ATOM     30  C   UNL A   1      44.099  26.363  30.236  1.00  0.00     0.029 A 
ATOM     31  N   UNL A   1      42.605  27.719  31.181  1.00  0.00    -0.354 N 
ATOM     32  N   UNL A   1      41.576  29.484  33.421  1.00  0.00    -0.248 NA
ATOM     33  C   UNL A   1      41.742  30.210  35.640  1.00  0.00     0.031 C 
ATOM     34  C   UNL A   1      44.471  26.591  31.565  1.00  0.00     0.029 A 
ATOM     35  C   UNL A   1      43.555  27.458  32.147  1.00  0.00     0.049 A 
ATOM     36  H   UNL A   1      41.818  28.297  31.306  1.00  0.00     0.167 HD
ATOM     37  C   UNL A   1      42.664  28.863  34.016  1.00  0.00     0.074 A 
ATOM     38  C   UNL A   1      42.720  29.353  35.382  1.00  0.00     0.031 C 
ATOM     39  C   UNL A   1      43.561  27.998  33.483  1.00  0.00     0.034 A 
BRANCH  26  40
ATOM     40  C   UNL A   1      42.518  26.276  27.613  1.00  0.00     0.023 A 
ATOM     41  C   UNL A   1      43.254  26.871  26.566  1.00  0.00     0.012 A 
ATOM     42  C   UNL A   1      42.166  24.914  27.517  1.00  0.00     0.148 A 
ATOM     43  C   UNL A   1      43.599  26.136  25.430  1.00  0.00     0.002 A 
ATOM     44  C   UNL A   1      42.551  24.178  26.402  1.00  0.00     0.091 A 
ATOM     45  F   UNL A   1      41.444  24.372  28.506  1.00  0.00    -0.205 F 
ATOM     46  C   UNL A   1      43.255  24.790  25.351  1.00  0.00     0.022 A 
BRANCH  44  47
ATOM     47  S   UNL A   1      42.212  22.422  26.232  1.00  0.00     0.127 S 
ATOM     48  O   UNL A   1      42.782  21.890  27.470  1.00  0.00    -0.237 OA
ATOM     49  O   UNL A   1      40.749  22.398  26.177  1.00  0.00    -0.237 OA
ATOM     50  O   UNL A   1      42.877  21.998  25.009  1.00  0.00    -0.744 OA
ENDBRANCH  44  47
ENDBRANCH  26  40
BRANCH  27  51
ATOM     51  C   UNL A   1      39.496  32.060  35.396  1.00  0.00     0.023 A 
ATOM     52  C   UNL A   1      38.502  31.526  36.235  1.00  0.00     0.012 A 
ATOM     53  C   UNL A   1      39.991  33.357  35.662  1.00  0.00     0.148 A 
ATOM     54  C   UNL A   1      38.012  32.261  37.319  1.00  0.00     0.002 A 
ATOM     55  C   UNL A   1      39.512  34.077  36.757  1.00  0.00     0.091 A 
ATOM     56  F   UNL A   1      40.894  33.881  34.824  1.00  0.00    -0.205 F 
ATOM     57  C   UNL A   1      38.520  33.531  37.583  1.00  0.00     0.022 A 
BRANCH  55  58
ATOM     58  S   UNL A   1      40.087  35.729  37.183  1.00  0.00     0.127 S 
ATOM     59  O   UNL A   1      39.677  36.508  36.016  1.00  0.00    -0.237 OA
ATOM     60  O   UNL A   1      39.321  36.002  38.399  1.00  0.00    -0.237 OA
ATOM     61  O   UNL A   1      41.525  35.614  37.369  1.00  0.00    -0.744 OA
ENDBRANCH  55  58
ENDBRANCH  27  51
BRANCH  39  62
ATOM     62  C   UNL A   1      44.721  27.624  34.355  1.00  0.00     0.023 A 
ATOM     63  C   UNL A   1      45.890  28.407  34.369  1.00  0.00     0.012 A 
ATOM     64  C   UNL A   1      44.615  26.499  35.194  1.00  0.00     0.148 A 
ATOM     65  C   UNL A   1      46.960  28.045  35.184  1.00  0.00     0.002 A 
ATOM     66  C   UNL A   1      45.661  26.182  36.046  1.00  0.00     0.091 A 
ATOM     67  F   UNL A   1      43.498  25.759  35.137  1.00  0.00    -0.205 F 
ATOM     68  C   UNL A   1      46.840  26.943  36.030  1.00  0.00     0.022 A 
BRANCH  66  69
ATOM     69  S   UNL A   1      45.536  24.848  37.239  1.00  0.00     0.127 S 
ATOM     70  O   UNL A   1      45.399  23.681  36.370  1.00  0.00    -0.237 OA
ATOM     71  O   UNL A   1      46.815  24.941  37.942  1.00  0.00    -0.237 OA
ATOM     72  O   UNL A   1      44.375  25.156  38.064  1.00  0.00    -0.744 OA
ENDBRANCH  66  69
ENDBRANCH  39  62
ENDBRANCH  13  14
ENDBRANCH   6   8
ENDBRANCH   5   6
ENDBRANCH   4   5
ENDBRANCH   3   4
ENDBRANCH   2   3
ENDBRANCH   1   2
BRANCH   1  73
ATOM     73  C   UNL A   1      30.701  25.998  25.677  1.00  0.00     0.188 C 
BRANCH  73  74
ATOM     74  O   UNL A   1      29.726  26.231  24.663  1.00  0.00    -0.376 OA
BRANCH  74  75
ATOM     75  C   UNL A   1      30.160  26.834  23.449  1.00  0.00     0.202 C 
BRANCH  75  76
ATOM     76  C   UNL A   1      31.609  26.603  22.997  1.00  0.00     0.261 C 
BRANCH  76  77
ATOM     77  O   UNL A   1      32.131  25.299  23.289  1.00  0.00    -0.463 OA
BRANCH  77  78
ATOM     78  C   UNL A   1      33.422  25.282  23.703  1.00  0.00     0.311 C 
ATOM     79  O   UNL A   1      34.042  26.259  24.110  1.00  0.00    -0.252 OA
BRANCH  78  80
ATOM     80  C   UNL A   1      34.071  23.939  23.571  1.00  0.00     0.128 C 
ATOM     81  C   UNL A   1      35.294  23.595  24.402  1.00  0.00     0.117 C 
ATOM     82  C   UNL A   1      33.089  22.878  23.994  1.00  0.00     0.141 C 
ATOM     83  C   UNL A   1      35.244  22.078  24.402  1.00  0.00     0.227 C 
ATOM     84  N   UNL A   1      33.916  21.707  24.125  1.00  0.00    -0.311 N 
ATOM     85  O   UNL A   1      36.225  21.382  24.585  1.00  0.00    -0.274 OA
BRANCH  84  86
ATOM     86  C   UNL A   1      33.409  20.387  23.997  1.00  0.00     0.047 A 
ATOM     87  C   UNL A   1      32.430  20.097  23.031  1.00  0.00     0.026 A 
ATOM     88  C   UNL A   1      33.860  19.341  24.813  1.00  0.00     0.073 A 
ATOM     89  C   UNL A   1      31.948  18.801  22.855  1.00  0.00     0.006 A 
ATOM     90  C   UNL A   1      33.339  18.051  24.665  1.00  0.00     0.131 A 
ATOM     91  C   UNL A   1      32.418  17.776  23.663  1.00  0.00     0.047 A 
BRANCH  90  92
ATOM     92  O   UNL A   1      33.731  17.002  25.449  1.00  0.00    -0.406 OA
BRANCH  92  93
ATOM     93  C   UNL A   1      34.879  16.340  24.929  1.00  0.00     0.573 C 
ATOM     94  F   UNL A   1      34.774  16.249  23.583  1.00  0.00    -0.132 F 
ATOM     95  F   UNL A   1      36.016  16.983  25.230  1.00  0.00    -0.132 F 
ATOM     96  F   UNL A   1      34.944  15.088  25.431  1.00  0.00    -0.132 F 
ENDBRANCH  92  93
ENDBRANCH  90  92
ENDBRANCH  84  86
ENDBRANCH  78  80
ENDBRANCH  77  78
ENDBRANCH  76  77
ENDBRANCH  75  76
ENDBRANCH  74  75
ENDBRANCH  73  74
ENDBRANCH   1  73
TORSDOF 23
ENDMDL
MODEL 2
REMARK VINA RESULT:     -10.7      4.912      9.104
REMARK SMILES O=C(OCCOCCOCCOC(=O)[C@H]1CC(=O)N(c2cccc(OC(F)(F)F)c2)C1)c1ccc(-c2c3nc(c(-c4cccc(S(=O)(=O)[O-])c4F)c4ccc([nH]4)c(-c4cccc(S(=O)(=O)[O-])c4F)c4nc(c(-c5cccc(S(=O)(=O)[O-])c5F)c5ccc2[nH]5)C=C4)C=C3)cc1
REMARK SMILES IDX 7 1 6 2 5 3 4 4 3 5 2 6 1 7 32 8 33 9 94 10 34 11 93 12
REMARK SMILES IDX 35 13 36 14 37 15 87 16 38 17 92 18 86 19 88 20 39 21 91 22
REMARK SMILES IDX 85 23 84 24 40 26 72 27 52 28 71 29 53 30 56 31 70 32 89 33
REMARK SMILES IDX 54 34 55 35 69 37 90 38 57 39 41 40 42 41 50 42 43 43 45 44
REMARK SMILES IDX 51 45 44 46 46 47 47 48 48 49 49 50 73 51 74 52 82 53 75 54
REMARK SMILES IDX 77 55 83 56 76 57 78 58 79 59 80 60 81 61 58 62 59 63 67 64
REMARK SMILES IDX 60 65 62 66 68 67 61 68 63 69 64 70 65 71 66 72 8 73 9 74
REMARK SMILES IDX 10 75 11 76 12 77 13 78 14 79 15 80 16 81 31 82 17 83 19 84
REMARK SMILES IDX 18 85 20 86 21 87 30 88 22 89 24 90 23 91 25 92 26 93 27 94
REMARK SMILES IDX 28 95 29 96
REMARK H PARENT 88 25 56 36
REMARK Flexibility Score: inf
ROOT
ATOM      1  C   UNL A   1      33.766  31.002  27.758  1.00  0.00     0.188 C 
ENDROOT
BRANCH   1   2
ATOM      2  O   UNL A   1      34.229  32.351  27.643  1.00  0.00    -0.376 OA
BRANCH   2   3
ATOM      3  C   UNL A   1      33.666  33.230  28.625  1.00  0.00     0.202 C 
BRANCH   3   4
ATOM      4  C   UNL A   1      34.579  33.570  29.817  1.00  0.00     0.261 C 
BRANCH   4   5
ATOM      5  O   UNL A   1      34.364  32.737  30.969  1.00  0.00    -0.460 OA
BRANCH   5   6
ATOM      6  C   UNL A   1      35.272  32.178  31.811  1.00  0.00     0.338 C 
ATOM      7  O   UNL A   1      35.199  32.472  33.004  1.00  0.00    -0.246 OA
BRANCH   6   8
ATOM      8  C   UNL A   1      36.357  31.237  31.380  1.00  0.00     0.060 A 
ATOM      9  C   UNL A   1      37.521  30.970  32.098  1.00  0.00     0.016 A 
ATOM     10  C   UNL A   1      36.186  30.566  30.154  1.00  0.00     0.016 A 
ATOM     11  C   UNL A   1      38.545  30.198  31.576  1.00  0.00     0.010 A 
ATOM     12  C   UNL A   1      37.197  29.745  29.634  1.00  0.00     0.010 A 
ATOM     13  C   UNL A   1      38.411  29.624  30.319  1.00  0.00    -0.014 A 
BRANCH  13  14
ATOM     14  C   UNL A   1      39.656  29.175  29.663  1.00  0.00     0.031 A 
ATOM     15  C   UNL A   1      40.774  30.184  29.580  1.00  0.00     0.074 A 
ATOM     16  C   UNL A   1      39.830  27.877  29.344  1.00  0.00     0.049 A 
ATOM     17  N   UNL A   1      41.961  30.066  29.055  1.00  0.00    -0.248 NA
ATOM     18  C   UNL A   1      40.535  31.501  30.208  1.00  0.00     0.031 C 
ATOM     19  C   UNL A   1      38.833  26.814  29.530  1.00  0.00     0.029 A 
ATOM     20  N   UNL A   1      40.897  27.225  28.787  1.00  0.00    -0.354 N 
ATOM     21  C   UNL A   1      42.592  31.289  29.267  1.00  0.00     0.074 A 
ATOM     22  C   UNL A   1      41.660  32.148  29.951  1.00  0.00     0.031 C 
ATOM     23  C   UNL A   1      39.311  25.659  29.035  1.00  0.00     0.029 A 
ATOM     24  C   UNL A   1      40.622  25.914  28.454  1.00  0.00     0.049 A 
ATOM     25  H   UNL A   1      41.774  27.648  28.639  1.00  0.00     0.167 HD
ATOM     26  C   UNL A   1      43.854  31.646  28.935  1.00  0.00     0.034 A 
ATOM     27  C   UNL A   1      41.317  25.070  27.667  1.00  0.00     0.034 A 
ATOM     28  C   UNL A   1      44.746  30.749  28.259  1.00  0.00     0.049 A 
ATOM     29  C   UNL A   1      42.628  25.566  27.130  1.00  0.00     0.074 A 
ATOM     30  C   UNL A   1      46.056  30.952  27.875  1.00  0.00     0.029 A 
ATOM     31  N   UNL A   1      44.394  29.468  27.850  1.00  0.00    -0.354 N 
ATOM     32  N   UNL A   1      43.207  26.729  27.316  1.00  0.00    -0.248 NA
ATOM     33  C   UNL A   1      43.404  24.617  26.327  1.00  0.00     0.031 C 
ATOM     34  C   UNL A   1      46.482  29.805  27.197  1.00  0.00     0.029 A 
ATOM     35  C   UNL A   1      45.456  28.869  27.205  1.00  0.00     0.049 A 
ATOM     36  H   UNL A   1      43.515  29.049  27.999  1.00  0.00     0.167 HD
ATOM     37  C   UNL A   1      44.449  26.634  26.705  1.00  0.00     0.074 A 
ATOM     38  C   UNL A   1      44.515  25.308  26.116  1.00  0.00     0.031 C 
ATOM     39  C   UNL A   1      45.460  27.535  26.661  1.00  0.00     0.034 A 
BRANCH  26  40
ATOM     40  C   UNL A   1      44.312  33.039  29.286  1.00  0.00     0.023 A 
ATOM     41  C   UNL A   1      44.987  33.281  30.502  1.00  0.00     0.012 A 
ATOM     42  C   UNL A   1      44.077  34.114  28.406  1.00  0.00     0.148 A 
ATOM     43  C   UNL A   1      45.386  34.573  30.851  1.00  0.00     0.002 A 
ATOM     44  C   UNL A   1      44.516  35.391  28.741  1.00  0.00     0.091 A 
ATOM     45  F   UNL A   1      43.411  33.873  27.269  1.00  0.00    -0.205 F 
ATOM     46  C   UNL A   1      45.157  35.625  29.969  1.00  0.00     0.022 A 
BRANCH  44  47
ATOM     47  S   UNL A   1      44.327  36.802  27.646  1.00  0.00     0.127 S 
ATOM     48  O   UNL A   1      43.874  37.839  28.575  1.00  0.00    -0.237 OA
ATOM     49  O   UNL A   1      45.692  36.986  27.149  1.00  0.00    -0.237 OA
ATOM     50  O   UNL A   1      43.357  36.405  26.636  1.00  0.00    -0.744 OA
ENDBRANCH  44  47
ENDBRANCH  26  40
BRANCH  27  51
ATOM     51  C   UNL A   1      40.803  23.716  27.305  1.00  0.00     0.023 A 
ATOM     52  C   UNL A   1      41.580  22.583  27.609  1.00  0.00     0.012 A 
ATOM     53  C   UNL A   1      39.584  23.542  26.612  1.00  0.00     0.148 A 
ATOM     54  C   UNL A   1      41.154  21.305  27.237  1.00  0.00     0.002 A 
ATOM     55  C   UNL A   1      39.156  22.262  26.261  1.00  0.00     0.091 A 
ATOM     56  F   UNL A   1      38.880  24.629  26.274  1.00  0.00    -0.205 F 
ATOM     57  C   UNL A   1      39.942  21.143  26.570  1.00  0.00     0.022 A 
BRANCH  55  58
ATOM     58  S   UNL A   1      37.616  21.939  25.387  1.00  0.00     0.127 S 
ATOM     59  O   UNL A   1      37.662  22.923  24.307  1.00  0.00    -0.237 OA
ATOM     60  O   UNL A   1      37.806  20.553  24.959  1.00  0.00    -0.237 OA
ATOM     61  O   UNL A   1      36.554  22.146  26.361  1.00  0.00    -0.744 OA
ENDBRANCH  55  58
ENDBRANCH  27  51
BRANCH  39  62
ATOM     62  C   UNL A   1      46.744  27.063  26.046  1.00  0.00     0.023 A 
ATOM     63  C   UNL A   1      47.590  26.181  26.742  1.00  0.00     0.012 A 
ATOM     64  C   UNL A   1      47.075  27.480  24.744  1.00  0.00     0.148 A 
ATOM     65  C   UNL A   1      48.780  25.753  26.157  1.00  0.00     0.002 A 
ATOM     66  C   UNL A   1      48.230  27.002  24.147  1.00  0.00     0.091 A 
ATOM     67  F   UNL A   1      46.259  28.342  24.119  1.00  0.00    -0.205 F 
ATOM     68  C   UNL A   1      49.092  26.151  24.858  1.00  0.00     0.022 A 
BRANCH  66  69
ATOM     69  S   UNL A   1      48.640  27.381  22.442  1.00  0.00     0.127 S 
ATOM     70  O   UNL A   1      47.528  28.246  22.053  1.00  0.00    -0.237 OA
ATOM     71  O   UNL A   1      49.927  28.062  22.577  1.00  0.00    -0.237 OA
ATOM     72  O   UNL A   1      48.709  26.100  21.752  1.00  0.00    -0.744 OA
ENDBRANCH  66  69
ENDBRANCH  39  62
ENDBRANCH  13  14
ENDBRANCH   6   8
ENDBRANCH   5   6
ENDBRANCH   4   5
ENDBRANCH   3   4
ENDBRANCH   2   3
ENDBRANCH   1   2
BRANCH   1  73
ATOM     73  C   UNL A   1      33.155  30.461  26.464  1.00  0.00     0.188 C 
BRANCH  73  74
ATOM     74  O   UNL A   1      31.738  30.530  26.320  1.00  0.00    -0.376 OA
BRANCH  74  75
ATOM     75  C   UNL A   1      31.174  30.122  25.079  1.00  0.00     0.202 C 
BRANCH  75  76
ATOM     76  C   UNL A   1      31.349  28.661  24.643  1.00  0.00     0.261 C 
BRANCH  76  77
ATOM     77  O   UNL A   1      30.435  28.220  23.629  1.00  0.00    -0.463 OA
BRANCH  77  78
ATOM     78  C   UNL A   1      29.699  27.130  23.961  1.00  0.00     0.311 C 
ATOM     79  O   UNL A   1      28.536  26.938  23.622  1.00  0.00    -0.252 OA
BRANCH  78  80
ATOM     80  C   UNL A   1      30.427  26.170  24.851  1.00  0.00     0.128 C 
ATOM     81  C   UNL A   1      29.724  25.552  26.046  1.00  0.00     0.117 C 
ATOM     82  C   UNL A   1      30.816  24.958  24.046  1.00  0.00     0.141 C 
ATOM     83  C   UNL A   1      30.553  24.301  26.271  1.00  0.00     0.227 C 
ATOM     84  N   UNL A   1      31.205  24.010  25.058  1.00  0.00    -0.311 N 
ATOM     85  O   UNL A   1      30.616  23.730  27.345  1.00  0.00    -0.274 OA
BRANCH  84  86
ATOM     86  C   UNL A   1      32.108  22.944  24.811  1.00  0.00     0.047 A 
ATOM     87  C   UNL A   1      33.271  23.166  24.052  1.00  0.00     0.026 A 
ATOM     88  C   UNL A   1      31.882  21.654  25.307  1.00  0.00     0.073 A 
ATOM     89  C   UNL A   1      34.197  22.148  23.831  1.00  0.00     0.006 A 
ATOM     90  C   UNL A   1      32.791  20.623  25.044  1.00  0.00     0.131 A 
ATOM     91  C   UNL A   1      33.962  20.880  24.343  1.00  0.00     0.047 A 
BRANCH  90  92
ATOM     92  O   UNL A   1      32.605  19.344  25.488  1.00  0.00    -0.406 OA
BRANCH  92  93
ATOM     93  C   UNL A   1      32.520  18.408  24.418  1.00  0.00     0.573 C 
ATOM     94  F   UNL A   1      31.643  17.431  24.744  1.00  0.00    -0.132 F 
ATOM     95  F   UNL A   1      32.122  18.980  23.274  1.00  0.00    -0.132 F 
ATOM     96  F   UNL A   1      33.728  17.839  24.220  1.00  0.00    -0.132 F 
ENDBRANCH  92  93
ENDBRANCH  90  92
ENDBRANCH  84  86
ENDBRANCH  78  80
ENDBRANCH  77  78
ENDBRANCH  76  77
ENDBRANCH  75  76
ENDBRANCH  74  75
ENDBRANCH  73  74
ENDBRANCH   1  73
TORSDOF 23
ENDMDL
MODEL 3
REMARK VINA RESULT:     -10.7      5.948      9.372
REMARK SMILES O=C(OCCOCCOCCOC(=O)[C@H]1CC(=O)N(c2cccc(OC(F)(F)F)c2)C1)c1ccc(-c2c3nc(c(-c4cccc(S(=O)(=O)[O-])c4F)c4ccc([nH]4)c(-c4cccc(S(=O)(=O)[O-])c4F)c4nc(c(-c5cccc(S(=O)(=O)[O-])c5F)c5ccc2[nH]5)C=C4)C=C3)cc1
REMARK SMILES IDX 7 1 6 2 5 3 4 4 3 5 2 6 1 7 32 8 33 9 94 10 34 11 93 12
REMARK SMILES IDX 35 13 36 14 37 15 87 16 38 17 92 18 86 19 88 20 39 21 91 22
REMARK SMILES IDX 85 23 84 24 40 26 72 27 52 28 71 29 53 30 56 31 70 32 89 33
REMARK SMILES IDX 54 34 55 35 69 37 90 38 57 39 41 40 42 41 50 42 43 43 45 44
REMARK SMILES IDX 51 45 44 46 46 47 47 48 48 49 49 50 73 51 74 52 82 53 75 54
REMARK SMILES IDX 77 55 83 56 76 57 78 58 79 59 80 60 81 61 58 62 59 63 67 64
REMARK SMILES IDX 60 65 62 66 68 67 61 68 63 69 64 70 65 71 66 72 8 73 9 74
REMARK SMILES IDX 10 75 11 76 12 77 13 78 14 79 15 80 16 81 31 82 17 83 19 84
REMARK SMILES IDX 18 85 20 86 21 87 30 88 22 89 24 90 23 91 25 92 26 93 27 94
REMARK SMILES IDX 28 95 29 96
REMARK H PARENT 88 25 56 36
REMARK Flexibility Score: inf
ROOT
ATOM      1  C   UNL A   1      36.437  22.541  25.984  1.00  0.00     0.188 C 
ENDROOT
BRANCH   1   2
ATOM      2  O   UNL A   1      37.842  22.346  26.184  1.00  0.00    -0.376 OA
BRANCH   2   3
ATOM      3  C   UNL A   1      38.446  21.508  25.190  1.00  0.00     0.202 C 
BRANCH   3   4
ATOM      4  C   UNL A   1      38.582  20.021  25.565  1.00  0.00     0.261 C 
BRANCH   4   5
ATOM      5  O   UNL A   1      39.674  19.746  26.459  1.00  0.00    -0.460 OA
BRANCH   5   6
ATOM      6  C   UNL A   1      41.012  19.807  26.231  1.00  0.00     0.338 C 
ATOM      7  O   UNL A   1      41.561  18.799  25.786  1.00  0.00    -0.246 OA
BRANCH   6   8
ATOM      8  C   UNL A   1      41.859  21.016  26.492  1.00  0.00     0.060 A 
ATOM      9  C   UNL A   1      42.362  21.391  27.737  1.00  0.00     0.016 A 
ATOM     10  C   UNL A   1      42.178  21.837  25.394  1.00  0.00     0.016 A 
ATOM     11  C   UNL A   1      43.020  22.594  27.932  1.00  0.00     0.010 A 
ATOM     12  C   UNL A   1      42.883  23.036  25.570  1.00  0.00     0.010 A 
ATOM     13  C   UNL A   1      43.238  23.447  26.859  1.00  0.00    -0.014 A 
BRANCH  13  14
ATOM     14  C   UNL A   1      43.560  24.851  27.188  1.00  0.00     0.031 A 
ATOM     15  C   UNL A   1      44.994  25.277  26.991  1.00  0.00     0.074 A 
ATOM     16  C   UNL A   1      42.575  25.732  27.455  1.00  0.00     0.049 A 
ATOM     17  N   UNL A   1      45.552  26.434  27.207  1.00  0.00    -0.248 NA
ATOM     18  C   UNL A   1      45.922  24.267  26.441  1.00  0.00     0.031 C 
ATOM     19  C   UNL A   1      41.143  25.414  27.521  1.00  0.00     0.029 A 
ATOM     20  N   UNL A   1      42.621  27.073  27.731  1.00  0.00    -0.354 N 
ATOM     21  C   UNL A   1      46.888  26.284  26.845  1.00  0.00     0.074 A 
ATOM     22  C   UNL A   1      47.071  24.922  26.412  1.00  0.00     0.031 C 
ATOM     23  C   UNL A   1      40.455  26.511  27.883  1.00  0.00     0.029 A 
ATOM     24  C   UNL A   1      41.403  27.591  28.122  1.00  0.00     0.049 A 
ATOM     25  H   UNL A   1      43.440  27.613  27.657  1.00  0.00     0.167 HD
ATOM     26  C   UNL A   1      47.867  27.217  26.855  1.00  0.00     0.034 A 
ATOM     27  C   UNL A   1      41.127  28.769  28.714  1.00  0.00     0.034 A 
ATOM     28  C   UNL A   1      47.630  28.563  27.290  1.00  0.00     0.049 A 
ATOM     29  C   UNL A   1      42.276  29.716  28.909  1.00  0.00     0.074 A 
ATOM     30  C   UNL A   1      48.508  29.627  27.337  1.00  0.00     0.029 A 
ATOM     31  N   UNL A   1      46.410  29.018  27.773  1.00  0.00    -0.354 N 
ATOM     32  N   UNL A   1      43.538  29.558  28.586  1.00  0.00    -0.248 NA
ATOM     33  C   UNL A   1      41.953  31.019  29.496  1.00  0.00     0.031 C 
ATOM     34  C   UNL A   1      47.825  30.716  27.890  1.00  0.00     0.029 A 
ATOM     35  C   UNL A   1      46.509  30.344  28.136  1.00  0.00     0.049 A 
ATOM     36  H   UNL A   1      45.593  28.473  27.846  1.00  0.00     0.167 HD
ATOM     37  C   UNL A   1      44.155  30.767  28.871  1.00  0.00     0.074 A 
ATOM     38  C   UNL A   1      43.127  31.631  29.425  1.00  0.00     0.031 C 
ATOM     39  C   UNL A   1      45.438  31.151  28.663  1.00  0.00     0.034 A 
BRANCH  26  40
ATOM     40  C   UNL A   1      49.244  26.804  26.400  1.00  0.00     0.023 A 
ATOM     41  C   UNL A   1      50.066  26.022  27.239  1.00  0.00     0.012 A 
ATOM     42  C   UNL A   1      49.726  27.190  25.133  1.00  0.00     0.148 A 
ATOM     43  C   UNL A   1      51.356  25.663  26.840  1.00  0.00     0.002 A 
ATOM     44  C   UNL A   1      50.995  26.792  24.726  1.00  0.00     0.091 A 
ATOM     45  F   UNL A   1      48.945  27.955  24.360  1.00  0.00    -0.205 F 
ATOM     46  C   UNL A   1      51.816  26.041  25.583  1.00  0.00     0.022 A 
BRANCH  44  47
ATOM     47  S   UNL A   1      51.658  27.173  23.100  1.00  0.00     0.127 S 
ATOM     48  O   UNL A   1      50.555  26.767  22.228  1.00  0.00    -0.237 OA
ATOM     49  O   UNL A   1      51.863  28.620  23.187  1.00  0.00    -0.237 OA
ATOM     50  O   UNL A   1      52.877  26.390  22.966  1.00  0.00    -0.744 OA
ENDBRANCH  44  47
ENDBRANCH  26  40
BRANCH  27  51
ATOM     51  C   UNL A   1      39.757  29.118  29.192  1.00  0.00     0.023 A 
ATOM     52  C   UNL A   1      38.776  29.490  28.255  1.00  0.00     0.012 A 
ATOM     53  C   UNL A   1      39.431  29.142  30.567  1.00  0.00     0.148 A 
ATOM     54  C   UNL A   1      37.499  29.873  28.672  1.00  0.00     0.002 A 
ATOM     55  C   UNL A   1      38.149  29.507  30.975  1.00  0.00     0.091 A 
ATOM     56  F   UNL A   1      40.387  28.844  31.455  1.00  0.00    -0.205 F 
ATOM     57  C   UNL A   1      37.183  29.876  30.029  1.00  0.00     0.022 A 
BRANCH  55  58
ATOM     58  S   UNL A   1      37.637  29.559  32.700  1.00  0.00     0.127 S 
ATOM     59  O   UNL A   1      36.352  30.253  32.620  1.00  0.00    -0.237 OA
ATOM     60  O   UNL A   1      37.543  28.135  33.022  1.00  0.00    -0.237 OA
ATOM     61  O   UNL A   1      38.683  30.285  33.405  1.00  0.00    -0.744 OA
ENDBRANCH  55  58
ENDBRANCH  27  51
BRANCH  39  62
ATOM     62  C   UNL A   1      45.753  32.590  28.941  1.00  0.00     0.023 A 
ATOM     63  C   UNL A   1      46.302  32.978  30.176  1.00  0.00     0.012 A 
ATOM     64  C   UNL A   1      45.530  33.549  27.936  1.00  0.00     0.148 A 
ATOM     65  C   UNL A   1      46.588  34.319  30.420  1.00  0.00     0.002 A 
ATOM     66  C   UNL A   1      45.873  34.871  28.164  1.00  0.00     0.091 A 
ATOM     67  F   UNL A   1      44.981  33.150  26.779  1.00  0.00    -0.205 F 
ATOM     68  C   UNL A   1      46.387  35.262  29.411  1.00  0.00     0.022 A 
BRANCH  66  69
ATOM     69  S   UNL A   1      45.747  36.117  26.879  1.00  0.00     0.127 S 
ATOM     70  O   UNL A   1      46.465  35.482  25.776  1.00  0.00    -0.237 OA
ATOM     71  O   UNL A   1      44.300  36.220  26.689  1.00  0.00    -0.237 OA
ATOM     72  O   UNL A   1      46.367  37.318  27.423  1.00  0.00    -0.744 OA
ENDBRANCH  66  69
ENDBRANCH  39  62
ENDBRANCH  13  14
ENDBRANCH   6   8
ENDBRANCH   5   6
ENDBRANCH   4   5
ENDBRANCH   3   4
ENDBRANCH   2   3
ENDBRANCH   1   2
BRANCH   1  73
ATOM     73  C   UNL A   1      36.026  22.491  24.511  1.00  0.00     0.188 C 
BRANCH  73  74
ATOM     74  O   UNL A   1      35.076  21.501  24.122  1.00  0.00    -0.376 OA
BRANCH  74  75
ATOM     75  C   UNL A   1      34.706  20.519  25.083  1.00  0.00     0.202 C 
BRANCH  75  76
ATOM     76  C   UNL A   1      33.238  20.446  25.523  1.00  0.00     0.261 C 
BRANCH  76  77
ATOM     77  O   UNL A   1      32.298  20.979  24.580  1.00  0.00    -0.463 OA
BRANCH  77  78
ATOM     78  C   UNL A   1      31.672  22.114  24.980  1.00  0.00     0.311 C 
ATOM     79  O   UNL A   1      30.712  22.155  25.743  1.00  0.00    -0.252 OA
BRANCH  78  80
ATOM     80  C   UNL A   1      32.230  23.354  24.351  1.00  0.00     0.128 C 
ATOM     81  C   UNL A   1      32.659  23.346  22.896  1.00  0.00     0.117 C 
ATOM     82  C   UNL A   1      31.174  24.428  24.369  1.00  0.00     0.141 C 
ATOM     83  C   UNL A   1      32.585  24.822  22.550  1.00  0.00     0.227 C 
ATOM     84  N   UNL A   1      31.712  25.422  23.476  1.00  0.00    -0.311 N 
ATOM     85  O   UNL A   1      33.221  25.325  21.642  1.00  0.00    -0.274 OA
BRANCH  84  86
ATOM     86  C   UNL A   1      31.365  26.796  23.554  1.00  0.00     0.047 A 
ATOM     87  C   UNL A   1      31.669  27.537  24.710  1.00  0.00     0.026 A 
ATOM     88  C   UNL A   1      30.721  27.456  22.499  1.00  0.00     0.073 A 
ATOM     89  C   UNL A   1      31.379  28.897  24.795  1.00  0.00     0.006 A 
ATOM     90  C   UNL A   1      30.390  28.812  22.607  1.00  0.00     0.131 A 
ATOM     91  C   UNL A   1      30.754  29.536  23.734  1.00  0.00     0.047 A 
BRANCH  90  92
ATOM     92  O   UNL A   1      29.744  29.494  21.615  1.00  0.00    -0.406 OA
BRANCH  92  93
ATOM     93  C   UNL A   1      28.410  29.838  21.977  1.00  0.00     0.573 C 
ATOM     94  F   UNL A   1      28.437  30.807  22.921  1.00  0.00    -0.132 F 
ATOM     95  F   UNL A   1      27.696  30.274  20.932  1.00  0.00    -0.132 F 
ATOM     96  F   UNL A   1      27.794  28.758  22.503  1.00  0.00    -0.132 F 
ENDBRANCH  92  93
ENDBRANCH  90  92
ENDBRANCH  84  86
ENDBRANCH  78  80
ENDBRANCH  77  78
ENDBRANCH  76  77
ENDBRANCH  75  76
ENDBRANCH  74  75
ENDBRANCH  73  74
ENDBRANCH   1  73
TORSDOF 23
ENDMDL
