MODEL 1
REMARK VINA RESULT:      -8.4      0.000      0.000
REMARK SMILES O=C(OCCOCCOCCOC(=O)[C@@H]1CCC[N@@H+](Cc2cccc3ccccc23)C1)c1ccc(-c2c3nc(c(-c4cccc(S(=O)(=O)[O-])c4F)c4ccc([nH]4)c(-c4cccc(S(=O)(=O)[O-])c4F)c4nc(c(-c5cccc(S(=O)(=O)[O-])c5F)c5ccc2[nH]5)C=C4)C=C3)cc1
REMARK SMILES IDX 7 1 6 2 5 3 4 4 3 5 2 6 1 7 32 8 33 9 94 10 34 11 93 12
REMARK SMILES IDX 35 13 36 14 37 15 87 16 38 17 92 18 86 19 88 20 39 21 91 22
REMARK SMILES IDX 85 23 84 24 40 26 72 27 52 28 71 29 53 30 56 31 70 32 89 33
REMARK SMILES IDX 54 34 55 35 69 37 90 38 57 39 41 40 42 41 50 42 43 43 45 44
REMARK SMILES IDX 51 45 44 46 46 47 47 48 48 49 49 50 73 51 74 52 82 53 75 54
REMARK SMILES IDX 77 55 83 56 76 57 78 58 79 59 80 60 81 61 58 62 59 63 67 64
REMARK SMILES IDX 60 65 62 66 68 67 61 68 63 69 64 70 65 71 66 72 8 73 9 74
REMARK SMILES IDX 10 75 11 76 12 77 13 78 14 79 15 80 16 81 31 82 17 83 19 84
REMARK SMILES IDX 18 85 20 87 21 88 22 89 30 90 23 91 25 92 29 93 24 94 26 95
REMARK SMILES IDX 28 96 27 97
REMARK H PARENT 88 25 56 36 19 86
REMARK Flexibility Score: inf
ROOT
ATOM      1  C   UNL A   1      34.168  33.552  33.145  1.00  0.00     0.188 C 
ENDROOT
BRANCH   1   2
ATOM      2  O   UNL A   1      33.733  34.150  31.933  1.00  0.00    -0.376 OA
BRANCH   2   3
ATOM      3  C   UNL A   1      34.424  33.807  30.738  1.00  0.00     0.202 C 
BRANCH   3   4
ATOM      4  C   UNL A   1      34.751  32.317  30.496  1.00  0.00     0.261 C 
BRANCH   4   5
ATOM      5  O   UNL A   1      34.834  31.928  29.119  1.00  0.00    -0.460 OA
BRANCH   5   6
ATOM      6  C   UNL A   1      35.280  30.757  28.595  1.00  0.00     0.338 C 
ATOM      7  O   UNL A   1      34.484  30.081  27.943  1.00  0.00    -0.246 OA
BRANCH   6   8
ATOM      8  C   UNL A   1      36.657  30.200  28.828  1.00  0.00     0.060 A 
ATOM      9  C   UNL A   1      37.156  29.711  30.034  1.00  0.00     0.016 A 
ATOM     10  C   UNL A   1      37.505  30.118  27.714  1.00  0.00     0.016 A 
ATOM     11  C   UNL A   1      38.444  29.202  30.157  1.00  0.00     0.010 A 
ATOM     12  C   UNL A   1      38.774  29.530  27.806  1.00  0.00     0.010 A 
ATOM     13  C   UNL A   1      39.264  29.097  29.048  1.00  0.00    -0.014 A 
BRANCH  13  14
ATOM     14  C   UNL A   1      40.681  28.714  29.238  1.00  0.00     0.031 A 
ATOM     15  C   UNL A   1      41.610  29.770  29.752  1.00  0.00     0.074 A 
ATOM     16  C   UNL A   1      41.120  27.449  29.060  1.00  0.00     0.049 A 
ATOM     17  N   UNL A   1      42.880  29.674  30.028  1.00  0.00    -0.248 NA
ATOM     18  C   UNL A   1      41.023  31.087  30.070  1.00  0.00     0.031 C 
ATOM     19  C   UNL A   1      40.292  26.280  28.775  1.00  0.00     0.029 A 
ATOM     20  N   UNL A   1      42.392  26.938  29.032  1.00  0.00    -0.354 N 
ATOM     21  C   UNL A   1      43.223  30.888  30.600  1.00  0.00     0.074 A 
ATOM     22  C   UNL A   1      42.070  31.751  30.526  1.00  0.00     0.031 C 
ATOM     23  C   UNL A   1      41.065  25.258  28.377  1.00  0.00     0.029 A 
ATOM     24  C   UNL A   1      42.451  25.665  28.503  1.00  0.00     0.049 A 
ATOM     25  H   UNL A   1      43.181  27.428  29.357  1.00  0.00     0.167 HD
ATOM     26  C   UNL A   1      44.373  31.218  31.222  1.00  0.00     0.034 A 
ATOM     27  C   UNL A   1      43.511  24.905  28.176  1.00  0.00     0.034 A 
ATOM     28  C   UNL A   1      45.507  30.346  31.284  1.00  0.00     0.049 A 
ATOM     29  C   UNL A   1      44.843  25.367  28.687  1.00  0.00     0.074 A 
ATOM     30  C   UNL A   1      46.740  30.574  31.860  1.00  0.00     0.029 A 
ATOM     31  N   UNL A   1      45.546  29.075  30.725  1.00  0.00    -0.354 N 
ATOM     32  N   UNL A   1      45.134  26.482  29.313  1.00  0.00    -0.248 NA
ATOM     33  C   UNL A   1      45.959  24.422  28.578  1.00  0.00     0.031 C 
ATOM     34  C   UNL A   1      47.541  29.454  31.613  1.00  0.00     0.029 A 
ATOM     35  C   UNL A   1      46.791  28.512  30.923  1.00  0.00     0.049 A 
ATOM     36  H   UNL A   1      44.796  28.641  30.259  1.00  0.00     0.167 HD
ATOM     37  C   UNL A   1      46.437  26.339  29.756  1.00  0.00     0.074 A 
ATOM     38  C   UNL A   1      46.883  25.031  29.310  1.00  0.00     0.031 C 
ATOM     39  C   UNL A   1      47.191  27.199  30.484  1.00  0.00     0.034 A 
BRANCH  26  40
ATOM     40  C   UNL A   1      44.411  32.562  31.888  1.00  0.00     0.023 A 
ATOM     41  C   UNL A   1      44.002  32.685  33.235  1.00  0.00     0.012 A 
ATOM     42  C   UNL A   1      44.794  33.706  31.171  1.00  0.00     0.148 A 
ATOM     43  C   UNL A   1      43.934  33.938  33.843  1.00  0.00     0.002 A 
ATOM     44  C   UNL A   1      44.768  34.945  31.797  1.00  0.00     0.091 A 
ATOM     45  F   UNL A   1      45.145  33.563  29.885  1.00  0.00    -0.205 F 
ATOM     46  C   UNL A   1      44.323  35.066  33.126  1.00  0.00     0.022 A 
BRANCH  44  47
ATOM     47  S   UNL A   1      45.292  36.452  30.981  1.00  0.00     0.127 S 
ATOM     48  O   UNL A   1      44.282  36.592  29.935  1.00  0.00    -0.237 OA
ATOM     49  O   UNL A   1      45.197  37.429  32.061  1.00  0.00    -0.237 OA
ATOM     50  O   UNL A   1      46.648  36.200  30.497  1.00  0.00    -0.744 OA
ENDBRANCH  44  47
ENDBRANCH  26  40
BRANCH  27  51
ATOM     51  C   UNL A   1      43.341  23.603  27.469  1.00  0.00     0.023 A 
ATOM     52  C   UNL A   1      42.488  22.617  27.998  1.00  0.00     0.012 A 
ATOM     53  C   UNL A   1      44.039  23.336  26.272  1.00  0.00     0.148 A 
ATOM     54  C   UNL A   1      42.375  21.368  27.383  1.00  0.00     0.002 A 
ATOM     55  C   UNL A   1      43.898  22.100  25.646  1.00  0.00     0.091 A 
ATOM     56  F   UNL A   1      44.841  24.289  25.778  1.00  0.00    -0.205 F 
ATOM     57  C   UNL A   1      43.079  21.109  26.210  1.00  0.00     0.022 A 
BRANCH  55  58
ATOM     58  S   UNL A   1      44.706  21.697  24.092  1.00  0.00     0.127 S 
ATOM     59  O   UNL A   1      44.347  20.291  23.924  1.00  0.00    -0.237 OA
ATOM     60  O   UNL A   1      44.049  22.615  23.161  1.00  0.00    -0.237 OA
ATOM     61  O   UNL A   1      46.122  21.968  24.303  1.00  0.00    -0.744 OA
ENDBRANCH  55  58
ENDBRANCH  27  51
BRANCH  39  62
ATOM     62  C   UNL A   1      48.566  26.738  30.866  1.00  0.00     0.023 A 
ATOM     63  C   UNL A   1      49.666  27.057  30.048  1.00  0.00     0.012 A 
ATOM     64  C   UNL A   1      48.770  26.043  32.073  1.00  0.00     0.148 A 
ATOM     65  C   UNL A   1      50.949  26.654  30.405  1.00  0.00     0.002 A 
ATOM     66  C   UNL A   1      50.059  25.702  32.455  1.00  0.00     0.091 A 
ATOM     67  F   UNL A   1      47.703  25.730  32.822  1.00  0.00    -0.205 F 
ATOM     68  C   UNL A   1      51.147  25.991  31.615  1.00  0.00     0.022 A 
BRANCH  66  69
ATOM     69  S   UNL A   1      50.418  24.953  34.046  1.00  0.00     0.127 S 
ATOM     70  O   UNL A   1      49.874  25.946  34.971  1.00  0.00    -0.237 OA
ATOM     71  O   UNL A   1      49.662  23.704  33.975  1.00  0.00    -0.237 OA
ATOM     72  O   UNL A   1      51.863  24.782  34.092  1.00  0.00    -0.744 OA
ENDBRANCH  66  69
ENDBRANCH  39  62
ENDBRANCH  13  14
ENDBRANCH   6   8
ENDBRANCH   5   6
ENDBRANCH   4   5
ENDBRANCH   3   4
ENDBRANCH   2   3
ENDBRANCH   1   2
BRANCH   1  73
ATOM     73  C   UNL A   1      35.297  34.194  33.964  1.00  0.00     0.188 C 
BRANCH  73  74
ATOM     74  O   UNL A   1      36.002  33.476  34.959  1.00  0.00    -0.376 OA
BRANCH  74  75
ATOM     75  C   UNL A   1      37.417  33.489  34.943  1.00  0.00     0.202 C 
BRANCH  75  76
ATOM     76  C   UNL A   1      38.209  32.247  34.511  1.00  0.00     0.261 C 
BRANCH  76  77
ATOM     77  O   UNL A   1      39.479  32.023  35.146  1.00  0.00    -0.463 OA
BRANCH  77  78
ATOM     78  C   UNL A   1      39.686  30.753  35.592  1.00  0.00     0.314 C 
ATOM     79  O   UNL A   1      38.872  30.123  36.263  1.00  0.00    -0.252 OA
BRANCH  78  80
ATOM     80  C   UNL A   1      41.020  30.152  35.182  1.00  0.00     0.154 C 
ATOM     81  C   UNL A   1      41.201  29.902  33.689  1.00  0.00     0.027 C 
ATOM     82  C   UNL A   1      41.469  28.983  36.090  1.00  0.00     0.277 C 
ATOM     83  C   UNL A   1      40.966  28.457  33.304  1.00  0.00     0.062 C 
ATOM     84  N   UNL A   1      41.192  27.625  35.593  1.00  0.00    -0.330 N 
ATOM     85  C   UNL A   1      41.651  27.473  34.215  1.00  0.00     0.262 C 
ATOM     86  H   UNL A   1      40.176  27.537  35.636  1.00  0.00     0.348 HD
BRANCH  84  87
ATOM     87  C   UNL A   1      41.711  26.514  36.445  1.00  0.00     0.299 C 
BRANCH  87  88
ATOM     88  C   UNL A   1      43.185  26.144  36.242  1.00  0.00     0.014 A 
ATOM     89  C   UNL A   1      44.143  27.053  36.726  1.00  0.00     0.010 A 
ATOM     90  C   UNL A   1      43.619  25.035  35.440  1.00  0.00    -0.010 A 
ATOM     91  C   UNL A   1      45.464  26.995  36.304  1.00  0.00     0.001 A 
ATOM     92  C   UNL A   1      44.973  25.004  35.008  1.00  0.00    -0.018 A 
ATOM     93  C   UNL A   1      42.801  23.956  35.023  1.00  0.00     0.009 A 
ATOM     94  C   UNL A   1      45.865  25.998  35.424  1.00  0.00     0.009 A 
ATOM     95  C   UNL A   1      45.430  23.989  34.150  1.00  0.00     0.009 A 
ATOM     96  C   UNL A   1      43.279  22.933  34.192  1.00  0.00     0.001 A 
ATOM     97  C   UNL A   1      44.589  22.960  33.740  1.00  0.00     0.001 A 
ENDBRANCH  87  88
ENDBRANCH  84  87
ENDBRANCH  78  80
ENDBRANCH  77  78
ENDBRANCH  76  77
ENDBRANCH  75  76
ENDBRANCH  74  75
ENDBRANCH  73  74
ENDBRANCH   1  73
TORSDOF 22
ENDMDL
MODEL 2
REMARK VINA RESULT:      -8.3      8.044     14.461
REMARK SMILES O=C(OCCOCCOCCOC(=O)[C@@H]1CCC[N@@H+](Cc2cccc3ccccc23)C1)c1ccc(-c2c3nc(c(-c4cccc(S(=O)(=O)[O-])c4F)c4ccc([nH]4)c(-c4cccc(S(=O)(=O)[O-])c4F)c4nc(c(-c5cccc(S(=O)(=O)[O-])c5F)c5ccc2[nH]5)C=C4)C=C3)cc1
REMARK SMILES IDX 7 1 6 2 5 3 4 4 3 5 2 6 1 7 32 8 33 9 94 10 34 11 93 12
REMARK SMILES IDX 35 13 36 14 37 15 87 16 38 17 92 18 86 19 88 20 39 21 91 22
REMARK SMILES IDX 85 23 84 24 40 26 72 27 52 28 71 29 53 30 56 31 70 32 89 33
REMARK SMILES IDX 54 34 55 35 69 37 90 38 57 39 41 40 42 41 50 42 43 43 45 44
REMARK SMILES IDX 51 45 44 46 46 47 47 48 48 49 49 50 73 51 74 52 82 53 75 54
REMARK SMILES IDX 77 55 83 56 76 57 78 58 79 59 80 60 81 61 58 62 59 63 67 64
REMARK SMILES IDX 60 65 62 66 68 67 61 68 63 69 64 70 65 71 66 72 8 73 9 74
REMARK SMILES IDX 10 75 11 76 12 77 13 78 14 79 15 80 16 81 31 82 17 83 19 84
REMARK SMILES IDX 18 85 20 87 21 88 22 89 30 90 23 91 25 92 29 93 24 94 26 95
REMARK SMILES IDX 28 96 27 97
REMARK H PARENT 88 25 56 36 19 86
REMARK Flexibility Score: inf
ROOT
ATOM      1  C   UNL A   1      43.777  37.791  28.020  1.00  0.00     0.188 C 
ENDROOT
BRANCH   1   2
ATOM      2  O   UNL A   1      44.980  37.379  28.652  1.00  0.00    -0.376 OA
BRANCH   2   3
ATOM      3  C   UNL A   1      45.046  37.458  30.071  1.00  0.00     0.202 C 
BRANCH   3   4
ATOM      4  C   UNL A   1      46.422  37.734  30.716  1.00  0.00     0.261 C 
BRANCH   4   5
ATOM      5  O   UNL A   1      46.892  36.712  31.604  1.00  0.00    -0.460 OA
BRANCH   5   6
ATOM      6  C   UNL A   1      47.486  35.529  31.294  1.00  0.00     0.338 C 
ATOM      7  O   UNL A   1      48.702  35.437  31.466  1.00  0.00    -0.246 OA
BRANCH   6   8
ATOM      8  C   UNL A   1      46.766  34.359  30.686  1.00  0.00     0.060 A 
ATOM      9  C   UNL A   1      46.071  34.356  29.478  1.00  0.00     0.016 A 
ATOM     10  C   UNL A   1      46.842  33.139  31.374  1.00  0.00     0.016 A 
ATOM     11  C   UNL A   1      45.441  33.220  28.982  1.00  0.00     0.010 A 
ATOM     12  C   UNL A   1      46.283  31.968  30.845  1.00  0.00     0.010 A 
ATOM     13  C   UNL A   1      45.545  32.013  29.651  1.00  0.00    -0.014 A 
BRANCH  13  14
ATOM     14  C   UNL A   1      44.727  30.868  29.195  1.00  0.00     0.031 A 
ATOM     15  C   UNL A   1      45.295  30.016  28.102  1.00  0.00     0.074 A 
ATOM     16  C   UNL A   1      43.564  30.526  29.790  1.00  0.00     0.049 A 
ATOM     17  N   UNL A   1      44.789  28.947  27.556  1.00  0.00    -0.248 NA
ATOM     18  C   UNL A   1      46.642  30.364  27.609  1.00  0.00     0.031 C 
ATOM     19  C   UNL A   1      43.001  31.128  30.995  1.00  0.00     0.029 A 
ATOM     20  N   UNL A   1      42.603  29.618  29.424  1.00  0.00    -0.354 N 
ATOM     21  C   UNL A   1      45.773  28.469  26.706  1.00  0.00     0.074 A 
ATOM     22  C   UNL A   1      46.857  29.419  26.711  1.00  0.00     0.031 C 
ATOM     23  C   UNL A   1      41.720  30.754  31.139  1.00  0.00     0.029 A 
ATOM     24  C   UNL A   1      41.415  29.785  30.104  1.00  0.00     0.049 A 
ATOM     25  H   UNL A   1      42.747  28.919  28.746  1.00  0.00     0.167 HD
ATOM     26  C   UNL A   1      45.807  27.289  26.055  1.00  0.00     0.034 A 
ATOM     27  C   UNL A   1      40.216  29.203  29.922  1.00  0.00     0.034 A 
ATOM     28  C   UNL A   1      44.718  26.358  26.064  1.00  0.00     0.049 A 
ATOM     29  C   UNL A   1      40.191  27.999  29.028  1.00  0.00     0.074 A 
ATOM     30  C   UNL A   1      44.619  25.141  25.422  1.00  0.00     0.029 A 
ATOM     31  N   UNL A   1      43.524  26.561  26.742  1.00  0.00    -0.354 N 
ATOM     32  N   UNL A   1      41.163  27.503  28.301  1.00  0.00    -0.248 NA
ATOM     33  C   UNL A   1      38.966  27.194  29.033  1.00  0.00     0.031 C 
ATOM     34  C   UNL A   1      43.345  24.625  25.678  1.00  0.00     0.029 A 
ATOM     35  C   UNL A   1      42.669  25.501  26.517  1.00  0.00     0.049 A 
ATOM     36  H   UNL A   1      43.319  27.344  27.302  1.00  0.00     0.167 HD
ATOM     37  C   UNL A   1      40.704  26.284  27.835  1.00  0.00     0.074 A 
ATOM     38  C   UNL A   1      39.357  26.125  28.352  1.00  0.00     0.031 C 
ATOM     39  C   UNL A   1      41.344  25.367  27.067  1.00  0.00     0.034 A 
BRANCH  26  40
ATOM     40  C   UNL A   1      47.076  26.967  25.322  1.00  0.00     0.023 A 
ATOM     41  C   UNL A   1      48.091  26.231  25.973  1.00  0.00     0.012 A 
ATOM     42  C   UNL A   1      47.287  27.435  24.016  1.00  0.00     0.148 A 
ATOM     43  C   UNL A   1      49.316  26.006  25.348  1.00  0.00     0.002 A 
ATOM     44  C   UNL A   1      48.492  27.169  23.381  1.00  0.00     0.091 A 
ATOM     45  F   UNL A   1      46.320  28.159  23.435  1.00  0.00    -0.205 F 
ATOM     46  C   UNL A   1      49.514  26.470  24.050  1.00  0.00     0.022 A 
BRANCH  44  47
ATOM     47  S   UNL A   1      48.832  27.678  21.696  1.00  0.00     0.127 S 
ATOM     48  O   UNL A   1      48.505  26.467  20.948  1.00  0.00    -0.237 OA
ATOM     49  O   UNL A   1      47.894  28.782  21.520  1.00  0.00    -0.237 OA
ATOM     50  O   UNL A   1      50.243  28.058  21.666  1.00  0.00    -0.744 OA
ENDBRANCH  44  47
ENDBRANCH  26  40
BRANCH  27  51
ATOM     51  C   UNL A   1      39.015  29.650  30.684  1.00  0.00     0.023 A 
ATOM     52  C   UNL A   1      38.641  28.987  31.867  1.00  0.00     0.012 A 
ATOM     53  C   UNL A   1      38.231  30.729  30.226  1.00  0.00     0.148 A 
ATOM     54  C   UNL A   1      37.479  29.350  32.551  1.00  0.00     0.002 A 
ATOM     55  C   UNL A   1      37.090  31.108  30.929  1.00  0.00     0.091 A 
ATOM     56  F   UNL A   1      38.605  31.355  29.101  1.00  0.00    -0.205 F 
ATOM     57  C   UNL A   1      36.704  30.408  32.084  1.00  0.00     0.022 A 
BRANCH  55  58
ATOM     58  S   UNL A   1      36.067  32.505  30.448  1.00  0.00     0.127 S 
ATOM     59  O   UNL A   1      37.013  33.326  29.697  1.00  0.00    -0.237 OA
ATOM     60  O   UNL A   1      35.034  31.859  29.637  1.00  0.00    -0.237 OA
ATOM     61  O   UNL A   1      35.577  33.082  31.693  1.00  0.00    -0.744 OA
ENDBRANCH  55  58
ENDBRANCH  27  51
BRANCH  39  62
ATOM     62  C   UNL A   1      40.601  24.099  26.766  1.00  0.00     0.023 A 
ATOM     63  C   UNL A   1      39.264  24.156  26.329  1.00  0.00     0.012 A 
ATOM     64  C   UNL A   1      41.255  22.857  26.857  1.00  0.00     0.148 A 
ATOM     65  C   UNL A   1      38.573  22.987  26.024  1.00  0.00     0.002 A 
ATOM     66  C   UNL A   1      40.581  21.702  26.490  1.00  0.00     0.091 A 
ATOM     67  F   UNL A   1      42.521  22.828  27.299  1.00  0.00    -0.205 F 
ATOM     68  C   UNL A   1      39.235  21.763  26.091  1.00  0.00     0.022 A 
BRANCH  66  69
ATOM     69  S   UNL A   1      41.389  20.100  26.431  1.00  0.00     0.127 S 
ATOM     70  O   UNL A   1      42.557  20.388  25.600  1.00  0.00    -0.237 OA
ATOM     71  O   UNL A   1      41.687  19.855  27.842  1.00  0.00    -0.237 OA
ATOM     72  O   UNL A   1      40.420  19.182  25.850  1.00  0.00    -0.744 OA
ENDBRANCH  66  69
ENDBRANCH  39  62
ENDBRANCH  13  14
ENDBRANCH   6   8
ENDBRANCH   5   6
ENDBRANCH   4   5
ENDBRANCH   3   4
ENDBRANCH   2   3
ENDBRANCH   1   2
BRANCH   1  73
ATOM     73  C   UNL A   1      43.074  39.083  28.462  1.00  0.00     0.188 C 
BRANCH  73  74
ATOM     74  O   UNL A   1      43.606  40.361  28.170  1.00  0.00    -0.376 OA
BRANCH  74  75
ATOM     75  C   UNL A   1      43.297  40.967  26.930  1.00  0.00     0.202 C 
BRANCH  75  76
ATOM     76  C   UNL A   1      44.343  41.811  26.186  1.00  0.00     0.261 C 
BRANCH  76  77
ATOM     77  O   UNL A   1      43.858  42.883  25.361  1.00  0.00    -0.463 OA
BRANCH  77  78
ATOM     78  C   UNL A   1      44.177  42.786  24.041  1.00  0.00     0.314 C 
ATOM     79  O   UNL A   1      44.881  41.895  23.572  1.00  0.00    -0.252 OA
BRANCH  78  80
ATOM     80  C   UNL A   1      43.578  43.876  23.167  1.00  0.00     0.154 C 
ATOM     81  C   UNL A   1      42.091  43.731  22.858  1.00  0.00     0.027 C 
ATOM     82  C   UNL A   1      44.457  44.234  21.947  1.00  0.00     0.277 C 
ATOM     83  C   UNL A   1      41.832  43.143  21.487  1.00  0.00     0.062 C 
ATOM     84  N   UNL A   1      44.091  43.603  20.668  1.00  0.00    -0.330 N 
ATOM     85  C   UNL A   1      42.664  43.768  20.399  1.00  0.00     0.262 C 
ATOM     86  H   UNL A   1      44.312  42.615  20.794  1.00  0.00     0.348 HD
BRANCH  84  87
ATOM     87  C   UNL A   1      44.900  44.031  19.489  1.00  0.00     0.299 C 
BRANCH  87  88
ATOM     88  C   UNL A   1      44.812  45.516  19.116  1.00  0.00     0.014 A 
ATOM     89  C   UNL A   1      45.594  46.409  19.870  1.00  0.00     0.010 A 
ATOM     90  C   UNL A   1      43.856  46.041  18.183  1.00  0.00    -0.010 A 
ATOM     91  C   UNL A   1      45.340  47.773  19.853  1.00  0.00     0.001 A 
ATOM     92  C   UNL A   1      43.602  47.440  18.193  1.00  0.00    -0.018 A 
ATOM     93  C   UNL A   1      43.121  45.276  17.244  1.00  0.00     0.009 A 
ATOM     94  C   UNL A   1      44.328  48.278  19.047  1.00  0.00     0.009 A 
ATOM     95  C   UNL A   1      42.615  47.998  17.363  1.00  0.00     0.009 A 
ATOM     96  C   UNL A   1      42.161  45.851  16.398  1.00  0.00     0.001 A 
ATOM     97  C   UNL A   1      41.895  47.209  16.472  1.00  0.00     0.001 A 
ENDBRANCH  87  88
ENDBRANCH  84  87
ENDBRANCH  78  80
ENDBRANCH  77  78
ENDBRANCH  76  77
ENDBRANCH  75  76
ENDBRANCH  74  75
ENDBRANCH  73  74
ENDBRANCH   1  73
TORSDOF 22
ENDMDL
MODEL 3
REMARK VINA RESULT:      -8.1      8.571     14.295
REMARK SMILES O=C(OCCOCCOCCOC(=O)[C@@H]1CCC[N@@H+](Cc2cccc3ccccc23)C1)c1ccc(-c2c3nc(c(-c4cccc(S(=O)(=O)[O-])c4F)c4ccc([nH]4)c(-c4cccc(S(=O)(=O)[O-])c4F)c4nc(c(-c5cccc(S(=O)(=O)[O-])c5F)c5ccc2[nH]5)C=C4)C=C3)cc1
REMARK SMILES IDX 7 1 6 2 5 3 4 4 3 5 2 6 1 7 32 8 33 9 94 10 34 11 93 12
REMARK SMILES IDX 35 13 36 14 37 15 87 16 38 17 92 18 86 19 88 20 39 21 91 22
REMARK SMILES IDX 85 23 84 24 40 26 72 27 52 28 71 29 53 30 56 31 70 32 89 33
REMARK SMILES IDX 54 34 55 35 69 37 90 38 57 39 41 40 42 41 50 42 43 43 45 44
REMARK SMILES IDX 51 45 44 46 46 47 47 48 48 49 49 50 73 51 74 52 82 53 75 54
REMARK SMILES IDX 77 55 83 56 76 57 78 58 79 59 80 60 81 61 58 62 59 63 67 64
REMARK SMILES IDX 60 65 62 66 68 67 61 68 63 69 64 70 65 71 66 72 8 73 9 74
REMARK SMILES IDX 10 75 11 76 12 77 13 78 14 79 15 80 16 81 31 82 17 83 19 84
REMARK SMILES IDX 18 85 20 87 21 88 22 89 30 90 23 91 25 92 29 93 24 94 26 95
REMARK SMILES IDX 28 96 27 97
REMARK H PARENT 88 25 56 36 19 86
REMARK Flexibility Score: inf
ROOT
ATOM      1  C   UNL A   1      49.203  42.258  28.466  1.00  0.00     0.188 C 
ENDROOT
BRANCH   1   2
ATOM      2  O   UNL A   1      49.351  40.849  28.360  1.00  0.00    -0.376 OA
BRANCH   2   3
ATOM      3  C   UNL A   1      48.402  40.141  27.572  1.00  0.00     0.202 C 
BRANCH   3   4
ATOM      4  C   UNL A   1      48.101  38.674  27.951  1.00  0.00     0.261 C 
BRANCH   4   5
ATOM      5  O   UNL A   1      46.721  38.387  28.219  1.00  0.00    -0.460 OA
BRANCH   5   6
ATOM      6  C   UNL A   1      46.185  37.736  29.284  1.00  0.00     0.338 C 
ATOM      7  O   UNL A   1      46.217  38.303  30.376  1.00  0.00    -0.246 OA
BRANCH   6   8
ATOM      8  C   UNL A   1      45.627  36.342  29.226  1.00  0.00     0.060 A 
ATOM      9  C   UNL A   1      46.055  35.250  29.979  1.00  0.00     0.016 A 
ATOM     10  C   UNL A   1      44.537  36.129  28.369  1.00  0.00     0.016 A 
ATOM     11  C   UNL A   1      45.472  33.993  29.870  1.00  0.00     0.010 A 
ATOM     12  C   UNL A   1      43.887  34.889  28.311  1.00  0.00     0.010 A 
ATOM     13  C   UNL A   1      44.379  33.797  29.044  1.00  0.00    -0.014 A 
BRANCH  13  14
ATOM     14  C   UNL A   1      43.890  32.419  28.818  1.00  0.00     0.031 A 
ATOM     15  C   UNL A   1      42.689  31.984  29.600  1.00  0.00     0.074 A 
ATOM     16  C   UNL A   1      44.422  31.606  27.880  1.00  0.00     0.049 A 
ATOM     17  N   UNL A   1      42.057  30.846  29.557  1.00  0.00    -0.248 NA
ATOM     18  C   UNL A   1      42.070  32.983  30.493  1.00  0.00     0.031 C 
ATOM     19  C   UNL A   1      45.444  31.969  26.902  1.00  0.00     0.029 A 
ATOM     20  N   UNL A   1      44.219  30.273  27.630  1.00  0.00    -0.354 N 
ATOM     21  C   UNL A   1      40.945  31.014  30.365  1.00  0.00     0.074 A 
ATOM     22  C   UNL A   1      41.042  32.313  30.983  1.00  0.00     0.031 C 
ATOM     23  C   UNL A   1      45.941  30.863  26.327  1.00  0.00     0.029 A 
ATOM     24  C   UNL A   1      45.180  29.726  26.806  1.00  0.00     0.049 A 
ATOM     25  H   UNL A   1      43.465  29.760  28.000  1.00  0.00     0.167 HD
ATOM     26  C   UNL A   1      39.885  30.192  30.501  1.00  0.00     0.034 A 
ATOM     27  C   UNL A   1      45.407  28.446  26.461  1.00  0.00     0.034 A 
ATOM     28  C   UNL A   1      39.808  28.905  29.878  1.00  0.00     0.049 A 
ATOM     29  C   UNL A   1      44.321  27.466  26.790  1.00  0.00     0.074 A 
ATOM     30  C   UNL A   1      38.800  27.966  29.960  1.00  0.00     0.029 A 
ATOM     31  N   UNL A   1      40.800  28.370  29.067  1.00  0.00    -0.354 N 
ATOM     32  N   UNL A   1      43.223  27.667  27.479  1.00  0.00    -0.248 NA
ATOM     33  C   UNL A   1      44.423  26.134  26.186  1.00  0.00     0.031 C 
ATOM     34  C   UNL A   1      39.202  26.842  29.231  1.00  0.00     0.029 A 
ATOM     35  C   UNL A   1      40.440  27.101  28.658  1.00  0.00     0.049 A 
ATOM     36  H   UNL A   1      41.635  28.828  28.820  1.00  0.00     0.167 HD
ATOM     37  C   UNL A   1      42.460  26.524  27.318  1.00  0.00     0.074 A 
ATOM     38  C   UNL A   1      43.232  25.628  26.476  1.00  0.00     0.031 C 
ATOM     39  C   UNL A   1      41.224  26.247  27.803  1.00  0.00     0.034 A 
BRANCH  26  40
ATOM     40  C   UNL A   1      38.745  30.703  31.332  1.00  0.00     0.023 A 
ATOM     41  C   UNL A   1      38.726  30.450  32.722  1.00  0.00     0.012 A 
ATOM     42  C   UNL A   1      37.671  31.380  30.735  1.00  0.00     0.148 A 
ATOM     43  C   UNL A   1      37.631  30.828  33.497  1.00  0.00     0.002 A 
ATOM     44  C   UNL A   1      36.603  31.794  31.520  1.00  0.00     0.091 A 
ATOM     45  F   UNL A   1      37.700  31.577  29.409  1.00  0.00    -0.205 F 
ATOM     46  C   UNL A   1      36.573  31.505  32.896  1.00  0.00     0.022 A 
BRANCH  44  47
ATOM     47  S   UNL A   1      35.214  32.714  30.857  1.00  0.00     0.127 S 
ATOM     48  O   UNL A   1      34.234  32.589  31.933  1.00  0.00    -0.237 OA
ATOM     49  O   UNL A   1      35.784  34.048  30.697  1.00  0.00    -0.237 OA
ATOM     50  O   UNL A   1      34.847  32.048  29.610  1.00  0.00    -0.744 OA
ENDBRANCH  44  47
ENDBRANCH  26  40
BRANCH  27  51
ATOM     51  C   UNL A   1      46.609  28.060  25.668  1.00  0.00     0.023 A 
ATOM     52  C   UNL A   1      46.564  28.075  24.262  1.00  0.00     0.012 A 
ATOM     53  C   UNL A   1      47.801  27.662  26.311  1.00  0.00     0.148 A 
ATOM     54  C   UNL A   1      47.660  27.648  23.509  1.00  0.00     0.002 A 
ATOM     55  C   UNL A   1      48.901  27.267  25.555  1.00  0.00     0.091 A 
ATOM     56  F   UNL A   1      47.830  27.660  27.651  1.00  0.00    -0.205 F 
ATOM     57  C   UNL A   1      48.827  27.245  24.153  1.00  0.00     0.022 A 
BRANCH  55  58
ATOM     58  S   UNL A   1      50.473  26.800  26.290  1.00  0.00     0.127 S 
ATOM     59  O   UNL A   1      50.621  27.799  27.345  1.00  0.00    -0.237 OA
ATOM     60  O   UNL A   1      50.195  25.443  26.763  1.00  0.00    -0.237 OA
ATOM     61  O   UNL A   1      51.449  26.869  25.211  1.00  0.00    -0.744 OA
ENDBRANCH  55  58
ENDBRANCH  27  51
BRANCH  39  62
ATOM     62  C   UNL A   1      40.622  24.931  27.408  1.00  0.00     0.023 A 
ATOM     63  C   UNL A   1      39.409  24.902  26.694  1.00  0.00     0.012 A 
ATOM     64  C   UNL A   1      41.297  23.730  27.690  1.00  0.00     0.148 A 
ATOM     65  C   UNL A   1      38.853  23.688  26.302  1.00  0.00     0.002 A 
ATOM     66  C   UNL A   1      40.771  22.529  27.239  1.00  0.00     0.091 A 
ATOM     67  F   UNL A   1      42.439  23.784  28.391  1.00  0.00    -0.205 F 
ATOM     68  C   UNL A   1      39.540  22.504  26.561  1.00  0.00     0.022 A 
BRANCH  66  69
ATOM     69  S   UNL A   1      41.645  20.972  27.424  1.00  0.00     0.127 S 
ATOM     70  O   UNL A   1      42.148  20.752  26.069  1.00  0.00    -0.237 OA
ATOM     71  O   UNL A   1      42.670  21.311  28.410  1.00  0.00    -0.237 OA
ATOM     72  O   UNL A   1      40.656  20.009  27.887  1.00  0.00    -0.744 OA
ENDBRANCH  66  69
ENDBRANCH  39  62
ENDBRANCH  13  14
ENDBRANCH   6   8
ENDBRANCH   5   6
ENDBRANCH   4   5
ENDBRANCH   3   4
ENDBRANCH   2   3
ENDBRANCH   1   2
BRANCH   1  73
ATOM     73  C   UNL A   1      47.813  42.878  28.667  1.00  0.00     0.188 C 
BRANCH  73  74
ATOM     74  O   UNL A   1      47.554  44.240  28.387  1.00  0.00    -0.376 OA
BRANCH  74  75
ATOM     75  C   UNL A   1      46.564  44.569  27.432  1.00  0.00     0.202 C 
BRANCH  75  76
ATOM     76  C   UNL A   1      46.293  43.648  26.234  1.00  0.00     0.261 C 
BRANCH  76  77
ATOM     77  O   UNL A   1      45.868  44.268  25.009  1.00  0.00    -0.463 OA
BRANCH  77  78
ATOM     78  C   UNL A   1      46.838  44.408  24.065  1.00  0.00     0.314 C 
ATOM     79  O   UNL A   1      47.769  45.205  24.154  1.00  0.00    -0.252 OA
BRANCH  78  80
ATOM     80  C   UNL A   1      46.692  43.480  22.870  1.00  0.00     0.154 C 
ATOM     81  C   UNL A   1      47.991  43.100  22.166  1.00  0.00     0.027 C 
ATOM     82  C   UNL A   1      45.539  43.881  21.921  1.00  0.00     0.277 C 
ATOM     83  C   UNL A   1      48.236  43.910  20.911  1.00  0.00     0.062 C 
ATOM     84  N   UNL A   1      45.914  44.658  20.727  1.00  0.00    -0.330 N 
ATOM     85  C   UNL A   1      47.026  44.023  20.023  1.00  0.00     0.262 C 
ATOM     86  H   UNL A   1      46.203  45.567  21.091  1.00  0.00     0.348 HD
BRANCH  84  87
ATOM     87  C   UNL A   1      44.798  44.959  19.784  1.00  0.00     0.299 C 
BRANCH  87  88
ATOM     88  C   UNL A   1      44.701  46.410  19.297  1.00  0.00     0.014 A 
ATOM     89  C   UNL A   1      45.415  47.376  20.028  1.00  0.00     0.010 A 
ATOM     90  C   UNL A   1      43.794  46.841  18.271  1.00  0.00    -0.010 A 
ATOM     91  C   UNL A   1      45.133  48.728  19.895  1.00  0.00     0.001 A 
ATOM     92  C   UNL A   1      43.509  48.229  18.163  1.00  0.00    -0.018 A 
ATOM     93  C   UNL A   1      43.135  45.990  17.349  1.00  0.00     0.009 A 
ATOM     94  C   UNL A   1      44.162  49.146  18.994  1.00  0.00     0.009 A 
ATOM     95  C   UNL A   1      42.564  48.699  17.235  1.00  0.00     0.009 A 
ATOM     96  C   UNL A   1      42.217  46.476  16.407  1.00  0.00     0.001 A 
ATOM     97  C   UNL A   1      41.917  47.829  16.363  1.00  0.00     0.001 A 
ENDBRANCH  87  88
ENDBRANCH  84  87
ENDBRANCH  78  80
ENDBRANCH  77  78
ENDBRANCH  76  77
ENDBRANCH  75  76
ENDBRANCH  74  75
ENDBRANCH  73  74
ENDBRANCH   1  73
TORSDOF 22
ENDMDL
