MODEL 1
REMARK VINA RESULT:      -9.7      0.000      0.000
REMARK SMILES O=C(OCCOCCOCCOC(=O)c1ccc(-n2cc(CSc3nc4ccccc4c(=O)n3-c3ccccc3)nn2)cc1)c1ccc(-c2c3nc(c(-c4cccc(S(=O)(=O)[O-])c4F)c4ccc([nH]4)c(-c4cccc(S(=O)(=O)[O-])c4F)c4nc(c(-c5cccc(S(=O)(=O)[O-])c5F)c5ccc2[nH]5)C=C4)C=C3)cc1
REMARK SMILES IDX 8 1 7 2 6 3 5 4 4 5 3 6 2 7 1 8 45 9 46 10 107 11 47 12
REMARK SMILES IDX 106 13 48 14 49 15 50 16 100 17 51 18 105 19 99 20 101 21
REMARK SMILES IDX 52 22 104 23 98 24 97 25 53 27 85 28 65 29 84 30 66 31 69 32
REMARK SMILES IDX 83 33 102 34 67 35 68 36 82 38 103 39 70 40 54 41 55 42
REMARK SMILES IDX 63 43 56 44 58 45 64 46 57 47 59 48 60 49 61 50 62 51 86 52
REMARK SMILES IDX 87 53 95 54 88 55 90 56 96 57 89 58 91 59 92 60 93 61 94 62
REMARK SMILES IDX 71 63 72 64 80 65 73 66 75 67 81 68 74 69 76 70 77 71 78 72
REMARK SMILES IDX 79 73 9 74 10 75 11 76 12 77 13 78 14 79 15 80 16 81 44 82
REMARK SMILES IDX 17 83 43 84 18 85 19 86 20 87 42 88 21 89 41 90 22 91 23 92
REMARK SMILES IDX 24 93 25 94 34 95 26 96 32 97 27 98 31 99 33 100 28 101
REMARK SMILES IDX 30 102 29 103 35 104 36 105 40 106 37 107 39 108 38 109
REMARK H PARENT 101 26 69 37
REMARK Flexibility Score: inf
ROOT
ATOM      1  C   UNL A   1      45.298  19.662  24.740  1.00  0.00     0.188 C 
ENDROOT
BRANCH   1   2
ATOM      2  C   UNL A   1      44.183  18.703  25.210  1.00  0.00     0.188 C 
BRANCH   2   3
ATOM      3  O   UNL A   1      42.869  19.215  25.038  1.00  0.00    -0.376 OA
BRANCH   3   4
ATOM      4  C   UNL A   1      42.219  19.631  26.225  1.00  0.00     0.202 C 
BRANCH   4   5
ATOM      5  C   UNL A   1      40.691  19.646  26.123  1.00  0.00     0.261 C 
BRANCH   5   6
ATOM      6  O   UNL A   1      40.017  20.694  26.846  1.00  0.00    -0.460 OA
BRANCH   6   7
ATOM      7  C   UNL A   1      39.546  21.907  26.502  1.00  0.00     0.338 C 
ATOM      8  O   UNL A   1      38.640  21.967  25.672  1.00  0.00    -0.246 OA
BRANCH   7   9
ATOM      9  C   UNL A   1      40.132  23.187  26.979  1.00  0.00     0.060 A 
ATOM     10  C   UNL A   1      41.246  23.303  27.813  1.00  0.00     0.016 A 
ATOM     11  C   UNL A   1      39.455  24.359  26.586  1.00  0.00     0.016 A 
ATOM     12  C   UNL A   1      41.645  24.544  28.286  1.00  0.00     0.010 A 
ATOM     13  C   UNL A   1      39.836  25.602  27.076  1.00  0.00     0.010 A 
ATOM     14  C   UNL A   1      40.902  25.676  27.968  1.00  0.00    -0.014 A 
BRANCH  14  15
ATOM     15  C   UNL A   1      41.237  26.909  28.666  1.00  0.00     0.031 A 
ATOM     16  C   UNL A   1      42.431  27.649  28.188  1.00  0.00     0.074 A 
ATOM     17  C   UNL A   1      40.451  27.375  29.658  1.00  0.00     0.049 A 
ATOM     18  N   UNL A   1      43.491  27.971  28.859  1.00  0.00    -0.248 NA
ATOM     19  C   UNL A   1      42.488  28.005  26.765  1.00  0.00     0.031 C 
ATOM     20  C   UNL A   1      39.123  26.872  30.028  1.00  0.00     0.029 A 
ATOM     21  N   UNL A   1      40.598  28.488  30.436  1.00  0.00    -0.354 N 
ATOM     22  C   UNL A   1      44.235  28.785  28.007  1.00  0.00     0.074 A 
ATOM     23  C   UNL A   1      43.665  28.626  26.695  1.00  0.00     0.031 C 
ATOM     24  C   UNL A   1      38.484  27.819  30.744  1.00  0.00     0.029 A 
ATOM     25  C   UNL A   1      39.395  28.925  30.979  1.00  0.00     0.049 A 
ATOM     26  H   UNL A   1      41.462  28.934  30.593  1.00  0.00     0.167 HD
ATOM     27  C   UNL A   1      45.084  29.733  28.493  1.00  0.00     0.034 A 
ATOM     28  C   UNL A   1      39.128  30.147  31.493  1.00  0.00     0.034 A 
ATOM     29  C   UNL A   1      45.468  29.463  29.857  1.00  0.00     0.049 A 
ATOM     30  C   UNL A   1      40.413  30.785  31.851  1.00  0.00     0.074 A 
ATOM     31  C   UNL A   1      46.060  28.415  30.534  1.00  0.00     0.029 A 
ATOM     32  N   UNL A   1      44.971  30.299  30.825  1.00  0.00    -0.354 N 
ATOM     33  N   UNL A   1      41.174  30.396  32.835  1.00  0.00    -0.248 NA
ATOM     34  C   UNL A   1      41.038  31.685  30.895  1.00  0.00     0.031 C 
ATOM     35  C   UNL A   1      45.521  28.462  31.853  1.00  0.00     0.029 A 
ATOM     36  C   UNL A   1      44.641  29.544  31.913  1.00  0.00     0.049 A 
ATOM     37  H   UNL A   1      44.869  31.276  30.747  1.00  0.00     0.167 HD
ATOM     38  C   UNL A   1      42.467  30.638  32.390  1.00  0.00     0.074 A 
ATOM     39  C   UNL A   1      42.310  31.569  31.279  1.00  0.00     0.031 C 
ATOM     40  C   UNL A   1      43.504  29.827  32.763  1.00  0.00     0.034 A 
BRANCH  27  41
ATOM     41  C   UNL A   1      45.239  31.130  27.903  1.00  0.00     0.023 A 
ATOM     42  C   UNL A   1      44.115  31.668  27.228  1.00  0.00     0.012 A 
ATOM     43  C   UNL A   1      46.479  31.772  27.678  1.00  0.00     0.148 A 
ATOM     44  C   UNL A   1      44.243  32.696  26.288  1.00  0.00     0.002 A 
ATOM     45  C   UNL A   1      46.588  32.840  26.794  1.00  0.00     0.091 A 
ATOM     46  F   UNL A   1      47.600  31.288  28.215  1.00  0.00    -0.205 F 
ATOM     47  C   UNL A   1      45.482  33.278  26.064  1.00  0.00     0.022 A 
BRANCH  45  48
ATOM     48  S   UNL A   1      48.164  33.651  26.493  1.00  0.00     0.127 S 
ATOM     49  O   UNL A   1      47.827  34.528  25.375  1.00  0.00    -0.237 OA
ATOM     50  O   UNL A   1      48.401  34.332  27.766  1.00  0.00    -0.237 OA
ATOM     51  O   UNL A   1      49.107  32.577  26.208  1.00  0.00    -0.744 OA
ENDBRANCH  45  48
ENDBRANCH  27  41
BRANCH  28  52
ATOM     52  C   UNL A   1      37.841  30.876  31.524  1.00  0.00     0.023 A 
ATOM     53  C   UNL A   1      37.246  31.184  32.761  1.00  0.00     0.012 A 
ATOM     54  C   UNL A   1      37.297  31.465  30.360  1.00  0.00     0.148 A 
ATOM     55  C   UNL A   1      36.157  32.062  32.838  1.00  0.00     0.002 A 
ATOM     56  C   UNL A   1      36.196  32.312  30.437  1.00  0.00     0.091 A 
ATOM     57  F   UNL A   1      37.912  31.275  29.184  1.00  0.00    -0.205 F 
ATOM     58  C   UNL A   1      35.630  32.623  31.678  1.00  0.00     0.022 A 
BRANCH  56  59
ATOM     59  S   UNL A   1      35.456  33.035  28.966  1.00  0.00     0.127 S 
ATOM     60  O   UNL A   1      34.056  33.185  29.366  1.00  0.00    -0.237 OA
ATOM     61  O   UNL A   1      36.192  34.288  28.837  1.00  0.00    -0.237 OA
ATOM     62  O   UNL A   1      35.665  32.058  27.905  1.00  0.00    -0.744 OA
ENDBRANCH  56  59
ENDBRANCH  28  52
BRANCH  40  63
ATOM     63  C   UNL A   1      43.317  28.921  33.953  1.00  0.00     0.023 A 
ATOM     64  C   UNL A   1      42.679  27.669  33.842  1.00  0.00     0.012 A 
ATOM     65  C   UNL A   1      43.937  29.260  35.169  1.00  0.00     0.148 A 
ATOM     66  C   UNL A   1      42.624  26.793  34.928  1.00  0.00     0.002 A 
ATOM     67  C   UNL A   1      43.923  28.365  36.234  1.00  0.00     0.091 A 
ATOM     68  F   UNL A   1      44.552  30.450  35.265  1.00  0.00    -0.205 F 
ATOM     69  C   UNL A   1      43.257  27.136  36.121  1.00  0.00     0.022 A 
BRANCH  67  70
ATOM     70  S   UNL A   1      44.841  28.696  37.741  1.00  0.00     0.127 S 
ATOM     71  O   UNL A   1      44.621  27.476  38.514  1.00  0.00    -0.237 OA
ATOM     72  O   UNL A   1      46.211  28.870  37.253  1.00  0.00    -0.237 OA
ATOM     73  O   UNL A   1      44.256  29.914  38.292  1.00  0.00    -0.744 OA
ENDBRANCH  67  70
ENDBRANCH  40  63
ENDBRANCH  14  15
ENDBRANCH   7   9
ENDBRANCH   6   7
ENDBRANCH   5   6
ENDBRANCH   4   5
ENDBRANCH   3   4
ENDBRANCH   2   3
ENDBRANCH   1   2
BRANCH   1  74
ATOM     74  O   UNL A   1      45.411  20.964  25.304  1.00  0.00    -0.376 OA
BRANCH  74  75
ATOM     75  C   UNL A   1      45.160  22.100  24.490  1.00  0.00     0.202 C 
BRANCH  75  76
ATOM     76  C   UNL A   1      46.306  23.098  24.293  1.00  0.00     0.261 C 
BRANCH  76  77
ATOM     77  O   UNL A   1      45.922  24.473  24.466  1.00  0.00    -0.460 OA
BRANCH  77  78
ATOM     78  C   UNL A   1      45.345  24.776  25.656  1.00  0.00     0.338 C 
ATOM     79  O   UNL A   1      44.158  24.840  25.910  1.00  0.00    -0.246 OA
BRANCH  78  80
ATOM     80  C   UNL A   1      46.390  24.938  26.685  1.00  0.00     0.060 A 
ATOM     81  C   UNL A   1      45.998  25.078  28.024  1.00  0.00     0.018 A 
ATOM     82  C   UNL A   1      47.735  25.041  26.323  1.00  0.00     0.018 A 
ATOM     83  C   UNL A   1      46.947  25.364  29.006  1.00  0.00     0.029 A 
ATOM     84  C   UNL A   1      48.693  25.299  27.309  1.00  0.00     0.029 A 
ATOM     85  C   UNL A   1      48.289  25.489  28.641  1.00  0.00     0.066 A 
BRANCH  85  86
ATOM     86  N   UNL A   1      49.235  25.957  29.579  1.00  0.00    -0.220 N 
ATOM     87  C   UNL A   1      49.888  25.186  30.524  1.00  0.00     0.141 A 
ATOM     88  N   UNL A   1      49.356  27.259  29.888  1.00  0.00    -0.062 NA
ATOM     89  C   UNL A   1      50.305  26.075  31.487  1.00  0.00     0.093 A 
ATOM     90  N   UNL A   1      50.062  27.346  31.002  1.00  0.00    -0.134 NA
BRANCH  89  91
ATOM     91  C   UNL A   1      50.744  26.021  32.904  1.00  0.00     0.138 C 
BRANCH  91  92
ATOM     92  S   UNL A   1      49.818  25.786  34.404  1.00  0.00    -0.081 SA
BRANCH  92  93
ATOM     93  C   UNL A   1      48.515  24.654  34.287  1.00  0.00     0.176 A 
ATOM     94  N   UNL A   1      47.470  25.193  33.728  1.00  0.00    -0.223 NA
ATOM     95  N   UNL A   1      48.546  23.315  34.661  1.00  0.00    -0.255 N 
ATOM     96  C   UNL A   1      46.305  24.442  33.598  1.00  0.00     0.079 A 
ATOM     97  C   UNL A   1      47.303  22.814  35.083  1.00  0.00     0.266 A 
ATOM     98  C   UNL A   1      45.266  24.864  32.768  1.00  0.00     0.029 A 
ATOM     99  C   UNL A   1      46.122  23.307  34.368  1.00  0.00     0.066 A 
ATOM    100  O   UNL A   1      47.109  22.037  36.018  1.00  0.00    -0.268 OA
ATOM    101  C   UNL A   1      44.046  24.179  32.762  1.00  0.00     0.002 A 
ATOM    102  C   UNL A   1      44.894  22.641  34.415  1.00  0.00     0.016 A 
ATOM    103  C   UNL A   1      43.849  23.086  33.608  1.00  0.00     0.001 A 
BRANCH  95 104
ATOM    104  C   UNL A   1      49.711  22.439  34.736  1.00  0.00     0.051 A 
ATOM    105  C   UNL A   1      50.389  22.261  35.962  1.00  0.00     0.027 A 
ATOM    106  C   UNL A   1      50.215  21.685  33.668  1.00  0.00     0.027 A 
ATOM    107  C   UNL A   1      51.581  21.536  36.072  1.00  0.00     0.002 A 
ATOM    108  C   UNL A   1      51.428  20.983  33.756  1.00  0.00     0.002 A 
ATOM    109  C   UNL A   1      52.125  20.931  34.953  1.00  0.00     0.000 A 
ENDBRANCH  95 104
ENDBRANCH  92  93
ENDBRANCH  91  92
ENDBRANCH  89  91
ENDBRANCH  85  86
ENDBRANCH  78  80
ENDBRANCH  77  78
ENDBRANCH  76  77
ENDBRANCH  75  76
ENDBRANCH  74  75
ENDBRANCH   1  74
TORSDOF 25
ENDMDL
MODEL 2
REMARK VINA RESULT:      -9.0      1.962      2.282
REMARK SMILES O=C(OCCOCCOCCOC(=O)c1ccc(-n2cc(CSc3nc4ccccc4c(=O)n3-c3ccccc3)nn2)cc1)c1ccc(-c2c3nc(c(-c4cccc(S(=O)(=O)[O-])c4F)c4ccc([nH]4)c(-c4cccc(S(=O)(=O)[O-])c4F)c4nc(c(-c5cccc(S(=O)(=O)[O-])c5F)c5ccc2[nH]5)C=C4)C=C3)cc1
REMARK SMILES IDX 8 1 7 2 6 3 5 4 4 5 3 6 2 7 1 8 45 9 46 10 107 11 47 12
REMARK SMILES IDX 106 13 48 14 49 15 50 16 100 17 51 18 105 19 99 20 101 21
REMARK SMILES IDX 52 22 104 23 98 24 97 25 53 27 85 28 65 29 84 30 66 31 69 32
REMARK SMILES IDX 83 33 102 34 67 35 68 36 82 38 103 39 70 40 54 41 55 42
REMARK SMILES IDX 63 43 56 44 58 45 64 46 57 47 59 48 60 49 61 50 62 51 86 52
REMARK SMILES IDX 87 53 95 54 88 55 90 56 96 57 89 58 91 59 92 60 93 61 94 62
REMARK SMILES IDX 71 63 72 64 80 65 73 66 75 67 81 68 74 69 76 70 77 71 78 72
REMARK SMILES IDX 79 73 9 74 10 75 11 76 12 77 13 78 14 79 15 80 16 81 44 82
REMARK SMILES IDX 17 83 43 84 18 85 19 86 20 87 42 88 21 89 41 90 22 91 23 92
REMARK SMILES IDX 24 93 25 94 34 95 26 96 32 97 27 98 31 99 33 100 28 101
REMARK SMILES IDX 30 102 29 103 35 104 36 105 40 106 37 107 39 108 38 109
REMARK H PARENT 101 26 69 37
REMARK Flexibility Score: inf
ROOT
ATOM      1  C   UNL A   1      45.071  19.264  24.939  1.00  0.00     0.188 C 
ENDROOT
BRANCH   1   2
ATOM      2  C   UNL A   1      43.860  18.570  25.597  1.00  0.00     0.188 C 
BRANCH   2   3
ATOM      3  O   UNL A   1      42.631  19.260  25.418  1.00  0.00    -0.376 OA
BRANCH   3   4
ATOM      4  C   UNL A   1      42.125  19.910  26.570  1.00  0.00     0.202 C 
BRANCH   4   5
ATOM      5  C   UNL A   1      40.736  20.526  26.376  1.00  0.00     0.261 C 
BRANCH   5   6
ATOM      6  O   UNL A   1      40.425  21.661  27.208  1.00  0.00    -0.460 OA
BRANCH   6   7
ATOM      7  C   UNL A   1      39.767  22.816  26.997  1.00  0.00     0.338 C 
ATOM      8  O   UNL A   1      38.744  22.789  26.315  1.00  0.00    -0.246 OA
BRANCH   7   9
ATOM      9  C   UNL A   1      40.266  24.144  27.443  1.00  0.00     0.060 A 
ATOM     10  C   UNL A   1      41.404  24.358  28.221  1.00  0.00     0.016 A 
ATOM     11  C   UNL A   1      39.474  25.253  27.081  1.00  0.00     0.016 A 
ATOM     12  C   UNL A   1      41.720  25.630  28.672  1.00  0.00     0.010 A 
ATOM     13  C   UNL A   1      39.772  26.526  27.550  1.00  0.00     0.010 A 
ATOM     14  C   UNL A   1      40.869  26.695  28.389  1.00  0.00    -0.014 A 
BRANCH  14  15
ATOM     15  C   UNL A   1      41.133  27.955  29.068  1.00  0.00     0.031 A 
ATOM     16  C   UNL A   1      42.217  28.803  28.513  1.00  0.00     0.074 A 
ATOM     17  C   UNL A   1      40.376  28.346  30.113  1.00  0.00     0.049 A 
ATOM     18  N   UNL A   1      43.284  29.226  29.113  1.00  0.00    -0.248 NA
ATOM     19  C   UNL A   1      42.143  29.160  27.091  1.00  0.00     0.031 C 
ATOM     20  C   UNL A   1      39.129  27.721  30.569  1.00  0.00     0.029 A 
ATOM     21  N   UNL A   1      40.469  29.471  30.883  1.00  0.00    -0.354 N 
ATOM     22  C   UNL A   1      43.889  30.105  28.215  1.00  0.00     0.074 A 
ATOM     23  C   UNL A   1      43.249  29.890  26.944  1.00  0.00     0.031 C 
ATOM     24  C   UNL A   1      38.453  28.605  31.331  1.00  0.00     0.029 A 
ATOM     25  C   UNL A   1      39.269  29.792  31.508  1.00  0.00     0.049 A 
ATOM     26  H   UNL A   1      41.295  29.997  30.983  1.00  0.00     0.167 HD
ATOM     27  C   UNL A   1      44.675  31.130  28.647  1.00  0.00     0.034 A 
ATOM     28  C   UNL A   1      38.923  30.985  32.043  1.00  0.00     0.034 A 
ATOM     29  C   UNL A   1      45.174  30.901  29.981  1.00  0.00     0.049 A 
ATOM     30  C   UNL A   1      40.163  31.743  32.317  1.00  0.00     0.074 A 
ATOM     31  C   UNL A   1      45.907  29.916  30.612  1.00  0.00     0.029 A 
ATOM     32  N   UNL A   1      44.666  31.689  30.984  1.00  0.00    -0.354 N 
ATOM     33  N   UNL A   1      41.022  31.430  33.246  1.00  0.00    -0.248 NA
ATOM     34  C   UNL A   1      40.633  32.696  31.324  1.00  0.00     0.031 C 
ATOM     35  C   UNL A   1      45.456  29.915  31.965  1.00  0.00     0.029 A 
ATOM     36  C   UNL A   1      44.484  30.909  32.088  1.00  0.00     0.049 A 
ATOM     37  H   UNL A   1      44.467  32.651  30.917  1.00  0.00     0.167 HD
ATOM     38  C   UNL A   1      42.254  31.793  32.716  1.00  0.00     0.074 A 
ATOM     39  C   UNL A   1      41.934  32.702  31.621  1.00  0.00     0.031 C 
ATOM     40  C   UNL A   1      43.385  31.085  33.014  1.00  0.00     0.034 A 
BRANCH  27  41
ATOM     41  C   UNL A   1      44.657  32.534  28.054  1.00  0.00     0.023 A 
ATOM     42  C   UNL A   1      45.878  33.024  27.528  1.00  0.00     0.012 A 
ATOM     43  C   UNL A   1      43.641  33.490  28.289  1.00  0.00     0.148 A 
ATOM     44  C   UNL A   1      46.118  34.393  27.372  1.00  0.00     0.002 A 
ATOM     45  C   UNL A   1      43.861  34.846  28.066  1.00  0.00     0.091 A 
ATOM     46  F   UNL A   1      42.486  33.128  28.850  1.00  0.00    -0.205 F 
ATOM     47  C   UNL A   1      45.111  35.307  27.649  1.00  0.00     0.022 A 
BRANCH  45  48
ATOM     48  S   UNL A   1      42.580  36.068  28.377  1.00  0.00     0.127 S 
ATOM     49  O   UNL A   1      43.370  37.194  28.864  1.00  0.00    -0.237 OA
ATOM     50  O   UNL A   1      42.002  36.244  27.044  1.00  0.00    -0.237 OA
ATOM     51  O   UNL A   1      41.676  35.450  29.340  1.00  0.00    -0.744 OA
ENDBRANCH  45  48
ENDBRANCH  27  41
BRANCH  28  52
ATOM     52  C   UNL A   1      37.577  31.589  32.164  1.00  0.00     0.023 A 
ATOM     53  C   UNL A   1      37.051  31.867  33.440  1.00  0.00     0.012 A 
ATOM     54  C   UNL A   1      36.892  32.099  31.038  1.00  0.00     0.148 A 
ATOM     55  C   UNL A   1      35.892  32.638  33.589  1.00  0.00     0.002 A 
ATOM     56  C   UNL A   1      35.723  32.838  31.189  1.00  0.00     0.091 A 
ATOM     57  F   UNL A   1      37.431  31.941  29.820  1.00  0.00    -0.205 F 
ATOM     58  C   UNL A   1      35.227  33.121  32.465  1.00  0.00     0.022 A 
BRANCH  56  59
ATOM     59  S   UNL A   1      34.807  33.455  29.770  1.00  0.00     0.127 S 
ATOM     60  O   UNL A   1      33.761  34.259  30.403  1.00  0.00    -0.237 OA
ATOM     61  O   UNL A   1      35.823  34.225  29.060  1.00  0.00    -0.237 OA
ATOM     62  O   UNL A   1      34.307  32.270  29.084  1.00  0.00    -0.744 OA
ENDBRANCH  56  59
ENDBRANCH  28  52
BRANCH  40  63
ATOM     63  C   UNL A   1      43.366  30.168  34.210  1.00  0.00     0.023 A 
ATOM     64  C   UNL A   1      43.814  30.590  35.479  1.00  0.00     0.012 A 
ATOM     65  C   UNL A   1      42.737  28.915  34.096  1.00  0.00     0.148 A 
ATOM     66  C   UNL A   1      43.676  29.767  36.598  1.00  0.00     0.002 A 
ATOM     67  C   UNL A   1      42.556  28.119  35.223  1.00  0.00     0.091 A 
ATOM     68  F   UNL A   1      42.304  28.523  32.887  1.00  0.00    -0.205 F 
ATOM     69  C   UNL A   1      43.036  28.536  36.473  1.00  0.00     0.022 A 
BRANCH  67  70
ATOM     70  S   UNL A   1      41.616  26.591  35.142  1.00  0.00     0.127 S 
ATOM     71  O   UNL A   1      42.626  25.627  34.713  1.00  0.00    -0.237 OA
ATOM     72  O   UNL A   1      41.157  26.421  36.522  1.00  0.00    -0.237 OA
ATOM     73  O   UNL A   1      40.538  26.849  34.193  1.00  0.00    -0.744 OA
ENDBRANCH  67  70
ENDBRANCH  40  63
ENDBRANCH  14  15
ENDBRANCH   7   9
ENDBRANCH   6   7
ENDBRANCH   5   6
ENDBRANCH   4   5
ENDBRANCH   3   4
ENDBRANCH   2   3
ENDBRANCH   1   2
BRANCH   1  74
ATOM     74  O   UNL A   1      45.454  20.575  25.338  1.00  0.00    -0.376 OA
BRANCH  74  75
ATOM     75  C   UNL A   1      45.169  21.674  24.486  1.00  0.00     0.202 C 
BRANCH  75  76
ATOM     76  C   UNL A   1      46.268  22.724  24.291  1.00  0.00     0.261 C 
BRANCH  76  77
ATOM     77  O   UNL A   1      45.825  24.079  24.481  1.00  0.00    -0.460 OA
BRANCH  77  78
ATOM     78  C   UNL A   1      45.229  24.339  25.671  1.00  0.00     0.338 C 
ATOM     79  O   UNL A   1      44.045  24.267  25.940  1.00  0.00    -0.246 OA
BRANCH  78  80
ATOM     80  C   UNL A   1      46.257  24.650  26.683  1.00  0.00     0.060 A 
ATOM     81  C   UNL A   1      45.860  24.811  28.018  1.00  0.00     0.018 A 
ATOM     82  C   UNL A   1      47.584  24.870  26.304  1.00  0.00     0.018 A 
ATOM     83  C   UNL A   1      46.781  25.233  28.977  1.00  0.00     0.029 A 
ATOM     84  C   UNL A   1      48.516  25.265  27.268  1.00  0.00     0.029 A 
ATOM     85  C   UNL A   1      48.102  25.475  28.595  1.00  0.00     0.066 A 
BRANCH  85  86
ATOM     86  N   UNL A   1      49.001  26.076  29.502  1.00  0.00    -0.220 N 
ATOM     87  C   UNL A   1      49.635  25.440  30.555  1.00  0.00     0.141 A 
ATOM     88  N   UNL A   1      49.080  27.408  29.657  1.00  0.00    -0.062 NA
ATOM     89  C   UNL A   1      49.996  26.448  31.418  1.00  0.00     0.093 A 
ATOM     90  N   UNL A   1      49.742  27.645  30.777  1.00  0.00    -0.134 NA
BRANCH  89  91
ATOM     91  C   UNL A   1      50.382  26.574  32.846  1.00  0.00     0.138 C 
BRANCH  91  92
ATOM     92  S   UNL A   1      49.453  26.291  34.335  1.00  0.00    -0.081 SA
BRANCH  92  93
ATOM     93  C   UNL A   1      48.596  24.789  34.388  1.00  0.00     0.176 A 
ATOM     94  N   UNL A   1      47.344  24.949  34.071  1.00  0.00    -0.223 NA
ATOM     95  N   UNL A   1      49.138  23.538  34.658  1.00  0.00    -0.255 N 
ATOM     96  C   UNL A   1      46.487  23.852  34.110  1.00  0.00     0.079 A 
ATOM     97  C   UNL A   1      48.237  22.649  35.269  1.00  0.00     0.266 A 
ATOM     98  C   UNL A   1      45.225  23.904  33.519  1.00  0.00     0.029 A 
ATOM     99  C   UNL A   1      46.842  22.720  34.823  1.00  0.00     0.066 A 
ATOM    100  O   UNL A   1      48.497  21.851  36.170  1.00  0.00    -0.268 OA
ATOM    101  C   UNL A   1      44.320  22.850  33.694  1.00  0.00     0.002 A 
ATOM    102  C   UNL A   1      45.935  21.682  35.053  1.00  0.00     0.016 A 
ATOM    103  C   UNL A   1      44.664  21.753  34.487  1.00  0.00     0.001 A 
BRANCH  95 104
ATOM    104  C   UNL A   1      50.516  23.101  34.455  1.00  0.00     0.051 A 
ATOM    105  C   UNL A   1      51.014  22.905  33.149  1.00  0.00     0.027 A 
ATOM    106  C   UNL A   1      51.448  22.894  35.480  1.00  0.00     0.027 A 
ATOM    107  C   UNL A   1      52.281  22.369  32.893  1.00  0.00     0.002 A 
ATOM    108  C   UNL A   1      52.709  22.324  35.239  1.00  0.00     0.002 A 
ATOM    109  C   UNL A   1      53.115  22.037  33.945  1.00  0.00     0.000 A 
ENDBRANCH  95 104
ENDBRANCH  92  93
ENDBRANCH  91  92
ENDBRANCH  89  91
ENDBRANCH  85  86
ENDBRANCH  78  80
ENDBRANCH  77  78
ENDBRANCH  76  77
ENDBRANCH  75  76
ENDBRANCH  74  75
ENDBRANCH   1  74
TORSDOF 25
ENDMDL
MODEL 3
REMARK VINA RESULT:      -8.2      3.865      6.043
REMARK SMILES O=C(OCCOCCOCCOC(=O)c1ccc(-n2cc(CSc3nc4ccccc4c(=O)n3-c3ccccc3)nn2)cc1)c1ccc(-c2c3nc(c(-c4cccc(S(=O)(=O)[O-])c4F)c4ccc([nH]4)c(-c4cccc(S(=O)(=O)[O-])c4F)c4nc(c(-c5cccc(S(=O)(=O)[O-])c5F)c5ccc2[nH]5)C=C4)C=C3)cc1
REMARK SMILES IDX 8 1 7 2 6 3 5 4 4 5 3 6 2 7 1 8 45 9 46 10 107 11 47 12
REMARK SMILES IDX 106 13 48 14 49 15 50 16 100 17 51 18 105 19 99 20 101 21
REMARK SMILES IDX 52 22 104 23 98 24 97 25 53 27 85 28 65 29 84 30 66 31 69 32
REMARK SMILES IDX 83 33 102 34 67 35 68 36 82 38 103 39 70 40 54 41 55 42
REMARK SMILES IDX 63 43 56 44 58 45 64 46 57 47 59 48 60 49 61 50 62 51 86 52
REMARK SMILES IDX 87 53 95 54 88 55 90 56 96 57 89 58 91 59 92 60 93 61 94 62
REMARK SMILES IDX 71 63 72 64 80 65 73 66 75 67 81 68 74 69 76 70 77 71 78 72
REMARK SMILES IDX 79 73 9 74 10 75 11 76 12 77 13 78 14 79 15 80 16 81 44 82
REMARK SMILES IDX 17 83 43 84 18 85 19 86 20 87 42 88 21 89 41 90 22 91 23 92
REMARK SMILES IDX 24 93 25 94 34 95 26 96 32 97 27 98 31 99 33 100 28 101
REMARK SMILES IDX 30 102 29 103 35 104 36 105 40 106 37 107 39 108 38 109
REMARK H PARENT 101 26 69 37
REMARK Flexibility Score: inf
ROOT
ATOM      1  C   UNL A   1      44.659  18.621  25.605  1.00  0.00     0.188 C 
ENDROOT
BRANCH   1   2
ATOM      2  C   UNL A   1      43.156  18.365  25.847  1.00  0.00     0.188 C 
BRANCH   2   3
ATOM      3  O   UNL A   1      42.712  18.715  27.150  1.00  0.00    -0.376 OA
BRANCH   3   4
ATOM      4  C   UNL A   1      42.114  19.994  27.265  1.00  0.00     0.202 C 
BRANCH   4   5
ATOM      5  C   UNL A   1      41.680  20.600  25.927  1.00  0.00     0.261 C 
BRANCH   5   6
ATOM      6  O   UNL A   1      41.101  21.918  25.986  1.00  0.00    -0.460 OA
BRANCH   6   7
ATOM      7  C   UNL A   1      40.485  22.621  26.954  1.00  0.00     0.338 C 
ATOM      8  O   UNL A   1      39.490  22.132  27.487  1.00  0.00    -0.246 OA
BRANCH   7   9
ATOM      9  C   UNL A   1      40.868  24.004  27.341  1.00  0.00     0.060 A 
ATOM     10  C   UNL A   1      41.814  24.337  28.312  1.00  0.00     0.016 A 
ATOM     11  C   UNL A   1      40.162  25.041  26.698  1.00  0.00     0.016 A 
ATOM     12  C   UNL A   1      42.017  25.661  28.672  1.00  0.00     0.010 A 
ATOM     13  C   UNL A   1      40.344  26.367  27.071  1.00  0.00     0.010 A 
ATOM     14  C   UNL A   1      41.238  26.661  28.097  1.00  0.00    -0.014 A 
BRANCH  14  15
ATOM     15  C   UNL A   1      41.342  27.995  28.669  1.00  0.00     0.031 A 
ATOM     16  C   UNL A   1      42.409  28.876  28.130  1.00  0.00     0.074 A 
ATOM     17  C   UNL A   1      40.462  28.418  29.599  1.00  0.00     0.049 A 
ATOM     18  N   UNL A   1      43.380  29.438  28.777  1.00  0.00    -0.248 NA
ATOM     19  C   UNL A   1      42.445  29.093  26.679  1.00  0.00     0.031 C 
ATOM     20  C   UNL A   1      39.227  27.737  30.003  1.00  0.00     0.029 A 
ATOM     21  N   UNL A   1      40.398  29.612  30.259  1.00  0.00    -0.354 N 
ATOM     22  C   UNL A   1      44.001  30.278  27.853  1.00  0.00     0.074 A 
ATOM     23  C   UNL A   1      43.503  29.895  26.558  1.00  0.00     0.031 C 
ATOM     24  C   UNL A   1      38.418  28.628  30.611  1.00  0.00     0.029 A 
ATOM     25  C   UNL A   1      39.123  29.889  30.741  1.00  0.00     0.049 A 
ATOM     26  H   UNL A   1      41.170  30.211  30.379  1.00  0.00     0.167 HD
ATOM     27  C   UNL A   1      44.665  31.399  28.249  1.00  0.00     0.034 A 
ATOM     28  C   UNL A   1      38.641  31.094  31.123  1.00  0.00     0.034 A 
ATOM     29  C   UNL A   1      45.050  31.336  29.638  1.00  0.00     0.049 A 
ATOM     30  C   UNL A   1      39.791  31.973  31.428  1.00  0.00     0.074 A 
ATOM     31  C   UNL A   1      45.790  30.476  30.425  1.00  0.00     0.029 A 
ATOM     32  N   UNL A   1      44.392  32.168  30.509  1.00  0.00    -0.354 N 
ATOM     33  N   UNL A   1      40.578  31.819  32.456  1.00  0.00    -0.248 NA
ATOM     34  C   UNL A   1      40.282  32.866  30.392  1.00  0.00     0.031 C 
ATOM     35  C   UNL A   1      45.213  30.562  31.726  1.00  0.00     0.029 A 
ATOM     36  C   UNL A   1      44.163  31.480  31.665  1.00  0.00     0.049 A 
ATOM     37  H   UNL A   1      44.130  33.100  30.330  1.00  0.00     0.167 HD
ATOM     38  C   UNL A   1      41.824  32.231  32.003  1.00  0.00     0.074 A 
ATOM     39  C   UNL A   1      41.544  33.007  30.800  1.00  0.00     0.031 C 
ATOM     40  C   UNL A   1      42.971  31.649  32.469  1.00  0.00     0.034 A 
BRANCH  27  41
ATOM     41  C   UNL A   1      44.600  32.737  27.520  1.00  0.00     0.023 A 
ATOM     42  C   UNL A   1      43.705  32.827  26.426  1.00  0.00     0.012 A 
ATOM     43  C   UNL A   1      45.578  33.754  27.623  1.00  0.00     0.148 A 
ATOM     44  C   UNL A   1      43.858  33.793  25.425  1.00  0.00     0.002 A 
ATOM     45  C   UNL A   1      45.682  34.754  26.661  1.00  0.00     0.091 A 
ATOM     46  F   UNL A   1      46.506  33.707  28.580  1.00  0.00    -0.205 F 
ATOM     47  C   UNL A   1      44.854  34.753  25.538  1.00  0.00     0.022 A 
BRANCH  45  48
ATOM     48  S   UNL A   1      46.933  36.041  26.778  1.00  0.00     0.127 S 
ATOM     49  O   UNL A   1      47.543  35.732  28.067  1.00  0.00    -0.237 OA
ATOM     50  O   UNL A   1      47.768  35.755  25.611  1.00  0.00    -0.237 OA
ATOM     51  O   UNL A   1      46.205  37.300  26.695  1.00  0.00    -0.744 OA
ENDBRANCH  45  48
ENDBRANCH  27  41
BRANCH  28  52
ATOM     52  C   UNL A   1      37.250  31.594  31.065  1.00  0.00     0.023 A 
ATOM     53  C   UNL A   1      36.584  31.939  32.256  1.00  0.00     0.012 A 
ATOM     54  C   UNL A   1      36.641  31.943  29.838  1.00  0.00     0.148 A 
ATOM     55  C   UNL A   1      35.363  32.623  32.226  1.00  0.00     0.002 A 
ATOM     56  C   UNL A   1      35.412  32.594  29.813  1.00  0.00     0.091 A 
ATOM     57  F   UNL A   1      37.305  31.723  28.695  1.00  0.00    -0.205 F 
ATOM     58  C   UNL A   1      34.775  32.948  31.007  1.00  0.00     0.022 A 
BRANCH  56  59
ATOM     59  S   UNL A   1      34.594  33.005  28.265  1.00  0.00     0.127 S 
ATOM     60  O   UNL A   1      34.311  31.683  27.703  1.00  0.00    -0.237 OA
ATOM     61  O   UNL A   1      33.419  33.739  28.723  1.00  0.00    -0.237 OA
ATOM     62  O   UNL A   1      35.570  33.774  27.502  1.00  0.00    -0.744 OA
ENDBRANCH  56  59
ENDBRANCH  28  52
BRANCH  40  63
ATOM     63  C   UNL A   1      42.905  30.847  33.743  1.00  0.00     0.023 A 
ATOM     64  C   UNL A   1      43.059  31.448  35.010  1.00  0.00     0.012 A 
ATOM     65  C   UNL A   1      42.521  29.496  33.677  1.00  0.00     0.148 A 
ATOM     66  C   UNL A   1      42.875  30.711  36.180  1.00  0.00     0.002 A 
ATOM     67  C   UNL A   1      42.290  28.777  34.846  1.00  0.00     0.091 A 
ATOM     68  F   UNL A   1      42.366  28.932  32.468  1.00  0.00    -0.205 F 
ATOM     69  C   UNL A   1      42.478  29.378  36.099  1.00  0.00     0.022 A 
BRANCH  67  70
ATOM     70  S   UNL A   1      41.643  27.103  34.796  1.00  0.00     0.127 S 
ATOM     71  O   UNL A   1      41.345  26.843  36.203  1.00  0.00    -0.237 OA
ATOM     72  O   UNL A   1      40.464  27.238  33.938  1.00  0.00    -0.237 OA
ATOM     73  O   UNL A   1      42.706  26.293  34.211  1.00  0.00    -0.744 OA
ENDBRANCH  67  70
ENDBRANCH  40  63
ENDBRANCH  14  15
ENDBRANCH   7   9
ENDBRANCH   6   7
ENDBRANCH   5   6
ENDBRANCH   4   5
ENDBRANCH   3   4
ENDBRANCH   2   3
ENDBRANCH   1   2
BRANCH   1  74
ATOM     74  O   UNL A   1      45.080  19.652  24.717  1.00  0.00    -0.376 OA
BRANCH  74  75
ATOM     75  C   UNL A   1      45.185  20.983  25.197  1.00  0.00     0.202 C 
BRANCH  75  76
ATOM     76  C   UNL A   1      46.102  21.943  24.429  1.00  0.00     0.261 C 
BRANCH  76  77
ATOM     77  O   UNL A   1      45.412  23.039  23.806  1.00  0.00    -0.460 OA
BRANCH  77  78
ATOM     78  C   UNL A   1      44.669  23.813  24.636  1.00  0.00     0.338 C 
ATOM     79  O   UNL A   1      43.541  23.601  25.037  1.00  0.00    -0.246 OA
BRANCH  78  80
ATOM     80  C   UNL A   1      45.473  24.964  25.092  1.00  0.00     0.060 A 
ATOM     81  C   UNL A   1      46.860  24.938  24.888  1.00  0.00     0.018 A 
ATOM     82  C   UNL A   1      44.876  26.014  25.794  1.00  0.00     0.018 A 
ATOM     83  C   UNL A   1      47.666  25.944  25.421  1.00  0.00     0.029 A 
ATOM     84  C   UNL A   1      45.678  27.040  26.305  1.00  0.00     0.029 A 
ATOM     85  C   UNL A   1      47.072  26.983  26.142  1.00  0.00     0.066 A 
BRANCH  85  86
ATOM     86  N   UNL A   1      47.878  27.906  26.843  1.00  0.00    -0.220 N 
ATOM     87  C   UNL A   1      47.461  29.124  27.349  1.00  0.00     0.141 A 
ATOM     88  N   UNL A   1      49.221  27.862  26.801  1.00  0.00    -0.062 NA
ATOM     89  C   UNL A   1      48.612  29.863  27.497  1.00  0.00     0.093 A 
ATOM     90  N   UNL A   1      49.677  29.014  27.261  1.00  0.00    -0.134 NA
BRANCH  89  91
ATOM     91  C   UNL A   1      48.976  31.295  27.646  1.00  0.00     0.138 C 
BRANCH  91  92
ATOM     92  S   UNL A   1      50.359  32.218  27.018  1.00  0.00    -0.081 SA
BRANCH  92  93
ATOM     93  C   UNL A   1      50.642  33.734  27.803  1.00  0.00     0.176 A 
ATOM     94  N   UNL A   1      50.704  34.708  26.941  1.00  0.00    -0.223 NA
ATOM     95  N   UNL A   1      50.731  33.951  29.174  1.00  0.00    -0.255 N 
ATOM     96  C   UNL A   1      50.979  35.997  27.391  1.00  0.00     0.079 A 
ATOM     97  C   UNL A   1      51.567  35.024  29.526  1.00  0.00     0.266 A 
ATOM     98  C   UNL A   1      50.779  37.103  26.565  1.00  0.00     0.029 A 
ATOM     99  C   UNL A   1      51.545  36.191  28.638  1.00  0.00     0.066 A 
ATOM    100  O   UNL A   1      52.345  35.059  30.480  1.00  0.00    -0.268 OA
ATOM    101  C   UNL A   1      51.198  38.374  26.976  1.00  0.00     0.002 A 
ATOM    102  C   UNL A   1      52.018  37.442  29.044  1.00  0.00     0.016 A 
ATOM    103  C   UNL A   1      51.846  38.539  28.203  1.00  0.00     0.001 A 
BRANCH  95 104
ATOM    104  C   UNL A   1      50.132  33.156  30.242  1.00  0.00     0.051 A 
ATOM    105  C   UNL A   1      50.819  32.041  30.768  1.00  0.00     0.027 A 
ATOM    106  C   UNL A   1      48.905  33.438  30.856  1.00  0.00     0.027 A 
ATOM    107  C   UNL A   1      50.247  31.168  31.701  1.00  0.00     0.002 A 
ATOM    108  C   UNL A   1      48.305  32.552  31.766  1.00  0.00     0.002 A 
ATOM    109  C   UNL A   1      48.966  31.403  32.169  1.00  0.00     0.000 A 
ENDBRANCH  95 104
ENDBRANCH  92  93
ENDBRANCH  91  92
ENDBRANCH  89  91
ENDBRANCH  85  86
ENDBRANCH  78  80
ENDBRANCH  77  78
ENDBRANCH  76  77
ENDBRANCH  75  76
ENDBRANCH  74  75
ENDBRANCH   1  74
TORSDOF 25
ENDMDL
