MODEL 1
REMARK VINA RESULT:      -9.3      0.000      0.000
REMARK SMILES C[C@H](CNC(=O)N1C[C@H]2CCCC[N@@H+]2C[C@@H]1C)C(=O)OCCOCCOCCOC(=O)c1ccc(-c2c3nc(c(-c4cccc(S(=O)(=O)[O-])c4F)c4ccc([nH]4)c(-c4cccc(S(=O)(=O)[O-])c4F)c4nc(c(-c5cccc(S(=O)(=O)[O-])c5F)c5ccc2[nH]5)C=C4)C=C3)cc1
REMARK SMILES IDX 24 1 23 2 22 3 21 4 20 5 18 6 19 7 2 8 1 9 3 10 4 11 5 12
REMARK SMILES IDX 6 14 7 15 8 16 16 17 9 18 15 19 17 20 10 21 14 22 11 23
REMARK SMILES IDX 13 24 12 26 25 27 26 28 27 29 28 30 29 31 30 32 31 33 32 34
REMARK SMILES IDX 33 35 94 36 34 37 93 38 35 39 36 40 37 41 87 42 38 43 92 44
REMARK SMILES IDX 86 45 88 46 39 47 91 48 85 49 84 50 40 52 72 53 52 54 71 55
REMARK SMILES IDX 53 56 56 57 70 58 89 59 54 60 55 61 69 63 90 64 57 65 41 66
REMARK SMILES IDX 42 67 50 68 43 69 45 70 51 71 44 72 46 73 47 74 48 75 49 76
REMARK SMILES IDX 73 77 74 78 82 79 75 80 77 81 83 82 76 83 78 84 79 85 80 86
REMARK SMILES IDX 81 87 58 88 59 89 67 90 60 91 62 92 68 93 61 94 63 95 64 96
REMARK SMILES IDX 65 97 66 98
REMARK H PARENT 4 13 14 25 88 51 56 62
REMARK Flexibility Score: inf
ROOT
ATOM      1  C   UNL A   1      40.243  21.645  26.171  1.00  0.00     0.188 C 
ENDROOT
BRANCH   1   2
ATOM      2  O   UNL A   1      39.710  22.954  26.348  1.00  0.00    -0.376 OA
BRANCH   2   3
ATOM      3  C   UNL A   1      38.290  23.068  26.435  1.00  0.00     0.202 C 
BRANCH   3   4
ATOM      4  C   UNL A   1      37.481  22.256  25.411  1.00  0.00     0.261 C 
BRANCH   4   5
ATOM      5  O   UNL A   1      36.065  22.541  25.433  1.00  0.00    -0.463 OA
BRANCH   5   6
ATOM      6  C   UNL A   1      35.270  21.615  24.830  1.00  0.00     0.310 C 
ATOM      7  O   UNL A   1      35.180  20.449  25.200  1.00  0.00    -0.252 OA
BRANCH   6   8
ATOM      8  C   UNL A   1      34.372  22.196  23.741  1.00  0.00     0.115 C 
ATOM      9  C   UNL A   1      35.101  23.323  23.011  1.00  0.00     0.022 C 
BRANCH   8  10
ATOM     10  C   UNL A   1      32.932  22.568  24.125  1.00  0.00     0.132 C 
BRANCH  10  11
ATOM     11  N   UNL A   1      32.602  22.490  25.540  1.00  0.00    -0.337 N 
ATOM     12  C   UNL A   1      32.196  23.461  26.407  1.00  0.00     0.318 C 
ATOM     13  H   UNL A   1      32.684  21.592  25.935  1.00  0.00     0.165 HD
ATOM     14  O   UNL A   1      32.164  23.203  27.609  1.00  0.00    -0.249 OA
BRANCH  12  15
ATOM     15  N   UNL A   1      31.925  24.706  25.891  1.00  0.00    -0.311 N 
ATOM     16  C   UNL A   1      30.525  25.129  25.774  1.00  0.00     0.186 C 
ATOM     17  C   UNL A   1      32.845  25.833  26.128  1.00  0.00     0.139 C 
ATOM     18  C   UNL A   1      30.366  26.121  24.610  1.00  0.00     0.203 C 
ATOM     19  C   UNL A   1      32.584  26.999  25.120  1.00  0.00     0.287 C 
ATOM     20  C   UNL A   1      34.324  25.441  25.984  1.00  0.00     0.037 C 
ATOM     21  C   UNL A   1      28.895  26.509  24.410  1.00  0.00     0.067 C 
ATOM     22  N   UNL A   1      31.174  27.344  24.834  1.00  0.00    -0.329 N 
ATOM     23  C   UNL A   1      28.749  27.417  23.190  1.00  0.00     0.012 C 
ATOM     24  C   UNL A   1      31.111  28.214  23.642  1.00  0.00     0.262 C 
ATOM     25  H   UNL A   1      30.789  27.838  25.639  1.00  0.00     0.348 HD
ATOM     26  C   UNL A   1      29.677  28.621  23.299  1.00  0.00     0.062 C 
ENDBRANCH  12  15
ENDBRANCH  10  11
ENDBRANCH   8  10
ENDBRANCH   6   8
ENDBRANCH   5   6
ENDBRANCH   4   5
ENDBRANCH   3   4
ENDBRANCH   2   3
ENDBRANCH   1   2
BRANCH   1  27
ATOM     27  C   UNL A   1      40.908  21.027  27.403  1.00  0.00     0.188 C 
BRANCH  27  28
ATOM     28  O   UNL A   1      42.079  20.269  27.118  1.00  0.00    -0.376 OA
BRANCH  28  29
ATOM     29  C   UNL A   1      41.963  19.250  26.121  1.00  0.00     0.202 C 
BRANCH  29  30
ATOM     30  C   UNL A   1      43.279  18.714  25.523  1.00  0.00     0.261 C 
BRANCH  30  31
ATOM     31  O   UNL A   1      43.769  19.440  24.379  1.00  0.00    -0.460 OA
BRANCH  31  32
ATOM     32  C   UNL A   1      45.059  19.846  24.400  1.00  0.00     0.338 C 
ATOM     33  O   UNL A   1      46.007  19.279  23.880  1.00  0.00    -0.246 OA
BRANCH  32  34
ATOM     34  C   UNL A   1      45.107  21.237  24.921  1.00  0.00     0.060 A 
ATOM     35  C   UNL A   1      44.945  22.288  24.005  1.00  0.00     0.016 A 
ATOM     36  C   UNL A   1      45.232  21.517  26.286  1.00  0.00     0.016 A 
ATOM     37  C   UNL A   1      44.962  23.614  24.442  1.00  0.00     0.010 A 
ATOM     38  C   UNL A   1      45.257  22.846  26.722  1.00  0.00     0.010 A 
ATOM     39  C   UNL A   1      45.162  23.902  25.798  1.00  0.00    -0.014 A 
BRANCH  39  40
ATOM     40  C   UNL A   1      45.490  25.290  26.214  1.00  0.00     0.031 A 
ATOM     41  C   UNL A   1      44.362  26.178  26.670  1.00  0.00     0.074 A 
ATOM     42  C   UNL A   1      46.751  25.760  26.209  1.00  0.00     0.049 A 
ATOM     43  N   UNL A   1      44.396  27.420  27.078  1.00  0.00    -0.248 NA
ATOM     44  C   UNL A   1      43.014  25.583  26.665  1.00  0.00     0.031 C 
ATOM     45  C   UNL A   1      47.936  25.010  25.798  1.00  0.00     0.029 A 
ATOM     46  N   UNL A   1      47.238  27.000  26.545  1.00  0.00    -0.354 N 
ATOM     47  C   UNL A   1      43.078  27.759  27.359  1.00  0.00     0.074 A 
ATOM     48  C   UNL A   1      42.266  26.601  27.057  1.00  0.00     0.031 C 
ATOM     49  C   UNL A   1      49.011  25.816  25.881  1.00  0.00     0.029 A 
ATOM     50  C   UNL A   1      48.589  27.141  26.333  1.00  0.00     0.049 A 
ATOM     51  H   UNL A   1      46.670  27.721  26.905  1.00  0.00     0.167 HD
ATOM     52  C   UNL A   1      42.583  28.922  27.846  1.00  0.00     0.034 A 
ATOM     53  C   UNL A   1      49.387  28.221  26.470  1.00  0.00     0.034 A 
ATOM     54  C   UNL A   1      43.381  30.075  28.156  1.00  0.00     0.049 A 
ATOM     55  C   UNL A   1      48.804  29.520  26.974  1.00  0.00     0.074 A 
ATOM     56  C   UNL A   1      42.969  31.288  28.681  1.00  0.00     0.029 A 
ATOM     57  N   UNL A   1      44.749  30.168  27.959  1.00  0.00    -0.354 N 
ATOM     58  N   UNL A   1      47.576  29.786  27.351  1.00  0.00    -0.248 NA
ATOM     59  C   UNL A   1      49.727  30.659  27.104  1.00  0.00     0.031 C 
ATOM     60  C   UNL A   1      44.086  32.124  28.777  1.00  0.00     0.029 A 
ATOM     61  C   UNL A   1      45.198  31.420  28.343  1.00  0.00     0.049 A 
ATOM     62  H   UNL A   1      45.318  29.450  27.599  1.00  0.00     0.167 HD
ATOM     63  C   UNL A   1      47.590  31.105  27.798  1.00  0.00     0.074 A 
ATOM     64  C   UNL A   1      48.952  31.577  27.665  1.00  0.00     0.031 C 
ATOM     65  C   UNL A   1      46.566  31.862  28.265  1.00  0.00     0.034 A 
BRANCH  52  66
ATOM     66  C   UNL A   1      41.101  28.990  28.099  1.00  0.00     0.023 A 
ATOM     67  C   UNL A   1      40.222  29.218  27.021  1.00  0.00     0.012 A 
ATOM     68  C   UNL A   1      40.578  28.788  29.391  1.00  0.00     0.148 A 
ATOM     69  C   UNL A   1      38.845  29.273  27.229  1.00  0.00     0.002 A 
ATOM     70  C   UNL A   1      39.202  28.800  29.582  1.00  0.00     0.091 A 
ATOM     71  F   UNL A   1      41.434  28.601  30.405  1.00  0.00    -0.205 F 
ATOM     72  C   UNL A   1      38.335  29.054  28.507  1.00  0.00     0.022 A 
BRANCH  70  73
ATOM     73  S   UNL A   1      38.445  28.455  31.173  1.00  0.00     0.127 S 
ATOM     74  O   UNL A   1      38.646  27.012  31.289  1.00  0.00    -0.237 OA
ATOM     75  O   UNL A   1      39.261  29.261  32.082  1.00  0.00    -0.237 OA
ATOM     76  O   UNL A   1      37.058  28.886  31.059  1.00  0.00    -0.744 OA
ENDBRANCH  70  73
ENDBRANCH  52  66
BRANCH  53  77
ATOM     77  C   UNL A   1      50.842  28.128  26.152  1.00  0.00     0.023 A 
ATOM     78  C   UNL A   1      51.775  27.975  27.196  1.00  0.00     0.012 A 
ATOM     79  C   UNL A   1      51.305  28.214  24.825  1.00  0.00     0.148 A 
ATOM     80  C   UNL A   1      53.145  27.945  26.928  1.00  0.00     0.002 A 
ATOM     81  C   UNL A   1      52.667  28.130  24.560  1.00  0.00     0.091 A 
ATOM     82  F   UNL A   1      50.403  28.384  23.847  1.00  0.00    -0.205 F 
ATOM     83  C   UNL A   1      53.590  28.014  25.610  1.00  0.00     0.022 A 
BRANCH  81  84
ATOM     84  S   UNL A   1      53.321  28.091  22.888  1.00  0.00     0.127 S 
ATOM     85  O   UNL A   1      54.707  27.690  23.119  1.00  0.00    -0.237 OA
ATOM     86  O   UNL A   1      52.481  27.070  22.261  1.00  0.00    -0.237 OA
ATOM     87  O   UNL A   1      53.129  29.434  22.361  1.00  0.00    -0.744 OA
ENDBRANCH  81  84
ENDBRANCH  53  77
BRANCH  65  88
ATOM     88  C   UNL A   1      46.872  33.268  28.718  1.00  0.00     0.023 A 
ATOM     89  C   UNL A   1      47.375  33.497  30.013  1.00  0.00     0.012 A 
ATOM     90  C   UNL A   1      46.735  34.354  27.830  1.00  0.00     0.148 A 
ATOM     91  C   UNL A   1      47.704  34.788  30.429  1.00  0.00     0.002 A 
ATOM     92  C   UNL A   1      47.111  35.629  28.233  1.00  0.00     0.091 A 
ATOM     93  F   UNL A   1      46.238  34.120  26.606  1.00  0.00    -0.205 F 
ATOM     94  C   UNL A   1      47.584  35.851  29.537  1.00  0.00     0.022 A 
BRANCH  92  95
ATOM     95  S   UNL A   1      47.083  37.041  27.121  1.00  0.00     0.127 S 
ATOM     96  O   UNL A   1      45.647  37.266  26.962  1.00  0.00    -0.237 OA
ATOM     97  O   UNL A   1      47.778  38.065  27.899  1.00  0.00    -0.237 OA
ATOM     98  O   UNL A   1      47.786  36.615  25.917  1.00  0.00    -0.744 OA
ENDBRANCH  92  95
ENDBRANCH  65  88
ENDBRANCH  39  40
ENDBRANCH  32  34
ENDBRANCH  31  32
ENDBRANCH  30  31
ENDBRANCH  29  30
ENDBRANCH  28  29
ENDBRANCH  27  28
ENDBRANCH   1  27
TORSDOF 23
ENDMDL
MODEL 2
REMARK VINA RESULT:      -9.1      2.971      4.234
REMARK SMILES C[C@H](CNC(=O)N1C[C@H]2CCCC[N@@H+]2C[C@@H]1C)C(=O)OCCOCCOCCOC(=O)c1ccc(-c2c3nc(c(-c4cccc(S(=O)(=O)[O-])c4F)c4ccc([nH]4)c(-c4cccc(S(=O)(=O)[O-])c4F)c4nc(c(-c5cccc(S(=O)(=O)[O-])c5F)c5ccc2[nH]5)C=C4)C=C3)cc1
REMARK SMILES IDX 24 1 23 2 22 3 21 4 20 5 18 6 19 7 2 8 1 9 3 10 4 11 5 12
REMARK SMILES IDX 6 14 7 15 8 16 16 17 9 18 15 19 17 20 10 21 14 22 11 23
REMARK SMILES IDX 13 24 12 26 25 27 26 28 27 29 28 30 29 31 30 32 31 33 32 34
REMARK SMILES IDX 33 35 94 36 34 37 93 38 35 39 36 40 37 41 87 42 38 43 92 44
REMARK SMILES IDX 86 45 88 46 39 47 91 48 85 49 84 50 40 52 72 53 52 54 71 55
REMARK SMILES IDX 53 56 56 57 70 58 89 59 54 60 55 61 69 63 90 64 57 65 41 66
REMARK SMILES IDX 42 67 50 68 43 69 45 70 51 71 44 72 46 73 47 74 48 75 49 76
REMARK SMILES IDX 73 77 74 78 82 79 75 80 77 81 83 82 76 83 78 84 79 85 80 86
REMARK SMILES IDX 81 87 58 88 59 89 67 90 60 91 62 92 68 93 61 94 63 95 64 96
REMARK SMILES IDX 65 97 66 98
REMARK H PARENT 4 13 14 25 88 51 56 62
REMARK Flexibility Score: inf
ROOT
ATOM      1  C   UNL A   1      38.527  23.113  26.110  1.00  0.00     0.188 C 
ENDROOT
BRANCH   1   2
ATOM      2  O   UNL A   1      37.192  22.952  25.641  1.00  0.00    -0.376 OA
BRANCH   2   3
ATOM      3  C   UNL A   1      36.648  21.633  25.676  1.00  0.00     0.202 C 
BRANCH   3   4
ATOM      4  C   UNL A   1      35.386  21.398  24.831  1.00  0.00     0.261 C 
BRANCH   4   5
ATOM      5  O   UNL A   1      34.428  22.477  24.907  1.00  0.00    -0.463 OA
BRANCH   5   6
ATOM      6  C   UNL A   1      34.201  23.145  23.743  1.00  0.00     0.310 C 
ATOM      7  O   UNL A   1      35.002  23.923  23.235  1.00  0.00    -0.252 OA
BRANCH   6   8
ATOM      8  C   UNL A   1      32.916  22.722  23.036  1.00  0.00     0.115 C 
ATOM      9  C   UNL A   1      33.046  22.959  21.533  1.00  0.00     0.022 C 
BRANCH   8  10
ATOM     10  C   UNL A   1      31.585  23.233  23.608  1.00  0.00     0.132 C 
BRANCH  10  11
ATOM     11  N   UNL A   1      31.444  23.184  25.055  1.00  0.00    -0.337 N 
ATOM     12  C   UNL A   1      31.338  24.193  25.966  1.00  0.00     0.318 C 
ATOM     13  H   UNL A   1      31.419  22.277  25.438  1.00  0.00     0.165 HD
ATOM     14  O   UNL A   1      31.427  23.919  27.162  1.00  0.00    -0.249 OA
BRANCH  12  15
ATOM     15  N   UNL A   1      31.223  25.476  25.489  1.00  0.00    -0.311 N 
ATOM     16  C   UNL A   1      29.882  26.010  25.224  1.00  0.00     0.186 C 
ATOM     17  C   UNL A   1      32.184  26.517  25.897  1.00  0.00     0.139 C 
ATOM     18  C   UNL A   1      29.941  27.062  24.105  1.00  0.00     0.203 C 
ATOM     19  C   UNL A   1      32.134  27.744  24.928  1.00  0.00     0.287 C 
ATOM     20  C   UNL A   1      33.638  26.020  25.913  1.00  0.00     0.037 C 
ATOM     21  C   UNL A   1      28.538  27.571  23.748  1.00  0.00     0.067 C 
ATOM     22  N   UNL A   1      30.799  28.209  24.491  1.00  0.00    -0.329 N 
ATOM     23  C   UNL A   1      28.612  28.540  22.570  1.00  0.00     0.012 C 
ATOM     24  C   UNL A   1      30.948  29.133  23.349  1.00  0.00     0.262 C 
ATOM     25  H   UNL A   1      30.352  28.695  25.268  1.00  0.00     0.348 HD
ATOM     26  C   UNL A   1      29.602  29.664  22.855  1.00  0.00     0.062 C 
ENDBRANCH  12  15
ENDBRANCH  10  11
ENDBRANCH   8  10
ENDBRANCH   6   8
ENDBRANCH   5   6
ENDBRANCH   4   5
ENDBRANCH   3   4
ENDBRANCH   2   3
ENDBRANCH   1   2
BRANCH   1  27
ATOM     27  C   UNL A   1      39.280  21.819  26.427  1.00  0.00     0.188 C 
BRANCH  27  28
ATOM     28  O   UNL A   1      40.698  21.947  26.413  1.00  0.00    -0.376 OA
BRANCH  28  29
ATOM     29  C   UNL A   1      41.451  20.766  26.126  1.00  0.00     0.202 C 
BRANCH  29  30
ATOM     30  C   UNL A   1      42.941  20.961  25.781  1.00  0.00     0.261 C 
BRANCH  30  31
ATOM     31  O   UNL A   1      43.500  22.226  26.187  1.00  0.00    -0.460 OA
BRANCH  31  32
ATOM     32  C   UNL A   1      43.511  23.229  25.279  1.00  0.00     0.338 C 
ATOM     33  O   UNL A   1      43.393  23.112  24.070  1.00  0.00    -0.246 OA
BRANCH  32  34
ATOM     34  C   UNL A   1      43.413  24.522  26.004  1.00  0.00     0.060 A 
ATOM     35  C   UNL A   1      43.267  25.692  25.243  1.00  0.00     0.016 A 
ATOM     36  C   UNL A   1      43.389  24.593  27.401  1.00  0.00     0.016 A 
ATOM     37  C   UNL A   1      43.151  26.933  25.873  1.00  0.00     0.010 A 
ATOM     38  C   UNL A   1      43.282  25.838  28.031  1.00  0.00     0.010 A 
ATOM     39  C   UNL A   1      43.202  27.017  27.270  1.00  0.00    -0.014 A 
BRANCH  39  40
ATOM     40  C   UNL A   1      43.393  28.339  27.920  1.00  0.00     0.031 A 
ATOM     41  C   UNL A   1      42.191  29.008  28.533  1.00  0.00     0.074 A 
ATOM     42  C   UNL A   1      44.597  28.936  27.988  1.00  0.00     0.049 A 
ATOM     43  N   UNL A   1      42.104  30.157  29.151  1.00  0.00    -0.248 NA
ATOM     44  C   UNL A   1      40.913  28.281  28.433  1.00  0.00     0.031 C 
ATOM     45  C   UNL A   1      45.843  28.402  27.443  1.00  0.00     0.029 A 
ATOM     46  N   UNL A   1      44.959  30.145  28.533  1.00  0.00    -0.354 N 
ATOM     47  C   UNL A   1      40.766  30.298  29.497  1.00  0.00     0.074 A 
ATOM     48  C   UNL A   1      40.072  29.129  29.003  1.00  0.00     0.031 C 
ATOM     49  C   UNL A   1      46.829  29.293  27.659  1.00  0.00     0.029 A 
ATOM     50  C   UNL A   1      46.282  30.466  28.338  1.00  0.00     0.049 A 
ATOM     51  H   UNL A   1      44.329  30.727  29.017  1.00  0.00     0.167 HD
ATOM     52  C   UNL A   1      40.164  31.298  30.184  1.00  0.00     0.034 A 
ATOM     53  C   UNL A   1      46.966  31.586  28.657  1.00  0.00     0.034 A 
ATOM     54  C   UNL A   1      40.844  32.460  30.685  1.00  0.00     0.049 A 
ATOM     55  C   UNL A   1      46.262  32.707  29.384  1.00  0.00     0.074 A 
ATOM     56  C   UNL A   1      40.321  33.511  31.417  1.00  0.00     0.029 A 
ATOM     57  N   UNL A   1      42.189  32.732  30.497  1.00  0.00    -0.354 N 
ATOM     58  N   UNL A   1      45.024  32.770  29.811  1.00  0.00    -0.248 NA
ATOM     59  C   UNL A   1      47.064  33.899  29.705  1.00  0.00     0.031 C 
ATOM     60  C   UNL A   1      41.346  34.434  31.650  1.00  0.00     0.029 A 
ATOM     61  C   UNL A   1      42.514  33.940  31.092  1.00  0.00     0.049 A 
ATOM     62  H   UNL A   1      42.821  32.153  30.013  1.00  0.00     0.167 HD
ATOM     63  C   UNL A   1      44.911  33.984  30.483  1.00  0.00     0.074 A 
ATOM     64  C   UNL A   1      46.212  34.617  30.424  1.00  0.00     0.031 C 
ATOM     65  C   UNL A   1      43.825  34.534  31.082  1.00  0.00     0.034 A 
BRANCH  52  66
ATOM     66  C   UNL A   1      38.690  31.161  30.456  1.00  0.00     0.023 A 
ATOM     67  C   UNL A   1      38.253  30.337  31.512  1.00  0.00     0.012 A 
ATOM     68  C   UNL A   1      37.745  31.878  29.697  1.00  0.00     0.148 A 
ATOM     69  C   UNL A   1      36.894  30.204  31.791  1.00  0.00     0.002 A 
ATOM     70  C   UNL A   1      36.396  31.775  30.011  1.00  0.00     0.091 A 
ATOM     71  F   UNL A   1      38.182  32.634  28.681  1.00  0.00    -0.205 F 
ATOM     72  C   UNL A   1      35.967  30.930  31.048  1.00  0.00     0.022 A 
BRANCH  70  73
ATOM     73  S   UNL A   1      35.131  32.727  29.162  1.00  0.00     0.127 S 
ATOM     74  O   UNL A   1      34.061  32.749  30.158  1.00  0.00    -0.237 OA
ATOM     75  O   UNL A   1      35.800  34.011  28.956  1.00  0.00    -0.237 OA
ATOM     76  O   UNL A   1      34.831  31.994  27.939  1.00  0.00    -0.744 OA
ENDBRANCH  70  73
ENDBRANCH  52  66
BRANCH  53  77
ATOM     77  C   UNL A   1      48.413  31.707  28.317  1.00  0.00     0.023 A 
ATOM     78  C   UNL A   1      49.371  31.022  29.091  1.00  0.00     0.012 A 
ATOM     79  C   UNL A   1      48.846  32.514  27.248  1.00  0.00     0.148 A 
ATOM     80  C   UNL A   1      50.735  31.168  28.829  1.00  0.00     0.002 A 
ATOM     81  C   UNL A   1      50.203  32.612  26.958  1.00  0.00     0.091 A 
ATOM     82  F   UNL A   1      47.922  33.177  26.538  1.00  0.00    -0.205 F 
ATOM     83  C   UNL A   1      51.150  31.955  27.758  1.00  0.00     0.022 A 
BRANCH  81  84
ATOM     84  S   UNL A   1      50.819  33.507  25.528  1.00  0.00     0.127 S 
ATOM     85  O   UNL A   1      51.902  34.294  26.113  1.00  0.00    -0.237 OA
ATOM     86  O   UNL A   1      51.252  32.416  24.655  1.00  0.00    -0.237 OA
ATOM     87  O   UNL A   1      49.684  34.267  25.024  1.00  0.00    -0.744 OA
ENDBRANCH  81  84
ENDBRANCH  53  77
BRANCH  65  88
ATOM     88  C   UNL A   1      43.994  35.865  31.772  1.00  0.00     0.023 A 
ATOM     89  C   UNL A   1      44.304  35.913  33.145  1.00  0.00     0.012 A 
ATOM     90  C   UNL A   1      43.922  37.067  31.039  1.00  0.00     0.148 A 
ATOM     91  C   UNL A   1      44.506  37.136  33.785  1.00  0.00     0.002 A 
ATOM     92  C   UNL A   1      44.173  38.279  31.672  1.00  0.00     0.091 A 
ATOM     93  F   UNL A   1      43.609  37.004  29.736  1.00  0.00    -0.205 F 
ATOM     94  C   UNL A   1      44.453  38.316  33.047  1.00  0.00     0.022 A 
BRANCH  92  95
ATOM     95  S   UNL A   1      44.223  39.839  30.782  1.00  0.00     0.127 S 
ATOM     96  O   UNL A   1      44.236  40.806  31.878  1.00  0.00    -0.237 OA
ATOM     97  O   UNL A   1      45.481  39.738  30.043  1.00  0.00    -0.237 OA
ATOM     98  O   UNL A   1      43.030  39.860  29.945  1.00  0.00    -0.744 OA
ENDBRANCH  92  95
ENDBRANCH  65  88
ENDBRANCH  39  40
ENDBRANCH  32  34
ENDBRANCH  31  32
ENDBRANCH  30  31
ENDBRANCH  29  30
ENDBRANCH  28  29
ENDBRANCH  27  28
ENDBRANCH   1  27
TORSDOF 23
ENDMDL
MODEL 3
REMARK VINA RESULT:      -8.9      2.524      8.053
REMARK SMILES C[C@H](CNC(=O)N1C[C@H]2CCCC[N@@H+]2C[C@@H]1C)C(=O)OCCOCCOCCOC(=O)c1ccc(-c2c3nc(c(-c4cccc(S(=O)(=O)[O-])c4F)c4ccc([nH]4)c(-c4cccc(S(=O)(=O)[O-])c4F)c4nc(c(-c5cccc(S(=O)(=O)[O-])c5F)c5ccc2[nH]5)C=C4)C=C3)cc1
REMARK SMILES IDX 24 1 23 2 22 3 21 4 20 5 18 6 19 7 2 8 1 9 3 10 4 11 5 12
REMARK SMILES IDX 6 14 7 15 8 16 16 17 9 18 15 19 17 20 10 21 14 22 11 23
REMARK SMILES IDX 13 24 12 26 25 27 26 28 27 29 28 30 29 31 30 32 31 33 32 34
REMARK SMILES IDX 33 35 94 36 34 37 93 38 35 39 36 40 37 41 87 42 38 43 92 44
REMARK SMILES IDX 86 45 88 46 39 47 91 48 85 49 84 50 40 52 72 53 52 54 71 55
REMARK SMILES IDX 53 56 56 57 70 58 89 59 54 60 55 61 69 63 90 64 57 65 41 66
REMARK SMILES IDX 42 67 50 68 43 69 45 70 51 71 44 72 46 73 47 74 48 75 49 76
REMARK SMILES IDX 73 77 74 78 82 79 75 80 77 81 83 82 76 83 78 84 79 85 80 86
REMARK SMILES IDX 81 87 58 88 59 89 67 90 60 91 62 92 68 93 61 94 63 95 64 96
REMARK SMILES IDX 65 97 66 98
REMARK H PARENT 4 13 14 25 88 51 56 62
REMARK Flexibility Score: inf
ROOT
ATOM      1  C   UNL A   1      37.491  23.286  25.854  1.00  0.00     0.188 C 
ENDROOT
BRANCH   1   2
ATOM      2  O   UNL A   1      36.553  23.902  24.976  1.00  0.00    -0.376 OA
BRANCH   2   3
ATOM      3  C   UNL A   1      36.236  23.202  23.773  1.00  0.00     0.202 C 
BRANCH   3   4
ATOM      4  C   UNL A   1      34.741  22.970  23.499  1.00  0.00     0.261 C 
BRANCH   4   5
ATOM      5  O   UNL A   1      33.913  23.072  24.677  1.00  0.00    -0.463 OA
BRANCH   5   6
ATOM      6  C   UNL A   1      32.570  23.028  24.458  1.00  0.00     0.310 C 
ATOM      7  O   UNL A   1      32.015  22.156  23.798  1.00  0.00    -0.252 OA
BRANCH   6   8
ATOM      8  C   UNL A   1      31.788  24.081  25.239  1.00  0.00     0.115 C 
ATOM      9  C   UNL A   1      31.275  23.484  26.548  1.00  0.00     0.022 C 
BRANCH   8  10
ATOM     10  C   UNL A   1      30.712  24.876  24.485  1.00  0.00     0.132 C 
BRANCH  10  11
ATOM     11  N   UNL A   1      30.998  25.188  23.092  1.00  0.00    -0.337 N 
ATOM     12  C   UNL A   1      31.307  26.377  22.499  1.00  0.00     0.318 C 
ATOM     13  H   UNL A   1      30.965  24.418  22.481  1.00  0.00     0.165 HD
ATOM     14  O   UNL A   1      31.317  26.438  21.271  1.00  0.00    -0.249 OA
BRANCH  12  15
ATOM     15  N   UNL A   1      31.510  27.464  23.314  1.00  0.00    -0.311 N 
ATOM     16  C   UNL A   1      32.861  27.719  23.825  1.00  0.00     0.186 C 
ATOM     17  C   UNL A   1      30.727  28.699  23.125  1.00  0.00     0.139 C 
ATOM     18  C   UNL A   1      32.790  28.445  25.178  1.00  0.00     0.203 C 
ATOM     19  C   UNL A   1      30.800  29.615  24.391  1.00  0.00     0.287 C 
ATOM     20  C   UNL A   1      29.238  28.431  22.854  1.00  0.00     0.037 C 
ATOM     21  C   UNL A   1      34.190  28.643  25.775  1.00  0.00     0.067 C 
ATOM     22  N   UNL A   1      32.119  29.760  25.047  1.00  0.00    -0.329 N 
ATOM     23  C   UNL A   1      34.089  29.276  27.161  1.00  0.00     0.012 C 
ATOM     24  C   UNL A   1      31.941  30.370  26.380  1.00  0.00     0.262 C 
ATOM     25  H   UNL A   1      32.706  30.363  24.470  1.00  0.00     0.348 HD
ATOM     26  C   UNL A   1      33.272  30.563  27.109  1.00  0.00     0.062 C 
ENDBRANCH  12  15
ENDBRANCH  10  11
ENDBRANCH   8  10
ENDBRANCH   6   8
ENDBRANCH   5   6
ENDBRANCH   4   5
ENDBRANCH   3   4
ENDBRANCH   2   3
ENDBRANCH   1   2
BRANCH   1  27
ATOM     27  C   UNL A   1      37.721  21.789  25.634  1.00  0.00     0.188 C 
BRANCH  27  28
ATOM     28  O   UNL A   1      39.010  21.331  26.030  1.00  0.00    -0.376 OA
BRANCH  28  29
ATOM     29  C   UNL A   1      39.525  20.183  25.350  1.00  0.00     0.202 C 
BRANCH  29  30
ATOM     30  C   UNL A   1      40.310  19.167  26.204  1.00  0.00     0.261 C 
BRANCH  30  31
ATOM     31  O   UNL A   1      41.427  19.716  26.931  1.00  0.00    -0.460 OA
BRANCH  31  32
ATOM     32  C   UNL A   1      42.433  20.267  26.213  1.00  0.00     0.338 C 
ATOM     33  O   UNL A   1      42.999  19.765  25.255  1.00  0.00    -0.246 OA
BRANCH  32  34
ATOM     34  C   UNL A   1      42.560  21.696  26.600  1.00  0.00     0.060 A 
ATOM     35  C   UNL A   1      42.393  22.664  25.598  1.00  0.00     0.016 A 
ATOM     36  C   UNL A   1      42.765  22.094  27.925  1.00  0.00     0.016 A 
ATOM     37  C   UNL A   1      42.482  24.023  25.908  1.00  0.00     0.010 A 
ATOM     38  C   UNL A   1      42.862  23.455  28.234  1.00  0.00     0.010 A 
ATOM     39  C   UNL A   1      42.761  24.425  27.221  1.00  0.00    -0.014 A 
BRANCH  39  40
ATOM     40  C   UNL A   1      43.163  25.829  27.490  1.00  0.00     0.031 A 
ATOM     41  C   UNL A   1      44.590  26.223  27.212  1.00  0.00     0.074 A 
ATOM     42  C   UNL A   1      42.294  26.747  27.952  1.00  0.00     0.049 A 
ATOM     43  N   UNL A   1      45.177  27.381  27.367  1.00  0.00    -0.248 NA
ATOM     44  C   UNL A   1      45.473  25.166  26.691  1.00  0.00     0.031 C 
ATOM     45  C   UNL A   1      40.886  26.506  28.258  1.00  0.00     0.029 A 
ATOM     46  N   UNL A   1      42.484  28.072  28.264  1.00  0.00    -0.354 N 
ATOM     47  C   UNL A   1      46.498  27.188  26.980  1.00  0.00     0.074 A 
ATOM     48  C   UNL A   1      46.632  25.799  26.603  1.00  0.00     0.031 C 
ATOM     49  C   UNL A   1      40.345  27.641  28.740  1.00  0.00     0.029 A 
ATOM     50  C   UNL A   1      41.371  28.682  28.794  1.00  0.00     0.049 A 
ATOM     51  H   UNL A   1      43.338  28.541  28.121  1.00  0.00     0.167 HD
ATOM     52  C   UNL A   1      47.508  28.088  26.920  1.00  0.00     0.034 A 
ATOM     53  C   UNL A   1      41.207  29.929  29.282  1.00  0.00     0.034 A 
ATOM     54  C   UNL A   1      47.384  29.472  27.285  1.00  0.00     0.049 A 
ATOM     55  C   UNL A   1      42.362  30.902  29.245  1.00  0.00     0.074 A 
ATOM     56  C   UNL A   1      48.347  30.463  27.229  1.00  0.00     0.029 A 
ATOM     57  N   UNL A   1      46.233  30.058  27.785  1.00  0.00    -0.354 N 
ATOM     58  N   UNL A   1      43.570  30.737  28.761  1.00  0.00    -0.248 NA
ATOM     59  C   UNL A   1      42.117  32.247  29.790  1.00  0.00     0.031 C 
ATOM     60  C   UNL A   1      47.785  31.646  27.721  1.00  0.00     0.029 A 
ATOM     61  C   UNL A   1      46.462  31.397  28.051  1.00  0.00     0.049 A 
ATOM     62  H   UNL A   1      45.378  29.592  27.929  1.00  0.00     0.167 HD
ATOM     63  C   UNL A   1      44.212  31.964  28.908  1.00  0.00     0.074 A 
ATOM     64  C   UNL A   1      43.254  32.869  29.506  1.00  0.00     0.031 C 
ATOM     65  C   UNL A   1      45.485  32.307  28.588  1.00  0.00     0.034 A 
BRANCH  52  66
ATOM     66  C   UNL A   1      48.838  27.601  26.412  1.00  0.00     0.023 A 
ATOM     67  C   UNL A   1      49.054  27.491  25.024  1.00  0.00     0.012 A 
ATOM     68  C   UNL A   1      49.885  27.293  27.304  1.00  0.00     0.148 A 
ATOM     69  C   UNL A   1      50.282  27.053  24.530  1.00  0.00     0.002 A 
ATOM     70  C   UNL A   1      51.119  26.902  26.802  1.00  0.00     0.091 A 
ATOM     71  F   UNL A   1      49.648  27.379  28.620  1.00  0.00    -0.205 F 
ATOM     72  C   UNL A   1      51.316  26.769  25.417  1.00  0.00     0.022 A 
BRANCH  70  73
ATOM     73  S   UNL A   1      52.536  26.585  27.859  1.00  0.00     0.127 S 
ATOM     74  O   UNL A   1      52.971  27.943  28.183  1.00  0.00    -0.237 OA
ATOM     75  O   UNL A   1      51.931  25.856  28.973  1.00  0.00    -0.237 OA
ATOM     76  O   UNL A   1      53.469  25.805  27.057  1.00  0.00    -0.744 OA
ENDBRANCH  70  73
ENDBRANCH  52  66
BRANCH  53  77
ATOM     77  C   UNL A   1      39.887  30.356  29.831  1.00  0.00     0.023 A 
ATOM     78  C   UNL A   1      38.846  30.708  28.949  1.00  0.00     0.012 A 
ATOM     79  C   UNL A   1      39.666  30.437  31.220  1.00  0.00     0.148 A 
ATOM     80  C   UNL A   1      37.622  31.167  29.441  1.00  0.00     0.002 A 
ATOM     81  C   UNL A   1      38.428  30.843  31.702  1.00  0.00     0.091 A 
ATOM     82  F   UNL A   1      40.677  30.121  32.042  1.00  0.00    -0.205 F 
ATOM     83  C   UNL A   1      37.410  31.226  30.815  1.00  0.00     0.022 A 
BRANCH  81  84
ATOM     84  S   UNL A   1      38.028  30.836  33.453  1.00  0.00     0.127 S 
ATOM     85  O   UNL A   1      38.231  29.431  33.799  1.00  0.00    -0.237 OA
ATOM     86  O   UNL A   1      39.029  31.755  33.994  1.00  0.00    -0.237 OA
ATOM     87  O   UNL A   1      36.657  31.319  33.543  1.00  0.00    -0.744 OA
ENDBRANCH  81  84
ENDBRANCH  53  77
BRANCH  65  88
ATOM     88  C   UNL A   1      45.916  33.733  28.827  1.00  0.00     0.023 A 
ATOM     89  C   UNL A   1      45.744  34.700  27.817  1.00  0.00     0.012 A 
ATOM     90  C   UNL A   1      46.418  34.130  30.083  1.00  0.00     0.148 A 
ATOM     91  C   UNL A   1      46.097  36.031  28.041  1.00  0.00     0.002 A 
ATOM     92  C   UNL A   1      46.721  35.467  30.315  1.00  0.00     0.091 A 
ATOM     93  F   UNL A   1      46.591  33.194  31.028  1.00  0.00    -0.205 F 
ATOM     94  C   UNL A   1      46.573  36.416  29.291  1.00  0.00     0.022 A 
BRANCH  92  95
ATOM     95  S   UNL A   1      47.248  36.071  31.924  1.00  0.00     0.127 S 
ATOM     96  O   UNL A   1      46.218  35.518  32.801  1.00  0.00    -0.237 OA
ATOM     97  O   UNL A   1      48.568  35.458  32.071  1.00  0.00    -0.237 OA
ATOM     98  O   UNL A   1      47.266  37.524  31.819  1.00  0.00    -0.744 OA
ENDBRANCH  92  95
ENDBRANCH  65  88
ENDBRANCH  39  40
ENDBRANCH  32  34
ENDBRANCH  31  32
ENDBRANCH  30  31
ENDBRANCH  29  30
ENDBRANCH  28  29
ENDBRANCH  27  28
ENDBRANCH   1  27
TORSDOF 23
ENDMDL
