MODEL 1
REMARK VINA RESULT:      -8.9      0.000      0.000
REMARK SMILES O=C(OCCOCCOCCOC(=O)c1ccc(-c2c3nc(c(-c4cccc(S(=O)(=O)[O-])c4F)c4ccc([nH]4)c(-c4cccc(S(=O)(=O)[O-])c4F)c4nc(c(-c5cccc(S(=O)(=O)[O-])c5F)c5ccc2[nH]5)C=C4)C=C3)cc1)C1=Cc2cc(Cl)cc(-c3ccc(O)cc3)c2O[C@@H]1C(F)(F)F
REMARK SMILES IDX 8 1 7 2 6 3 5 4 4 5 3 6 2 7 1 8 78 9 79 10 95 11 80 12 94 13
REMARK SMILES IDX 81 14 93 15 82 16 85 17 83 18 84 19 96 20 97 21 98 22 99 23
REMARK SMILES IDX 86 24 87 25 92 26 88 27 91 28 89 29 90 30 9 32 10 33 11 34
REMARK SMILES IDX 12 35 13 36 14 37 15 38 16 39 77 40 17 41 76 42 18 43 19 44
REMARK SMILES IDX 20 45 70 46 21 47 75 48 69 49 71 50 22 51 74 52 68 53 67 54
REMARK SMILES IDX 23 56 55 57 35 58 54 59 36 60 39 61 53 62 72 63 37 64 38 65
REMARK SMILES IDX 52 67 73 68 40 69 24 70 25 71 33 72 26 73 28 74 34 75 27 76
REMARK SMILES IDX 29 77 30 78 31 79 32 80 56 81 57 82 65 83 58 84 60 85 66 86
REMARK SMILES IDX 59 87 61 88 62 89 63 90 64 91 41 92 42 93 50 94 43 95 45 96
REMARK SMILES IDX 51 97 44 98 46 99 47 100 48 101 49 102
REMARK H PARENT 90 31 71 55 39 66
REMARK Flexibility Score: inf
ROOT
ATOM      1  C   UNL A   1      36.268  33.914  31.768  1.00  0.00     0.188 C 
ENDROOT
BRANCH   1   2
ATOM      2  C   UNL A   1      36.787  33.238  30.487  1.00  0.00     0.188 C 
BRANCH   2   3
ATOM      3  O   UNL A   1      38.057  32.401  30.419  1.00  0.00    -0.376 OA
BRANCH   3   4
ATOM      4  C   UNL A   1      38.235  30.709  30.936  1.00  0.00     0.202 C 
BRANCH   4   5
ATOM      5  C   UNL A   1      40.174  29.883  31.476  1.00  0.00     0.261 C 
BRANCH   5   6
ATOM      6  O   UNL A   1      41.325  29.587  30.520  1.00  0.00    -0.460 OA
BRANCH   6   7
ATOM      7  C   UNL A   1      41.613  28.276  30.474  1.00  0.00     0.338 C 
ATOM      8  O   UNL A   1      42.013  27.580  31.374  1.00  0.00    -0.246 OA
BRANCH   7   9
ATOM      9  C   UNL A   1      41.802  28.195  29.033  1.00  0.00     0.087 C 
ATOM     10  C   UNL A   1      43.104  27.778  28.567  1.00  0.00     0.027 C 
ATOM     11  C   UNL A   1      40.188  27.210  28.773  1.00  0.00     0.316 C 
ATOM     12  C   UNL A   1      43.483  26.137  27.974  1.00  0.00     0.019 A 
ATOM     13  O   UNL A   1      40.585  25.339  28.290  1.00  0.00    -0.475 OA
ATOM     14  C   UNL A   1      44.806  25.857  27.758  1.00  0.00     0.032 A 
ATOM     15  C   UNL A   1      42.306  24.868  27.863  1.00  0.00     0.135 A 
ATOM     16  C   UNL A   1      45.085  24.539  27.401  1.00  0.00     0.042 A 
ATOM     17  C   UNL A   1      42.676  23.596  27.441  1.00  0.00     0.026 A 
ATOM     18  Cl  UNL A   1      46.744  24.112  27.144  1.00  0.00    -0.084 Cl
ATOM     19  C   UNL A   1      44.094  23.502  27.236  1.00  0.00     0.033 A 
BRANCH  11  20
ATOM     20  C   UNL A   1      39.512  28.531  27.867  1.00  0.00     0.430 C 
ATOM     21  F   UNL A   1      39.748  29.805  28.225  1.00  0.00    -0.167 F 
ATOM     22  F   UNL A   1      39.876  28.402  26.566  1.00  0.00    -0.167 F 
ATOM     23  F   UNL A   1      38.145  28.473  27.859  1.00  0.00    -0.167 F 
ENDBRANCH  11  20
BRANCH  17  24
ATOM     24  C   UNL A   1      41.929  22.390  27.087  1.00  0.00    -0.014 A 
ATOM     25  C   UNL A   1      42.573  21.216  26.680  1.00  0.00     0.012 A 
ATOM     26  C   UNL A   1      40.534  22.470  26.877  1.00  0.00     0.012 A 
ATOM     27  C   UNL A   1      41.839  20.120  26.204  1.00  0.00     0.047 A 
ATOM     28  C   UNL A   1      39.790  21.365  26.439  1.00  0.00     0.047 A 
ATOM     29  C   UNL A   1      40.453  20.185  26.142  1.00  0.00     0.115 A 
BRANCH  29  30
ATOM     30  O   UNL A   1      39.768  19.058  25.798  1.00  0.00    -0.508 OA
ATOM     31  H   UNL A   1      39.468  18.470  26.464  1.00  0.00     0.293 HD
ENDBRANCH  29  30
ENDBRANCH  17  24
ENDBRANCH   7   9
ENDBRANCH   6   7
ENDBRANCH   5   6
ENDBRANCH   4   5
ENDBRANCH   3   4
ENDBRANCH   2   3
ENDBRANCH   1   2
BRANCH   1  32
ATOM     32  O   UNL A   1      36.459  33.286  33.004  1.00  0.00    -0.376 OA
BRANCH  32  33
ATOM     33  C   UNL A   1      36.894  34.148  34.030  1.00  0.00     0.202 C 
BRANCH  33  34
ATOM     34  C   UNL A   1      36.492  33.880  35.484  1.00  0.00     0.261 C 
BRANCH  34  35
ATOM     35  O   UNL A   1      37.581  33.847  36.411  1.00  0.00    -0.460 OA
BRANCH  35  36
ATOM     36  C   UNL A   1      37.741  32.695  37.102  1.00  0.00     0.338 C 
ATOM     37  O   UNL A   1      36.982  32.205  37.918  1.00  0.00    -0.246 OA
BRANCH  36  38
ATOM     38  C   UNL A   1      38.920  32.011  36.549  1.00  0.00     0.060 A 
ATOM     39  C   UNL A   1      40.211  32.408  36.933  1.00  0.00     0.016 A 
ATOM     40  C   UNL A   1      38.727  30.996  35.616  1.00  0.00     0.016 A 
ATOM     41  C   UNL A   1      41.324  31.784  36.382  1.00  0.00     0.010 A 
ATOM     42  C   UNL A   1      39.838  30.411  35.023  1.00  0.00     0.010 A 
ATOM     43  C   UNL A   1      41.133  30.831  35.380  1.00  0.00    -0.014 A 
BRANCH  43  44
ATOM     44  C   UNL A   1      42.242  30.515  34.463  1.00  0.00     0.031 A 
ATOM     45  C   UNL A   1      42.554  31.532  33.406  1.00  0.00     0.074 A 
ATOM     46  C   UNL A   1      42.884  29.340  34.519  1.00  0.00     0.049 A 
ATOM     47  N   UNL A   1      43.355  31.445  32.382  1.00  0.00    -0.248 NA
ATOM     48  C   UNL A   1      41.841  32.819  33.510  1.00  0.00     0.031 C 
ATOM     49  C   UNL A   1      42.665  28.302  35.523  1.00  0.00     0.029 A 
ATOM     50  N   UNL A   1      43.820  28.809  33.672  1.00  0.00    -0.354 N 
ATOM     51  C   UNL A   1      43.208  32.642  31.694  1.00  0.00     0.074 A 
ATOM     52  C   UNL A   1      42.241  33.438  32.413  1.00  0.00     0.031 C 
ATOM     53  C   UNL A   1      43.413  27.231  35.205  1.00  0.00     0.029 A 
ATOM     54  C   UNL A   1      44.124  27.500  33.955  1.00  0.00     0.049 A 
ATOM     55  H   UNL A   1      44.234  29.314  32.935  1.00  0.00     0.167 HD
ATOM     56  C   UNL A   1      43.818  33.037  30.554  1.00  0.00     0.034 A 
ATOM     57  C   UNL A   1      44.856  26.613  33.252  1.00  0.00     0.034 A 
ATOM     58  C   UNL A   1      44.750  32.217  29.836  1.00  0.00     0.049 A 
ATOM     59  C   UNL A   1      45.495  27.055  31.961  1.00  0.00     0.074 A 
ATOM     60  C   UNL A   1      45.459  32.522  28.692  1.00  0.00     0.029 A 
ATOM     61  N   UNL A   1      45.070  30.910  30.176  1.00  0.00    -0.354 N 
ATOM     62  N   UNL A   1      45.421  28.219  31.359  1.00  0.00    -0.248 NA
ATOM     63  C   UNL A   1      46.338  26.074  31.264  1.00  0.00     0.031 C 
ATOM     64  C   UNL A   1      46.159  31.376  28.301  1.00  0.00     0.029 A 
ATOM     65  C   UNL A   1      45.950  30.386  29.250  1.00  0.00     0.049 A 
ATOM     66  H   UNL A   1      44.721  30.428  30.961  1.00  0.00     0.167 HD
ATOM     67  C   UNL A   1      46.248  28.128  30.243  1.00  0.00     0.074 A 
ATOM     68  C   UNL A   1      46.807  26.791  30.251  1.00  0.00     0.031 C 
ATOM     69  C   UNL A   1      46.525  29.065  29.303  1.00  0.00     0.034 A 
BRANCH  56  70
ATOM     70  C   UNL A   1      43.453  34.391  30.009  1.00  0.00     0.023 A 
ATOM     71  C   UNL A   1      42.383  34.530  29.099  1.00  0.00     0.012 A 
ATOM     72  C   UNL A   1      44.180  35.532  30.397  1.00  0.00     0.148 A 
ATOM     73  C   UNL A   1      42.082  35.771  28.542  1.00  0.00     0.002 A 
ATOM     74  C   UNL A   1      43.836  36.775  29.883  1.00  0.00     0.091 A 
ATOM     75  F   UNL A   1      45.210  35.378  31.240  1.00  0.00    -0.205 F 
ATOM     76  C   UNL A   1      42.801  36.894  28.940  1.00  0.00     0.022 A 
BRANCH  74  77
ATOM     77  S   UNL A   1      44.647  38.291  30.399  1.00  0.00     0.127 S 
ATOM     78  O   UNL A   1      45.733  38.391  29.425  1.00  0.00    -0.237 OA
ATOM     79  O   UNL A   1      43.582  39.279  30.229  1.00  0.00    -0.237 OA
ATOM     80  O   UNL A   1      45.065  38.077  31.777  1.00  0.00    -0.744 OA
ENDBRANCH  74  77
ENDBRANCH  56  70
BRANCH  57  81
ATOM     81  C   UNL A   1      45.026  25.226  33.765  1.00  0.00     0.023 A 
ATOM     82  C   UNL A   1      44.238  24.186  33.238  1.00  0.00     0.012 A 
ATOM     83  C   UNL A   1      45.993  24.930  34.746  1.00  0.00     0.148 A 
ATOM     84  C   UNL A   1      44.393  22.876  33.696  1.00  0.00     0.002 A 
ATOM     85  C   UNL A   1      46.180  23.617  35.158  1.00  0.00     0.091 A 
ATOM     86  F   UNL A   1      46.726  25.938  35.239  1.00  0.00    -0.205 F 
ATOM     87  C   UNL A   1      45.370  22.590  34.647  1.00  0.00     0.022 A 
BRANCH  85  88
ATOM     88  S   UNL A   1      47.488  23.135  36.290  1.00  0.00     0.127 S 
ATOM     89  O   UNL A   1      48.673  23.676  35.626  1.00  0.00    -0.237 OA
ATOM     90  O   UNL A   1      47.097  23.831  37.514  1.00  0.00    -0.237 OA
ATOM     91  O   UNL A   1      47.431  21.682  36.373  1.00  0.00    -0.744 OA
ENDBRANCH  85  88
ENDBRANCH  57  81
BRANCH  69  92
ATOM     92  C   UNL A   1      47.541  28.727  28.244  1.00  0.00     0.023 A 
ATOM     93  C   UNL A   1      48.898  28.551  28.574  1.00  0.00     0.012 A 
ATOM     94  C   UNL A   1      47.109  28.474  26.926  1.00  0.00     0.148 A 
ATOM     95  C   UNL A   1      49.814  28.151  27.601  1.00  0.00     0.002 A 
ATOM     96  C   UNL A   1      48.013  28.020  25.978  1.00  0.00     0.091 A 
ATOM     97  F   UNL A   1      45.814  28.662  26.632  1.00  0.00    -0.205 F 
ATOM     98  C   UNL A   1      49.370  27.871  26.309  1.00  0.00     0.022 A 
BRANCH  96  99
ATOM     99  S   UNL A   1      47.512  27.531  24.324  1.00  0.00     0.127 S 
ATOM    100  O   UNL A   1      48.801  27.239  23.698  1.00  0.00    -0.237 OA
ATOM    101  O   UNL A   1      46.682  26.356  24.590  1.00  0.00    -0.237 OA
ATOM    102  O   UNL A   1      46.795  28.668  23.764  1.00  0.00    -0.744 OA
ENDBRANCH  96  99
ENDBRANCH  69  92
ENDBRANCH  43  44
ENDBRANCH  36  38
ENDBRANCH  35  36
ENDBRANCH  34  35
ENDBRANCH  33  34
ENDBRANCH  32  33
ENDBRANCH   1  32
TORSDOF 23
ENDMDL
MODEL 2
REMARK VINA RESULT:      -8.5      7.638     11.641
REMARK SMILES O=C(OCCOCCOCCOC(=O)c1ccc(-c2c3nc(c(-c4cccc(S(=O)(=O)[O-])c4F)c4ccc([nH]4)c(-c4cccc(S(=O)(=O)[O-])c4F)c4nc(c(-c5cccc(S(=O)(=O)[O-])c5F)c5ccc2[nH]5)C=C4)C=C3)cc1)C1=Cc2cc(Cl)cc(-c3ccc(O)cc3)c2O[C@@H]1C(F)(F)F
REMARK SMILES IDX 8 1 7 2 6 3 5 4 4 5 3 6 2 7 1 8 78 9 79 10 95 11 80 12 94 13
REMARK SMILES IDX 81 14 93 15 82 16 85 17 83 18 84 19 96 20 97 21 98 22 99 23
REMARK SMILES IDX 86 24 87 25 92 26 88 27 91 28 89 29 90 30 9 32 10 33 11 34
REMARK SMILES IDX 12 35 13 36 14 37 15 38 16 39 77 40 17 41 76 42 18 43 19 44
REMARK SMILES IDX 20 45 70 46 21 47 75 48 69 49 71 50 22 51 74 52 68 53 67 54
REMARK SMILES IDX 23 56 55 57 35 58 54 59 36 60 39 61 53 62 72 63 37 64 38 65
REMARK SMILES IDX 52 67 73 68 40 69 24 70 25 71 33 72 26 73 28 74 34 75 27 76
REMARK SMILES IDX 29 77 30 78 31 79 32 80 56 81 57 82 65 83 58 84 60 85 66 86
REMARK SMILES IDX 59 87 61 88 62 89 63 90 64 91 41 92 42 93 50 94 43 95 45 96
REMARK SMILES IDX 51 97 44 98 46 99 47 100 48 101 49 102
REMARK H PARENT 90 31 71 55 39 66
REMARK Flexibility Score: inf
ROOT
ATOM      1  C   UNL A   1      36.048  31.456  28.135  1.00  0.00     0.188 C 
ENDROOT
BRANCH   1   2
ATOM      2  C   UNL A   1      34.529  31.355  27.920  1.00  0.00     0.188 C 
BRANCH   2   3
ATOM      3  O   UNL A   1      33.870  30.420  26.915  1.00  0.00    -0.376 OA
BRANCH   3   4
ATOM      4  C   UNL A   1      32.234  29.733  27.029  1.00  0.00     0.202 C 
BRANCH   4   5
ATOM      5  C   UNL A   1      31.906  27.583  27.101  1.00  0.00     0.261 C 
BRANCH   5   6
ATOM      6  O   UNL A   1      31.706  26.662  25.902  1.00  0.00    -0.460 OA
BRANCH   6   7
ATOM      7  C   UNL A   1      31.902  25.372  26.222  1.00  0.00     0.338 C 
ATOM      8  O   UNL A   1      32.018  24.900  27.326  1.00  0.00    -0.246 OA
BRANCH   7   9
ATOM      9  C   UNL A   1      32.432  24.957  24.933  1.00  0.00     0.087 C 
ATOM     10  C   UNL A   1      33.854  24.711  24.859  1.00  0.00     0.027 C 
ATOM     11  C   UNL A   1      31.086  23.625  24.693  1.00  0.00     0.316 C 
ATOM     12  C   UNL A   1      34.596  23.088  24.867  1.00  0.00     0.019 A 
ATOM     13  O   UNL A   1      31.854  21.818  24.877  1.00  0.00    -0.475 OA
ATOM     14  C   UNL A   1      35.961  23.041  24.990  1.00  0.00     0.032 A 
ATOM     15  C   UNL A   1      33.677  21.618  24.932  1.00  0.00     0.135 A 
ATOM     16  C   UNL A   1      36.505  21.763  25.104  1.00  0.00     0.042 A 
ATOM     17  C   UNL A   1      34.318  20.386  24.988  1.00  0.00     0.026 A 
ATOM     18  Cl  UNL A   1      38.222  21.637  25.293  1.00  0.00    -0.084 Cl
ATOM     19  C   UNL A   1      35.743  20.538  25.082  1.00  0.00     0.033 A 
BRANCH  11  20
ATOM     20  C   UNL A   1      30.455  24.492  23.324  1.00  0.00     0.430 C 
ATOM     21  F   UNL A   1      31.274  25.147  22.485  1.00  0.00    -0.167 F 
ATOM     22  F   UNL A   1      29.705  23.643  22.576  1.00  0.00    -0.167 F 
ATOM     23  F   UNL A   1      29.588  25.473  23.721  1.00  0.00    -0.167 F 
ENDBRANCH  11  20
BRANCH  17  24
ATOM     24  C   UNL A   1      33.859  19.001  24.884  1.00  0.00    -0.014 A 
ATOM     25  C   UNL A   1      32.788  18.520  25.646  1.00  0.00     0.012 A 
ATOM     26  C   UNL A   1      34.665  18.047  24.222  1.00  0.00     0.012 A 
ATOM     27  C   UNL A   1      32.458  17.157  25.643  1.00  0.00     0.047 A 
ATOM     28  C   UNL A   1      34.316  16.689  24.183  1.00  0.00     0.047 A 
ATOM     29  C   UNL A   1      33.188  16.266  24.867  1.00  0.00     0.115 A 
BRANCH  29  30
ATOM     30  O   UNL A   1      32.758  14.975  24.789  1.00  0.00    -0.508 OA
ATOM     31  H   UNL A   1      32.630  14.475  25.571  1.00  0.00     0.293 HD
ENDBRANCH  29  30
ENDBRANCH  17  24
ENDBRANCH   7   9
ENDBRANCH   6   7
ENDBRANCH   5   6
ENDBRANCH   4   5
ENDBRANCH   3   4
ENDBRANCH   2   3
ENDBRANCH   1   2
BRANCH   1  32
ATOM     32  O   UNL A   1      36.866  30.372  27.794  1.00  0.00    -0.376 OA
BRANCH  32  33
ATOM     33  C   UNL A   1      37.350  29.642  28.898  1.00  0.00     0.202 C 
BRANCH  33  34
ATOM     34  C   UNL A   1      36.631  29.719  30.249  1.00  0.00     0.261 C 
BRANCH  34  35
ATOM     35  O   UNL A   1      37.278  30.539  31.227  1.00  0.00    -0.460 OA
BRANCH  35  36
ATOM     36  C   UNL A   1      36.535  31.541  31.750  1.00  0.00     0.338 C 
ATOM     37  O   UNL A   1      35.336  31.721  31.629  1.00  0.00    -0.246 OA
BRANCH  36  38
ATOM     38  C   UNL A   1      37.396  32.289  32.678  1.00  0.00     0.060 A 
ATOM     39  C   UNL A   1      38.474  31.648  33.314  1.00  0.00     0.016 A 
ATOM     40  C   UNL A   1      37.097  33.623  32.939  1.00  0.00     0.016 A 
ATOM     41  C   UNL A   1      39.264  32.348  34.218  1.00  0.00     0.010 A 
ATOM     42  C   UNL A   1      37.851  34.306  33.884  1.00  0.00     0.010 A 
ATOM     43  C   UNL A   1      38.909  33.657  34.549  1.00  0.00    -0.014 A 
BRANCH  43  44
ATOM     44  C   UNL A   1      39.401  34.242  35.808  1.00  0.00     0.031 A 
ATOM     45  C   UNL A   1      40.588  35.153  35.710  1.00  0.00     0.074 A 
ATOM     46  C   UNL A   1      38.865  33.910  36.991  1.00  0.00     0.049 A 
ATOM     47  N   UNL A   1      41.317  35.669  36.659  1.00  0.00    -0.248 NA
ATOM     48  C   UNL A   1      41.023  35.511  34.348  1.00  0.00     0.031 C 
ATOM     49  C   UNL A   1      37.698  33.053  37.181  1.00  0.00     0.029 A 
ATOM     50  N   UNL A   1      39.274  34.223  38.260  1.00  0.00    -0.354 N 
ATOM     51  C   UNL A   1      42.325  36.371  36.010  1.00  0.00     0.074 A 
ATOM     52  C   UNL A   1      42.116  36.215  34.590  1.00  0.00     0.031 C 
ATOM     53  C   UNL A   1      37.513  32.865  38.500  1.00  0.00     0.029 A 
ATOM     54  C   UNL A   1      38.573  33.555  39.234  1.00  0.00     0.049 A 
ATOM     55  H   UNL A   1      39.997  34.863  38.454  1.00  0.00     0.167 HD
ATOM     56  C   UNL A   1      43.343  37.075  36.554  1.00  0.00     0.034 A 
ATOM     57  C   UNL A   1      38.800  33.477  40.559  1.00  0.00     0.034 A 
ATOM     58  C   UNL A   1      43.554  37.188  37.968  1.00  0.00     0.049 A 
ATOM     59  C   UNL A   1      39.965  34.233  41.146  1.00  0.00     0.074 A 
ATOM     60  C   UNL A   1      44.527  37.903  38.637  1.00  0.00     0.029 A 
ATOM     61  N   UNL A   1      42.797  36.534  38.930  1.00  0.00    -0.354 N 
ATOM     62  N   UNL A   1      40.865  34.967  40.535  1.00  0.00    -0.248 NA
ATOM     63  C   UNL A   1      40.133  34.172  42.605  1.00  0.00     0.031 C 
ATOM     64  C   UNL A   1      44.400  37.628  40.002  1.00  0.00     0.029 A 
ATOM     65  C   UNL A   1      43.295  36.811  40.187  1.00  0.00     0.049 A 
ATOM     66  H   UNL A   1      42.020  35.958  38.742  1.00  0.00     0.167 HD
ATOM     67  C   UNL A   1      41.673  35.497  41.536  1.00  0.00     0.074 A 
ATOM     68  C   UNL A   1      41.157  34.994  42.794  1.00  0.00     0.031 C 
ATOM     69  C   UNL A   1      42.738  36.330  41.427  1.00  0.00     0.034 A 
BRANCH  56  70
ATOM     70  C   UNL A   1      44.315  37.726  35.607  1.00  0.00     0.023 A 
ATOM     71  C   UNL A   1      44.092  39.041  35.148  1.00  0.00     0.012 A 
ATOM     72  C   UNL A   1      45.452  37.024  35.165  1.00  0.00     0.148 A 
ATOM     73  C   UNL A   1      44.955  39.624  34.220  1.00  0.00     0.002 A 
ATOM     74  C   UNL A   1      46.340  37.633  34.288  1.00  0.00     0.091 A 
ATOM     75  F   UNL A   1      45.633  35.766  35.591  1.00  0.00    -0.205 F 
ATOM     76  C   UNL A   1      46.082  38.925  33.799  1.00  0.00     0.022 A 
BRANCH  74  77
ATOM     77  S   UNL A   1      47.862  36.847  33.754  1.00  0.00     0.127 S 
ATOM     78  O   UNL A   1      48.500  36.539  35.032  1.00  0.00    -0.237 OA
ATOM     79  O   UNL A   1      47.362  35.682  33.025  1.00  0.00    -0.237 OA
ATOM     80  O   UNL A   1      48.557  37.828  32.931  1.00  0.00    -0.744 OA
ENDBRANCH  74  77
ENDBRANCH  56  70
BRANCH  57  81
ATOM     81  C   UNL A   1      37.897  32.660  41.416  1.00  0.00     0.023 A 
ATOM     82  C   UNL A   1      38.326  31.403  41.881  1.00  0.00     0.012 A 
ATOM     83  C   UNL A   1      36.631  33.144  41.801  1.00  0.00     0.148 A 
ATOM     84  C   UNL A   1      37.499  30.629  42.697  1.00  0.00     0.002 A 
ATOM     85  C   UNL A   1      35.835  32.393  42.657  1.00  0.00     0.091 A 
ATOM     86  F   UNL A   1      36.241  34.340  41.339  1.00  0.00    -0.205 F 
ATOM     87  C   UNL A   1      36.260  31.128  43.094  1.00  0.00     0.022 A 
BRANCH  85  88
ATOM     88  S   UNL A   1      34.279  33.001  43.314  1.00  0.00     0.127 S 
ATOM     89  O   UNL A   1      34.664  34.312  43.832  1.00  0.00    -0.237 OA
ATOM     90  O   UNL A   1      33.441  33.036  42.115  1.00  0.00    -0.237 OA
ATOM     91  O   UNL A   1      33.861  32.032  44.318  1.00  0.00    -0.744 OA
ENDBRANCH  85  88
ENDBRANCH  57  81
BRANCH  69  92
ATOM     92  C   UNL A   1      43.379  36.831  42.695  1.00  0.00     0.023 A 
ATOM     93  C   UNL A   1      42.902  37.989  43.335  1.00  0.00     0.012 A 
ATOM     94  C   UNL A   1      44.393  36.067  43.306  1.00  0.00     0.148 A 
ATOM     95  C   UNL A   1      43.445  38.394  44.555  1.00  0.00     0.002 A 
ATOM     96  C   UNL A   1      44.887  36.441  44.548  1.00  0.00     0.091 A 
ATOM     97  F   UNL A   1      44.841  34.974  42.670  1.00  0.00    -0.205 F 
ATOM     98  C   UNL A   1      44.424  37.613  45.168  1.00  0.00     0.022 A 
BRANCH  96  99
ATOM     99  S   UNL A   1      46.067  35.439  45.457  1.00  0.00     0.127 S 
ATOM    100  O   UNL A   1      45.355  34.166  45.563  1.00  0.00    -0.237 OA
ATOM    101  O   UNL A   1      47.217  35.422  44.552  1.00  0.00    -0.237 OA
ATOM    102  O   UNL A   1      46.296  36.127  46.720  1.00  0.00    -0.744 OA
ENDBRANCH  96  99
ENDBRANCH  69  92
ENDBRANCH  43  44
ENDBRANCH  36  38
ENDBRANCH  35  36
ENDBRANCH  34  35
ENDBRANCH  33  34
ENDBRANCH  32  33
ENDBRANCH   1  32
TORSDOF 23
ENDMDL
MODEL 3
REMARK VINA RESULT:      -8.3      5.820      8.380
REMARK SMILES O=C(OCCOCCOCCOC(=O)c1ccc(-c2c3nc(c(-c4cccc(S(=O)(=O)[O-])c4F)c4ccc([nH]4)c(-c4cccc(S(=O)(=O)[O-])c4F)c4nc(c(-c5cccc(S(=O)(=O)[O-])c5F)c5ccc2[nH]5)C=C4)C=C3)cc1)C1=Cc2cc(Cl)cc(-c3ccc(O)cc3)c2O[C@@H]1C(F)(F)F
REMARK SMILES IDX 8 1 7 2 6 3 5 4 4 5 3 6 2 7 1 8 78 9 79 10 95 11 80 12 94 13
REMARK SMILES IDX 81 14 93 15 82 16 85 17 83 18 84 19 96 20 97 21 98 22 99 23
REMARK SMILES IDX 86 24 87 25 92 26 88 27 91 28 89 29 90 30 9 32 10 33 11 34
REMARK SMILES IDX 12 35 13 36 14 37 15 38 16 39 77 40 17 41 76 42 18 43 19 44
REMARK SMILES IDX 20 45 70 46 21 47 75 48 69 49 71 50 22 51 74 52 68 53 67 54
REMARK SMILES IDX 23 56 55 57 35 58 54 59 36 60 39 61 53 62 72 63 37 64 38 65
REMARK SMILES IDX 52 67 73 68 40 69 24 70 25 71 33 72 26 73 28 74 34 75 27 76
REMARK SMILES IDX 29 77 30 78 31 79 32 80 56 81 57 82 65 83 58 84 60 85 66 86
REMARK SMILES IDX 59 87 61 88 62 89 63 90 64 91 41 92 42 93 50 94 43 95 45 96
REMARK SMILES IDX 51 97 44 98 46 99 47 100 48 101 49 102
REMARK H PARENT 90 31 71 55 39 66
REMARK Flexibility Score: inf
ROOT
ATOM      1  C   UNL A   1      35.975  31.845  28.190  1.00  0.00     0.188 C 
ENDROOT
BRANCH   1   2
ATOM      2  C   UNL A   1      34.455  31.842  27.950  1.00  0.00     0.188 C 
BRANCH   2   3
ATOM      3  O   UNL A   1      33.744  30.892  26.998  1.00  0.00    -0.376 OA
BRANCH   3   4
ATOM      4  C   UNL A   1      32.131  30.178  27.229  1.00  0.00     0.202 C 
BRANCH   4   5
ATOM      5  C   UNL A   1      31.821  28.025  27.169  1.00  0.00     0.261 C 
BRANCH   5   6
ATOM      6  O   UNL A   1      31.874  27.142  25.926  1.00  0.00    -0.460 OA
BRANCH   6   7
ATOM      7  C   UNL A   1      32.030  25.845  26.239  1.00  0.00     0.338 C 
ATOM      8  O   UNL A   1      32.079  25.357  27.341  1.00  0.00    -0.246 OA
BRANCH   7   9
ATOM      9  C   UNL A   1      32.620  25.436  24.974  1.00  0.00     0.087 C 
ATOM     10  C   UNL A   1      34.049  25.223  24.958  1.00  0.00     0.027 C 
ATOM     11  C   UNL A   1      31.316  24.072  24.689  1.00  0.00     0.316 C 
ATOM     12  C   UNL A   1      34.828  23.617  25.004  1.00  0.00     0.019 A 
ATOM     13  O   UNL A   1      32.117  22.284  24.913  1.00  0.00    -0.475 OA
ATOM     14  C   UNL A   1      36.187  23.603  25.181  1.00  0.00     0.032 A 
ATOM     15  C   UNL A   1      33.941  22.127  25.041  1.00  0.00     0.135 A 
ATOM     16  C   UNL A   1      36.755  22.338  25.324  1.00  0.00     0.042 A 
ATOM     17  C   UNL A   1      34.607  20.910  25.129  1.00  0.00     0.026 A 
ATOM     18  Cl  UNL A   1      38.466  22.253  25.582  1.00  0.00    -0.084 Cl
ATOM     19  C   UNL A   1      36.023  21.095  25.279  1.00  0.00     0.033 A 
BRANCH  11  20
ATOM     20  C   UNL A   1      30.719  24.917  23.291  1.00  0.00     0.430 C 
ATOM     21  F   UNL A   1      31.445  25.887  22.710  1.00  0.00    -0.167 F 
ATOM     22  F   UNL A   1      30.412  24.011  22.329  1.00  0.00    -0.167 F 
ATOM     23  F   UNL A   1      29.540  25.553  23.567  1.00  0.00    -0.167 F 
ENDBRANCH  11  20
BRANCH  17  24
ATOM     24  C   UNL A   1      34.184  19.515  25.015  1.00  0.00    -0.014 A 
ATOM     25  C   UNL A   1      35.072  18.504  24.626  1.00  0.00     0.012 A 
ATOM     26  C   UNL A   1      32.806  19.201  25.021  1.00  0.00     0.012 A 
ATOM     27  C   UNL A   1      34.615  17.202  24.380  1.00  0.00     0.047 A 
ATOM     28  C   UNL A   1      32.348  17.891  24.814  1.00  0.00     0.047 A 
ATOM     29  C   UNL A   1      33.269  16.895  24.532  1.00  0.00     0.115 A 
BRANCH  29  30
ATOM     30  O   UNL A   1      32.885  15.593  24.410  1.00  0.00    -0.508 OA
ATOM     31  H   UNL A   1      33.124  15.103  23.648  1.00  0.00     0.293 HD
ENDBRANCH  29  30
ENDBRANCH  17  24
ENDBRANCH   7   9
ENDBRANCH   6   7
ENDBRANCH   5   6
ENDBRANCH   4   5
ENDBRANCH   3   4
ENDBRANCH   2   3
ENDBRANCH   1   2
BRANCH   1  32
ATOM     32  O   UNL A   1      36.631  30.639  28.460  1.00  0.00    -0.376 OA
BRANCH  32  33
ATOM     33  C   UNL A   1      36.915  30.427  29.824  1.00  0.00     0.202 C 
BRANCH  33  34
ATOM     34  C   UNL A   1      36.930  31.606  30.801  1.00  0.00     0.261 C 
BRANCH  34  35
ATOM     35  O   UNL A   1      38.197  32.260  30.933  1.00  0.00    -0.460 OA
BRANCH  35  36
ATOM     36  C   UNL A   1      38.159  33.597  31.130  1.00  0.00     0.338 C 
ATOM     37  O   UNL A   1      37.285  34.246  31.678  1.00  0.00    -0.246 OA
BRANCH  36  38
ATOM     38  C   UNL A   1      39.471  34.136  30.740  1.00  0.00     0.060 A 
ATOM     39  C   UNL A   1      39.724  34.478  29.401  1.00  0.00     0.016 A 
ATOM     40  C   UNL A   1      40.458  34.261  31.714  1.00  0.00     0.016 A 
ATOM     41  C   UNL A   1      40.977  34.952  29.030  1.00  0.00     0.010 A 
ATOM     42  C   UNL A   1      41.726  34.681  31.333  1.00  0.00     0.010 A 
ATOM     43  C   UNL A   1      41.993  34.991  29.986  1.00  0.00    -0.014 A 
BRANCH  43  44
ATOM     44  C   UNL A   1      43.398  35.018  29.546  1.00  0.00     0.031 A 
ATOM     45  C   UNL A   1      43.954  36.352  29.146  1.00  0.00     0.074 A 
ATOM     46  C   UNL A   1      44.117  33.892  29.429  1.00  0.00     0.049 A 
ATOM     47  N   UNL A   1      45.089  36.639  28.575  1.00  0.00    -0.248 NA
ATOM     48  C   UNL A   1      43.095  37.521  29.409  1.00  0.00     0.031 C 
ATOM     49  C   UNL A   1      43.670  32.557  29.815  1.00  0.00     0.029 A 
ATOM     50  N   UNL A   1      45.366  33.699  28.902  1.00  0.00    -0.354 N 
ATOM     51  C   UNL A   1      45.061  38.012  28.365  1.00  0.00     0.074 A 
ATOM     52  C   UNL A   1      43.799  38.500  28.868  1.00  0.00     0.031 C 
ATOM     53  C   UNL A   1      44.615  31.668  29.463  1.00  0.00     0.029 A 
ATOM     54  C   UNL A   1      45.707  32.373  28.793  1.00  0.00     0.049 A 
ATOM     55  H   UNL A   1      45.960  34.435  28.629  1.00  0.00     0.167 HD
ATOM     56  C   UNL A   1      46.003  38.794  27.793  1.00  0.00     0.034 A 
ATOM     57  C   UNL A   1      46.760  31.801  28.176  1.00  0.00     0.034 A 
ATOM     58  C   UNL A   1      47.236  38.284  27.268  1.00  0.00     0.049 A 
ATOM     59  C   UNL A   1      47.780  32.684  27.504  1.00  0.00     0.074 A 
ATOM     60  C   UNL A   1      48.282  38.983  26.698  1.00  0.00     0.029 A 
ATOM     61  N   UNL A   1      47.570  36.938  27.213  1.00  0.00    -0.354 N 
ATOM     62  N   UNL A   1      47.790  33.991  27.385  1.00  0.00    -0.248 NA
ATOM     63  C   UNL A   1      48.945  32.020  26.904  1.00  0.00     0.031 C 
ATOM     64  C   UNL A   1      49.220  38.053  26.239  1.00  0.00     0.029 A 
ATOM     65  C   UNL A   1      48.797  36.783  26.599  1.00  0.00     0.049 A 
ATOM     66  H   UNL A   1      47.013  36.203  27.561  1.00  0.00     0.167 HD
ATOM     67  C   UNL A   1      48.984  34.309  26.745  1.00  0.00     0.074 A 
ATOM     68  C   UNL A   1      49.667  33.055  26.497  1.00  0.00     0.031 C 
ATOM     69  C   UNL A   1      49.474  35.526  26.401  1.00  0.00     0.034 A 
BRANCH  56  70
ATOM     70  C   UNL A   1      45.700  40.263  27.672  1.00  0.00     0.023 A 
ATOM     71  C   UNL A   1      45.933  41.132  28.759  1.00  0.00     0.012 A 
ATOM     72  C   UNL A   1      45.173  40.783  26.475  1.00  0.00     0.148 A 
ATOM     73  C   UNL A   1      45.593  42.482  28.674  1.00  0.00     0.002 A 
ATOM     74  C   UNL A   1      44.893  42.139  26.377  1.00  0.00     0.091 A 
ATOM     75  F   UNL A   1      44.932  39.938  25.462  1.00  0.00    -0.205 F 
ATOM     76  C   UNL A   1      45.083  42.986  27.482  1.00  0.00     0.022 A 
BRANCH  74  77
ATOM     77  S   UNL A   1      44.313  42.898  24.858  1.00  0.00     0.127 S 
ATOM     78  O   UNL A   1      44.500  44.319  25.147  1.00  0.00    -0.237 OA
ATOM     79  O   UNL A   1      45.241  42.349  23.871  1.00  0.00    -0.237 OA
ATOM     80  O   UNL A   1      42.929  42.473  24.696  1.00  0.00    -0.744 OA
ENDBRANCH  74  77
ENDBRANCH  56  70
BRANCH  57  81
ATOM     81  C   UNL A   1      46.901  30.319  28.179  1.00  0.00     0.023 A 
ATOM     82  C   UNL A   1      47.504  29.678  29.277  1.00  0.00     0.012 A 
ATOM     83  C   UNL A   1      46.404  29.543  27.113  1.00  0.00     0.148 A 
ATOM     84  C   UNL A   1      47.632  28.288  29.303  1.00  0.00     0.002 A 
ATOM     85  C   UNL A   1      46.485  28.157  27.170  1.00  0.00     0.091 A 
ATOM     86  F   UNL A   1      45.841  30.177  26.075  1.00  0.00    -0.205 F 
ATOM     87  C   UNL A   1      47.113  27.528  28.257  1.00  0.00     0.022 A 
BRANCH  85  88
ATOM     88  S   UNL A   1      45.744  27.092  25.929  1.00  0.00     0.127 S 
ATOM     89  O   UNL A   1      46.036  25.763  26.462  1.00  0.00    -0.237 OA
ATOM     90  O   UNL A   1      44.338  27.487  25.997  1.00  0.00    -0.237 OA
ATOM     91  O   UNL A   1      46.406  27.420  24.673  1.00  0.00    -0.744 OA
ENDBRANCH  85  88
ENDBRANCH  57  81
BRANCH  69  92
ATOM     92  C   UNL A   1      50.852  35.590  25.796  1.00  0.00     0.023 A 
ATOM     93  C   UNL A   1      51.028  35.587  24.400  1.00  0.00     0.012 A 
ATOM     94  C   UNL A   1      51.970  35.769  26.636  1.00  0.00     0.148 A 
ATOM     95  C   UNL A   1      52.302  35.736  23.850  1.00  0.00     0.002 A 
ATOM     96  C   UNL A   1      53.225  35.976  26.082  1.00  0.00     0.091 A 
ATOM     97  F   UNL A   1      51.779  35.754  27.964  1.00  0.00    -0.205 F 
ATOM     98  C   UNL A   1      53.396  35.946  24.688  1.00  0.00     0.022 A 
BRANCH  96  99
ATOM     99  S   UNL A   1      54.667  36.362  27.080  1.00  0.00     0.127 S 
ATOM    100  O   UNL A   1      54.426  37.765  27.419  1.00  0.00    -0.237 OA
ATOM    101  O   UNL A   1      54.523  35.430  28.200  1.00  0.00    -0.237 OA
ATOM    102  O   UNL A   1      55.825  36.120  26.232  1.00  0.00    -0.744 OA
ENDBRANCH  96  99
ENDBRANCH  69  92
ENDBRANCH  43  44
ENDBRANCH  36  38
ENDBRANCH  35  36
ENDBRANCH  34  35
ENDBRANCH  33  34
ENDBRANCH  32  33
ENDBRANCH   1  32
TORSDOF 23
ENDMDL
