MODEL 1
REMARK VINA RESULT:     -10.1      0.000      0.000
REMARK SMILES COc1ccc(/C=C/c2nc(C(=O)OCCOCCOCCOC(=O)c3ccc(-c4c5nc(c(-c6cccc(S(=O)(=O)[O-])c6F)c6ccc([nH]6)c(-c6cccc(S(=O)(=O)[O-])c6F)c6nc(c(-c7cccc(S(=O)(=O)[O-])c7F)c7ccc4[nH]7)C=C6)C=C5)cc3)ccc2C#N)cc1F
REMARK SMILES IDX 18 1 17 2 16 3 15 4 14 5 12 6 13 7 11 8 9 9 10 10 91 11
REMARK SMILES IDX 90 12 89 13 8 14 7 15 6 16 3 17 4 18 95 19 5 20 94 21 96 22
REMARK SMILES IDX 2 23 1 24 92 25 93 26 19 27 20 28 21 29 22 30 23 31 24 32
REMARK SMILES IDX 25 33 26 34 27 35 88 36 28 37 87 38 29 39 30 40 31 41 81 42
REMARK SMILES IDX 32 43 86 44 80 45 82 46 33 47 85 48 79 49 78 50 34 52 66 53
REMARK SMILES IDX 46 54 65 55 47 56 50 57 64 58 83 59 48 60 49 61 63 63 84 64
REMARK SMILES IDX 51 65 35 66 36 67 44 68 37 69 39 70 45 71 38 72 40 73 41 74
REMARK SMILES IDX 42 75 43 76 67 77 68 78 76 79 69 80 71 81 77 82 70 83 72 84
REMARK SMILES IDX 73 85 74 86 75 87 52 88 53 89 61 90 54 91 56 92 62 93 55 94
REMARK SMILES IDX 57 95 58 96 59 97 60 98
REMARK H PARENT 82 51 50 62
REMARK Flexibility Score: inf
ROOT
ATOM      1  C   UNL A   1      35.044  20.202  24.837  1.00  0.00     0.188 C 
ENDROOT
BRANCH   1   2
ATOM      2  O   UNL A   1      34.490  21.396  24.321  1.00  0.00    -0.376 OA
BRANCH   2   3
ATOM      3  C   UNL A   1      33.090  21.615  24.354  1.00  0.00     0.202 C 
BRANCH   3   4
ATOM      4  C   UNL A   1      32.187  21.379  25.585  1.00  0.00     0.261 C 
BRANCH   4   5
ATOM      5  O   UNL A   1      30.925  22.058  25.617  1.00  0.00    -0.459 OA
BRANCH   5   6
ATOM      6  C   UNL A   1      30.891  23.223  26.322  1.00  0.00     0.357 C 
ATOM      7  O   UNL A   1      30.996  23.335  27.531  1.00  0.00    -0.244 OA
BRANCH   6   8
ATOM      8  C   UNL A   1      30.817  24.372  25.366  1.00  0.00     0.149 A 
ATOM      9  C   UNL A   1      31.093  26.668  25.027  1.00  0.00     0.082 A 
ATOM     10  N   UNL A   1      31.166  25.596  25.858  1.00  0.00    -0.240 NA
ATOM     11  C   UNL A   1      30.695  26.542  23.691  1.00  0.00     0.078 A 
ATOM     12  C   UNL A   1      30.392  25.265  23.198  1.00  0.00     0.024 A 
ATOM     13  C   UNL A   1      30.456  24.160  24.042  1.00  0.00     0.037 A 
BRANCH   9  14
ATOM     14  C   UNL A   1      31.539  27.939  25.632  1.00  0.00     0.030 C 
ATOM     15  C   UNL A   1      32.824  28.186  25.936  1.00  0.00     0.010 C 
BRANCH  15  16
ATOM     16  C   UNL A   1      33.391  29.362  26.627  1.00  0.00    -0.022 A 
ATOM     17  C   UNL A   1      34.340  31.755  27.823  1.00  0.00     0.154 A 
ATOM     18  C   UNL A   1      35.149  30.618  27.758  1.00  0.00     0.050 A 
ATOM     19  C   UNL A   1      33.065  31.693  27.270  1.00  0.00     0.165 A 
ATOM     20  C   UNL A   1      34.677  29.427  27.177  1.00  0.00     0.012 A 
ATOM     21  C   UNL A   1      32.596  30.518  26.681  1.00  0.00     0.051 A 
ATOM     22  F   UNL A   1      32.256  32.763  27.245  1.00  0.00    -0.203 F 
BRANCH  17  23
ATOM     23  O   UNL A   1      34.918  32.860  28.381  1.00  0.00    -0.494 OA
ATOM     24  C   UNL A   1      34.107  33.585  29.299  1.00  0.00     0.278 C 
ENDBRANCH  17  23
ENDBRANCH  15  16
ENDBRANCH   9  14
BRANCH  11  25
ATOM     25  C   UNL A   1      30.570  27.662  22.804  1.00  0.00     0.101 C 
ATOM     26  N   UNL A   1      30.471  28.610  22.147  1.00  0.00    -0.192 NA
ENDBRANCH  11  25
ENDBRANCH   6   8
ENDBRANCH   5   6
ENDBRANCH   4   5
ENDBRANCH   3   4
ENDBRANCH   2   3
ENDBRANCH   1   2
BRANCH   1  27
ATOM     27  C   UNL A   1      36.574  20.128  25.007  1.00  0.00     0.188 C 
BRANCH  27  28
ATOM     28  O   UNL A   1      37.193  21.268  25.559  1.00  0.00    -0.376 OA
BRANCH  28  29
ATOM     29  C   UNL A   1      38.589  21.457  25.375  1.00  0.00     0.202 C 
BRANCH  29  30
ATOM     30  C   UNL A   1      39.685  21.377  26.467  1.00  0.00     0.261 C 
BRANCH  30  31
ATOM     31  O   UNL A   1      40.409  20.156  26.649  1.00  0.00    -0.460 OA
BRANCH  31  32
ATOM     32  C   UNL A   1      41.641  20.103  26.085  1.00  0.00     0.338 C 
ATOM     33  O   UNL A   1      42.063  19.237  25.337  1.00  0.00    -0.246 OA
BRANCH  32  34
ATOM     34  C   UNL A   1      42.348  21.377  26.333  1.00  0.00     0.060 A 
ATOM     35  C   UNL A   1      42.693  21.703  27.652  1.00  0.00     0.016 A 
ATOM     36  C   UNL A   1      42.620  22.268  25.294  1.00  0.00     0.016 A 
ATOM     37  C   UNL A   1      43.280  22.932  27.940  1.00  0.00     0.010 A 
ATOM     38  C   UNL A   1      43.192  23.513  25.590  1.00  0.00     0.010 A 
ATOM     39  C   UNL A   1      43.493  23.866  26.919  1.00  0.00    -0.014 A 
BRANCH  39  40
ATOM     40  C   UNL A   1      43.893  25.249  27.283  1.00  0.00     0.031 A 
ATOM     41  C   UNL A   1      45.309  25.696  27.024  1.00  0.00     0.074 A 
ATOM     42  C   UNL A   1      42.988  26.123  27.768  1.00  0.00     0.049 A 
ATOM     43  N   UNL A   1      45.854  26.867  27.226  1.00  0.00    -0.248 NA
ATOM     44  C   UNL A   1      46.233  24.699  26.452  1.00  0.00     0.031 C 
ATOM     45  C   UNL A   1      41.583  25.816  28.038  1.00  0.00     0.029 A 
ATOM     46  N   UNL A   1      43.116  27.444  28.121  1.00  0.00    -0.354 N 
ATOM     47  C   UNL A   1      47.179  26.746  26.822  1.00  0.00     0.074 A 
ATOM     48  C   UNL A   1      47.368  25.383  26.384  1.00  0.00     0.031 C 
ATOM     49  C   UNL A   1      40.980  26.918  28.517  1.00  0.00     0.029 A 
ATOM     50  C   UNL A   1      41.959  27.998  28.621  1.00  0.00     0.049 A 
ATOM     51  H   UNL A   1      43.957  27.947  28.025  1.00  0.00     0.167 HD
ATOM     52  C   UNL A   1      48.143  27.695  26.793  1.00  0.00     0.034 A 
ATOM     53  C   UNL A   1      41.722  29.229  29.122  1.00  0.00     0.034 A 
ATOM     54  C   UNL A   1      47.946  29.058  27.206  1.00  0.00     0.049 A 
ATOM     55  C   UNL A   1      42.837  30.244  29.141  1.00  0.00     0.074 A 
ATOM     56  C   UNL A   1      48.860  30.095  27.184  1.00  0.00     0.029 A 
ATOM     57  N   UNL A   1      46.764  29.571  27.712  1.00  0.00    -0.354 N 
ATOM     58  N   UNL A   1      44.059  30.133  28.678  1.00  0.00    -0.248 NA
ATOM     59  C   UNL A   1      42.541  31.564  29.723  1.00  0.00     0.031 C 
ATOM     60  C   UNL A   1      48.246  31.226  27.719  1.00  0.00     0.029 A 
ATOM     61  C   UNL A   1      46.931  30.909  28.019  1.00  0.00     0.049 A 
ATOM     62  H   UNL A   1      45.932  29.061  27.835  1.00  0.00     0.167 HD
ATOM     63  C   UNL A   1      44.654  31.376  28.866  1.00  0.00     0.074 A 
ATOM     64  C   UNL A   1      43.661  32.230  29.481  1.00  0.00     0.031 C 
ATOM     65  C   UNL A   1      45.913  31.770  28.559  1.00  0.00     0.034 A 
BRANCH  52  66
ATOM     66  C   UNL A   1      49.502  27.332  26.254  1.00  0.00     0.023 A 
ATOM     67  C   UNL A   1      49.706  27.296  24.861  1.00  0.00     0.012 A 
ATOM     68  C   UNL A   1      50.606  27.191  27.121  1.00  0.00     0.148 A 
ATOM     69  C   UNL A   1      50.985  27.124  24.336  1.00  0.00     0.002 A 
ATOM     70  C   UNL A   1      51.883  27.066  26.591  1.00  0.00     0.091 A 
ATOM     71  F   UNL A   1      50.385  27.220  28.442  1.00  0.00    -0.205 F 
ATOM     72  C   UNL A   1      52.075  27.026  25.200  1.00  0.00     0.022 A 
BRANCH  70  73
ATOM     73  S   UNL A   1      53.361  27.022  27.611  1.00  0.00     0.127 S 
ATOM     74  O   UNL A   1      54.306  27.785  26.796  1.00  0.00    -0.237 OA
ATOM     75  O   UNL A   1      52.914  27.705  28.825  1.00  0.00    -0.237 OA
ATOM     76  O   UNL A   1      53.694  25.615  27.783  1.00  0.00    -0.744 OA
ENDBRANCH  70  73
ENDBRANCH  52  66
BRANCH  53  77
ATOM     77  C   UNL A   1      40.363  29.591  29.620  1.00  0.00     0.023 A 
ATOM     78  C   UNL A   1      39.474  30.286  28.777  1.00  0.00     0.012 A 
ATOM     79  C   UNL A   1      39.949  29.258  30.925  1.00  0.00     0.148 A 
ATOM     80  C   UNL A   1      38.216  30.676  29.235  1.00  0.00     0.002 A 
ATOM     81  C   UNL A   1      38.671  29.597  31.356  1.00  0.00     0.091 A 
ATOM     82  F   UNL A   1      40.813  28.612  31.720  1.00  0.00    -0.205 F 
ATOM     83  C   UNL A   1      37.811  30.324  30.520  1.00  0.00     0.022 A 
BRANCH  81  84
ATOM     84  S   UNL A   1      38.020  29.081  32.948  1.00  0.00     0.127 S 
ATOM     85  O   UNL A   1      36.681  29.666  32.928  1.00  0.00    -0.237 OA
ATOM     86  O   UNL A   1      38.057  27.624  32.830  1.00  0.00    -0.237 OA
ATOM     87  O   UNL A   1      38.931  29.629  33.944  1.00  0.00    -0.744 OA
ENDBRANCH  81  84
ENDBRANCH  53  77
BRANCH  65  88
ATOM     88  C   UNL A   1      46.311  33.201  28.806  1.00  0.00     0.023 A 
ATOM     89  C   UNL A   1      46.714  33.610  30.091  1.00  0.00     0.012 A 
ATOM     90  C   UNL A   1      46.467  34.082  27.714  1.00  0.00     0.148 A 
ATOM     91  C   UNL A   1      47.268  34.875  30.286  1.00  0.00     0.002 A 
ATOM     92  C   UNL A   1      47.069  35.318  27.908  1.00  0.00     0.091 A 
ATOM     93  F   UNL A   1      46.067  33.671  26.502  1.00  0.00    -0.205 F 
ATOM     94  C   UNL A   1      47.464  35.719  29.194  1.00  0.00     0.022 A 
BRANCH  92  95
ATOM     95  S   UNL A   1      47.472  36.423  26.549  1.00  0.00     0.127 S 
ATOM     96  O   UNL A   1      48.124  37.529  27.248  1.00  0.00    -0.237 OA
ATOM     97  O   UNL A   1      48.368  35.600  25.740  1.00  0.00    -0.237 OA
ATOM     98  O   UNL A   1      46.206  36.761  25.911  1.00  0.00    -0.744 OA
ENDBRANCH  92  95
ENDBRANCH  65  88
ENDBRANCH  39  40
ENDBRANCH  32  34
ENDBRANCH  31  32
ENDBRANCH  30  31
ENDBRANCH  29  30
ENDBRANCH  28  29
ENDBRANCH  27  28
ENDBRANCH   1  27
TORSDOF 24
ENDMDL
MODEL 2
REMARK VINA RESULT:     -10.0      2.553      7.996
REMARK SMILES COc1ccc(/C=C/c2nc(C(=O)OCCOCCOCCOC(=O)c3ccc(-c4c5nc(c(-c6cccc(S(=O)(=O)[O-])c6F)c6ccc([nH]6)c(-c6cccc(S(=O)(=O)[O-])c6F)c6nc(c(-c7cccc(S(=O)(=O)[O-])c7F)c7ccc4[nH]7)C=C6)C=C5)cc3)ccc2C#N)cc1F
REMARK SMILES IDX 18 1 17 2 16 3 15 4 14 5 12 6 13 7 11 8 9 9 10 10 91 11
REMARK SMILES IDX 90 12 89 13 8 14 7 15 6 16 3 17 4 18 95 19 5 20 94 21 96 22
REMARK SMILES IDX 2 23 1 24 92 25 93 26 19 27 20 28 21 29 22 30 23 31 24 32
REMARK SMILES IDX 25 33 26 34 27 35 88 36 28 37 87 38 29 39 30 40 31 41 81 42
REMARK SMILES IDX 32 43 86 44 80 45 82 46 33 47 85 48 79 49 78 50 34 52 66 53
REMARK SMILES IDX 46 54 65 55 47 56 50 57 64 58 83 59 48 60 49 61 63 63 84 64
REMARK SMILES IDX 51 65 35 66 36 67 44 68 37 69 39 70 45 71 38 72 40 73 41 74
REMARK SMILES IDX 42 75 43 76 67 77 68 78 76 79 69 80 71 81 77 82 70 83 72 84
REMARK SMILES IDX 73 85 74 86 75 87 52 88 53 89 61 90 54 91 56 92 62 93 55 94
REMARK SMILES IDX 57 95 58 96 59 97 60 98
REMARK H PARENT 82 51 50 62
REMARK Flexibility Score: inf
ROOT
ATOM      1  C   UNL A   1      35.597  19.384  25.015  1.00  0.00     0.188 C 
ENDROOT
BRANCH   1   2
ATOM      2  O   UNL A   1      34.482  20.162  24.628  1.00  0.00    -0.376 OA
BRANCH   2   3
ATOM      3  C   UNL A   1      33.375  20.321  25.500  1.00  0.00     0.202 C 
BRANCH   3   4
ATOM      4  C   UNL A   1      33.075  21.591  26.325  1.00  0.00     0.261 C 
BRANCH   4   5
ATOM      5  O   UNL A   1      31.870  22.305  26.022  1.00  0.00    -0.459 OA
BRANCH   5   6
ATOM      6  C   UNL A   1      31.972  23.663  25.983  1.00  0.00     0.357 C 
ATOM      7  O   UNL A   1      31.948  24.413  26.943  1.00  0.00    -0.244 OA
BRANCH   6   8
ATOM      8  C   UNL A   1      32.239  24.093  24.575  1.00  0.00     0.149 A 
ATOM      9  C   UNL A   1      31.839  25.665  22.891  1.00  0.00     0.082 A 
ATOM     10  N   UNL A   1      31.639  25.250  24.170  1.00  0.00    -0.240 NA
ATOM     11  C   UNL A   1      32.652  24.953  22.002  1.00  0.00     0.078 A 
ATOM     12  C   UNL A   1      33.298  23.796  22.461  1.00  0.00     0.024 A 
ATOM     13  C   UNL A   1      33.094  23.357  23.766  1.00  0.00     0.037 A 
BRANCH   9  14
ATOM     14  C   UNL A   1      31.194  26.951  22.560  1.00  0.00     0.030 C 
ATOM     15  C   UNL A   1      30.571  27.708  23.480  1.00  0.00     0.010 C 
BRANCH  15  16
ATOM     16  C   UNL A   1      29.806  28.954  23.273  1.00  0.00    -0.022 A 
ATOM     17  C   UNL A   1      28.319  31.290  22.648  1.00  0.00     0.154 A 
ATOM     18  C   UNL A   1      29.217  31.278  23.719  1.00  0.00     0.050 A 
ATOM     19  C   UNL A   1      28.186  30.136  21.882  1.00  0.00     0.165 A 
ATOM     20  C   UNL A   1      29.946  30.118  24.038  1.00  0.00     0.012 A 
ATOM     21  C   UNL A   1      28.916  28.986  22.187  1.00  0.00     0.051 A 
ATOM     22  F   UNL A   1      27.387  30.094  20.805  1.00  0.00    -0.203 F 
BRANCH  17  23
ATOM     23  O   UNL A   1      27.693  32.482  22.415  1.00  0.00    -0.494 OA
ATOM     24  C   UNL A   1      27.843  33.012  21.103  1.00  0.00     0.278 C 
ENDBRANCH  17  23
ENDBRANCH  15  16
ENDBRANCH   9  14
BRANCH  11  25
ATOM     25  C   UNL A   1      32.848  25.346  20.637  1.00  0.00     0.101 C 
ATOM     26  N   UNL A   1      32.934  25.647  19.522  1.00  0.00    -0.192 NA
ENDBRANCH  11  25
ENDBRANCH   6   8
ENDBRANCH   5   6
ENDBRANCH   4   5
ENDBRANCH   3   4
ENDBRANCH   2   3
ENDBRANCH   1   2
BRANCH   1  27
ATOM     27  C   UNL A   1      36.993  19.837  24.544  1.00  0.00     0.188 C 
BRANCH  27  28
ATOM     28  O   UNL A   1      37.548  20.944  25.217  1.00  0.00    -0.376 OA
BRANCH  28  29
ATOM     29  C   UNL A   1      38.912  20.905  25.610  1.00  0.00     0.202 C 
BRANCH  29  30
ATOM     30  C   UNL A   1      39.726  19.646  26.000  1.00  0.00     0.261 C 
BRANCH  30  31
ATOM     31  O   UNL A   1      41.032  19.452  25.445  1.00  0.00    -0.460 OA
BRANCH  31  32
ATOM     32  C   UNL A   1      42.075  19.661  26.285  1.00  0.00     0.338 C 
ATOM     33  O   UNL A   1      42.933  18.853  26.596  1.00  0.00    -0.246 OA
BRANCH  32  34
ATOM     34  C   UNL A   1      42.157  21.100  26.614  1.00  0.00     0.060 A 
ATOM     35  C   UNL A   1      42.246  22.020  25.560  1.00  0.00     0.016 A 
ATOM     36  C   UNL A   1      42.204  21.539  27.937  1.00  0.00     0.016 A 
ATOM     37  C   UNL A   1      42.414  23.377  25.826  1.00  0.00     0.010 A 
ATOM     38  C   UNL A   1      42.394  22.902  28.202  1.00  0.00     0.010 A 
ATOM     39  C   UNL A   1      42.536  23.824  27.148  1.00  0.00    -0.014 A 
BRANCH  39  40
ATOM     40  C   UNL A   1      42.953  25.228  27.395  1.00  0.00     0.031 A 
ATOM     41  C   UNL A   1      41.963  26.192  27.998  1.00  0.00     0.074 A 
ATOM     42  C   UNL A   1      44.220  25.622  27.158  1.00  0.00     0.049 A 
ATOM     43  N   UNL A   1      42.132  27.445  28.333  1.00  0.00    -0.248 NA
ATOM     44  C   UNL A   1      40.608  25.680  28.271  1.00  0.00     0.031 C 
ATOM     45  C   UNL A   1      45.274  24.775  26.600  1.00  0.00     0.029 A 
ATOM     46  N   UNL A   1      44.834  26.834  27.355  1.00  0.00    -0.354 N 
ATOM     47  C   UNL A   1      40.910  27.872  28.840  1.00  0.00     0.074 A 
ATOM     48  C   UNL A   1      39.998  26.756  28.749  1.00  0.00     0.031 C 
ATOM     49  C   UNL A   1      46.405  25.494  26.497  1.00  0.00     0.029 A 
ATOM     50  C   UNL A   1      46.149  26.861  26.948  1.00  0.00     0.049 A 
ATOM     51  H   UNL A   1      44.377  27.611  27.750  1.00  0.00     0.167 HD
ATOM     52  C   UNL A   1      40.586  29.078  29.360  1.00  0.00     0.034 A 
ATOM     53  C   UNL A   1      47.039  27.877  26.924  1.00  0.00     0.034 A 
ATOM     54  C   UNL A   1      41.503  30.180  29.473  1.00  0.00     0.049 A 
ATOM     55  C   UNL A   1      46.626  29.230  27.447  1.00  0.00     0.074 A 
ATOM     56  C   UNL A   1      41.269  31.431  30.013  1.00  0.00     0.029 A 
ATOM     57  N   UNL A   1      42.818  30.166  29.040  1.00  0.00    -0.354 N 
ATOM     58  N   UNL A   1      45.491  29.589  27.996  1.00  0.00    -0.248 NA
ATOM     59  C   UNL A   1      47.620  30.314  27.374  1.00  0.00     0.031 C 
ATOM     60  C   UNL A   1      42.430  32.190  29.868  1.00  0.00     0.029 A 
ATOM     61  C   UNL A   1      43.404  31.392  29.291  1.00  0.00     0.049 A 
ATOM     62  H   UNL A   1      43.268  29.398  28.620  1.00  0.00     0.167 HD
ATOM     63  C   UNL A   1      45.654  30.916  28.379  1.00  0.00     0.074 A 
ATOM     64  C   UNL A   1      46.997  31.301  28.003  1.00  0.00     0.031 C 
ATOM     65  C   UNL A   1      44.766  31.741  28.983  1.00  0.00     0.034 A 
BRANCH  52  66
ATOM     66  C   UNL A   1      39.197  29.286  29.903  1.00  0.00     0.023 A 
ATOM     67  C   UNL A   1      38.896  28.858  31.211  1.00  0.00     0.012 A 
ATOM     68  C   UNL A   1      38.250  30.044  29.185  1.00  0.00     0.148 A 
ATOM     69  C   UNL A   1      37.673  29.179  31.797  1.00  0.00     0.002 A 
ATOM     70  C   UNL A   1      37.052  30.400  29.793  1.00  0.00     0.091 A 
ATOM     71  F   UNL A   1      38.556  30.433  27.940  1.00  0.00    -0.205 F 
ATOM     72  C   UNL A   1      36.760  29.964  31.096  1.00  0.00     0.022 A 
BRANCH  70  73
ATOM     73  S   UNL A   1      35.847  31.480  29.013  1.00  0.00     0.127 S 
ATOM     74  O   UNL A   1      35.310  30.613  27.964  1.00  0.00    -0.237 OA
ATOM     75  O   UNL A   1      34.922  31.751  30.113  1.00  0.00    -0.237 OA
ATOM     76  O   UNL A   1      36.589  32.637  28.533  1.00  0.00    -0.744 OA
ENDBRANCH  70  73
ENDBRANCH  52  66
BRANCH  53  77
ATOM     77  C   UNL A   1      48.424  27.653  26.418  1.00  0.00     0.023 A 
ATOM     78  C   UNL A   1      49.461  27.368  27.328  1.00  0.00     0.012 A 
ATOM     79  C   UNL A   1      48.722  27.729  25.043  1.00  0.00     0.148 A 
ATOM     80  C   UNL A   1      50.772  27.200  26.884  1.00  0.00     0.002 A 
ATOM     81  C   UNL A   1      50.021  27.502  24.600  1.00  0.00     0.091 A 
ATOM     82  F   UNL A   1      47.728  28.019  24.192  1.00  0.00    -0.205 F 
ATOM     83  C   UNL A   1      51.051  27.257  25.521  1.00  0.00     0.022 A 
BRANCH  81  84
ATOM     84  S   UNL A   1      50.451  27.437  22.858  1.00  0.00     0.127 S 
ATOM     85  O   UNL A   1      51.840  26.989  22.908  1.00  0.00    -0.237 OA
ATOM     86  O   UNL A   1      49.502  26.445  22.351  1.00  0.00    -0.237 OA
ATOM     87  O   UNL A   1      50.242  28.786  22.349  1.00  0.00    -0.744 OA
ENDBRANCH  81  84
ENDBRANCH  53  77
BRANCH  65  88
ATOM     88  C   UNL A   1      45.199  33.134  29.356  1.00  0.00     0.023 A 
ATOM     89  C   UNL A   1      45.835  33.369  30.590  1.00  0.00     0.012 A 
ATOM     90  C   UNL A   1      45.143  34.166  28.394  1.00  0.00     0.148 A 
ATOM     91  C   UNL A   1      46.412  34.609  30.860  1.00  0.00     0.002 A 
ATOM     92  C   UNL A   1      45.768  35.379  28.650  1.00  0.00     0.091 A 
ATOM     93  F   UNL A   1      44.524  33.918  27.231  1.00  0.00    -0.205 F 
ATOM     94  C   UNL A   1      46.397  35.605  29.884  1.00  0.00     0.022 A 
BRANCH  92  95
ATOM     95  S   UNL A   1      45.904  36.677  27.414  1.00  0.00     0.127 S 
ATOM     96  O   UNL A   1      44.644  37.395  27.598  1.00  0.00    -0.237 OA
ATOM     97  O   UNL A   1      47.090  37.403  27.863  1.00  0.00    -0.237 OA
ATOM     98  O   UNL A   1      46.046  36.004  26.130  1.00  0.00    -0.744 OA
ENDBRANCH  92  95
ENDBRANCH  65  88
ENDBRANCH  39  40
ENDBRANCH  32  34
ENDBRANCH  31  32
ENDBRANCH  30  31
ENDBRANCH  29  30
ENDBRANCH  28  29
ENDBRANCH  27  28
ENDBRANCH   1  27
TORSDOF 24
ENDMDL
MODEL 3
REMARK VINA RESULT:      -9.9      5.314     10.461
REMARK SMILES COc1ccc(/C=C/c2nc(C(=O)OCCOCCOCCOC(=O)c3ccc(-c4c5nc(c(-c6cccc(S(=O)(=O)[O-])c6F)c6ccc([nH]6)c(-c6cccc(S(=O)(=O)[O-])c6F)c6nc(c(-c7cccc(S(=O)(=O)[O-])c7F)c7ccc4[nH]7)C=C6)C=C5)cc3)ccc2C#N)cc1F
REMARK SMILES IDX 18 1 17 2 16 3 15 4 14 5 12 6 13 7 11 8 9 9 10 10 91 11
REMARK SMILES IDX 90 12 89 13 8 14 7 15 6 16 3 17 4 18 95 19 5 20 94 21 96 22
REMARK SMILES IDX 2 23 1 24 92 25 93 26 19 27 20 28 21 29 22 30 23 31 24 32
REMARK SMILES IDX 25 33 26 34 27 35 88 36 28 37 87 38 29 39 30 40 31 41 81 42
REMARK SMILES IDX 32 43 86 44 80 45 82 46 33 47 85 48 79 49 78 50 34 52 66 53
REMARK SMILES IDX 46 54 65 55 47 56 50 57 64 58 83 59 48 60 49 61 63 63 84 64
REMARK SMILES IDX 51 65 35 66 36 67 44 68 37 69 39 70 45 71 38 72 40 73 41 74
REMARK SMILES IDX 42 75 43 76 67 77 68 78 76 79 69 80 71 81 77 82 70 83 72 84
REMARK SMILES IDX 73 85 74 86 75 87 52 88 53 89 61 90 54 91 56 92 62 93 55 94
REMARK SMILES IDX 57 95 58 96 59 97 60 98
REMARK H PARENT 82 51 50 62
REMARK Flexibility Score: inf
ROOT
ATOM      1  C   UNL A   1      31.327  29.950  25.276  1.00  0.00     0.188 C 
ENDROOT
BRANCH   1   2
ATOM      2  O   UNL A   1      31.176  29.628  23.907  1.00  0.00    -0.376 OA
BRANCH   2   3
ATOM      3  C   UNL A   1      29.897  29.328  23.373  1.00  0.00     0.202 C 
BRANCH   3   4
ATOM      4  C   UNL A   1      29.455  27.937  22.868  1.00  0.00     0.261 C 
BRANCH   4   5
ATOM      5  O   UNL A   1      30.238  26.808  23.276  1.00  0.00    -0.459 OA
BRANCH   5   6
ATOM      6  C   UNL A   1      31.219  26.418  22.415  1.00  0.00     0.357 C 
ATOM      7  O   UNL A   1      31.225  26.588  21.208  1.00  0.00    -0.244 OA
BRANCH   6   8
ATOM      8  C   UNL A   1      32.357  25.844  23.199  1.00  0.00     0.149 A 
ATOM      9  C   UNL A   1      33.569  23.935  23.792  1.00  0.00     0.082 A 
ATOM     10  N   UNL A   1      32.559  24.499  23.081  1.00  0.00    -0.240 NA
ATOM     11  C   UNL A   1      34.409  24.695  24.614  1.00  0.00     0.078 A 
ATOM     12  C   UNL A   1      34.212  26.083  24.675  1.00  0.00     0.024 A 
ATOM     13  C   UNL A   1      33.175  26.670  23.957  1.00  0.00     0.037 A 
BRANCH   9  14
ATOM     14  C   UNL A   1      33.742  22.487  23.561  1.00  0.00     0.030 C 
ATOM     15  C   UNL A   1      33.076  21.555  24.264  1.00  0.00     0.010 C 
BRANCH  15  16
ATOM     16  C   UNL A   1      33.223  20.087  24.207  1.00  0.00    -0.022 A 
ATOM     17  C   UNL A   1      33.738  17.299  24.078  1.00  0.00     0.154 A 
ATOM     18  C   UNL A   1      32.519  17.823  23.638  1.00  0.00     0.050 A 
ATOM     19  C   UNL A   1      34.701  18.178  24.561  1.00  0.00     0.165 A 
ATOM     20  C   UNL A   1      32.257  19.202  23.712  1.00  0.00     0.012 A 
ATOM     21  C   UNL A   1      34.451  19.550  24.625  1.00  0.00     0.051 A 
ATOM     22  F   UNL A   1      35.914  17.752  24.946  1.00  0.00    -0.203 F 
BRANCH  17  23
ATOM     23  O   UNL A   1      33.889  15.949  23.926  1.00  0.00    -0.494 OA
ATOM     24  C   UNL A   1      33.786  15.178  25.119  1.00  0.00     0.278 C 
ENDBRANCH  17  23
ENDBRANCH  15  16
ENDBRANCH   9  14
BRANCH  11  25
ATOM     25  C   UNL A   1      35.456  24.121  25.406  1.00  0.00     0.101 C 
ATOM     26  N   UNL A   1      36.351  23.692  26.003  1.00  0.00    -0.192 NA
ENDBRANCH  11  25
ENDBRANCH   6   8
ENDBRANCH   5   6
ENDBRANCH   4   5
ENDBRANCH   3   4
ENDBRANCH   2   3
ENDBRANCH   1   2
BRANCH   1  27
ATOM     27  C   UNL A   1      32.729  29.812  25.900  1.00  0.00     0.188 C 
BRANCH  27  28
ATOM     28  O   UNL A   1      32.868  30.275  27.224  1.00  0.00    -0.376 OA
BRANCH  28  29
ATOM     29  C   UNL A   1      33.520  31.514  27.461  1.00  0.00     0.202 C 
BRANCH  29  30
ATOM     30  C   UNL A   1      34.703  31.766  28.429  1.00  0.00     0.261 C 
BRANCH  30  31
ATOM     31  O   UNL A   1      34.575  32.758  29.454  1.00  0.00    -0.460 OA
BRANCH  31  32
ATOM     32  C   UNL A   1      35.024  32.407  30.683  1.00  0.00     0.338 C 
ATOM     33  O   UNL A   1      34.407  32.481  31.733  1.00  0.00    -0.246 OA
BRANCH  32  34
ATOM     34  C   UNL A   1      36.318  31.705  30.550  1.00  0.00     0.060 A 
ATOM     35  C   UNL A   1      36.470  30.463  31.182  1.00  0.00     0.016 A 
ATOM     36  C   UNL A   1      37.386  32.279  29.861  1.00  0.00     0.016 A 
ATOM     37  C   UNL A   1      37.699  29.809  31.156  1.00  0.00     0.010 A 
ATOM     38  C   UNL A   1      38.628  31.629  29.854  1.00  0.00     0.010 A 
ATOM     39  C   UNL A   1      38.801  30.407  30.531  1.00  0.00    -0.014 A 
BRANCH  39  40
ATOM     40  C   UNL A   1      40.147  29.810  30.723  1.00  0.00     0.031 A 
ATOM     41  C   UNL A   1      41.028  30.327  31.831  1.00  0.00     0.074 A 
ATOM     42  C   UNL A   1      40.551  28.767  29.971  1.00  0.00     0.049 A 
ATOM     43  N   UNL A   1      42.216  29.920  32.198  1.00  0.00    -0.248 NA
ATOM     44  C   UNL A   1      40.503  31.441  32.642  1.00  0.00     0.031 C 
ATOM     45  C   UNL A   1      39.778  28.162  28.886  1.00  0.00     0.029 A 
ATOM     46  N   UNL A   1      41.712  28.034  30.003  1.00  0.00    -0.354 N 
ATOM     47  C   UNL A   1      42.583  30.732  33.266  1.00  0.00     0.074 A 
ATOM     48  C   UNL A   1      41.507  31.671  33.477  1.00  0.00     0.031 C 
ATOM     49  C   UNL A   1      40.487  27.152  28.354  1.00  0.00     0.029 A 
ATOM     50  C   UNL A   1      41.778  27.058  29.035  1.00  0.00     0.049 A 
ATOM     51  H   UNL A   1      42.430  28.192  30.658  1.00  0.00     0.167 HD
ATOM     52  C   UNL A   1      43.706  30.679  34.020  1.00  0.00     0.034 A 
ATOM     53  C   UNL A   1      42.772  26.199  28.721  1.00  0.00     0.034 A 
ATOM     54  C   UNL A   1      44.764  29.726  33.823  1.00  0.00     0.049 A 
ATOM     55  C   UNL A   1      44.041  26.211  29.537  1.00  0.00     0.074 A 
ATOM     56  C   UNL A   1      45.927  29.581  34.558  1.00  0.00     0.029 A 
ATOM     57  N   UNL A   1      44.793  28.764  32.828  1.00  0.00    -0.354 N 
ATOM     58  N   UNL A   1      44.333  26.932  30.593  1.00  0.00    -0.248 NA
ATOM     59  C   UNL A   1      45.108  25.278  29.140  1.00  0.00     0.031 C 
ATOM     60  C   UNL A   1      46.681  28.560  33.981  1.00  0.00     0.029 A 
ATOM     61  C   UNL A   1      45.960  28.031  32.923  1.00  0.00     0.049 A 
ATOM     62  H   UNL A   1      44.088  28.624  32.156  1.00  0.00     0.167 HD
ATOM     63  C   UNL A   1      45.587  26.502  31.014  1.00  0.00     0.074 A 
ATOM     64  C   UNL A   1      46.002  25.457  30.103  1.00  0.00     0.031 C 
ATOM     65  C   UNL A   1      46.329  26.941  32.058  1.00  0.00     0.034 A 
BRANCH  52  66
ATOM     66  C   UNL A   1      43.853  31.639  35.170  1.00  0.00     0.023 A 
ATOM     67  C   UNL A   1      44.682  32.769  35.024  1.00  0.00     0.012 A 
ATOM     68  C   UNL A   1      43.050  31.512  36.322  1.00  0.00     0.148 A 
ATOM     69  C   UNL A   1      44.712  33.757  36.007  1.00  0.00     0.002 A 
ATOM     70  C   UNL A   1      43.051  32.522  37.275  1.00  0.00     0.091 A 
ATOM     71  F   UNL A   1      42.277  30.424  36.442  1.00  0.00    -0.205 F 
ATOM     72  C   UNL A   1      43.885  33.642  37.122  1.00  0.00     0.022 A 
BRANCH  70  73
ATOM     73  S   UNL A   1      41.960  32.516  38.702  1.00  0.00     0.127 S 
ATOM     74  O   UNL A   1      42.571  31.482  39.537  1.00  0.00    -0.237 OA
ATOM     75  O   UNL A   1      42.113  33.879  39.210  1.00  0.00    -0.237 OA
ATOM     76  O   UNL A   1      40.632  32.193  38.198  1.00  0.00    -0.744 OA
ENDBRANCH  70  73
ENDBRANCH  52  66
BRANCH  53  77
ATOM     77  C   UNL A   1      42.603  25.226  27.603  1.00  0.00     0.023 A 
ATOM     78  C   UNL A   1      43.215  25.481  26.360  1.00  0.00     0.012 A 
ATOM     79  C   UNL A   1      41.834  24.056  27.760  1.00  0.00     0.148 A 
ATOM     80  C   UNL A   1      43.034  24.610  25.285  1.00  0.00     0.002 A 
ATOM     81  C   UNL A   1      41.706  23.162  26.703  1.00  0.00     0.091 A 
ATOM     82  F   UNL A   1      41.244  23.838  28.944  1.00  0.00    -0.205 F 
ATOM     83  C   UNL A   1      42.288  23.447  25.459  1.00  0.00     0.022 A 
BRANCH  81  84
ATOM     84  S   UNL A   1      40.867  21.583  26.870  1.00  0.00     0.127 S 
ATOM     85  O   UNL A   1      39.544  21.889  26.332  1.00  0.00    -0.237 OA
ATOM     86  O   UNL A   1      41.689  20.715  26.027  1.00  0.00    -0.237 OA
ATOM     87  O   UNL A   1      40.910  21.261  28.290  1.00  0.00    -0.744 OA
ENDBRANCH  81  84
ENDBRANCH  53  77
BRANCH  65  88
ATOM     88  C   UNL A   1      47.645  26.272  32.352  1.00  0.00     0.023 A 
ATOM     89  C   UNL A   1      48.843  26.828  31.867  1.00  0.00     0.012 A 
ATOM     90  C   UNL A   1      47.697  25.201  33.270  1.00  0.00     0.148 A 
ATOM     91  C   UNL A   1      50.075  26.332  32.294  1.00  0.00     0.002 A 
ATOM     92  C   UNL A   1      48.926  24.749  33.731  1.00  0.00     0.091 A 
ATOM     93  F   UNL A   1      46.541  24.683  33.710  1.00  0.00    -0.205 F 
ATOM     94  C   UNL A   1      50.116  25.308  33.239  1.00  0.00     0.022 A 
BRANCH  92  95
ATOM     95  S   UNL A   1      49.079  23.519  35.033  1.00  0.00     0.127 S 
ATOM     96  O   UNL A   1      50.508  23.585  35.337  1.00  0.00    -0.237 OA
ATOM     97  O   UNL A   1      48.209  24.064  36.073  1.00  0.00    -0.237 OA
ATOM     98  O   UNL A   1      48.632  22.258  34.457  1.00  0.00    -0.744 OA
ENDBRANCH  92  95
ENDBRANCH  65  88
ENDBRANCH  39  40
ENDBRANCH  32  34
ENDBRANCH  31  32
ENDBRANCH  30  31
ENDBRANCH  29  30
ENDBRANCH  28  29
ENDBRANCH  27  28
ENDBRANCH   1  27
TORSDOF 24
ENDMDL
