MODEL 1
REMARK VINA RESULT:     -10.4      0.000      0.000
REMARK SMILES CCc1nc(C(=O)N2CC[NH+]([C@H](C)C(=O)OCCOCCOCCOC(=O)c3ccc(-c4c5nc(c(-c6cccc(S(=O)(=O)[O-])c6F)c6ccc([nH]6)c(-c6cccc(S(=O)(=O)[O-])c6F)c6nc(c(-c7cccc(S(=O)(=O)[O-])c7F)c7ccc4[nH]7)C=C6)C=C5)cc3)CC2)n[nH]1
REMARK SMILES IDX 20 1 19 2 18 3 17 4 16 5 14 6 15 7 12 8 13 9 11 10 6 11 7 12
REMARK SMILES IDX 8 13 9 14 92 15 10 16 91 17 5 19 3 20 4 21 94 22 93 23 2 25
REMARK SMILES IDX 1 26 21 27 22 28 23 29 24 30 25 31 26 32 27 33 28 34 29 35
REMARK SMILES IDX 90 36 30 37 89 38 31 39 32 40 33 41 83 42 34 43 88 44 82 45
REMARK SMILES IDX 84 46 35 47 87 48 81 49 80 50 36 52 68 53 48 54 67 55 49 56
REMARK SMILES IDX 52 57 66 58 85 59 50 60 51 61 65 63 86 64 53 65 37 66 38 67
REMARK SMILES IDX 46 68 39 69 41 70 47 71 40 72 42 73 43 74 44 75 45 76 69 77
REMARK SMILES IDX 70 78 78 79 71 80 73 81 79 82 72 83 74 84 75 85 76 86 77 87
REMARK SMILES IDX 54 88 55 89 63 90 56 91 58 92 64 93 57 94 59 95 60 96 61 97
REMARK SMILES IDX 62 98
REMARK H PARENT 11 18 94 24 84 51 52 62
REMARK Flexibility Score: inf
ROOT
ATOM      1  C   UNL A   1      39.259  22.134  26.727  1.00  0.00     0.188 C 
ENDROOT
BRANCH   1   2
ATOM      2  O   UNL A   1      38.590  21.854  25.506  1.00  0.00    -0.376 OA
BRANCH   2   3
ATOM      3  C   UNL A   1      37.436  21.020  25.515  1.00  0.00     0.202 C 
BRANCH   3   4
ATOM      4  C   UNL A   1      36.274  21.312  24.549  1.00  0.00     0.261 C 
BRANCH   4   5
ATOM      5  O   UNL A   1      35.498  22.494  24.843  1.00  0.00    -0.459 OA
BRANCH   5   6
ATOM      6  C   UNL A   1      34.947  23.143  23.777  1.00  0.00     0.364 C 
ATOM      7  O   UNL A   1      35.489  23.226  22.678  1.00  0.00    -0.245 OA
BRANCH   6   8
ATOM      8  C   UNL A   1      33.585  23.833  24.088  1.00  0.00     0.292 C 
ATOM      9  C   UNL A   1      32.599  23.105  25.021  1.00  0.00     0.088 C 
BRANCH   8  10
ATOM     10  N   UNL A   1      33.868  25.224  24.511  1.00  0.00    -0.321 N 
ATOM     11  C   UNL A   1      32.112  28.838  24.957  1.00  0.00     0.293 C 
ATOM     12  O   UNL A   1      31.734  29.350  26.016  1.00  0.00    -0.265 OA
ATOM     13  N   UNL A   1      33.204  27.974  24.948  1.00  0.00    -0.325 N 
ATOM     14  C   UNL A   1      33.370  27.078  26.081  1.00  0.00     0.181 C 
ATOM     15  C   UNL A   1      34.035  27.634  23.793  1.00  0.00     0.181 C 
ATOM     16  C   UNL A   1      33.002  25.658  25.625  1.00  0.00     0.284 C 
ATOM     17  C   UNL A   1      33.852  26.165  23.371  1.00  0.00     0.284 C 
ATOM     18  H   UNL A   1      34.820  25.235  24.876  1.00  0.00     0.348 HD
BRANCH  11  19
ATOM     19  C   UNL A   1      31.340  29.010  23.701  1.00  0.00     0.239 A 
ATOM     20  C   UNL A   1      29.655  29.392  22.440  1.00  0.00     0.124 A 
ATOM     21  N   UNL A   1      29.959  28.887  23.618  1.00  0.00    -0.208 NA
ATOM     22  N   UNL A   1      30.815  29.745  21.815  1.00  0.00    -0.263 N 
ATOM     23  N   UNL A   1      31.887  29.511  22.577  1.00  0.00    -0.148 NA
ATOM     24  H   UNL A   1      30.857  30.128  20.909  1.00  0.00     0.192 HD
BRANCH  20  25
ATOM     25  C   UNL A   1      28.290  29.624  21.889  1.00  0.00     0.073 C 
ATOM     26  C   UNL A   1      27.535  30.771  22.544  1.00  0.00     0.012 C 
ENDBRANCH  20  25
ENDBRANCH  11  19
ENDBRANCH   8  10
ENDBRANCH   6   8
ENDBRANCH   5   6
ENDBRANCH   4   5
ENDBRANCH   3   4
ENDBRANCH   2   3
ENDBRANCH   1   2
BRANCH   1  27
ATOM     27  C   UNL A   1      40.669  21.570  26.925  1.00  0.00     0.188 C 
BRANCH  27  28
ATOM     28  O   UNL A   1      41.052  20.565  26.018  1.00  0.00    -0.376 OA
BRANCH  28  29
ATOM     29  C   UNL A   1      42.428  20.274  25.865  1.00  0.00     0.202 C 
BRANCH  29  30
ATOM     30  C   UNL A   1      43.438  21.370  25.479  1.00  0.00     0.261 C 
BRANCH  30  31
ATOM     31  O   UNL A   1      42.915  22.612  24.983  1.00  0.00    -0.460 OA
BRANCH  31  32
ATOM     32  C   UNL A   1      43.747  23.684  24.953  1.00  0.00     0.338 C 
ATOM     33  O   UNL A   1      44.636  23.892  24.154  1.00  0.00    -0.246 OA
BRANCH  32  34
ATOM     34  C   UNL A   1      43.194  24.684  25.905  1.00  0.00     0.060 A 
ATOM     35  C   UNL A   1      43.481  26.044  25.714  1.00  0.00     0.016 A 
ATOM     36  C   UNL A   1      42.345  24.285  26.938  1.00  0.00     0.016 A 
ATOM     37  C   UNL A   1      42.923  27.009  26.559  1.00  0.00     0.010 A 
ATOM     38  C   UNL A   1      41.812  25.248  27.800  1.00  0.00     0.010 A 
ATOM     39  C   UNL A   1      42.111  26.613  27.628  1.00  0.00    -0.014 A 
BRANCH  39  40
ATOM     40  C   UNL A   1      41.711  27.578  28.682  1.00  0.00     0.031 A 
ATOM     41  C   UNL A   1      42.568  27.674  29.916  1.00  0.00     0.074 A 
ATOM     42  C   UNL A   1      40.590  28.315  28.581  1.00  0.00     0.049 A 
ATOM     43  N   UNL A   1      42.347  28.310  31.035  1.00  0.00    -0.248 NA
ATOM     44  C   UNL A   1      43.849  26.945  29.878  1.00  0.00     0.031 C 
ATOM     45  C   UNL A   1      39.689  28.340  27.430  1.00  0.00     0.029 A 
ATOM     46  N   UNL A   1      39.996  29.159  29.491  1.00  0.00    -0.354 N 
ATOM     47  C   UNL A   1      43.443  28.039  31.845  1.00  0.00     0.074 A 
ATOM     48  C   UNL A   1      44.324  27.173  31.094  1.00  0.00     0.031 C 
ATOM     49  C   UNL A   1      38.633  29.123  27.720  1.00  0.00     0.029 A 
ATOM     50  C   UNL A   1      38.762  29.619  29.089  1.00  0.00     0.049 A 
ATOM     51  H   UNL A   1      40.414  29.409  30.347  1.00  0.00     0.167 HD
ATOM     52  C   UNL A   1      43.701  28.482  33.098  1.00  0.00     0.034 A 
ATOM     53  C   UNL A   1      37.830  30.320  29.767  1.00  0.00     0.034 A 
ATOM     54  C   UNL A   1      42.827  29.345  33.844  1.00  0.00     0.049 A 
ATOM     55  C   UNL A   1      38.106  30.732  31.195  1.00  0.00     0.074 A 
ATOM     56  C   UNL A   1      43.007  29.856  35.116  1.00  0.00     0.029 A 
ATOM     57  N   UNL A   1      41.604  29.815  33.392  1.00  0.00    -0.354 N 
ATOM     58  N   UNL A   1      39.184  30.546  31.918  1.00  0.00    -0.248 NA
ATOM     59  C   UNL A   1      37.041  31.469  31.895  1.00  0.00     0.031 C 
ATOM     60  C   UNL A   1      41.879  30.616  35.445  1.00  0.00     0.029 A 
ATOM     61  C   UNL A   1      41.015  30.604  34.363  1.00  0.00     0.049 A 
ATOM     62  H   UNL A   1      41.214  29.618  32.510  1.00  0.00     0.167 HD
ATOM     63  C   UNL A   1      38.943  31.177  33.135  1.00  0.00     0.074 A 
ATOM     64  C   UNL A   1      37.626  31.769  33.046  1.00  0.00     0.031 C 
ATOM     65  C   UNL A   1      39.732  31.246  34.236  1.00  0.00     0.034 A 
BRANCH  52  66
ATOM     66  C   UNL A   1      44.999  28.064  33.735  1.00  0.00     0.023 A 
ATOM     67  C   UNL A   1      46.152  28.850  33.534  1.00  0.00     0.012 A 
ATOM     68  C   UNL A   1      45.063  26.942  34.583  1.00  0.00     0.148 A 
ATOM     69  C   UNL A   1      47.357  28.511  34.147  1.00  0.00     0.002 A 
ATOM     70  C   UNL A   1      46.256  26.636  35.226  1.00  0.00     0.091 A 
ATOM     71  F   UNL A   1      43.960  26.199  34.745  1.00  0.00    -0.205 F 
ATOM     72  C   UNL A   1      47.405  27.412  35.001  1.00  0.00     0.022 A 
BRANCH  70  73
ATOM     73  S   UNL A   1      46.410  25.288  36.403  1.00  0.00     0.127 S 
ATOM     74  O   UNL A   1      47.685  25.602  37.046  1.00  0.00    -0.237 OA
ATOM     75  O   UNL A   1      45.233  25.488  37.250  1.00  0.00    -0.237 OA
ATOM     76  O   UNL A   1      46.396  24.062  35.617  1.00  0.00    -0.744 OA
ENDBRANCH  70  73
ENDBRANCH  52  66
BRANCH  53  77
ATOM     77  C   UNL A   1      36.531  30.684  29.126  1.00  0.00     0.023 A 
ATOM     78  C   UNL A   1      35.756  29.682  28.509  1.00  0.00     0.012 A 
ATOM     79  C   UNL A   1      36.084  32.020  29.079  1.00  0.00     0.148 A 
ATOM     80  C   UNL A   1      34.588  30.008  27.817  1.00  0.00     0.002 A 
ATOM     81  C   UNL A   1      34.890  32.329  28.437  1.00  0.00     0.091 A 
ATOM     82  F   UNL A   1      36.844  32.965  29.648  1.00  0.00    -0.205 F 
ATOM     83  C   UNL A   1      34.151  31.329  27.788  1.00  0.00     0.022 A 
BRANCH  81  84
ATOM     84  S   UNL A   1      34.194  33.985  28.445  1.00  0.00     0.127 S 
ATOM     85  O   UNL A   1      32.946  33.787  27.710  1.00  0.00    -0.237 OA
ATOM     86  O   UNL A   1      34.032  34.240  29.876  1.00  0.00    -0.237 OA
ATOM     87  O   UNL A   1      35.185  34.829  27.793  1.00  0.00    -0.744 OA
ENDBRANCH  81  84
ENDBRANCH  53  77
BRANCH  65  88
ATOM     88  C   UNL A   1      39.232  32.032  35.421  1.00  0.00     0.023 A 
ATOM     89  C   UNL A   1      38.413  31.408  36.383  1.00  0.00     0.012 A 
ATOM     90  C   UNL A   1      39.654  33.360  35.630  1.00  0.00     0.148 A 
ATOM     91  C   UNL A   1      38.001  32.103  37.521  1.00  0.00     0.002 A 
ATOM     92  C   UNL A   1      39.282  34.030  36.790  1.00  0.00     0.091 A 
ATOM     93  F   UNL A   1      40.426  33.938  34.697  1.00  0.00    -0.205 F 
ATOM     94  C   UNL A   1      38.445  33.407  37.730  1.00  0.00     0.022 A 
BRANCH  92  95
ATOM     95  S   UNL A   1      39.882  35.674  37.195  1.00  0.00     0.127 S 
ATOM     96  O   UNL A   1      41.322  35.444  37.313  1.00  0.00    -0.237 OA
ATOM     97  O   UNL A   1      39.484  36.445  36.018  1.00  0.00    -0.237 OA
ATOM     98  O   UNL A   1      39.213  36.057  38.430  1.00  0.00    -0.744 OA
ENDBRANCH  92  95
ENDBRANCH  65  88
ENDBRANCH  39  40
ENDBRANCH  32  34
ENDBRANCH  31  32
ENDBRANCH  30  31
ENDBRANCH  29  30
ENDBRANCH  28  29
ENDBRANCH  27  28
ENDBRANCH   1  27
TORSDOF 23
ENDMDL
MODEL 2
REMARK VINA RESULT:     -10.1      2.849      9.466
REMARK SMILES CCc1nc(C(=O)N2CC[NH+]([C@H](C)C(=O)OCCOCCOCCOC(=O)c3ccc(-c4c5nc(c(-c6cccc(S(=O)(=O)[O-])c6F)c6ccc([nH]6)c(-c6cccc(S(=O)(=O)[O-])c6F)c6nc(c(-c7cccc(S(=O)(=O)[O-])c7F)c7ccc4[nH]7)C=C6)C=C5)cc3)CC2)n[nH]1
REMARK SMILES IDX 20 1 19 2 18 3 17 4 16 5 14 6 15 7 12 8 13 9 11 10 6 11 7 12
REMARK SMILES IDX 8 13 9 14 92 15 10 16 91 17 5 19 3 20 4 21 94 22 93 23 2 25
REMARK SMILES IDX 1 26 21 27 22 28 23 29 24 30 25 31 26 32 27 33 28 34 29 35
REMARK SMILES IDX 90 36 30 37 89 38 31 39 32 40 33 41 83 42 34 43 88 44 82 45
REMARK SMILES IDX 84 46 35 47 87 48 81 49 80 50 36 52 68 53 48 54 67 55 49 56
REMARK SMILES IDX 52 57 66 58 85 59 50 60 51 61 65 63 86 64 53 65 37 66 38 67
REMARK SMILES IDX 46 68 39 69 41 70 47 71 40 72 42 73 43 74 44 75 45 76 69 77
REMARK SMILES IDX 70 78 78 79 71 80 73 81 79 82 72 83 74 84 75 85 76 86 77 87
REMARK SMILES IDX 54 88 55 89 63 90 56 91 58 92 64 93 57 94 59 95 60 96 61 97
REMARK SMILES IDX 62 98
REMARK H PARENT 11 18 94 24 84 51 52 62
REMARK Flexibility Score: inf
ROOT
ATOM      1  C   UNL A   1      32.511  28.737  25.227  1.00  0.00     0.188 C 
ENDROOT
BRANCH   1   2
ATOM      2  O   UNL A   1      31.574  27.675  25.128  1.00  0.00    -0.376 OA
BRANCH   2   3
ATOM      3  C   UNL A   1      31.410  26.781  26.224  1.00  0.00     0.202 C 
BRANCH   3   4
ATOM      4  C   UNL A   1      30.326  25.690  26.166  1.00  0.00     0.261 C 
BRANCH   4   5
ATOM      5  O   UNL A   1      30.546  24.544  27.017  1.00  0.00    -0.459 OA
BRANCH   5   6
ATOM      6  C   UNL A   1      30.327  23.319  26.457  1.00  0.00     0.364 C 
ATOM      7  O   UNL A   1      29.574  22.477  26.937  1.00  0.00    -0.245 OA
BRANCH   6   8
ATOM      8  C   UNL A   1      31.173  23.047  25.176  1.00  0.00     0.292 C 
ATOM      9  C   UNL A   1      30.726  23.708  23.858  1.00  0.00     0.088 C 
BRANCH   8  10
ATOM     10  N   UNL A   1      32.593  23.306  25.505  1.00  0.00    -0.321 N 
ATOM     11  C   UNL A   1      36.331  21.944  24.788  1.00  0.00     0.293 C 
ATOM     12  O   UNL A   1      37.160  22.435  24.018  1.00  0.00    -0.265 OA
ATOM     13  N   UNL A   1      35.401  22.758  25.430  1.00  0.00    -0.325 N 
ATOM     14  C   UNL A   1      34.861  23.886  24.688  1.00  0.00     0.181 C 
ATOM     15  C   UNL A   1      34.664  22.441  26.653  1.00  0.00     0.181 C 
ATOM     16  C   UNL A   1      33.411  23.553  24.302  1.00  0.00     0.284 C 
ATOM     17  C   UNL A   1      33.160  22.258  26.381  1.00  0.00     0.284 C 
ATOM     18  H   UNL A   1      32.618  24.171  26.044  1.00  0.00     0.348 HD
BRANCH  11  19
ATOM     19  C   UNL A   1      36.203  20.472  24.945  1.00  0.00     0.239 A 
ATOM     20  C   UNL A   1      35.439  18.500  24.631  1.00  0.00     0.124 A 
ATOM     21  N   UNL A   1      35.052  19.758  24.637  1.00  0.00    -0.208 NA
ATOM     22  N   UNL A   1      36.756  18.457  24.985  1.00  0.00    -0.263 N 
ATOM     23  N   UNL A   1      37.260  19.676  25.195  1.00  0.00    -0.148 NA
ATOM     24  H   UNL A   1      37.275  17.624  25.075  1.00  0.00     0.192 HD
BRANCH  20  25
ATOM     25  C   UNL A   1      34.628  17.313  24.236  1.00  0.00     0.073 C 
ATOM     26  C   UNL A   1      34.689  16.154  25.220  1.00  0.00     0.012 C 
ENDBRANCH  20  25
ENDBRANCH  11  19
ENDBRANCH   8  10
ENDBRANCH   6   8
ENDBRANCH   5   6
ENDBRANCH   4   5
ENDBRANCH   3   4
ENDBRANCH   2   3
ENDBRANCH   1   2
BRANCH   1  27
ATOM     27  C   UNL A   1      31.979  30.173  25.238  1.00  0.00     0.188 C 
BRANCH  27  28
ATOM     28  O   UNL A   1      31.679  30.697  26.509  1.00  0.00    -0.376 OA
BRANCH  28  29
ATOM     29  C   UNL A   1      31.269  32.048  26.610  1.00  0.00     0.202 C 
BRANCH  29  30
ATOM     30  C   UNL A   1      32.181  33.114  27.243  1.00  0.00     0.261 C 
BRANCH  30  31
ATOM     31  O   UNL A   1      33.593  32.857  27.256  1.00  0.00    -0.460 OA
BRANCH  31  32
ATOM     32  C   UNL A   1      34.391  33.730  27.923  1.00  0.00     0.338 C 
ATOM     33  O   UNL A   1      34.160  34.900  28.149  1.00  0.00    -0.246 OA
BRANCH  32  34
ATOM     34  C   UNL A   1      35.469  32.927  28.559  1.00  0.00     0.060 A 
ATOM     35  C   UNL A   1      35.194  31.613  28.969  1.00  0.00     0.016 A 
ATOM     36  C   UNL A   1      36.758  33.446  28.688  1.00  0.00     0.016 A 
ATOM     37  C   UNL A   1      36.207  30.816  29.513  1.00  0.00     0.010 A 
ATOM     38  C   UNL A   1      37.761  32.659  29.260  1.00  0.00     0.010 A 
ATOM     39  C   UNL A   1      37.489  31.347  29.692  1.00  0.00    -0.014 A 
BRANCH  39  40
ATOM     40  C   UNL A   1      38.511  30.623  30.488  1.00  0.00     0.031 A 
ATOM     41  C   UNL A   1      38.770  31.086  31.897  1.00  0.00     0.074 A 
ATOM     42  C   UNL A   1      39.233  29.614  29.967  1.00  0.00     0.049 A 
ATOM     43  N   UNL A   1      39.712  30.731  32.729  1.00  0.00    -0.248 NA
ATOM     44  C   UNL A   1      37.837  32.093  32.434  1.00  0.00     0.031 C 
ATOM     45  C   UNL A   1      39.063  29.048  28.630  1.00  0.00     0.029 A 
ATOM     46  N   UNL A   1      40.292  28.912  30.496  1.00  0.00    -0.354 N 
ATOM     47  C   UNL A   1      39.506  31.487  33.876  1.00  0.00     0.074 A 
ATOM     48  C   UNL A   1      38.355  32.328  33.631  1.00  0.00     0.031 C 
ATOM     49  C   UNL A   1      40.014  28.117  28.426  1.00  0.00     0.029 A 
ATOM     50  C   UNL A   1      40.883  28.051  29.598  1.00  0.00     0.049 A 
ATOM     51  H   UNL A   1      40.596  29.016  31.426  1.00  0.00     0.167 HD
ATOM     52  C   UNL A   1      40.202  31.474  35.037  1.00  0.00     0.034 A 
ATOM     53  C   UNL A   1      42.019  27.331  29.701  1.00  0.00     0.034 A 
ATOM     54  C   UNL A   1      41.344  30.638  35.282  1.00  0.00     0.049 A 
ATOM     55  C   UNL A   1      42.827  27.398  30.977  1.00  0.00     0.074 A 
ATOM     56  C   UNL A   1      42.110  30.546  36.430  1.00  0.00     0.029 A 
ATOM     57  N   UNL A   1      41.892  29.757  34.363  1.00  0.00    -0.354 N 
ATOM     58  N   UNL A   1      42.571  28.047  32.087  1.00  0.00    -0.248 NA
ATOM     59  C   UNL A   1      44.072  26.615  31.021  1.00  0.00     0.031 C 
ATOM     60  C   UNL A   1      43.139  29.628  36.197  1.00  0.00     0.029 A 
ATOM     61  C   UNL A   1      42.991  29.124  34.915  1.00  0.00     0.049 A 
ATOM     62  H   UNL A   1      41.549  29.605  33.453  1.00  0.00     0.167 HD
ATOM     63  C   UNL A   1      43.595  27.718  32.969  1.00  0.00     0.074 A 
ATOM     64  C   UNL A   1      44.466  26.795  32.274  1.00  0.00     0.031 C 
ATOM     65  C   UNL A   1      43.809  28.153  34.236  1.00  0.00     0.034 A 
BRANCH  52  66
ATOM     66  C   UNL A   1      39.731  32.375  36.147  1.00  0.00     0.023 A 
ATOM     67  C   UNL A   1      40.250  33.682  36.245  1.00  0.00     0.012 A 
ATOM     68  C   UNL A   1      38.730  31.957  37.045  1.00  0.00     0.148 A 
ATOM     69  C   UNL A   1      39.799  34.552  37.235  1.00  0.00     0.002 A 
ATOM     70  C   UNL A   1      38.253  32.844  38.002  1.00  0.00     0.091 A 
ATOM     71  F   UNL A   1      38.264  30.704  36.945  1.00  0.00    -0.205 F 
ATOM     72  C   UNL A   1      38.793  34.137  38.105  1.00  0.00     0.022 A 
BRANCH  70  73
ATOM     73  S   UNL A   1      36.910  32.438  39.122  1.00  0.00     0.127 S 
ATOM     74  O   UNL A   1      37.096  30.998  39.296  1.00  0.00    -0.237 OA
ATOM     75  O   UNL A   1      37.241  33.242  40.299  1.00  0.00    -0.237 OA
ATOM     76  O   UNL A   1      35.683  32.828  38.441  1.00  0.00    -0.744 OA
ENDBRANCH  70  73
ENDBRANCH  52  66
BRANCH  53  77
ATOM     77  C   UNL A   1      42.489  26.479  28.568  1.00  0.00     0.023 A 
ATOM     78  C   UNL A   1      41.892  25.220  28.352  1.00  0.00     0.012 A 
ATOM     79  C   UNL A   1      43.552  26.882  27.736  1.00  0.00     0.148 A 
ATOM     80  C   UNL A   1      42.375  24.362  27.363  1.00  0.00     0.002 A 
ATOM     81  C   UNL A   1      43.991  26.046  26.716  1.00  0.00     0.091 A 
ATOM     82  F   UNL A   1      44.126  28.071  27.969  1.00  0.00    -0.205 F 
ATOM     83  C   UNL A   1      43.418  24.777  26.541  1.00  0.00     0.022 A 
BRANCH  81  84
ATOM     84  S   UNL A   1      45.254  26.542  25.539  1.00  0.00     0.127 S 
ATOM     85  O   UNL A   1      44.670  27.755  24.970  1.00  0.00    -0.237 OA
ATOM     86  O   UNL A   1      46.409  26.763  26.408  1.00  0.00    -0.237 OA
ATOM     87  O   UNL A   1      45.397  25.419  24.623  1.00  0.00    -0.744 OA
ENDBRANCH  81  84
ENDBRANCH  53  77
BRANCH  65  88
ATOM     88  C   UNL A   1      44.996  27.603  34.986  1.00  0.00     0.023 A 
ATOM     89  C   UNL A   1      46.209  28.319  35.006  1.00  0.00     0.012 A 
ATOM     90  C   UNL A   1      44.876  26.425  35.750  1.00  0.00     0.148 A 
ATOM     91  C   UNL A   1      47.292  27.857  35.754  1.00  0.00     0.002 A 
ATOM     92  C   UNL A   1      45.942  25.997  36.533  1.00  0.00     0.091 A 
ATOM     93  F   UNL A   1      43.716  25.753  35.709  1.00  0.00    -0.205 F 
ATOM     94  C   UNL A   1      47.155  26.705  36.526  1.00  0.00     0.022 A 
BRANCH  92  95
ATOM     95  S   UNL A   1      45.830  24.583  37.635  1.00  0.00     0.127 S 
ATOM     96  O   UNL A   1      44.717  24.968  38.501  1.00  0.00    -0.237 OA
ATOM     97  O   UNL A   1      45.529  23.493  36.706  1.00  0.00    -0.237 OA
ATOM     98  O   UNL A   1      47.123  24.480  38.296  1.00  0.00    -0.744 OA
ENDBRANCH  92  95
ENDBRANCH  65  88
ENDBRANCH  39  40
ENDBRANCH  32  34
ENDBRANCH  31  32
ENDBRANCH  30  31
ENDBRANCH  29  30
ENDBRANCH  28  29
ENDBRANCH  27  28
ENDBRANCH   1  27
TORSDOF 23
ENDMDL
MODEL 3
REMARK VINA RESULT:     -10.0      2.000      2.278
REMARK SMILES CCc1nc(C(=O)N2CC[NH+]([C@H](C)C(=O)OCCOCCOCCOC(=O)c3ccc(-c4c5nc(c(-c6cccc(S(=O)(=O)[O-])c6F)c6ccc([nH]6)c(-c6cccc(S(=O)(=O)[O-])c6F)c6nc(c(-c7cccc(S(=O)(=O)[O-])c7F)c7ccc4[nH]7)C=C6)C=C5)cc3)CC2)n[nH]1
REMARK SMILES IDX 20 1 19 2 18 3 17 4 16 5 14 6 15 7 12 8 13 9 11 10 6 11 7 12
REMARK SMILES IDX 8 13 9 14 92 15 10 16 91 17 5 19 3 20 4 21 94 22 93 23 2 25
REMARK SMILES IDX 1 26 21 27 22 28 23 29 24 30 25 31 26 32 27 33 28 34 29 35
REMARK SMILES IDX 90 36 30 37 89 38 31 39 32 40 33 41 83 42 34 43 88 44 82 45
REMARK SMILES IDX 84 46 35 47 87 48 81 49 80 50 36 52 68 53 48 54 67 55 49 56
REMARK SMILES IDX 52 57 66 58 85 59 50 60 51 61 65 63 86 64 53 65 37 66 38 67
REMARK SMILES IDX 46 68 39 69 41 70 47 71 40 72 42 73 43 74 44 75 45 76 69 77
REMARK SMILES IDX 70 78 78 79 71 80 73 81 79 82 72 83 74 84 75 85 76 86 77 87
REMARK SMILES IDX 54 88 55 89 63 90 56 91 58 92 64 93 57 94 59 95 60 96 61 97
REMARK SMILES IDX 62 98
REMARK H PARENT 11 18 94 24 84 51 52 62
REMARK Flexibility Score: inf
ROOT
ATOM      1  C   UNL A   1      39.730  22.079  26.872  1.00  0.00     0.188 C 
ENDROOT
BRANCH   1   2
ATOM      2  O   UNL A   1      38.954  21.972  25.688  1.00  0.00    -0.376 OA
BRANCH   2   3
ATOM      3  C   UNL A   1      37.874  21.046  25.640  1.00  0.00     0.202 C 
BRANCH   3   4
ATOM      4  C   UNL A   1      36.721  21.266  24.644  1.00  0.00     0.261 C 
BRANCH   4   5
ATOM      5  O   UNL A   1      35.950  22.471  24.837  1.00  0.00    -0.459 OA
BRANCH   5   6
ATOM      6  C   UNL A   1      35.574  23.142  23.709  1.00  0.00     0.364 C 
ATOM      7  O   UNL A   1      36.314  23.322  22.747  1.00  0.00    -0.245 OA
BRANCH   6   8
ATOM      8  C   UNL A   1      34.129  23.723  23.768  1.00  0.00     0.292 C 
ATOM      9  C   UNL A   1      33.084  22.984  24.626  1.00  0.00     0.088 C 
BRANCH   8  10
ATOM     10  N   UNL A   1      34.232  25.165  24.091  1.00  0.00    -0.321 N 
ATOM     11  C   UNL A   1      31.996  28.361  25.152  1.00  0.00     0.293 C 
ATOM     12  O   UNL A   1      31.891  28.845  26.283  1.00  0.00    -0.265 OA
ATOM     13  N   UNL A   1      33.180  27.741  24.763  1.00  0.00    -0.325 N 
ATOM     14  C   UNL A   1      33.901  26.967  25.762  1.00  0.00     0.181 C 
ATOM     15  C   UNL A   1      33.634  27.511  23.391  1.00  0.00     0.181 C 
ATOM     16  C   UNL A   1      33.714  25.476  25.437  1.00  0.00     0.284 C 
ATOM     17  C   UNL A   1      33.639  26.014  23.035  1.00  0.00     0.284 C 
ATOM     18  H   UNL A   1      35.226  25.392  24.114  1.00  0.00     0.348 HD
BRANCH  11  19
ATOM     19  C   UNL A   1      30.833  28.296  24.232  1.00  0.00     0.239 A 
ATOM     20  C   UNL A   1      29.331  28.988  22.876  1.00  0.00     0.124 A 
ATOM     21  N   UNL A   1      30.035  29.388  23.914  1.00  0.00    -0.208 NA
ATOM     22  N   UNL A   1      29.647  27.686  22.622  1.00  0.00    -0.263 N 
ATOM     23  N   UNL A   1      30.580  27.223  23.459  1.00  0.00    -0.148 NA
ATOM     24  H   UNL A   1      29.237  27.150  21.904  1.00  0.00     0.192 HD
BRANCH  20  25
ATOM     25  C   UNL A   1      28.401  29.812  22.052  1.00  0.00     0.073 C 
ATOM     26  C   UNL A   1      28.919  31.204  21.721  1.00  0.00     0.012 C 
ENDBRANCH  20  25
ENDBRANCH  11  19
ENDBRANCH   8  10
ENDBRANCH   6   8
ENDBRANCH   5   6
ENDBRANCH   4   5
ENDBRANCH   3   4
ENDBRANCH   2   3
ENDBRANCH   1   2
BRANCH   1  27
ATOM     27  C   UNL A   1      41.218  21.722  26.797  1.00  0.00     0.188 C 
BRANCH  27  28
ATOM     28  O   UNL A   1      41.565  20.782  25.810  1.00  0.00    -0.376 OA
BRANCH  28  29
ATOM     29  C   UNL A   1      42.935  20.507  25.583  1.00  0.00     0.202 C 
BRANCH  29  30
ATOM     30  C   UNL A   1      43.954  21.642  25.377  1.00  0.00     0.261 C 
BRANCH  30  31
ATOM     31  O   UNL A   1      43.451  22.915  24.943  1.00  0.00    -0.460 OA
BRANCH  31  32
ATOM     32  C   UNL A   1      44.306  23.969  24.946  1.00  0.00     0.338 C 
ATOM     33  O   UNL A   1      45.239  24.152  24.191  1.00  0.00    -0.246 OA
BRANCH  32  34
ATOM     34  C   UNL A   1      43.729  24.988  25.863  1.00  0.00     0.060 A 
ATOM     35  C   UNL A   1      43.995  26.347  25.632  1.00  0.00     0.016 A 
ATOM     36  C   UNL A   1      42.879  24.606  26.901  1.00  0.00     0.016 A 
ATOM     37  C   UNL A   1      43.413  27.327  26.443  1.00  0.00     0.010 A 
ATOM     38  C   UNL A   1      42.324  25.586  27.730  1.00  0.00     0.010 A 
ATOM     39  C   UNL A   1      42.601  26.949  27.518  1.00  0.00    -0.014 A 
BRANCH  39  40
ATOM     40  C   UNL A   1      42.176  27.939  28.539  1.00  0.00     0.031 A 
ATOM     41  C   UNL A   1      43.076  28.163  29.725  1.00  0.00     0.074 A 
ATOM     42  C   UNL A   1      41.000  28.588  28.453  1.00  0.00     0.049 A 
ATOM     43  N   UNL A   1      42.856  28.842  30.819  1.00  0.00    -0.248 NA
ATOM     44  C   UNL A   1      44.404  27.527  29.665  1.00  0.00     0.031 C 
ATOM     45  C   UNL A   1      40.052  28.486  27.346  1.00  0.00     0.029 A 
ATOM     46  N   UNL A   1      40.385  29.436  29.345  1.00  0.00    -0.354 N 
ATOM     47  C   UNL A   1      44.002  28.694  31.590  1.00  0.00     0.074 A 
ATOM     48  C   UNL A   1      44.912  27.854  30.844  1.00  0.00     0.031 C 
ATOM     49  C   UNL A   1      38.954  29.206  27.644  1.00  0.00     0.029 A 
ATOM     50  C   UNL A   1      39.104  29.784  28.978  1.00  0.00     0.049 A 
ATOM     51  H   UNL A   1      40.819  29.761  30.167  1.00  0.00     0.167 HD
ATOM     52  C   UNL A   1      44.280  29.222  32.806  1.00  0.00     0.034 A 
ATOM     53  C   UNL A   1      38.153  30.452  29.663  1.00  0.00     0.034 A 
ATOM     54  C   UNL A   1      43.378  30.059  33.546  1.00  0.00     0.049 A 
ATOM     55  C   UNL A   1      38.459  30.960  31.053  1.00  0.00     0.074 A 
ATOM     56  C   UNL A   1      43.574  30.650  34.781  1.00  0.00     0.029 A 
ATOM     57  N   UNL A   1      42.106  30.416  33.128  1.00  0.00    -0.354 N 
ATOM     58  N   UNL A   1      39.577  30.891  31.734  1.00  0.00    -0.248 NA
ATOM     59  C   UNL A   1      37.373  31.656  31.764  1.00  0.00     0.031 C 
ATOM     60  C   UNL A   1      42.409  31.344  35.123  1.00  0.00     0.029 A 
ATOM     61  C   UNL A   1      41.502  31.212  34.084  1.00  0.00     0.049 A 
ATOM     62  H   UNL A   1      41.694  30.143  32.277  1.00  0.00     0.167 HD
ATOM     63  C   UNL A   1      39.343  31.568  32.927  1.00  0.00     0.074 A 
ATOM     64  C   UNL A   1      37.983  32.059  32.869  1.00  0.00     0.031 C 
ATOM     65  C   UNL A   1      40.171  31.753  33.984  1.00  0.00     0.034 A 
BRANCH  52  66
ATOM     66  C   UNL A   1      45.632  28.933  33.402  1.00  0.00     0.023 A 
ATOM     67  C   UNL A   1      45.801  27.791  34.211  1.00  0.00     0.012 A 
ATOM     68  C   UNL A   1      46.744  29.746  33.108  1.00  0.00     0.148 A 
ATOM     69  C   UNL A   1      47.051  27.475  34.739  1.00  0.00     0.002 A 
ATOM     70  C   UNL A   1      47.995  29.401  33.602  1.00  0.00     0.091 A 
ATOM     71  F   UNL A   1      46.556  30.837  32.352  1.00  0.00    -0.205 F 
ATOM     72  C   UNL A   1      48.149  28.273  34.425  1.00  0.00     0.022 A 
BRANCH  70  73
ATOM     73  S   UNL A   1      49.487  30.316  33.199  1.00  0.00     0.127 S 
ATOM     74  O   UNL A   1      50.521  29.474  33.801  1.00  0.00    -0.237 OA
ATOM     75  O   UNL A   1      49.466  30.303  31.735  1.00  0.00    -0.237 OA
ATOM     76  O   UNL A   1      49.329  31.632  33.801  1.00  0.00    -0.744 OA
ENDBRANCH  70  73
ENDBRANCH  52  66
BRANCH  53  77
ATOM     77  C   UNL A   1      36.804  30.687  29.065  1.00  0.00     0.023 A 
ATOM     78  C   UNL A   1      36.047  29.591  28.606  1.00  0.00     0.012 A 
ATOM     79  C   UNL A   1      36.290  31.989  28.902  1.00  0.00     0.148 A 
ATOM     80  C   UNL A   1      34.828  29.788  27.955  1.00  0.00     0.002 A 
ATOM     81  C   UNL A   1      35.049  32.174  28.304  1.00  0.00     0.091 A 
ATOM     82  F   UNL A   1      37.032  33.023  29.321  1.00  0.00    -0.205 F 
ATOM     83  C   UNL A   1      34.326  31.077  27.811  1.00  0.00     0.022 A 
BRANCH  81  84
ATOM     84  S   UNL A   1      34.272  33.789  28.176  1.00  0.00     0.127 S 
ATOM     85  O   UNL A   1      32.927  33.438  27.728  1.00  0.00    -0.237 OA
ATOM     86  O   UNL A   1      34.356  34.276  29.552  1.00  0.00    -0.237 OA
ATOM     87  O   UNL A   1      35.082  34.537  27.224  1.00  0.00    -0.744 OA
ENDBRANCH  81  84
ENDBRANCH  53  77
BRANCH  65  88
ATOM     88  C   UNL A   1      39.665  32.564  35.150  1.00  0.00     0.023 A 
ATOM     89  C   UNL A   1      39.783  33.968  35.133  1.00  0.00     0.012 A 
ATOM     90  C   UNL A   1      38.986  31.941  36.216  1.00  0.00     0.148 A 
ATOM     91  C   UNL A   1      39.256  34.736  36.172  1.00  0.00     0.002 A 
ATOM     92  C   UNL A   1      38.419  32.714  37.222  1.00  0.00     0.091 A 
ATOM     93  F   UNL A   1      38.894  30.602  36.217  1.00  0.00    -0.205 F 
ATOM     94  C   UNL A   1      38.564  34.111  37.208  1.00  0.00     0.022 A 
BRANCH  92  95
ATOM     95  S   UNL A   1      37.428  32.011  38.545  1.00  0.00     0.127 S 
ATOM     96  O   UNL A   1      36.201  32.801  38.449  1.00  0.00    -0.237 OA
ATOM     97  O   UNL A   1      37.289  30.619  38.117  1.00  0.00    -0.237 OA
ATOM     98  O   UNL A   1      38.193  32.199  39.769  1.00  0.00    -0.744 OA
ENDBRANCH  92  95
ENDBRANCH  65  88
ENDBRANCH  39  40
ENDBRANCH  32  34
ENDBRANCH  31  32
ENDBRANCH  30  31
ENDBRANCH  29  30
ENDBRANCH  28  29
ENDBRANCH  27  28
ENDBRANCH   1  27
TORSDOF 23
ENDMDL
