MODEL 1
REMARK VINA RESULT:     -10.5      0.000      0.000
REMARK SMILES O=C(OCCOCCOCCOC(=O)[C@@H]1CC[C@@H](CNC(=O)N2CC[NH2+]CC2)O1)c1ccc(-c2c3nc(c(-c4cccc(S(=O)(=O)[O-])c4F)c4ccc([nH]4)c(-c4cccc(S(=O)(=O)[O-])c4F)c4nc(c(-c5cccc(S(=O)(=O)[O-])c5F)c5ccc2[nH]5)C=C4)C=C3)cc1
REMARK SMILES IDX 7 1 6 2 5 3 4 4 3 5 2 6 1 7 30 8 31 9 92 10 32 11 91 12
REMARK SMILES IDX 33 13 34 14 35 15 85 16 36 17 90 18 84 19 86 20 37 21 89 22
REMARK SMILES IDX 83 23 82 24 38 26 70 27 50 28 69 29 51 30 54 31 68 32 87 33
REMARK SMILES IDX 52 34 53 35 67 37 88 38 55 39 39 40 40 41 48 42 41 43 43 44
REMARK SMILES IDX 49 45 42 46 44 47 45 48 46 49 47 50 71 51 72 52 80 53 73 54
REMARK SMILES IDX 75 55 81 56 74 57 76 58 77 59 78 60 79 61 56 62 57 63 65 64
REMARK SMILES IDX 58 65 60 66 66 67 59 68 61 69 62 70 63 71 64 72 8 73 9 74
REMARK SMILES IDX 10 75 11 76 12 77 13 78 14 79 15 80 16 81 29 82 17 83 18 84
REMARK SMILES IDX 19 85 20 86 21 87 22 89 23 90 24 91 28 92 25 93 27 94 26 95
REMARK H PARENT 86 25 54 36 20 88 26 96 26 97
REMARK Flexibility Score: inf
ROOT
ATOM      1  C   UNL A   1      34.521  22.879  27.072  1.00  0.00     0.188 C 
ENDROOT
BRANCH   1   2
ATOM      2  O   UNL A   1      35.575  22.932  26.109  1.00  0.00    -0.376 OA
BRANCH   2   3
ATOM      3  C   UNL A   1      36.124  21.646  25.791  1.00  0.00     0.202 C 
BRANCH   3   4
ATOM      4  C   UNL A   1      37.477  21.637  25.040  1.00  0.00     0.261 C 
BRANCH   4   5
ATOM      5  O   UNL A   1      38.424  20.649  25.497  1.00  0.00    -0.460 OA
BRANCH   5   6
ATOM      6  C   UNL A   1      39.592  20.804  26.175  1.00  0.00     0.338 C 
ATOM      7  O   UNL A   1      40.273  19.804  26.397  1.00  0.00    -0.246 OA
BRANCH   6   8
ATOM      8  C   UNL A   1      40.083  22.118  26.694  1.00  0.00     0.060 A 
ATOM      9  C   UNL A   1      39.690  23.350  26.188  1.00  0.00     0.016 A 
ATOM     10  C   UNL A   1      40.965  22.121  27.792  1.00  0.00     0.016 A 
ATOM     11  C   UNL A   1      40.202  24.539  26.664  1.00  0.00     0.010 A 
ATOM     12  C   UNL A   1      41.447  23.325  28.327  1.00  0.00     0.010 A 
ATOM     13  C   UNL A   1      41.079  24.540  27.738  1.00  0.00    -0.014 A 
BRANCH  13  14
ATOM     14  C   UNL A   1      41.659  25.848  28.091  1.00  0.00     0.031 A 
ATOM     15  C   UNL A   1      43.045  26.148  27.627  1.00  0.00     0.074 A 
ATOM     16  C   UNL A   1      40.870  26.814  28.600  1.00  0.00     0.049 A 
ATOM     17  N   UNL A   1      43.706  27.266  27.711  1.00  0.00    -0.248 NA
ATOM     18  C   UNL A   1      43.756  25.072  26.912  1.00  0.00     0.031 C 
ATOM     19  C   UNL A   1      39.446  26.657  28.880  1.00  0.00     0.029 A 
ATOM     20  N   UNL A   1      41.115  28.114  28.941  1.00  0.00    -0.354 N 
ATOM     21  C   UNL A   1      44.908  27.034  27.063  1.00  0.00     0.074 A 
ATOM     22  C   UNL A   1      44.897  25.666  26.601  1.00  0.00     0.031 C 
ATOM     23  C   UNL A   1      38.949  27.783  29.407  1.00  0.00     0.029 A 
ATOM     24  C   UNL A   1      40.029  28.745  29.508  1.00  0.00     0.049 A 
ATOM     25  H   UNL A   1      41.983  28.556  28.796  1.00  0.00     0.167 HD
ATOM     26  C   UNL A   1      45.920  27.905  26.860  1.00  0.00     0.034 A 
ATOM     27  C   UNL A   1      39.933  29.963  30.063  1.00  0.00     0.034 A 
ATOM     28  C   UNL A   1      45.908  29.251  27.356  1.00  0.00     0.049 A 
ATOM     29  C   UNL A   1      41.148  30.837  29.995  1.00  0.00     0.074 A 
ATOM     30  C   UNL A   1      46.907  30.202  27.292  1.00  0.00     0.029 A 
ATOM     31  N   UNL A   1      44.839  29.830  28.028  1.00  0.00    -0.354 N 
ATOM     32  N   UNL A   1      42.286  30.606  29.387  1.00  0.00    -0.248 NA
ATOM     33  C   UNL A   1      41.057  32.146  30.646  1.00  0.00     0.031 C 
ATOM     34  C   UNL A   1      46.455  31.344  27.961  1.00  0.00     0.029 A 
ATOM     35  C   UNL A   1      45.159  31.121  28.403  1.00  0.00     0.049 A 
ATOM     36  H   UNL A   1      43.980  29.385  28.212  1.00  0.00     0.167 HD
ATOM     37  C   UNL A   1      43.036  31.759  29.543  1.00  0.00     0.074 A 
ATOM     38  C   UNL A   1      42.209  32.692  30.286  1.00  0.00     0.031 C 
ATOM     39  C   UNL A   1      44.294  32.024  29.116  1.00  0.00     0.034 A 
BRANCH  26  40
ATOM     40  C   UNL A   1      47.117  27.392  26.115  1.00  0.00     0.023 A 
ATOM     41  C   UNL A   1      47.189  27.526  24.713  1.00  0.00     0.012 A 
ATOM     42  C   UNL A   1      48.165  26.759  26.808  1.00  0.00     0.148 A 
ATOM     43  C   UNL A   1      48.276  27.009  24.009  1.00  0.00     0.002 A 
ATOM     44  C   UNL A   1      49.262  26.284  26.105  1.00  0.00     0.091 A 
ATOM     45  F   UNL A   1      48.054  26.616  28.135  1.00  0.00    -0.205 F 
ATOM     46  C   UNL A   1      49.315  26.396  24.706  1.00  0.00     0.022 A 
BRANCH  44  47
ATOM     47  S   UNL A   1      50.675  25.524  26.910  1.00  0.00     0.127 S 
ATOM     48  O   UNL A   1      51.531  25.207  25.769  1.00  0.00    -0.237 OA
ATOM     49  O   UNL A   1      51.158  26.607  27.759  1.00  0.00    -0.237 OA
ATOM     50  O   UNL A   1      50.153  24.363  27.629  1.00  0.00    -0.744 OA
ENDBRANCH  44  47
ENDBRANCH  26  40
BRANCH  27  51
ATOM     51  C   UNL A   1      38.694  30.422  30.748  1.00  0.00     0.023 A 
ATOM     52  C   UNL A   1      38.394  29.974  32.047  1.00  0.00     0.012 A 
ATOM     53  C   UNL A   1      37.760  31.228  30.068  1.00  0.00     0.148 A 
ATOM     54  C   UNL A   1      37.162  30.270  32.636  1.00  0.00     0.002 A 
ATOM     55  C   UNL A   1      36.536  31.520  30.660  1.00  0.00     0.091 A 
ATOM     56  F   UNL A   1      38.087  31.705  28.858  1.00  0.00    -0.205 F 
ATOM     57  C   UNL A   1      36.229  31.032  31.938  1.00  0.00     0.022 A 
BRANCH  55  58
ATOM     58  S   UNL A   1      35.276  32.473  29.815  1.00  0.00     0.127 S 
ATOM     59  O   UNL A   1      34.259  32.647  30.848  1.00  0.00    -0.237 OA
ATOM     60  O   UNL A   1      36.015  33.680  29.469  1.00  0.00    -0.237 OA
ATOM     61  O   UNL A   1      34.854  31.638  28.693  1.00  0.00    -0.744 OA
ENDBRANCH  55  58
ENDBRANCH  27  51
BRANCH  39  62
ATOM     62  C   UNL A   1      44.818  33.399  29.410  1.00  0.00     0.023 A 
ATOM     63  C   UNL A   1      45.455  33.662  30.638  1.00  0.00     0.012 A 
ATOM     64  C   UNL A   1      44.706  34.416  28.445  1.00  0.00     0.148 A 
ATOM     65  C   UNL A   1      45.933  34.939  30.919  1.00  0.00     0.002 A 
ATOM     66  C   UNL A   1      45.242  35.666  28.708  1.00  0.00     0.091 A 
ATOM     67  F   UNL A   1      44.071  34.143  27.297  1.00  0.00    -0.205 F 
ATOM     68  C   UNL A   1      45.840  35.935  29.951  1.00  0.00     0.022 A 
BRANCH  66  69
ATOM     69  S   UNL A   1      45.264  36.970  27.477  1.00  0.00     0.127 S 
ATOM     70  O   UNL A   1      43.839  37.146  27.204  1.00  0.00    -0.237 OA
ATOM     71  O   UNL A   1      45.889  38.074  28.207  1.00  0.00    -0.237 OA
ATOM     72  O   UNL A   1      46.056  36.459  26.366  1.00  0.00    -0.744 OA
ENDBRANCH  66  69
ENDBRANCH  39  62
ENDBRANCH  13  14
ENDBRANCH   6   8
ENDBRANCH   5   6
ENDBRANCH   4   5
ENDBRANCH   3   4
ENDBRANCH   2   3
ENDBRANCH   1   2
BRANCH   1  73
ATOM     73  C   UNL A   1      33.136  23.293  26.573  1.00  0.00     0.188 C 
BRANCH  73  74
ATOM     74  O   UNL A   1      32.114  22.304  26.577  1.00  0.00    -0.376 OA
BRANCH  74  75
ATOM     75  C   UNL A   1      31.944  21.537  25.389  1.00  0.00     0.202 C 
BRANCH  75  76
ATOM     76  C   UNL A   1      31.874  22.268  24.037  1.00  0.00     0.261 C 
BRANCH  76  77
ATOM     77  O   UNL A   1      33.044  22.139  23.212  1.00  0.00    -0.461 OA
BRANCH  77  78
ATOM     78  C   UNL A   1      33.691  23.306  22.914  1.00  0.00     0.335 C 
ATOM     79  O   UNL A   1      34.912  23.426  22.870  1.00  0.00    -0.249 OA
BRANCH  78  80
ATOM     80  C   UNL A   1      32.734  24.447  22.539  1.00  0.00     0.228 C 
ATOM     81  C   UNL A   1      32.831  24.923  21.112  1.00  0.00     0.047 C 
ATOM     82  O   UNL A   1      32.849  25.653  23.314  1.00  0.00    -0.361 OA
ATOM     83  C   UNL A   1      31.961  26.158  21.160  1.00  0.00     0.037 C 
ATOM     84  C   UNL A   1      32.315  26.750  22.518  1.00  0.00     0.138 C 
BRANCH  84  85
ATOM     85  C   UNL A   1      31.150  27.399  23.282  1.00  0.00     0.149 C 
BRANCH  85  86
ATOM     86  N   UNL A   1      30.720  26.706  24.487  1.00  0.00    -0.335 N 
ATOM     87  C   UNL A   1      31.138  26.812  25.774  1.00  0.00     0.317 C 
ATOM     88  H   UNL A   1      30.004  26.046  24.343  1.00  0.00     0.165 HD
ATOM     89  O   UNL A   1      30.925  25.846  26.508  1.00  0.00    -0.249 OA
ATOM     90  N   UNL A   1      31.801  27.925  26.189  1.00  0.00    -0.314 N 
ATOM     91  C   UNL A   1      32.804  27.827  27.255  1.00  0.00     0.182 C 
ATOM     92  C   UNL A   1      31.518  29.300  25.800  1.00  0.00     0.182 C 
ATOM     93  C   UNL A   1      34.088  28.587  26.848  1.00  0.00     0.282 C 
ATOM     94  C   UNL A   1      32.805  29.980  25.317  1.00  0.00     0.282 C 
ATOM     95  N   UNL A   1      33.862  29.963  26.329  1.00  0.00    -0.343 N 
ATOM     96  H   UNL A   1      34.728  30.306  25.913  1.00  0.00     0.346 HD
ATOM     97  H   UNL A   1      33.575  30.558  27.106  1.00  0.00     0.346 HD
ENDBRANCH  85  86
ENDBRANCH  84  85
ENDBRANCH  78  80
ENDBRANCH  77  78
ENDBRANCH  76  77
ENDBRANCH  75  76
ENDBRANCH  74  75
ENDBRANCH  73  74
ENDBRANCH   1  73
TORSDOF 22
ENDMDL
MODEL 2
REMARK VINA RESULT:      -9.0      2.504      3.686
REMARK SMILES O=C(OCCOCCOCCOC(=O)[C@@H]1CC[C@@H](CNC(=O)N2CC[NH2+]CC2)O1)c1ccc(-c2c3nc(c(-c4cccc(S(=O)(=O)[O-])c4F)c4ccc([nH]4)c(-c4cccc(S(=O)(=O)[O-])c4F)c4nc(c(-c5cccc(S(=O)(=O)[O-])c5F)c5ccc2[nH]5)C=C4)C=C3)cc1
REMARK SMILES IDX 7 1 6 2 5 3 4 4 3 5 2 6 1 7 30 8 31 9 92 10 32 11 91 12
REMARK SMILES IDX 33 13 34 14 35 15 85 16 36 17 90 18 84 19 86 20 37 21 89 22
REMARK SMILES IDX 83 23 82 24 38 26 70 27 50 28 69 29 51 30 54 31 68 32 87 33
REMARK SMILES IDX 52 34 53 35 67 37 88 38 55 39 39 40 40 41 48 42 41 43 43 44
REMARK SMILES IDX 49 45 42 46 44 47 45 48 46 49 47 50 71 51 72 52 80 53 73 54
REMARK SMILES IDX 75 55 81 56 74 57 76 58 77 59 78 60 79 61 56 62 57 63 65 64
REMARK SMILES IDX 58 65 60 66 66 67 59 68 61 69 62 70 63 71 64 72 8 73 9 74
REMARK SMILES IDX 10 75 11 76 12 77 13 78 14 79 15 80 16 81 29 82 17 83 18 84
REMARK SMILES IDX 19 85 20 86 21 87 22 89 23 90 24 91 28 92 25 93 27 94 26 95
REMARK H PARENT 86 25 54 36 20 88 26 96 26 97
REMARK Flexibility Score: inf
ROOT
ATOM      1  C   UNL A   1      36.152  19.179  24.565  1.00  0.00     0.188 C 
ENDROOT
BRANCH   1   2
ATOM      2  O   UNL A   1      37.412  19.072  25.231  1.00  0.00    -0.376 OA
BRANCH   2   3
ATOM      3  C   UNL A   1      38.353  20.080  24.838  1.00  0.00     0.202 C 
BRANCH   3   4
ATOM      4  C   UNL A   1      39.024  20.884  25.978  1.00  0.00     0.261 C 
BRANCH   4   5
ATOM      5  O   UNL A   1      39.202  22.291  25.712  1.00  0.00    -0.460 OA
BRANCH   5   6
ATOM      6  C   UNL A   1      38.500  23.362  26.165  1.00  0.00     0.338 C 
ATOM      7  O   UNL A   1      37.291  23.402  25.942  1.00  0.00    -0.246 OA
BRANCH   6   8
ATOM      8  C   UNL A   1      39.118  24.514  26.893  1.00  0.00     0.060 A 
ATOM      9  C   UNL A   1      38.992  24.727  28.260  1.00  0.00     0.016 A 
ATOM     10  C   UNL A   1      39.914  25.421  26.167  1.00  0.00     0.016 A 
ATOM     11  C   UNL A   1      39.538  25.828  28.886  1.00  0.00     0.010 A 
ATOM     12  C   UNL A   1      40.527  26.512  26.802  1.00  0.00     0.010 A 
ATOM     13  C   UNL A   1      40.314  26.726  28.168  1.00  0.00    -0.014 A 
BRANCH  13  14
ATOM     14  C   UNL A   1      40.749  27.928  28.901  1.00  0.00     0.031 A 
ATOM     15  C   UNL A   1      42.214  28.139  29.094  1.00  0.00     0.074 A 
ATOM     16  C   UNL A   1      39.863  28.908  29.166  1.00  0.00     0.049 A 
ATOM     17  N   UNL A   1      42.827  29.173  29.592  1.00  0.00    -0.248 NA
ATOM     18  C   UNL A   1      43.111  27.080  28.597  1.00  0.00     0.031 C 
ATOM     19  C   UNL A   1      38.448  28.860  28.811  1.00  0.00     0.029 A 
ATOM     20  N   UNL A   1      39.999  30.135  29.750  1.00  0.00    -0.354 N 
ATOM     21  C   UNL A   1      44.179  28.894  29.472  1.00  0.00     0.074 A 
ATOM     22  C   UNL A   1      44.302  27.590  28.866  1.00  0.00     0.031 C 
ATOM     23  C   UNL A   1      37.825  29.968  29.234  1.00  0.00     0.029 A 
ATOM     24  C   UNL A   1      38.805  30.805  29.899  1.00  0.00     0.049 A 
ATOM     25  H   UNL A   1      40.866  30.503  30.036  1.00  0.00     0.167 HD
ATOM     26  C   UNL A   1      45.219  29.679  29.823  1.00  0.00     0.034 A 
ATOM     27  C   UNL A   1      38.538  31.962  30.524  1.00  0.00     0.034 A 
ATOM     28  C   UNL A   1      45.059  30.961  30.447  1.00  0.00     0.049 A 
ATOM     29  C   UNL A   1      39.707  32.717  31.081  1.00  0.00     0.074 A 
ATOM     30  C   UNL A   1      46.034  31.813  30.929  1.00  0.00     0.029 A 
ATOM     31  N   UNL A   1      43.834  31.568  30.692  1.00  0.00    -0.354 N 
ATOM     32  N   UNL A   1      40.983  32.441  30.970  1.00  0.00    -0.248 NA
ATOM     33  C   UNL A   1      39.409  33.954  31.808  1.00  0.00     0.031 C 
ATOM     34  C   UNL A   1      45.394  32.917  31.501  1.00  0.00     0.029 A 
ATOM     35  C   UNL A   1      44.024  32.776  31.336  1.00  0.00     0.049 A 
ATOM     36  H   UNL A   1      42.958  31.191  30.443  1.00  0.00     0.167 HD
ATOM     37  C   UNL A   1      41.649  33.494  31.575  1.00  0.00     0.074 A 
ATOM     38  C   UNL A   1      40.629  34.420  32.031  1.00  0.00     0.031 C 
ATOM     39  C   UNL A   1      42.980  33.679  31.744  1.00  0.00     0.034 A 
BRANCH  26  40
ATOM     40  C   UNL A   1      46.595  29.134  29.575  1.00  0.00     0.023 A 
ATOM     41  C   UNL A   1      47.246  28.379  30.571  1.00  0.00     0.012 A 
ATOM     42  C   UNL A   1      47.249  29.389  28.356  1.00  0.00     0.148 A 
ATOM     43  C   UNL A   1      48.544  27.910  30.366  1.00  0.00     0.002 A 
ATOM     44  C   UNL A   1      48.523  28.884  28.143  1.00  0.00     0.091 A 
ATOM     45  F   UNL A   1      46.619  30.139  27.441  1.00  0.00    -0.205 F 
ATOM     46  C   UNL A   1      49.178  28.156  29.150  1.00  0.00     0.022 A 
BRANCH  44  47
ATOM     47  S   UNL A   1      49.408  29.102  26.597  1.00  0.00     0.127 S 
ATOM     48  O   UNL A   1      48.446  28.581  25.630  1.00  0.00    -0.237 OA
ATOM     49  O   UNL A   1      49.598  30.548  26.559  1.00  0.00    -0.237 OA
ATOM     50  O   UNL A   1      50.638  28.322  26.723  1.00  0.00    -0.744 OA
ENDBRANCH  44  47
ENDBRANCH  26  40
BRANCH  27  51
ATOM     51  C   UNL A   1      37.148  32.466  30.694  1.00  0.00     0.023 A 
ATOM     52  C   UNL A   1      36.423  32.165  31.861  1.00  0.00     0.012 A 
ATOM     53  C   UNL A   1      36.508  33.161  29.649  1.00  0.00     0.148 A 
ATOM     54  C   UNL A   1      35.069  32.495  31.963  1.00  0.00     0.002 A 
ATOM     55  C   UNL A   1      35.161  33.487  29.758  1.00  0.00     0.091 A 
ATOM     56  F   UNL A   1      37.229  33.501  28.571  1.00  0.00    -0.205 F 
ATOM     57  C   UNL A   1      34.436  33.145  30.907  1.00  0.00     0.022 A 
BRANCH  55  58
ATOM     58  S   UNL A   1      34.272  34.300  28.431  1.00  0.00     0.127 S 
ATOM     59  O   UNL A   1      34.656  33.516  27.260  1.00  0.00    -0.237 OA
ATOM     60  O   UNL A   1      32.892  34.125  28.863  1.00  0.00    -0.237 OA
ATOM     61  O   UNL A   1      34.770  35.673  28.422  1.00  0.00    -0.744 OA
ENDBRANCH  55  58
ENDBRANCH  27  51
BRANCH  39  62
ATOM     62  C   UNL A   1      43.392  34.958  32.411  1.00  0.00     0.023 A 
ATOM     63  C   UNL A   1      43.465  35.029  33.816  1.00  0.00     0.012 A 
ATOM     64  C   UNL A   1      43.742  36.076  31.633  1.00  0.00     0.148 A 
ATOM     65  C   UNL A   1      43.837  36.218  34.438  1.00  0.00     0.002 A 
ATOM     66  C   UNL A   1      44.173  37.235  32.259  1.00  0.00     0.091 A 
ATOM     67  F   UNL A   1      43.637  35.987  30.300  1.00  0.00    -0.205 F 
ATOM     68  C   UNL A   1      44.203  37.314  33.661  1.00  0.00     0.022 A 
BRANCH  66  69
ATOM     69  S   UNL A   1      44.769  38.651  31.335  1.00  0.00     0.127 S 
ATOM     70  O   UNL A   1      43.564  39.069  30.621  1.00  0.00    -0.237 OA
ATOM     71  O   UNL A   1      45.195  39.559  32.401  1.00  0.00    -0.237 OA
ATOM     72  O   UNL A   1      45.853  38.156  30.498  1.00  0.00    -0.744 OA
ENDBRANCH  66  69
ENDBRANCH  39  62
ENDBRANCH  13  14
ENDBRANCH   6   8
ENDBRANCH   5   6
ENDBRANCH   4   5
ENDBRANCH   3   4
ENDBRANCH   2   3
ENDBRANCH   1   2
BRANCH   1  73
ATOM     73  C   UNL A   1      35.192  18.005  24.755  1.00  0.00     0.188 C 
BRANCH  73  74
ATOM     74  O   UNL A   1      34.699  17.363  23.583  1.00  0.00    -0.376 OA
BRANCH  74  75
ATOM     75  C   UNL A   1      33.306  17.486  23.310  1.00  0.00     0.202 C 
BRANCH  75  76
ATOM     76  C   UNL A   1      32.500  18.577  24.036  1.00  0.00     0.261 C 
BRANCH  76  77
ATOM     77  O   UNL A   1      32.512  19.868  23.404  1.00  0.00    -0.461 OA
BRANCH  77  78
ATOM     78  C   UNL A   1      32.338  20.938  24.236  1.00  0.00     0.335 C 
ATOM     79  O   UNL A   1      31.777  20.881  25.326  1.00  0.00    -0.249 OA
BRANCH  78  80
ATOM     80  C   UNL A   1      33.005  22.220  23.716  1.00  0.00     0.228 C 
ATOM     81  C   UNL A   1      34.501  22.282  23.892  1.00  0.00     0.047 C 
ATOM     82  O   UNL A   1      32.539  23.456  24.287  1.00  0.00    -0.361 OA
ATOM     83  C   UNL A   1      34.778  23.718  23.511  1.00  0.00     0.037 C 
ATOM     84  C   UNL A   1      33.592  24.449  24.125  1.00  0.00     0.138 C 
BRANCH  84  85
ATOM     85  C   UNL A   1      33.042  25.626  23.303  1.00  0.00     0.149 C 
BRANCH  85  86
ATOM     86  N   UNL A   1      33.435  26.952  23.754  1.00  0.00    -0.335 N 
ATOM     87  C   UNL A   1      32.709  28.083  23.940  1.00  0.00     0.317 C 
ATOM     88  H   UNL A   1      34.393  27.043  23.961  1.00  0.00     0.165 HD
ATOM     89  O   UNL A   1      33.325  29.149  23.916  1.00  0.00    -0.249 OA
ATOM     90  N   UNL A   1      31.359  28.013  24.091  1.00  0.00    -0.314 N 
ATOM     91  C   UNL A   1      30.510  29.117  23.630  1.00  0.00     0.182 C 
ATOM     92  C   UNL A   1      30.619  26.999  24.832  1.00  0.00     0.182 C 
ATOM     93  C   UNL A   1      29.315  28.565  22.817  1.00  0.00     0.282 C 
ATOM     94  C   UNL A   1      29.507  26.418  23.950  1.00  0.00     0.282 C 
ATOM     95  N   UNL A   1      28.582  27.444  23.465  1.00  0.00    -0.343 N 
ATOM     96  H   UNL A   1      27.948  27.026  22.784  1.00  0.00     0.346 HD
ATOM     97  H   UNL A   1      28.064  27.814  24.261  1.00  0.00     0.346 HD
ENDBRANCH  85  86
ENDBRANCH  84  85
ENDBRANCH  78  80
ENDBRANCH  77  78
ENDBRANCH  76  77
ENDBRANCH  75  76
ENDBRANCH  74  75
ENDBRANCH  73  74
ENDBRANCH   1  73
TORSDOF 22
ENDMDL
MODEL 3
REMARK VINA RESULT:      -8.9      2.158      7.818
REMARK SMILES O=C(OCCOCCOCCOC(=O)[C@@H]1CC[C@@H](CNC(=O)N2CC[NH2+]CC2)O1)c1ccc(-c2c3nc(c(-c4cccc(S(=O)(=O)[O-])c4F)c4ccc([nH]4)c(-c4cccc(S(=O)(=O)[O-])c4F)c4nc(c(-c5cccc(S(=O)(=O)[O-])c5F)c5ccc2[nH]5)C=C4)C=C3)cc1
REMARK SMILES IDX 7 1 6 2 5 3 4 4 3 5 2 6 1 7 30 8 31 9 92 10 32 11 91 12
REMARK SMILES IDX 33 13 34 14 35 15 85 16 36 17 90 18 84 19 86 20 37 21 89 22
REMARK SMILES IDX 83 23 82 24 38 26 70 27 50 28 69 29 51 30 54 31 68 32 87 33
REMARK SMILES IDX 52 34 53 35 67 37 88 38 55 39 39 40 40 41 48 42 41 43 43 44
REMARK SMILES IDX 49 45 42 46 44 47 45 48 46 49 47 50 71 51 72 52 80 53 73 54
REMARK SMILES IDX 75 55 81 56 74 57 76 58 77 59 78 60 79 61 56 62 57 63 65 64
REMARK SMILES IDX 58 65 60 66 66 67 59 68 61 69 62 70 63 71 64 72 8 73 9 74
REMARK SMILES IDX 10 75 11 76 12 77 13 78 14 79 15 80 16 81 29 82 17 83 18 84
REMARK SMILES IDX 19 85 20 86 21 87 22 89 23 90 24 91 28 92 25 93 27 94 26 95
REMARK H PARENT 86 25 54 36 20 88 26 96 26 97
REMARK Flexibility Score: inf
ROOT
ATOM      1  C   UNL A   1      34.329  21.835  26.062  1.00  0.00     0.188 C 
ENDROOT
BRANCH   1   2
ATOM      2  O   UNL A   1      35.594  22.291  25.578  1.00  0.00    -0.376 OA
BRANCH   2   3
ATOM      3  C   UNL A   1      36.544  21.236  25.381  1.00  0.00     0.202 C 
BRANCH   3   4
ATOM      4  C   UNL A   1      38.033  21.653  25.292  1.00  0.00     0.261 C 
BRANCH   4   5
ATOM      5  O   UNL A   1      38.960  20.753  25.934  1.00  0.00    -0.460 OA
BRANCH   5   6
ATOM      6  C   UNL A   1      39.994  21.016  26.775  1.00  0.00     0.338 C 
ATOM      7  O   UNL A   1      40.515  20.073  27.369  1.00  0.00    -0.246 OA
BRANCH   6   8
ATOM      8  C   UNL A   1      40.517  22.391  27.045  1.00  0.00     0.060 A 
ATOM      9  C   UNL A   1      40.183  23.511  26.295  1.00  0.00     0.016 A 
ATOM     10  C   UNL A   1      41.367  22.583  28.152  1.00  0.00     0.016 A 
ATOM     11  C   UNL A   1      40.723  24.755  26.547  1.00  0.00     0.010 A 
ATOM     12  C   UNL A   1      41.876  23.855  28.458  1.00  0.00     0.010 A 
ATOM     13  C   UNL A   1      41.568  24.941  27.631  1.00  0.00    -0.014 A 
BRANCH  13  14
ATOM     14  C   UNL A   1      42.185  26.275  27.742  1.00  0.00     0.031 A 
ATOM     15  C   UNL A   1      41.459  27.319  28.523  1.00  0.00     0.074 A 
ATOM     16  C   UNL A   1      43.463  26.455  27.358  1.00  0.00     0.049 A 
ATOM     17  N   UNL A   1      41.862  28.511  28.856  1.00  0.00    -0.248 NA
ATOM     18  C   UNL A   1      40.135  26.951  29.060  1.00  0.00     0.031 C 
ATOM     19  C   UNL A   1      44.308  25.413  26.782  1.00  0.00     0.029 A 
ATOM     20  N   UNL A   1      44.295  27.537  27.415  1.00  0.00    -0.354 N 
ATOM     21  C   UNL A   1      40.847  29.038  29.639  1.00  0.00     0.074 A 
ATOM     22  C   UNL A   1      39.802  28.046  29.724  1.00  0.00     0.031 C 
ATOM     23  C   UNL A   1      45.514  25.908  26.476  1.00  0.00     0.029 A 
ATOM     24  C   UNL A   1      45.524  27.314  26.834  1.00  0.00     0.049 A 
ATOM     25  H   UNL A   1      44.040  28.392  27.831  1.00  0.00     0.167 HD
ATOM     26  C   UNL A   1      40.814  30.243  30.247  1.00  0.00     0.034 A 
ATOM     27  C   UNL A   1      46.535  28.165  26.602  1.00  0.00     0.034 A 
ATOM     28  C   UNL A   1      41.860  31.215  30.120  1.00  0.00     0.049 A 
ATOM     29  C   UNL A   1      46.378  29.562  27.121  1.00  0.00     0.074 A 
ATOM     30  C   UNL A   1      41.904  32.504  30.615  1.00  0.00     0.029 A 
ATOM     31  N   UNL A   1      43.046  31.006  29.428  1.00  0.00    -0.354 N 
ATOM     32  N   UNL A   1      45.410  30.055  27.855  1.00  0.00    -0.248 NA
ATOM     33  C   UNL A   1      47.460  30.504  26.823  1.00  0.00     0.031 C 
ATOM     34  C   UNL A   1      43.102  33.086  30.188  1.00  0.00     0.029 A 
ATOM     35  C   UNL A   1      43.824  32.148  29.465  1.00  0.00     0.049 A 
ATOM     36  H   UNL A   1      43.296  30.167  28.977  1.00  0.00     0.167 HD
ATOM     37  C   UNL A   1      45.784  31.355  28.145  1.00  0.00     0.074 A 
ATOM     38  C   UNL A   1      47.080  31.561  27.523  1.00  0.00     0.031 C 
ATOM     39  C   UNL A   1      45.120  32.298  28.857  1.00  0.00     0.034 A 
BRANCH  26  40
ATOM     40  C   UNL A   1      39.587  30.564  31.049  1.00  0.00     0.023 A 
ATOM     41  C   UNL A   1      39.439  30.048  32.353  1.00  0.00     0.012 A 
ATOM     42  C   UNL A   1      38.570  31.364  30.498  1.00  0.00     0.148 A 
ATOM     43  C   UNL A   1      38.280  30.303  33.086  1.00  0.00     0.002 A 
ATOM     44  C   UNL A   1      37.438  31.647  31.249  1.00  0.00     0.091 A 
ATOM     45  F   UNL A   1      38.721  31.811  29.244  1.00  0.00    -0.205 F 
ATOM     46  C   UNL A   1      37.285  31.108  32.537  1.00  0.00     0.022 A 
BRANCH  44  47
ATOM     47  S   UNL A   1      36.121  32.711  30.655  1.00  0.00     0.127 S 
ATOM     48  O   UNL A   1      34.932  31.952  31.036  1.00  0.00    -0.237 OA
ATOM     49  O   UNL A   1      36.346  33.929  31.427  1.00  0.00    -0.237 OA
ATOM     50  O   UNL A   1      36.330  32.847  29.215  1.00  0.00    -0.744 OA
ENDBRANCH  44  47
ENDBRANCH  26  40
BRANCH  27  51
ATOM     51  C   UNL A   1      47.745  27.763  25.835  1.00  0.00     0.023 A 
ATOM     52  C   UNL A   1      48.951  27.489  26.507  1.00  0.00     0.012 A 
ATOM     53  C   UNL A   1      47.727  27.750  24.427  1.00  0.00     0.148 A 
ATOM     54  C   UNL A   1      50.130  27.267  25.791  1.00  0.00     0.002 A 
ATOM     55  C   UNL A   1      48.904  27.527  23.721  1.00  0.00     0.091 A 
ATOM     56  F   UNL A   1      46.558  27.946  23.800  1.00  0.00    -0.205 F 
ATOM     57  C   UNL A   1      50.108  27.298  24.399  1.00  0.00     0.022 A 
BRANCH  55  58
ATOM     58  S   UNL A   1      48.960  27.578  21.931  1.00  0.00     0.127 S 
ATOM     59  O   UNL A   1      48.621  26.206  21.560  1.00  0.00    -0.237 OA
ATOM     60  O   UNL A   1      47.930  28.567  21.640  1.00  0.00    -0.237 OA
ATOM     61  O   UNL A   1      50.330  27.965  21.602  1.00  0.00    -0.744 OA
ENDBRANCH  55  58
ENDBRANCH  27  51
BRANCH  39  62
ATOM     62  C   UNL A   1      45.819  33.614  29.030  1.00  0.00     0.023 A 
ATOM     63  C   UNL A   1      46.759  33.782  30.065  1.00  0.00     0.012 A 
ATOM     64  C   UNL A   1      45.563  34.669  28.136  1.00  0.00     0.148 A 
ATOM     65  C   UNL A   1      47.402  35.005  30.235  1.00  0.00     0.002 A 
ATOM     66  C   UNL A   1      46.255  35.862  28.274  1.00  0.00     0.091 A 
ATOM     67  F   UNL A   1      44.644  34.488  27.178  1.00  0.00    -0.205 F 
ATOM     68  C   UNL A   1      47.161  36.038  29.333  1.00  0.00     0.022 A 
BRANCH  66  69
ATOM     69  S   UNL A   1      46.088  37.201  27.092  1.00  0.00     0.127 S 
ATOM     70  O   UNL A   1      46.830  38.274  27.750  1.00  0.00    -0.237 OA
ATOM     71  O   UNL A   1      46.738  36.646  25.904  1.00  0.00    -0.237 OA
ATOM     72  O   UNL A   1      44.656  37.428  26.944  1.00  0.00    -0.744 OA
ENDBRANCH  66  69
ENDBRANCH  39  62
ENDBRANCH  13  14
ENDBRANCH   6   8
ENDBRANCH   5   6
ENDBRANCH   4   5
ENDBRANCH   3   4
ENDBRANCH   2   3
ENDBRANCH   1   2
BRANCH   1  73
ATOM     73  C   UNL A   1      33.925  20.419  25.653  1.00  0.00     0.188 C 
BRANCH  73  74
ATOM     74  O   UNL A   1      33.694  20.175  24.270  1.00  0.00    -0.376 OA
BRANCH  74  75
ATOM     75  C   UNL A   1      32.485  20.682  23.712  1.00  0.00     0.202 C 
BRANCH  75  76
ATOM     76  C   UNL A   1      31.854  21.942  24.327  1.00  0.00     0.261 C 
BRANCH  76  77
ATOM     77  O   UNL A   1      31.499  22.969  23.384  1.00  0.00    -0.461 OA
BRANCH  77  78
ATOM     78  C   UNL A   1      32.369  24.019  23.294  1.00  0.00     0.335 C 
ATOM     79  O   UNL A   1      33.565  23.905  23.046  1.00  0.00    -0.249 OA
BRANCH  78  80
ATOM     80  C   UNL A   1      31.682  25.385  23.442  1.00  0.00     0.228 C 
ATOM     81  C   UNL A   1      30.186  25.335  23.619  1.00  0.00     0.047 C 
ATOM     82  O   UNL A   1      31.870  26.311  22.357  1.00  0.00    -0.361 OA
ATOM     83  C   UNL A   1      29.831  26.798  23.491  1.00  0.00     0.037 C 
ATOM     84  C   UNL A   1      30.767  27.262  22.384  1.00  0.00     0.138 C 
BRANCH  84  85
ATOM     85  C   UNL A   1      31.337  28.680  22.550  1.00  0.00     0.149 C 
BRANCH  85  86
ATOM     86  N   UNL A   1      31.193  29.269  23.871  1.00  0.00    -0.335 N 
ATOM     87  C   UNL A   1      30.439  30.312  24.306  1.00  0.00     0.317 C 
ATOM     88  H   UNL A   1      31.735  28.838  24.571  1.00  0.00     0.165 HD
ATOM     89  O   UNL A   1      30.805  30.867  25.342  1.00  0.00    -0.249 OA
ATOM     90  N   UNL A   1      29.367  30.731  23.581  1.00  0.00    -0.314 N 
ATOM     91  C   UNL A   1      28.972  32.143  23.605  1.00  0.00     0.182 C 
ATOM     92  C   UNL A   1      28.416  29.886  22.870  1.00  0.00     0.182 C 
ATOM     93  C   UNL A   1      28.715  32.647  22.166  1.00  0.00     0.282 C 
ATOM     94  C   UNL A   1      28.270  30.372  21.423  1.00  0.00     0.282 C 
ATOM     95  N   UNL A   1      27.843  31.770  21.341  1.00  0.00    -0.343 N 
ATOM     96  H   UNL A   1      27.889  32.075  20.368  1.00  0.00     0.346 HD
ATOM     97  H   UNL A   1      26.889  31.838  21.695  1.00  0.00     0.346 HD
ENDBRANCH  85  86
ENDBRANCH  84  85
ENDBRANCH  78  80
ENDBRANCH  77  78
ENDBRANCH  76  77
ENDBRANCH  75  76
ENDBRANCH  74  75
ENDBRANCH  73  74
ENDBRANCH   1  73
TORSDOF 22
ENDMDL
