MODEL 1
REMARK VINA RESULT:      -6.6      0.000      0.000
REMARK SMILES CCC[NH2+][C@]1(C(=O)OCCOCCOCCOC(=O)c2ccc(-c3c4nc(c(-c5cccc(S(=O)(=O)[O-])c5F)c5ccc([nH]5)c(-c5cccc(S(=O)(=O)[O-])c5F)c5nc(c(-c6cccc(S(=O)(=O)[O-])c6F)c6ccc3[nH]6)C=C5)C=C4)cc2)CCC[C@@H]([N@@H+](C)[C@@H](C)C2CC2)C1
REMARK SMILES IDX 12 1 11 2 10 3 9 4 8 5 6 6 7 7 5 8 83 9 94 10 84 11 86 12
REMARK SMILES IDX 85 13 4 14 3 17 2 18 1 19 87 20 88 21 89 23 90 24 91 25
REMARK SMILES IDX 92 26 93 27 13 28 14 29 15 30 16 31 17 32 18 33 19 34 20 35
REMARK SMILES IDX 21 36 82 37 22 38 81 39 23 40 24 41 25 42 75 43 26 44 80 45
REMARK SMILES IDX 74 46 76 47 27 48 79 49 73 50 72 51 28 53 60 54 40 55 59 56
REMARK SMILES IDX 41 57 44 58 58 59 77 60 42 61 43 62 57 64 78 65 45 66 29 67
REMARK SMILES IDX 30 68 38 69 31 70 33 71 39 72 32 73 34 74 35 75 36 76 37 77
REMARK SMILES IDX 61 78 62 79 70 80 63 81 65 82 71 83 64 84 66 85 67 86 68 87
REMARK SMILES IDX 69 88 46 89 47 90 55 91 48 92 50 93 56 94 49 95 51 96 52 97
REMARK SMILES IDX 53 98 54 99
REMARK H PARENT 4 15 4 16 87 22 76 52 44 63
REMARK Flexibility Score: inf
ROOT
ATOM      1  C   UNL A   1      36.313  34.487  31.978  1.00  0.00     0.188 C 
ENDROOT
BRANCH   1   2
ATOM      2  O   UNL A   1      35.081  33.801  32.079  1.00  0.00    -0.376 OA
BRANCH   2   3
ATOM      3  C   UNL A   1      35.051  32.413  31.837  1.00  0.00     0.202 C 
BRANCH   3   4
ATOM      4  C   UNL A   1      35.716  31.935  30.553  1.00  0.00     0.261 C 
BRANCH   4   5
ATOM      5  O   UNL A   1      37.003  31.313  30.746  1.00  0.00    -0.459 OA
BRANCH   5   6
ATOM      6  C   UNL A   1      37.636  30.920  29.595  1.00  0.00     0.368 C 
ATOM      7  O   UNL A   1      37.336  31.346  28.486  1.00  0.00    -0.245 OA
BRANCH   6   8
ATOM      8  C   UNL A   1      38.726  29.821  29.837  1.00  0.00     0.200 C 
ATOM      9  C   UNL A   1      37.977  28.586  30.392  1.00  0.00     0.081 C 
ATOM     10  C   UNL A   1      39.398  29.419  28.481  1.00  0.00     0.146 C 
ATOM     11  C   UNL A   1      38.843  27.343  30.495  1.00  0.00     0.013 C 
ATOM     12  C   UNL A   1      40.199  28.078  28.492  1.00  0.00     0.190 C 
ATOM     13  C   UNL A   1      39.366  26.948  29.118  1.00  0.00     0.065 C 
BRANCH   8  14
ATOM     14  N   UNL A   1      39.785  30.320  30.777  1.00  0.00    -0.332 N 
ATOM     15  H   UNL A   1      39.323  30.768  31.568  1.00  0.00     0.347 HD
ATOM     16  H   UNL A   1      40.339  29.506  31.045  1.00  0.00     0.347 HD
BRANCH  14  17
ATOM     17  C   UNL A   1      40.724  31.285  30.189  1.00  0.00     0.261 C 
BRANCH  17  18
ATOM     18  C   UNL A   1      40.432  32.725  30.632  1.00  0.00     0.058 C 
ATOM     19  C   UNL A   1      40.586  32.964  32.129  1.00  0.00     0.010 C 
ENDBRANCH  17  18
ENDBRANCH  14  17
ENDBRANCH   8  14
BRANCH  12  20
ATOM     20  N   UNL A   1      40.930  27.712  27.244  1.00  0.00    -0.332 N 
ATOM     21  C   UNL A   1      41.834  28.798  26.825  1.00  0.00     0.333 C 
ATOM     22  H   UNL A   1      40.100  27.557  26.672  1.00  0.00     0.348 HD
BRANCH  20  23
ATOM     23  C   UNL A   1      41.623  26.420  27.026  1.00  0.00     0.184 C 
ATOM     24  C   UNL A   1      41.794  25.869  25.611  1.00  0.00     0.075 C 
BRANCH  23  25
ATOM     25  C   UNL A   1      42.871  26.252  27.859  1.00  0.00     0.047 C 
ATOM     26  C   UNL A   1      42.874  26.307  29.349  1.00  0.00     0.010 C 
ATOM     27  C   UNL A   1      43.159  25.007  28.671  1.00  0.00     0.010 C 
ENDBRANCH  23  25
ENDBRANCH  20  23
ENDBRANCH  12  20
ENDBRANCH   6   8
ENDBRANCH   5   6
ENDBRANCH   4   5
ENDBRANCH   3   4
ENDBRANCH   2   3
ENDBRANCH   1   2
BRANCH   1  28
ATOM     28  C   UNL A   1      37.405  34.317  33.053  1.00  0.00     0.188 C 
BRANCH  28  29
ATOM     29  O   UNL A   1      37.136  34.727  34.384  1.00  0.00    -0.376 OA
BRANCH  29  30
ATOM     30  C   UNL A   1      36.819  33.712  35.326  1.00  0.00     0.202 C 
BRANCH  30  31
ATOM     31  C   UNL A   1      37.553  33.756  36.671  1.00  0.00     0.261 C 
BRANCH  31  32
ATOM     32  O   UNL A   1      38.968  34.015  36.550  1.00  0.00    -0.460 OA
BRANCH  32  33
ATOM     33  C   UNL A   1      39.731  33.372  37.472  1.00  0.00     0.338 C 
ATOM     34  O   UNL A   1      39.681  33.561  38.677  1.00  0.00    -0.246 OA
BRANCH  33  35
ATOM     35  C   UNL A   1      40.636  32.336  36.898  1.00  0.00     0.060 A 
ATOM     36  C   UNL A   1      41.988  32.277  37.219  1.00  0.00     0.016 A 
ATOM     37  C   UNL A   1      40.188  31.621  35.787  1.00  0.00     0.016 A 
ATOM     38  C   UNL A   1      42.900  31.713  36.319  1.00  0.00     0.010 A 
ATOM     39  C   UNL A   1      41.094  30.917  34.977  1.00  0.00     0.010 A 
ATOM     40  C   UNL A   1      42.481  31.013  35.180  1.00  0.00    -0.014 A 
BRANCH  40  41
ATOM     41  C   UNL A   1      43.461  30.463  34.180  1.00  0.00     0.031 A 
ATOM     42  C   UNL A   1      44.010  31.354  33.083  1.00  0.00     0.074 A 
ATOM     43  C   UNL A   1      43.885  29.179  34.218  1.00  0.00     0.049 A 
ATOM     44  N   UNL A   1      44.540  31.025  31.933  1.00  0.00    -0.248 NA
ATOM     45  C   UNL A   1      43.929  32.809  33.301  1.00  0.00     0.031 C 
ATOM     46  C   UNL A   1      43.544  28.190  35.242  1.00  0.00     0.029 A 
ATOM     47  N   UNL A   1      44.695  28.475  33.352  1.00  0.00    -0.354 N 
ATOM     48  C   UNL A   1      44.725  32.219  31.238  1.00  0.00     0.074 A 
ATOM     49  C   UNL A   1      44.295  33.284  32.119  1.00  0.00     0.031 C 
ATOM     50  C   UNL A   1      44.170  27.037  34.980  1.00  0.00     0.029 A 
ATOM     51  C   UNL A   1      44.814  27.142  33.681  1.00  0.00     0.049 A 
ATOM     52  H   UNL A   1      45.143  28.884  32.576  1.00  0.00     0.167 HD
ATOM     53  C   UNL A   1      45.193  32.403  29.979  1.00  0.00     0.034 A 
ATOM     54  C   UNL A   1      45.283  26.087  32.986  1.00  0.00     0.034 A 
ATOM     55  C   UNL A   1      45.726  31.345  29.160  1.00  0.00     0.049 A 
ATOM     56  C   UNL A   1      45.779  26.302  31.587  1.00  0.00     0.074 A 
ATOM     57  C   UNL A   1      46.247  31.424  27.879  1.00  0.00     0.029 A 
ATOM     58  N   UNL A   1      45.831  30.019  29.549  1.00  0.00    -0.354 N 
ATOM     59  N   UNL A   1      45.883  27.420  30.912  1.00  0.00    -0.248 NA
ATOM     60  C   UNL A   1      46.214  25.108  30.848  1.00  0.00     0.031 C 
ATOM     61  C   UNL A   1      46.647  30.141  27.488  1.00  0.00     0.029 A 
ATOM     62  C   UNL A   1      46.408  29.270  28.538  1.00  0.00     0.049 A 
ATOM     63  H   UNL A   1      45.538  29.662  30.419  1.00  0.00     0.167 HD
ATOM     64  C   UNL A   1      46.415  27.069  29.677  1.00  0.00     0.074 A 
ATOM     65  C   UNL A   1      46.638  25.638  29.710  1.00  0.00     0.031 C 
ATOM     66  C   UNL A   1      46.675  27.856  28.606  1.00  0.00     0.034 A 
BRANCH  53  67
ATOM     67  C   UNL A   1      45.131  33.792  29.391  1.00  0.00     0.023 A 
ATOM     68  C   UNL A   1      46.214  34.682  29.528  1.00  0.00     0.012 A 
ATOM     69  C   UNL A   1      44.003  34.194  28.645  1.00  0.00     0.148 A 
ATOM     70  C   UNL A   1      46.156  35.961  28.971  1.00  0.00     0.002 A 
ATOM     71  C   UNL A   1      43.972  35.450  28.052  1.00  0.00     0.091 A 
ATOM     72  F   UNL A   1      42.973  33.340  28.533  1.00  0.00    -0.205 F 
ATOM     73  C   UNL A   1      45.042  36.341  28.226  1.00  0.00     0.022 A 
BRANCH  71  74
ATOM     74  S   UNL A   1      42.619  36.000  27.005  1.00  0.00     0.127 S 
ATOM     75  O   UNL A   1      43.005  37.381  26.722  1.00  0.00    -0.237 OA
ATOM     76  O   UNL A   1      42.722  35.091  25.864  1.00  0.00    -0.237 OA
ATOM     77  O   UNL A   1      41.406  35.841  27.799  1.00  0.00    -0.744 OA
ENDBRANCH  71  74
ENDBRANCH  53  67
BRANCH  54  78
ATOM     78  C   UNL A   1      45.242  24.719  33.585  1.00  0.00     0.023 A 
ATOM     79  C   UNL A   1      44.084  23.931  33.440  1.00  0.00     0.012 A 
ATOM     80  C   UNL A   1      46.355  24.179  34.262  1.00  0.00     0.148 A 
ATOM     81  C   UNL A   1      44.030  22.642  33.972  1.00  0.00     0.002 A 
ATOM     82  C   UNL A   1      46.321  22.869  34.724  1.00  0.00     0.091 A 
ATOM     83  F   UNL A   1      47.439  24.952  34.419  1.00  0.00    -0.205 F 
ATOM     84  C   UNL A   1      45.153  22.105  34.598  1.00  0.00     0.022 A 
BRANCH  82  85
ATOM     85  S   UNL A   1      47.773  22.052  35.395  1.00  0.00     0.127 S 
ATOM     86  O   UNL A   1      48.724  22.179  34.295  1.00  0.00    -0.237 OA
ATOM     87  O   UNL A   1      48.072  22.879  36.566  1.00  0.00    -0.237 OA
ATOM     88  O   UNL A   1      47.348  20.696  35.715  1.00  0.00    -0.744 OA
ENDBRANCH  82  85
ENDBRANCH  54  78
BRANCH  66  89
ATOM     89  C   UNL A   1      47.288  27.200  27.399  1.00  0.00     0.023 A 
ATOM     90  C   UNL A   1      46.480  26.851  26.298  1.00  0.00     0.012 A 
ATOM     91  C   UNL A   1      48.677  26.978  27.339  1.00  0.00     0.148 A 
ATOM     92  C   UNL A   1      47.044  26.260  25.168  1.00  0.00     0.002 A 
ATOM     93  C   UNL A   1      49.238  26.437  26.190  1.00  0.00     0.091 A 
ATOM     94  F   UNL A   1      49.422  27.296  28.408  1.00  0.00    -0.205 F 
ATOM     95  C   UNL A   1      48.422  26.065  25.109  1.00  0.00     0.022 A 
BRANCH  93  96
ATOM     96  S   UNL A   1      51.011  26.240  25.988  1.00  0.00     0.127 S 
ATOM     97  O   UNL A   1      51.246  24.957  26.651  1.00  0.00    -0.237 OA
ATOM     98  O   UNL A   1      51.156  26.210  24.533  1.00  0.00    -0.237 OA
ATOM     99  O   UNL A   1      51.621  27.396  26.633  1.00  0.00    -0.744 OA
ENDBRANCH  93  96
ENDBRANCH  66  89
ENDBRANCH  40  41
ENDBRANCH  33  35
ENDBRANCH  32  33
ENDBRANCH  31  32
ENDBRANCH  30  31
ENDBRANCH  29  30
ENDBRANCH  28  29
ENDBRANCH   1  28
TORSDOF 26
ENDMDL
MODEL 2
REMARK VINA RESULT:      -6.5      7.413     12.530
REMARK SMILES CCC[NH2+][C@]1(C(=O)OCCOCCOCCOC(=O)c2ccc(-c3c4nc(c(-c5cccc(S(=O)(=O)[O-])c5F)c5ccc([nH]5)c(-c5cccc(S(=O)(=O)[O-])c5F)c5nc(c(-c6cccc(S(=O)(=O)[O-])c6F)c6ccc3[nH]6)C=C5)C=C4)cc2)CCC[C@@H]([N@@H+](C)[C@@H](C)C2CC2)C1
REMARK SMILES IDX 12 1 11 2 10 3 9 4 8 5 6 6 7 7 5 8 83 9 94 10 84 11 86 12
REMARK SMILES IDX 85 13 4 14 3 17 2 18 1 19 87 20 88 21 89 23 90 24 91 25
REMARK SMILES IDX 92 26 93 27 13 28 14 29 15 30 16 31 17 32 18 33 19 34 20 35
REMARK SMILES IDX 21 36 82 37 22 38 81 39 23 40 24 41 25 42 75 43 26 44 80 45
REMARK SMILES IDX 74 46 76 47 27 48 79 49 73 50 72 51 28 53 60 54 40 55 59 56
REMARK SMILES IDX 41 57 44 58 58 59 77 60 42 61 43 62 57 64 78 65 45 66 29 67
REMARK SMILES IDX 30 68 38 69 31 70 33 71 39 72 32 73 34 74 35 75 36 76 37 77
REMARK SMILES IDX 61 78 62 79 70 80 63 81 65 82 71 83 64 84 66 85 67 86 68 87
REMARK SMILES IDX 69 88 46 89 47 90 55 91 48 92 50 93 56 94 49 95 51 96 52 97
REMARK SMILES IDX 53 98 54 99
REMARK H PARENT 4 15 4 16 87 22 76 52 44 63
REMARK Flexibility Score: inf
ROOT
ATOM      1  C   UNL A   1      39.531  24.722  27.345  1.00  0.00     0.188 C 
ENDROOT
BRANCH   1   2
ATOM      2  O   UNL A   1      40.311  23.597  26.989  1.00  0.00    -0.376 OA
BRANCH   2   3
ATOM      3  C   UNL A   1      39.718  22.319  27.020  1.00  0.00     0.202 C 
BRANCH   3   4
ATOM      4  C   UNL A   1      38.991  21.878  25.756  1.00  0.00     0.261 C 
BRANCH   4   5
ATOM      5  O   UNL A   1      37.553  21.871  25.868  1.00  0.00    -0.459 OA
BRANCH   5   6
ATOM      6  C   UNL A   1      36.933  20.782  25.312  1.00  0.00     0.368 C 
ATOM      7  O   UNL A   1      37.544  19.849  24.805  1.00  0.00    -0.245 OA
BRANCH   6   8
ATOM      8  C   UNL A   1      35.370  20.891  25.326  1.00  0.00     0.200 C 
ATOM      9  C   UNL A   1      35.013  22.078  24.401  1.00  0.00     0.081 C 
ATOM     10  C   UNL A   1      34.733  19.592  24.726  1.00  0.00     0.146 C 
ATOM     11  C   UNL A   1      33.525  22.210  24.125  1.00  0.00     0.013 C 
ATOM     12  C   UNL A   1      33.234  19.705  24.303  1.00  0.00     0.190 C 
ATOM     13  C   UNL A   1      33.003  20.954  23.436  1.00  0.00     0.065 C 
BRANCH   8  14
ATOM     14  N   UNL A   1      34.862  21.081  26.726  1.00  0.00    -0.332 N 
ATOM     15  H   UNL A   1      34.049  20.479  26.854  1.00  0.00     0.347 HD
ATOM     16  H   UNL A   1      35.636  20.848  27.348  1.00  0.00     0.347 HD
BRANCH  14  17
ATOM     17  C   UNL A   1      34.467  22.459  27.055  1.00  0.00     0.261 C 
BRANCH  17  18
ATOM     18  C   UNL A   1      33.175  22.512  27.881  1.00  0.00     0.058 C 
ATOM     19  C   UNL A   1      31.979  23.094  27.137  1.00  0.00     0.010 C 
ENDBRANCH  17  18
ENDBRANCH  14  17
ENDBRANCH   8  14
BRANCH  12  20
ATOM     20  N   UNL A   1      32.569  18.461  23.815  1.00  0.00    -0.332 N 
ATOM     21  C   UNL A   1      31.970  18.672  22.485  1.00  0.00     0.333 C 
ATOM     22  H   UNL A   1      31.925  18.366  24.600  1.00  0.00     0.348 HD
BRANCH  20  23
ATOM     23  C   UNL A   1      33.188  17.115  23.839  1.00  0.00     0.184 C 
ATOM     24  C   UNL A   1      34.429  16.825  22.996  1.00  0.00     0.075 C 
BRANCH  23  25
ATOM     25  C   UNL A   1      33.282  16.514  25.221  1.00  0.00     0.047 C 
ATOM     26  C   UNL A   1      32.102  15.994  25.969  1.00  0.00     0.010 C 
ATOM     27  C   UNL A   1      33.136  15.031  25.486  1.00  0.00     0.010 C 
ENDBRANCH  23  25
ENDBRANCH  20  23
ENDBRANCH  12  20
ENDBRANCH   6   8
ENDBRANCH   5   6
ENDBRANCH   4   5
ENDBRANCH   3   4
ENDBRANCH   2   3
ENDBRANCH   1   2
BRANCH   1  28
ATOM     28  C   UNL A   1      40.084  25.797  28.303  1.00  0.00     0.188 C 
BRANCH  28  29
ATOM     29  O   UNL A   1      39.203  26.428  29.218  1.00  0.00    -0.376 OA
BRANCH  29  30
ATOM     30  C   UNL A   1      39.689  27.574  29.903  1.00  0.00     0.202 C 
BRANCH  30  31
ATOM     31  C   UNL A   1      38.763  28.794  29.962  1.00  0.00     0.261 C 
BRANCH  31  32
ATOM     32  O   UNL A   1      37.639  28.627  30.852  1.00  0.00    -0.460 OA
BRANCH  32  33
ATOM     33  C   UNL A   1      37.959  28.688  32.170  1.00  0.00     0.338 C 
ATOM     34  O   UNL A   1      37.763  27.795  32.980  1.00  0.00    -0.246 OA
BRANCH  33  35
ATOM     35  C   UNL A   1      38.644  29.948  32.573  1.00  0.00     0.060 A 
ATOM     36  C   UNL A   1      39.894  29.947  33.182  1.00  0.00     0.016 A 
ATOM     37  C   UNL A   1      37.883  31.116  32.626  1.00  0.00     0.016 A 
ATOM     38  C   UNL A   1      40.267  31.005  34.020  1.00  0.00     0.010 A 
ATOM     39  C   UNL A   1      38.342  32.237  33.336  1.00  0.00     0.010 A 
ATOM     40  C   UNL A   1      39.509  32.178  34.116  1.00  0.00    -0.014 A 
BRANCH  40  41
ATOM     41  C   UNL A   1      39.876  33.286  35.065  1.00  0.00     0.031 A 
ATOM     42  C   UNL A   1      40.802  34.399  34.613  1.00  0.00     0.074 A 
ATOM     43  C   UNL A   1      39.404  33.337  36.332  1.00  0.00     0.049 A 
ATOM     44  N   UNL A   1      41.535  35.213  35.330  1.00  0.00    -0.248 NA
ATOM     45  C   UNL A   1      40.939  34.606  33.161  1.00  0.00     0.031 C 
ATOM     46  C   UNL A   1      38.437  32.414  36.927  1.00  0.00     0.029 A 
ATOM     47  N   UNL A   1      39.693  34.205  37.363  1.00  0.00    -0.354 N 
ATOM     48  C   UNL A   1      42.317  35.926  34.425  1.00  0.00     0.074 A 
ATOM     49  C   UNL A   1      41.932  35.483  33.102  1.00  0.00     0.031 C 
ATOM     50  C   UNL A   1      38.174  32.787  38.185  1.00  0.00     0.029 A 
ATOM     51  C   UNL A   1      39.080  33.863  38.550  1.00  0.00     0.049 A 
ATOM     52  H   UNL A   1      40.278  34.991  37.263  1.00  0.00     0.167 HD
ATOM     53  C   UNL A   1      43.276  36.851  34.677  1.00  0.00     0.034 A 
ATOM     54  C   UNL A   1      39.286  34.277  39.816  1.00  0.00     0.034 A 
ATOM     55  C   UNL A   1      43.566  37.366  35.991  1.00  0.00     0.049 A 
ATOM     56  C   UNL A   1      40.364  35.285  40.083  1.00  0.00     0.074 A 
ATOM     57  C   UNL A   1      44.501  38.321  36.357  1.00  0.00     0.029 A 
ATOM     58  N   UNL A   1      42.906  36.991  37.151  1.00  0.00    -0.354 N 
ATOM     59  N   UNL A   1      41.147  35.900  39.232  1.00  0.00    -0.248 NA
ATOM     60  C   UNL A   1      40.595  35.650  41.488  1.00  0.00     0.031 C 
ATOM     61  C   UNL A   1      44.419  38.505  37.742  1.00  0.00     0.029 A 
ATOM     62  C   UNL A   1      43.411  37.692  38.232  1.00  0.00     0.049 A 
ATOM     63  H   UNL A   1      42.185  36.324  37.199  1.00  0.00     0.167 HD
ATOM     64  C   UNL A   1      41.949  36.740  39.994  1.00  0.00     0.074 A 
ATOM     65  C   UNL A   1      41.536  36.575  41.372  1.00  0.00     0.031 C 
ATOM     66  C   UNL A   1      42.951  37.559  39.591  1.00  0.00     0.034 A 
BRANCH  53  67
ATOM     67  C   UNL A   1      44.107  37.353  33.521  1.00  0.00     0.023 A 
ATOM     68  C   UNL A   1      45.165  36.580  33.004  1.00  0.00     0.012 A 
ATOM     69  C   UNL A   1      43.792  38.584  32.907  1.00  0.00     0.148 A 
ATOM     70  C   UNL A   1      45.922  37.044  31.927  1.00  0.00     0.002 A 
ATOM     71  C   UNL A   1      44.519  39.017  31.804  1.00  0.00     0.091 A 
ATOM     72  F   UNL A   1      42.790  39.315  33.418  1.00  0.00    -0.205 F 
ATOM     73  C   UNL A   1      45.594  38.255  31.321  1.00  0.00     0.022 A 
BRANCH  71  74
ATOM     74  S   UNL A   1      44.121  40.521  30.905  1.00  0.00     0.127 S 
ATOM     75  O   UNL A   1      44.393  41.548  31.909  1.00  0.00    -0.237 OA
ATOM     76  O   UNL A   1      45.075  40.481  29.798  1.00  0.00    -0.237 OA
ATOM     77  O   UNL A   1      42.723  40.394  30.507  1.00  0.00    -0.744 OA
ENDBRANCH  71  74
ENDBRANCH  53  67
BRANCH  54  78
ATOM     78  C   UNL A   1      38.494  33.684  40.935  1.00  0.00     0.023 A 
ATOM     79  C   UNL A   1      37.325  34.331  41.379  1.00  0.00     0.012 A 
ATOM     80  C   UNL A   1      38.871  32.465  41.535  1.00  0.00     0.148 A 
ATOM     81  C   UNL A   1      36.558  33.784  42.408  1.00  0.00     0.002 A 
ATOM     82  C   UNL A   1      38.063  31.889  42.509  1.00  0.00     0.091 A 
ATOM     83  F   UNL A   1      40.003  31.876  41.124  1.00  0.00    -0.205 F 
ATOM     84  C   UNL A   1      36.916  32.557  42.961  1.00  0.00     0.022 A 
BRANCH  82  85
ATOM     85  S   UNL A   1      38.366  30.240  43.154  1.00  0.00     0.127 S 
ATOM     86  O   UNL A   1      38.274  29.425  41.947  1.00  0.00    -0.237 OA
ATOM     87  O   UNL A   1      39.716  30.374  43.705  1.00  0.00    -0.237 OA
ATOM     88  O   UNL A   1      37.333  30.014  44.155  1.00  0.00    -0.744 OA
ENDBRANCH  82  85
ENDBRANCH  54  78
BRANCH  66  89
ATOM     89  C   UNL A   1      43.633  38.387  40.647  1.00  0.00     0.023 A 
ATOM     90  C   UNL A   1      44.779  37.892  41.301  1.00  0.00     0.012 A 
ATOM     91  C   UNL A   1      43.163  39.679  40.950  1.00  0.00     0.148 A 
ATOM     92  C   UNL A   1      45.428  38.662  42.266  1.00  0.00     0.002 A 
ATOM     93  C   UNL A   1      43.845  40.459  41.874  1.00  0.00     0.091 A 
ATOM     94  F   UNL A   1      42.057  40.118  40.332  1.00  0.00    -0.205 F 
ATOM     95  C   UNL A   1      44.969  39.948  42.543  1.00  0.00     0.022 A 
BRANCH  93  96
ATOM     96  S   UNL A   1      43.384  42.159  42.223  1.00  0.00     0.127 S 
ATOM     97  O   UNL A   1      44.423  42.562  43.170  1.00  0.00    -0.237 OA
ATOM     98  O   UNL A   1      43.484  42.783  40.904  1.00  0.00    -0.237 OA
ATOM     99  O   UNL A   1      42.032  42.105  42.765  1.00  0.00    -0.744 OA
ENDBRANCH  93  96
ENDBRANCH  66  89
ENDBRANCH  40  41
ENDBRANCH  33  35
ENDBRANCH  32  33
ENDBRANCH  31  32
ENDBRANCH  30  31
ENDBRANCH  29  30
ENDBRANCH  28  29
ENDBRANCH   1  28
TORSDOF 26
ENDMDL
MODEL 3
REMARK VINA RESULT:      -6.4      6.206     11.742
REMARK SMILES CCC[NH2+][C@]1(C(=O)OCCOCCOCCOC(=O)c2ccc(-c3c4nc(c(-c5cccc(S(=O)(=O)[O-])c5F)c5ccc([nH]5)c(-c5cccc(S(=O)(=O)[O-])c5F)c5nc(c(-c6cccc(S(=O)(=O)[O-])c6F)c6ccc3[nH]6)C=C5)C=C4)cc2)CCC[C@@H]([N@@H+](C)[C@@H](C)C2CC2)C1
REMARK SMILES IDX 12 1 11 2 10 3 9 4 8 5 6 6 7 7 5 8 83 9 94 10 84 11 86 12
REMARK SMILES IDX 85 13 4 14 3 17 2 18 1 19 87 20 88 21 89 23 90 24 91 25
REMARK SMILES IDX 92 26 93 27 13 28 14 29 15 30 16 31 17 32 18 33 19 34 20 35
REMARK SMILES IDX 21 36 82 37 22 38 81 39 23 40 24 41 25 42 75 43 26 44 80 45
REMARK SMILES IDX 74 46 76 47 27 48 79 49 73 50 72 51 28 53 60 54 40 55 59 56
REMARK SMILES IDX 41 57 44 58 58 59 77 60 42 61 43 62 57 64 78 65 45 66 29 67
REMARK SMILES IDX 30 68 38 69 31 70 33 71 39 72 32 73 34 74 35 75 36 76 37 77
REMARK SMILES IDX 61 78 62 79 70 80 63 81 65 82 71 83 64 84 66 85 67 86 68 87
REMARK SMILES IDX 69 88 46 89 47 90 55 91 48 92 50 93 56 94 49 95 51 96 52 97
REMARK SMILES IDX 53 98 54 99
REMARK H PARENT 4 15 4 16 87 22 76 52 44 63
REMARK Flexibility Score: inf
ROOT
ATOM      1  C   UNL A   1      38.698  22.158  25.784  1.00  0.00     0.188 C 
ENDROOT
BRANCH   1   2
ATOM      2  O   UNL A   1      37.309  21.929  25.916  1.00  0.00    -0.376 OA
BRANCH   2   3
ATOM      3  C   UNL A   1      36.614  21.322  24.851  1.00  0.00     0.202 C 
BRANCH   3   4
ATOM      4  C   UNL A   1      35.499  22.143  24.214  1.00  0.00     0.261 C 
BRANCH   4   5
ATOM      5  O   UNL A   1      34.365  22.372  25.074  1.00  0.00    -0.459 OA
BRANCH   5   6
ATOM      6  C   UNL A   1      34.228  23.660  25.523  1.00  0.00     0.368 C 
ATOM      7  O   UNL A   1      35.050  24.209  26.247  1.00  0.00    -0.245 OA
BRANCH   6   8
ATOM      8  C   UNL A   1      32.882  24.327  25.078  1.00  0.00     0.200 C 
ATOM      9  C   UNL A   1      31.847  23.984  26.174  1.00  0.00     0.081 C 
ATOM     10  C   UNL A   1      33.043  25.885  25.024  1.00  0.00     0.146 C 
ATOM     11  C   UNL A   1      30.527  24.720  26.020  1.00  0.00     0.013 C 
ATOM     12  C   UNL A   1      31.713  26.703  24.993  1.00  0.00     0.190 C 
ATOM     13  C   UNL A   1      30.752  26.226  26.094  1.00  0.00     0.065 C 
BRANCH   8  14
ATOM     14  N   UNL A   1      32.467  23.834  23.722  1.00  0.00    -0.332 N 
ATOM     15  H   UNL A   1      32.703  22.843  23.658  1.00  0.00     0.347 HD
ATOM     16  H   UNL A   1      31.466  24.012  23.644  1.00  0.00     0.347 HD
BRANCH  14  17
ATOM     17  C   UNL A   1      33.101  24.529  22.593  1.00  0.00     0.261 C 
BRANCH  17  18
ATOM     18  C   UNL A   1      32.082  25.275  21.721  1.00  0.00     0.058 C 
ATOM     19  C   UNL A   1      32.588  25.628  20.327  1.00  0.00     0.010 C 
ENDBRANCH  17  18
ENDBRANCH  14  17
ENDBRANCH   8  14
BRANCH  12  20
ATOM     20  N   UNL A   1      31.828  28.183  24.848  1.00  0.00    -0.332 N 
ATOM     21  C   UNL A   1      32.821  28.729  25.791  1.00  0.00     0.333 C 
ATOM     22  H   UNL A   1      30.848  28.390  25.041  1.00  0.00     0.348 HD
BRANCH  20  23
ATOM     23  C   UNL A   1      31.979  28.890  23.555  1.00  0.00     0.184 C 
ATOM     24  C   UNL A   1      33.335  28.921  22.849  1.00  0.00     0.075 C 
BRANCH  23  25
ATOM     25  C   UNL A   1      30.840  28.648  22.593  1.00  0.00     0.047 C 
ATOM     26  C   UNL A   1      29.405  28.791  22.972  1.00  0.00     0.010 C 
ATOM     27  C   UNL A   1      30.002  29.765  22.010  1.00  0.00     0.010 C 
ENDBRANCH  23  25
ENDBRANCH  20  23
ENDBRANCH  12  20
ENDBRANCH   6   8
ENDBRANCH   5   6
ENDBRANCH   4   5
ENDBRANCH   3   4
ENDBRANCH   2   3
ENDBRANCH   1   2
BRANCH   1  28
ATOM     28  C   UNL A   1      39.720  21.069  26.171  1.00  0.00     0.188 C 
BRANCH  28  29
ATOM     29  O   UNL A   1      40.340  21.123  27.445  1.00  0.00    -0.376 OA
BRANCH  29  30
ATOM     30  C   UNL A   1      41.659  20.605  27.549  1.00  0.00     0.202 C 
BRANCH  30  31
ATOM     31  C   UNL A   1      42.780  21.610  27.836  1.00  0.00     0.261 C 
BRANCH  31  32
ATOM     32  O   UNL A   1      42.611  22.876  27.164  1.00  0.00    -0.460 OA
BRANCH  32  33
ATOM     33  C   UNL A   1      42.872  23.958  27.941  1.00  0.00     0.338 C 
ATOM     34  O   UNL A   1      42.232  24.281  28.930  1.00  0.00    -0.246 OA
BRANCH  33  35
ATOM     35  C   UNL A   1      44.075  24.732  27.523  1.00  0.00     0.060 A 
ATOM     36  C   UNL A   1      44.927  25.328  28.447  1.00  0.00     0.016 A 
ATOM     37  C   UNL A   1      44.166  25.126  26.189  1.00  0.00     0.016 A 
ATOM     38  C   UNL A   1      45.679  26.452  28.084  1.00  0.00     0.010 A 
ATOM     39  C   UNL A   1      45.049  26.148  25.803  1.00  0.00     0.010 A 
ATOM     40  C   UNL A   1      45.767  26.889  26.757  1.00  0.00    -0.014 A 
BRANCH  40  41
ATOM     41  C   UNL A   1      46.523  28.133  26.378  1.00  0.00     0.031 A 
ATOM     42  C   UNL A   1      47.975  28.040  25.949  1.00  0.00     0.074 A 
ATOM     43  C   UNL A   1      45.952  29.359  26.401  1.00  0.00     0.049 A 
ATOM     44  N   UNL A   1      48.902  28.964  25.948  1.00  0.00    -0.248 NA
ATOM     45  C   UNL A   1      48.451  26.726  25.482  1.00  0.00     0.031 C 
ATOM     46  C   UNL A   1      44.549  29.648  26.699  1.00  0.00     0.029 A 
ATOM     47  N   UNL A   1      46.496  30.607  26.181  1.00  0.00    -0.354 N 
ATOM     48  C   UNL A   1      50.091  28.317  25.618  1.00  0.00     0.074 A 
ATOM     49  C   UNL A   1      49.757  26.929  25.378  1.00  0.00     0.031 C 
ATOM     50  C   UNL A   1      44.329  30.965  26.596  1.00  0.00     0.029 A 
ATOM     51  C   UNL A   1      45.604  31.635  26.401  1.00  0.00     0.049 A 
ATOM     52  H   UNL A   1      47.427  30.750  25.896  1.00  0.00     0.167 HD
ATOM     53  C   UNL A   1      51.342  28.832  25.541  1.00  0.00     0.034 A 
ATOM     54  C   UNL A   1      45.786  32.962  26.543  1.00  0.00     0.034 A 
ATOM     55  C   UNL A   1      51.641  30.235  25.667  1.00  0.00     0.049 A 
ATOM     56  C   UNL A   1      47.179  33.515  26.476  1.00  0.00     0.074 A 
ATOM     57  C   UNL A   1      52.870  30.868  25.583  1.00  0.00     0.029 A 
ATOM     58  N   UNL A   1      50.698  31.229  25.878  1.00  0.00    -0.354 N 
ATOM     59  N   UNL A   1      48.304  32.889  26.237  1.00  0.00    -0.248 NA
ATOM     60  C   UNL A   1      47.329  34.959  26.707  1.00  0.00     0.031 C 
ATOM     61  C   UNL A   1      52.671  32.241  25.764  1.00  0.00     0.029 A 
ATOM     62  C   UNL A   1      51.314  32.467  25.926  1.00  0.00     0.049 A 
ATOM     63  H   UNL A   1      49.730  31.076  25.978  1.00  0.00     0.167 HD
ATOM     64  C   UNL A   1      49.294  33.863  26.268  1.00  0.00     0.074 A 
ATOM     65  C   UNL A   1      48.630  35.125  26.520  1.00  0.00     0.031 C 
ATOM     66  C   UNL A   1      50.633  33.722  26.122  1.00  0.00     0.034 A 
BRANCH  53  67
ATOM     67  C   UNL A   1      52.495  27.879  25.335  1.00  0.00     0.023 A 
ATOM     68  C   UNL A   1      52.802  27.385  24.052  1.00  0.00     0.012 A 
ATOM     69  C   UNL A   1      53.315  27.515  26.425  1.00  0.00     0.148 A 
ATOM     70  C   UNL A   1      53.877  26.513  23.865  1.00  0.00     0.002 A 
ATOM     71  C   UNL A   1      54.412  26.686  26.224  1.00  0.00     0.091 A 
ATOM     72  F   UNL A   1      53.002  27.982  27.643  1.00  0.00    -0.205 F 
ATOM     73  C   UNL A   1      54.686  26.172  24.947  1.00  0.00     0.022 A 
BRANCH  71  74
ATOM     74  S   UNL A   1      55.561  26.257  27.537  1.00  0.00     0.127 S 
ATOM     75  O   UNL A   1      56.147  27.557  27.855  1.00  0.00    -0.237 OA
ATOM     76  O   UNL A   1      54.670  25.720  28.564  1.00  0.00    -0.237 OA
ATOM     77  O   UNL A   1      56.482  25.282  26.963  1.00  0.00    -0.744 OA
ENDBRANCH  71  74
ENDBRANCH  53  67
BRANCH  54  78
ATOM     78  C   UNL A   1      44.620  33.851  26.832  1.00  0.00     0.023 A 
ATOM     79  C   UNL A   1      44.004  34.554  25.779  1.00  0.00     0.012 A 
ATOM     80  C   UNL A   1      44.094  33.972  28.135  1.00  0.00     0.148 A 
ATOM     81  C   UNL A   1      42.900  35.373  26.021  1.00  0.00     0.002 A 
ATOM     82  C   UNL A   1      42.950  34.730  28.356  1.00  0.00     0.091 A 
ATOM     83  F   UNL A   1      44.709  33.321  29.132  1.00  0.00    -0.205 F 
ATOM     84  C   UNL A   1      42.363  35.447  27.304  1.00  0.00     0.022 A 
BRANCH  82  85
ATOM     85  S   UNL A   1      42.105  34.749  29.941  1.00  0.00     0.127 S 
ATOM     86  O   UNL A   1      40.797  35.284  29.576  1.00  0.00    -0.237 OA
ATOM     87  O   UNL A   1      42.112  33.331  30.305  1.00  0.00    -0.237 OA
ATOM     88  O   UNL A   1      42.917  35.592  30.808  1.00  0.00    -0.744 OA
ENDBRANCH  82  85
ENDBRANCH  54  78
BRANCH  66  89
ATOM     89  C   UNL A   1      51.469  34.973  26.170  1.00  0.00     0.023 A 
ATOM     90  C   UNL A   1      51.690  35.720  24.997  1.00  0.00     0.012 A 
ATOM     91  C   UNL A   1      51.989  35.432  27.395  1.00  0.00     0.148 A 
ATOM     92  C   UNL A   1      52.447  36.891  25.037  1.00  0.00     0.002 A 
ATOM     93  C   UNL A   1      52.698  36.626  27.437  1.00  0.00     0.091 A 
ATOM     94  F   UNL A   1      51.786  34.691  28.494  1.00  0.00    -0.205 F 
ATOM     95  C   UNL A   1      52.939  37.349  26.258  1.00  0.00     0.022 A 
BRANCH  93  96
ATOM     96  S   UNL A   1      53.286  37.341  28.976  1.00  0.00     0.127 S 
ATOM     97  O   UNL A   1      53.915  38.576  28.509  1.00  0.00    -0.237 OA
ATOM     98  O   UNL A   1      52.043  37.533  29.722  1.00  0.00    -0.237 OA
ATOM     99  O   UNL A   1      54.193  36.358  29.554  1.00  0.00    -0.744 OA
ENDBRANCH  93  96
ENDBRANCH  66  89
ENDBRANCH  40  41
ENDBRANCH  33  35
ENDBRANCH  32  33
ENDBRANCH  31  32
ENDBRANCH  30  31
ENDBRANCH  29  30
ENDBRANCH  28  29
ENDBRANCH   1  28
TORSDOF 26
ENDMDL
