MODEL 1
REMARK VINA RESULT:      -9.6      0.000      0.000
REMARK SMILES O=C(CN(CC(=O)OCCOCCOCCOC(=O)c1ccc(-c2c3nc(c(-c4cccc(S(=O)(=O)[O-])c4F)c4ccc([nH]4)c(-c4cccc(S(=O)(=O)[O-])c4F)c4nc(c(-c5cccc(S(=O)(=O)[O-])c5F)c5ccc2[nH]5)C=C4)C=C3)cc1)c1ccccc1)NCc1ccccc1
REMARK SMILES IDX 12 1 11 2 10 3 9 4 8 5 6 6 7 7 5 8 4 9 3 10 2 11 1 12 89 13
REMARK SMILES IDX 90 15 91 16 92 17 96 18 93 19 95 20 94 21 83 22 84 23 88 24
REMARK SMILES IDX 85 25 87 26 86 27 13 28 14 29 15 30 16 31 17 32 18 33 19 34
REMARK SMILES IDX 20 35 21 36 82 37 22 38 81 39 23 40 24 41 25 42 75 43 26 44
REMARK SMILES IDX 80 45 74 46 76 47 27 48 79 49 73 50 72 51 28 53 60 54 40 55
REMARK SMILES IDX 59 56 41 57 44 58 58 59 77 60 42 61 43 62 57 64 78 65 45 66
REMARK SMILES IDX 29 67 30 68 38 69 31 70 33 71 39 72 32 73 34 74 35 75 36 76
REMARK SMILES IDX 37 77 61 78 62 79 70 80 63 81 65 82 71 83 64 84 66 85 67 86
REMARK SMILES IDX 68 87 69 88 46 89 47 90 55 91 48 92 50 93 56 94 49 95 51 96
REMARK SMILES IDX 52 97 53 98 54 99
REMARK H PARENT 89 14 76 52 44 63
REMARK Flexibility Score: inf
ROOT
ATOM      1  C   UNL A   1      35.140  31.131  27.618  1.00  0.00     0.188 C 
ENDROOT
BRANCH   1   2
ATOM      2  O   UNL A   1      34.142  30.139  27.435  1.00  0.00    -0.376 OA
BRANCH   2   3
ATOM      3  C   UNL A   1      32.803  30.566  27.258  1.00  0.00     0.202 C 
BRANCH   3   4
ATOM      4  C   UNL A   1      32.183  30.275  25.887  1.00  0.00     0.261 C 
BRANCH   4   5
ATOM      5  O   UNL A   1      33.076  29.527  25.032  1.00  0.00    -0.462 OA
BRANCH   5   6
ATOM      6  C   UNL A   1      32.694  28.257  24.742  1.00  0.00     0.325 C 
ATOM      7  O   UNL A   1      32.607  27.366  25.582  1.00  0.00    -0.250 OA
BRANCH   6   8
ATOM      8  C   UNL A   1      32.261  28.021  23.289  1.00  0.00     0.239 C 
BRANCH   8   9
ATOM      9  N   UNL A   1      30.851  27.612  23.024  1.00  0.00    -0.351 N 
BRANCH   9  10
ATOM     10  C   UNL A   1      30.505  26.236  23.479  1.00  0.00     0.217 C 
BRANCH  10  11
ATOM     11  C   UNL A   1      31.399  25.148  22.836  1.00  0.00     0.239 C 
ATOM     12  O   UNL A   1      31.774  25.233  21.668  1.00  0.00    -0.273 OA
ATOM     13  N   UNL A   1      31.699  24.083  23.660  1.00  0.00    -0.350 N 
ATOM     14  H   UNL A   1      31.564  24.192  24.629  1.00  0.00     0.163 HD
BRANCH  13  15
ATOM     15  C   UNL A   1      32.199  22.818  23.179  1.00  0.00     0.151 C 
BRANCH  15  16
ATOM     16  C   UNL A   1      33.370  22.309  23.972  1.00  0.00    -0.029 A 
ATOM     17  C   UNL A   1      33.515  20.942  24.244  1.00  0.00     0.005 A 
ATOM     18  C   UNL A   1      34.358  23.195  24.422  1.00  0.00     0.005 A 
ATOM     19  C   UNL A   1      34.622  20.476  24.958  1.00  0.00     0.000 A 
ATOM     20  C   UNL A   1      35.459  22.732  25.140  1.00  0.00     0.000 A 
ATOM     21  C   UNL A   1      35.592  21.372  25.407  1.00  0.00     0.000 A 
ENDBRANCH  15  16
ENDBRANCH  13  15
ENDBRANCH  10  11
ENDBRANCH   9  10
BRANCH   9  22
ATOM     22  C   UNL A   1      29.809  28.511  22.751  1.00  0.00     0.038 A 
ATOM     23  C   UNL A   1      30.011  29.737  22.106  1.00  0.00     0.026 A 
ATOM     24  C   UNL A   1      28.471  28.268  23.143  1.00  0.00     0.026 A 
ATOM     25  C   UNL A   1      28.970  30.658  21.890  1.00  0.00     0.002 A 
ATOM     26  C   UNL A   1      27.432  29.194  22.957  1.00  0.00     0.002 A 
ATOM     27  C   UNL A   1      27.680  30.391  22.315  1.00  0.00     0.000 A 
ENDBRANCH   9  22
ENDBRANCH   8   9
ENDBRANCH   6   8
ENDBRANCH   5   6
ENDBRANCH   4   5
ENDBRANCH   3   4
ENDBRANCH   2   3
ENDBRANCH   1   2
BRANCH   1  28
ATOM     28  C   UNL A   1      34.851  32.362  28.510  1.00  0.00     0.188 C 
BRANCH  28  29
ATOM     29  O   UNL A   1      35.037  33.663  27.977  1.00  0.00    -0.376 OA
BRANCH  29  30
ATOM     30  C   UNL A   1      33.933  34.554  27.996  1.00  0.00     0.202 C 
BRANCH  30  31
ATOM     31  C   UNL A   1      33.680  35.331  29.293  1.00  0.00     0.261 C 
BRANCH  31  32
ATOM     32  O   UNL A   1      32.819  34.633  30.214  1.00  0.00    -0.460 OA
BRANCH  32  33
ATOM     33  C   UNL A   1      32.960  35.014  31.505  1.00  0.00     0.338 C 
ATOM     34  O   UNL A   1      32.151  35.680  32.147  1.00  0.00    -0.246 OA
BRANCH  33  35
ATOM     35  C   UNL A   1      34.220  34.530  32.113  1.00  0.00     0.060 A 
ATOM     36  C   UNL A   1      35.276  35.394  32.386  1.00  0.00     0.016 A 
ATOM     37  C   UNL A   1      34.426  33.155  32.231  1.00  0.00     0.016 A 
ATOM     38  C   UNL A   1      36.553  34.893  32.667  1.00  0.00     0.010 A 
ATOM     39  C   UNL A   1      35.681  32.657  32.605  1.00  0.00     0.010 A 
ATOM     40  C   UNL A   1      36.778  33.516  32.793  1.00  0.00    -0.014 A 
BRANCH  40  41
ATOM     41  C   UNL A   1      38.131  32.968  33.114  1.00  0.00     0.031 A 
ATOM     42  C   UNL A   1      38.738  31.873  32.269  1.00  0.00     0.074 A 
ATOM     43  C   UNL A   1      38.811  33.414  34.191  1.00  0.00     0.049 A 
ATOM     44  N   UNL A   1      39.739  31.074  32.541  1.00  0.00    -0.248 NA
ATOM     45  C   UNL A   1      38.138  31.645  30.943  1.00  0.00     0.031 C 
ATOM     46  C   UNL A   1      38.389  34.507  35.070  1.00  0.00     0.029 A 
ATOM     47  N   UNL A   1      39.989  32.978  34.754  1.00  0.00    -0.354 N 
ATOM     48  C   UNL A   1      39.834  30.195  31.466  1.00  0.00     0.074 A 
ATOM     49  C   UNL A   1      38.811  30.583  30.518  1.00  0.00     0.031 C 
ATOM     50  C   UNL A   1      39.285  34.657  36.055  1.00  0.00     0.029 A 
ATOM     51  C   UNL A   1      40.275  33.595  35.953  1.00  0.00     0.049 A 
ATOM     52  H   UNL A   1      40.568  32.297  34.342  1.00  0.00     0.167 HD
ATOM     53  C   UNL A   1      40.689  29.155  31.293  1.00  0.00     0.034 A 
ATOM     54  C   UNL A   1      41.166  33.291  36.917  1.00  0.00     0.034 A 
ATOM     55  C   UNL A   1      41.740  28.814  32.218  1.00  0.00     0.049 A 
ATOM     56  C   UNL A   1      42.058  32.098  36.738  1.00  0.00     0.074 A 
ATOM     57  C   UNL A   1      42.678  27.799  32.120  1.00  0.00     0.029 A 
ATOM     58  N   UNL A   1      41.991  29.472  33.411  1.00  0.00    -0.354 N 
ATOM     59  N   UNL A   1      42.145  31.282  35.716  1.00  0.00    -0.248 NA
ATOM     60  C   UNL A   1      42.972  31.785  37.844  1.00  0.00     0.031 C 
ATOM     61  C   UNL A   1      43.475  27.827  33.269  1.00  0.00     0.029 A 
ATOM     62  C   UNL A   1      43.056  28.878  34.068  1.00  0.00     0.049 A 
ATOM     63  H   UNL A   1      41.487  30.250  33.744  1.00  0.00     0.167 HD
ATOM     64  C   UNL A   1      43.135  30.366  36.049  1.00  0.00     0.074 A 
ATOM     65  C   UNL A   1      43.638  30.748  37.353  1.00  0.00     0.031 C 
ATOM     66  C   UNL A   1      43.572  29.291  35.347  1.00  0.00     0.034 A 
BRANCH  53  67
ATOM     67  C   UNL A   1      40.525  28.294  30.065  1.00  0.00     0.023 A 
ATOM     68  C   UNL A   1      39.457  27.381  29.974  1.00  0.00     0.012 A 
ATOM     69  C   UNL A   1      41.395  28.447  28.965  1.00  0.00     0.148 A 
ATOM     70  C   UNL A   1      39.274  26.614  28.821  1.00  0.00     0.002 A 
ATOM     71  C   UNL A   1      41.183  27.710  27.805  1.00  0.00     0.091 A 
ATOM     72  F   UNL A   1      42.415  29.309  29.074  1.00  0.00    -0.205 F 
ATOM     73  C   UNL A   1      40.129  26.785  27.736  1.00  0.00     0.022 A 
BRANCH  71  74
ATOM     74  S   UNL A   1      42.186  27.919  26.328  1.00  0.00     0.127 S 
ATOM     75  O   UNL A   1      41.929  29.323  25.996  1.00  0.00    -0.237 OA
ATOM     76  O   UNL A   1      43.537  27.656  26.836  1.00  0.00    -0.237 OA
ATOM     77  O   UNL A   1      41.699  26.950  25.368  1.00  0.00    -0.744 OA
ENDBRANCH  71  74
ENDBRANCH  53  67
BRANCH  54  78
ATOM     78  C   UNL A   1      41.213  34.111  38.162  1.00  0.00     0.023 A 
ATOM     79  C   UNL A   1      42.093  35.206  38.241  1.00  0.00     0.012 A 
ATOM     80  C   UNL A   1      40.351  33.844  39.246  1.00  0.00     0.148 A 
ATOM     81  C   UNL A   1      42.124  36.011  39.381  1.00  0.00     0.002 A 
ATOM     82  C   UNL A   1      40.339  34.688  40.349  1.00  0.00     0.091 A 
ATOM     83  F   UNL A   1      39.538  32.780  39.164  1.00  0.00    -0.205 F 
ATOM     84  C   UNL A   1      41.237  35.763  40.426  1.00  0.00     0.022 A 
BRANCH  82  85
ATOM     85  S   UNL A   1      39.122  34.533  41.661  1.00  0.00     0.127 S 
ATOM     86  O   UNL A   1      39.380  35.733  42.452  1.00  0.00    -0.237 OA
ATOM     87  O   UNL A   1      37.865  34.547  40.911  1.00  0.00    -0.237 OA
ATOM     88  O   UNL A   1      39.412  33.265  42.316  1.00  0.00    -0.744 OA
ENDBRANCH  82  85
ENDBRANCH  54  78
BRANCH  66  89
ATOM     89  C   UNL A   1      44.670  28.467  35.965  1.00  0.00     0.023 A 
ATOM     90  C   UNL A   1      46.017  28.783  35.695  1.00  0.00     0.012 A 
ATOM     91  C   UNL A   1      44.369  27.413  36.849  1.00  0.00     0.148 A 
ATOM     92  C   UNL A   1      47.047  28.041  36.270  1.00  0.00     0.002 A 
ATOM     93  C   UNL A   1      45.401  26.710  37.457  1.00  0.00     0.091 A 
ATOM     94  F   UNL A   1      43.082  27.116  37.075  1.00  0.00    -0.205 F 
ATOM     95  C   UNL A   1      46.740  27.013  37.159  1.00  0.00     0.022 A 
BRANCH  93  96
ATOM     96  S   UNL A   1      45.105  25.430  38.681  1.00  0.00     0.127 S 
ATOM     97  O   UNL A   1      44.327  24.458  37.916  1.00  0.00    -0.237 OA
ATOM     98  O   UNL A   1      46.464  24.998  39.013  1.00  0.00    -0.237 OA
ATOM     99  O   UNL A   1      44.393  26.076  39.775  1.00  0.00    -0.744 OA
ENDBRANCH  93  96
ENDBRANCH  66  89
ENDBRANCH  40  41
ENDBRANCH  33  35
ENDBRANCH  32  33
ENDBRANCH  31  32
ENDBRANCH  30  31
ENDBRANCH  29  30
ENDBRANCH  28  29
ENDBRANCH   1  28
TORSDOF 26
ENDMDL
MODEL 2
REMARK VINA RESULT:      -9.5      1.515      4.068
REMARK SMILES O=C(CN(CC(=O)OCCOCCOCCOC(=O)c1ccc(-c2c3nc(c(-c4cccc(S(=O)(=O)[O-])c4F)c4ccc([nH]4)c(-c4cccc(S(=O)(=O)[O-])c4F)c4nc(c(-c5cccc(S(=O)(=O)[O-])c5F)c5ccc2[nH]5)C=C4)C=C3)cc1)c1ccccc1)NCc1ccccc1
REMARK SMILES IDX 12 1 11 2 10 3 9 4 8 5 6 6 7 7 5 8 4 9 3 10 2 11 1 12 89 13
REMARK SMILES IDX 90 15 91 16 92 17 96 18 93 19 95 20 94 21 83 22 84 23 88 24
REMARK SMILES IDX 85 25 87 26 86 27 13 28 14 29 15 30 16 31 17 32 18 33 19 34
REMARK SMILES IDX 20 35 21 36 82 37 22 38 81 39 23 40 24 41 25 42 75 43 26 44
REMARK SMILES IDX 80 45 74 46 76 47 27 48 79 49 73 50 72 51 28 53 60 54 40 55
REMARK SMILES IDX 59 56 41 57 44 58 58 59 77 60 42 61 43 62 57 64 78 65 45 66
REMARK SMILES IDX 29 67 30 68 38 69 31 70 33 71 39 72 32 73 34 74 35 75 36 76
REMARK SMILES IDX 37 77 61 78 62 79 70 80 63 81 65 82 71 83 64 84 66 85 67 86
REMARK SMILES IDX 68 87 69 88 46 89 47 90 55 91 48 92 50 93 56 94 49 95 51 96
REMARK SMILES IDX 52 97 53 98 54 99
REMARK H PARENT 89 14 76 52 44 63
REMARK Flexibility Score: inf
ROOT
ATOM      1  C   UNL A   1      35.953  31.464  28.016  1.00  0.00     0.188 C 
ENDROOT
BRANCH   1   2
ATOM      2  O   UNL A   1      35.384  30.205  27.691  1.00  0.00    -0.376 OA
BRANCH   2   3
ATOM      3  C   UNL A   1      34.030  30.173  27.277  1.00  0.00     0.202 C 
BRANCH   3   4
ATOM      4  C   UNL A   1      33.675  29.110  26.232  1.00  0.00     0.261 C 
BRANCH   4   5
ATOM      5  O   UNL A   1      33.431  27.817  26.830  1.00  0.00    -0.462 OA
BRANCH   5   6
ATOM      6  C   UNL A   1      32.138  27.404  26.842  1.00  0.00     0.325 C 
ATOM      7  O   UNL A   1      31.196  28.129  27.151  1.00  0.00    -0.250 OA
BRANCH   6   8
ATOM      8  C   UNL A   1      31.903  25.977  26.328  1.00  0.00     0.239 C 
BRANCH   8   9
ATOM      9  N   UNL A   1      32.298  25.651  24.927  1.00  0.00    -0.351 N 
BRANCH   9  10
ATOM     10  C   UNL A   1      31.942  26.691  23.921  1.00  0.00     0.217 C 
BRANCH  10  11
ATOM     11  C   UNL A   1      30.413  26.852  23.740  1.00  0.00     0.239 C 
ATOM     12  O   UNL A   1      29.660  25.880  23.738  1.00  0.00    -0.273 OA
ATOM     13  N   UNL A   1      29.987  28.151  23.549  1.00  0.00    -0.350 N 
ATOM     14  H   UNL A   1      30.600  28.882  23.790  1.00  0.00     0.163 HD
BRANCH  13  15
ATOM     15  C   UNL A   1      28.691  28.494  23.014  1.00  0.00     0.151 C 
BRANCH  15  16
ATOM     16  C   UNL A   1      28.582  29.941  22.620  1.00  0.00    -0.029 A 
ATOM     17  C   UNL A   1      28.212  30.306  21.318  1.00  0.00     0.005 A 
ATOM     18  C   UNL A   1      28.816  30.950  23.564  1.00  0.00     0.005 A 
ATOM     19  C   UNL A   1      28.086  31.654  20.972  1.00  0.00     0.000 A 
ATOM     20  C   UNL A   1      28.697  32.294  23.216  1.00  0.00     0.000 A 
ATOM     21  C   UNL A   1      28.331  32.646  21.920  1.00  0.00     0.000 A 
ENDBRANCH  15  16
ENDBRANCH  13  15
ENDBRANCH  10  11
ENDBRANCH   9  10
BRANCH   9  22
ATOM     22  C   UNL A   1      33.256  24.685  24.584  1.00  0.00     0.038 A 
ATOM     23  C   UNL A   1      33.497  24.288  23.264  1.00  0.00     0.026 A 
ATOM     24  C   UNL A   1      34.030  24.002  25.553  1.00  0.00     0.026 A 
ATOM     25  C   UNL A   1      34.417  23.275  22.935  1.00  0.00     0.002 A 
ATOM     26  C   UNL A   1      34.929  22.971  25.235  1.00  0.00     0.002 A 
ATOM     27  C   UNL A   1      35.133  22.614  23.917  1.00  0.00     0.000 A 
ENDBRANCH   9  22
ENDBRANCH   8   9
ENDBRANCH   6   8
ENDBRANCH   5   6
ENDBRANCH   4   5
ENDBRANCH   3   4
ENDBRANCH   2   3
ENDBRANCH   1   2
BRANCH   1  28
ATOM     28  C   UNL A   1      35.072  32.571  28.643  1.00  0.00     0.188 C 
BRANCH  28  29
ATOM     29  O   UNL A   1      35.005  33.842  28.016  1.00  0.00    -0.376 OA
BRANCH  29  30
ATOM     30  C   UNL A   1      33.779  34.553  28.083  1.00  0.00     0.202 C 
BRANCH  30  31
ATOM     31  C   UNL A   1      33.502  35.355  29.361  1.00  0.00     0.261 C 
BRANCH  31  32
ATOM     32  O   UNL A   1      32.897  34.568  30.404  1.00  0.00    -0.460 OA
BRANCH  32  33
ATOM     33  C   UNL A   1      33.113  35.041  31.654  1.00  0.00     0.338 C 
ATOM     34  O   UNL A   1      32.361  35.785  32.278  1.00  0.00    -0.246 OA
BRANCH  33  35
ATOM     35  C   UNL A   1      34.383  34.555  32.241  1.00  0.00     0.060 A 
ATOM     36  C   UNL A   1      35.479  35.398  32.405  1.00  0.00     0.016 A 
ATOM     37  C   UNL A   1      34.549  33.186  32.447  1.00  0.00     0.016 A 
ATOM     38  C   UNL A   1      36.749  34.873  32.665  1.00  0.00     0.010 A 
ATOM     39  C   UNL A   1      35.803  32.671  32.802  1.00  0.00     0.010 A 
ATOM     40  C   UNL A   1      36.934  33.500  32.880  1.00  0.00    -0.014 A 
BRANCH  40  41
ATOM     41  C   UNL A   1      38.282  32.927  33.181  1.00  0.00     0.031 A 
ATOM     42  C   UNL A   1      38.879  31.859  32.296  1.00  0.00     0.074 A 
ATOM     43  C   UNL A   1      38.966  33.326  34.274  1.00  0.00     0.049 A 
ATOM     44  N   UNL A   1      39.872  31.041  32.538  1.00  0.00    -0.248 NA
ATOM     45  C   UNL A   1      38.278  31.686  30.961  1.00  0.00     0.031 C 
ATOM     46  C   UNL A   1      38.554  34.390  35.193  1.00  0.00     0.029 A 
ATOM     47  N   UNL A   1      40.139  32.858  34.820  1.00  0.00    -0.354 N 
ATOM     48  C   UNL A   1      39.960  30.202  31.431  1.00  0.00     0.074 A 
ATOM     49  C   UNL A   1      38.941  30.635  30.498  1.00  0.00     0.031 C 
ATOM     50  C   UNL A   1      39.450  34.494  36.183  1.00  0.00     0.029 A 
ATOM     51  C   UNL A   1      40.430  33.427  36.042  1.00  0.00     0.049 A 
ATOM     52  H   UNL A   1      40.712  32.187  34.384  1.00  0.00     0.167 HD
ATOM     53  C   UNL A   1      40.804  29.161  31.220  1.00  0.00     0.034 A 
ATOM     54  C   UNL A   1      41.317  33.079  36.995  1.00  0.00     0.034 A 
ATOM     55  C   UNL A   1      41.851  28.775  32.132  1.00  0.00     0.049 A 
ATOM     56  C   UNL A   1      42.198  31.885  36.771  1.00  0.00     0.074 A 
ATOM     57  C   UNL A   1      42.780  27.756  31.996  1.00  0.00     0.029 A 
ATOM     58  N   UNL A   1      42.108  29.386  33.348  1.00  0.00    -0.354 N 
ATOM     59  N   UNL A   1      42.278  31.107  35.720  1.00  0.00    -0.248 NA
ATOM     60  C   UNL A   1      43.108  31.522  37.865  1.00  0.00     0.031 C 
ATOM     61  C   UNL A   1      43.577  27.733  33.145  1.00  0.00     0.029 A 
ATOM     62  C   UNL A   1      43.167  28.757  33.983  1.00  0.00     0.049 A 
ATOM     63  H   UNL A   1      41.611  30.156  33.710  1.00  0.00     0.167 HD
ATOM     64  C   UNL A   1      43.259  30.169  36.018  1.00  0.00     0.074 A 
ATOM     65  C   UNL A   1      43.765  30.498  37.335  1.00  0.00     0.031 C 
ATOM     66  C   UNL A   1      43.686  29.117  35.277  1.00  0.00     0.034 A 
BRANCH  53  67
ATOM     67  C   UNL A   1      40.634  28.348  29.960  1.00  0.00     0.023 A 
ATOM     68  C   UNL A   1      39.544  27.466  29.825  1.00  0.00     0.012 A 
ATOM     69  C   UNL A   1      41.520  28.518  28.875  1.00  0.00     0.148 A 
ATOM     70  C   UNL A   1      39.355  26.745  28.644  1.00  0.00     0.002 A 
ATOM     71  C   UNL A   1      41.302  27.827  27.688  1.00  0.00     0.091 A 
ATOM     72  F   UNL A   1      42.560  29.349  29.025  1.00  0.00    -0.205 F 
ATOM     73  C   UNL A   1      40.227  26.932  27.574  1.00  0.00     0.022 A 
BRANCH  71  74
ATOM     74  S   UNL A   1      42.328  28.062  26.230  1.00  0.00     0.127 S 
ATOM     75  O   UNL A   1      41.702  27.138  25.280  1.00  0.00    -0.237 OA
ATOM     76  O   UNL A   1      42.109  29.481  25.927  1.00  0.00    -0.237 OA
ATOM     77  O   UNL A   1      43.680  27.728  26.629  1.00  0.00    -0.744 OA
ENDBRANCH  71  74
ENDBRANCH  53  67
BRANCH  54  78
ATOM     78  C   UNL A   1      41.371  33.851  38.270  1.00  0.00     0.023 A 
ATOM     79  C   UNL A   1      42.259  34.936  38.389  1.00  0.00     0.012 A 
ATOM     80  C   UNL A   1      40.509  33.549  39.343  1.00  0.00     0.148 A 
ATOM     81  C   UNL A   1      42.296  35.697  39.558  1.00  0.00     0.002 A 
ATOM     82  C   UNL A   1      40.503  34.352  40.477  1.00  0.00     0.091 A 
ATOM     83  F   UNL A   1      39.688  32.495  39.223  1.00  0.00    -0.205 F 
ATOM     84  C   UNL A   1      41.409  35.416  40.594  1.00  0.00     0.022 A 
BRANCH  82  85
ATOM     85  S   UNL A   1      39.286  34.156  41.784  1.00  0.00     0.127 S 
ATOM     86  O   UNL A   1      39.583  35.299  42.643  1.00  0.00    -0.237 OA
ATOM     87  O   UNL A   1      38.029  34.252  41.043  1.00  0.00    -0.237 OA
ATOM     88  O   UNL A   1      39.540  32.844  42.361  1.00  0.00    -0.744 OA
ENDBRANCH  82  85
ENDBRANCH  54  78
BRANCH  66  89
ATOM     89  C   UNL A   1      44.776  28.261  35.863  1.00  0.00     0.023 A 
ATOM     90  C   UNL A   1      44.438  27.129  36.632  1.00  0.00     0.012 A 
ATOM     91  C   UNL A   1      46.132  28.548  35.612  1.00  0.00     0.148 A 
ATOM     92  C   UNL A   1      45.434  26.315  37.170  1.00  0.00     0.002 A 
ATOM     93  C   UNL A   1      47.117  27.705  36.109  1.00  0.00     0.091 A 
ATOM     94  F   UNL A   1      46.431  29.641  34.896  1.00  0.00    -0.205 F 
ATOM     95  C   UNL A   1      46.771  26.596  36.899  1.00  0.00     0.022 A 
BRANCH  93  96
ATOM     96  S   UNL A   1      48.859  27.935  35.741  1.00  0.00     0.127 S 
ATOM     97  O   UNL A   1      49.467  26.817  36.460  1.00  0.00    -0.237 OA
ATOM     98  O   UNL A   1      48.886  27.809  34.283  1.00  0.00    -0.237 OA
ATOM     99  O   UNL A   1      49.205  29.259  36.240  1.00  0.00    -0.744 OA
ENDBRANCH  93  96
ENDBRANCH  66  89
ENDBRANCH  40  41
ENDBRANCH  33  35
ENDBRANCH  32  33
ENDBRANCH  31  32
ENDBRANCH  30  31
ENDBRANCH  29  30
ENDBRANCH  28  29
ENDBRANCH   1  28
TORSDOF 26
ENDMDL
MODEL 3
REMARK VINA RESULT:      -9.4      4.102     10.046
REMARK SMILES O=C(CN(CC(=O)OCCOCCOCCOC(=O)c1ccc(-c2c3nc(c(-c4cccc(S(=O)(=O)[O-])c4F)c4ccc([nH]4)c(-c4cccc(S(=O)(=O)[O-])c4F)c4nc(c(-c5cccc(S(=O)(=O)[O-])c5F)c5ccc2[nH]5)C=C4)C=C3)cc1)c1ccccc1)NCc1ccccc1
REMARK SMILES IDX 12 1 11 2 10 3 9 4 8 5 6 6 7 7 5 8 4 9 3 10 2 11 1 12 89 13
REMARK SMILES IDX 90 15 91 16 92 17 96 18 93 19 95 20 94 21 83 22 84 23 88 24
REMARK SMILES IDX 85 25 87 26 86 27 13 28 14 29 15 30 16 31 17 32 18 33 19 34
REMARK SMILES IDX 20 35 21 36 82 37 22 38 81 39 23 40 24 41 25 42 75 43 26 44
REMARK SMILES IDX 80 45 74 46 76 47 27 48 79 49 73 50 72 51 28 53 60 54 40 55
REMARK SMILES IDX 59 56 41 57 44 58 58 59 77 60 42 61 43 62 57 64 78 65 45 66
REMARK SMILES IDX 29 67 30 68 38 69 31 70 33 71 39 72 32 73 34 74 35 75 36 76
REMARK SMILES IDX 37 77 61 78 62 79 70 80 63 81 65 82 71 83 64 84 66 85 67 86
REMARK SMILES IDX 68 87 69 88 46 89 47 90 55 91 48 92 50 93 56 94 49 95 51 96
REMARK SMILES IDX 52 97 53 98 54 99
REMARK H PARENT 89 14 76 52 44 63
REMARK Flexibility Score: inf
ROOT
ATOM      1  C   UNL A   1      35.718  30.441  27.435  1.00  0.00     0.188 C 
ENDROOT
BRANCH   1   2
ATOM      2  O   UNL A   1      34.444  29.839  27.602  1.00  0.00    -0.376 OA
BRANCH   2   3
ATOM      3  C   UNL A   1      33.423  30.173  26.679  1.00  0.00     0.202 C 
BRANCH   3   4
ATOM      4  C   UNL A   1      32.966  29.046  25.748  1.00  0.00     0.261 C 
BRANCH   4   5
ATOM      5  O   UNL A   1      33.168  29.373  24.355  1.00  0.00    -0.462 OA
BRANCH   5   6
ATOM      6  C   UNL A   1      33.834  28.448  23.619  1.00  0.00     0.325 C 
ATOM      7  O   UNL A   1      34.493  28.722  22.619  1.00  0.00    -0.250 OA
BRANCH   6   8
ATOM      8  C   UNL A   1      33.807  27.020  24.183  1.00  0.00     0.239 C 
BRANCH   8   9
ATOM      9  N   UNL A   1      32.811  26.056  23.633  1.00  0.00    -0.351 N 
BRANCH   9  10
ATOM     10  C   UNL A   1      31.867  26.636  22.637  1.00  0.00     0.217 C 
BRANCH  10  11
ATOM     11  C   UNL A   1      30.480  26.962  23.242  1.00  0.00     0.239 C 
ATOM     12  O   UNL A   1      29.702  26.072  23.582  1.00  0.00    -0.273 OA
ATOM     13  N   UNL A   1      30.187  28.308  23.327  1.00  0.00    -0.350 N 
ATOM     14  H   UNL A   1      30.929  28.951  23.256  1.00  0.00     0.163 HD
BRANCH  13  15
ATOM     15  C   UNL A   1      28.852  28.823  23.515  1.00  0.00     0.151 C 
BRANCH  15  16
ATOM     16  C   UNL A   1      28.638  30.156  22.853  1.00  0.00    -0.029 A 
ATOM     17  C   UNL A   1      28.222  30.238  21.517  1.00  0.00     0.005 A 
ATOM     18  C   UNL A   1      28.818  31.342  23.578  1.00  0.00     0.005 A 
ATOM     19  C   UNL A   1      27.998  31.481  20.922  1.00  0.00     0.000 A 
ATOM     20  C   UNL A   1      28.602  32.582  22.982  1.00  0.00     0.000 A 
ATOM     21  C   UNL A   1      28.191  32.652  21.653  1.00  0.00     0.000 A 
ENDBRANCH  15  16
ENDBRANCH  13  15
ENDBRANCH  10  11
ENDBRANCH   9  10
BRANCH   9  22
ATOM     22  C   UNL A   1      32.947  24.662  23.698  1.00  0.00     0.038 A 
ATOM     23  C   UNL A   1      33.558  24.005  24.773  1.00  0.00     0.026 A 
ATOM     24  C   UNL A   1      32.512  23.805  22.658  1.00  0.00     0.026 A 
ATOM     25  C   UNL A   1      33.743  22.611  24.800  1.00  0.00     0.002 A 
ATOM     26  C   UNL A   1      32.719  22.416  22.665  1.00  0.00     0.002 A 
ATOM     27  C   UNL A   1      33.327  21.814  23.749  1.00  0.00     0.000 A 
ENDBRANCH   9  22
ENDBRANCH   8   9
ENDBRANCH   6   8
ENDBRANCH   5   6
ENDBRANCH   4   5
ENDBRANCH   3   4
ENDBRANCH   2   3
ENDBRANCH   1   2
BRANCH   1  28
ATOM     28  C   UNL A   1      36.172  31.568  28.393  1.00  0.00     0.188 C 
BRANCH  28  29
ATOM     29  O   UNL A   1      35.192  32.358  29.047  1.00  0.00    -0.376 OA
BRANCH  29  30
ATOM     30  C   UNL A   1      35.065  32.231  30.455  1.00  0.00     0.202 C 
BRANCH  30  31
ATOM     31  C   UNL A   1      36.356  32.272  31.281  1.00  0.00     0.261 C 
BRANCH  31  32
ATOM     32  O   UNL A   1      36.608  31.049  32.000  1.00  0.00    -0.460 OA
BRANCH  32  33
ATOM     33  C   UNL A   1      37.521  31.165  32.993  1.00  0.00     0.338 C 
ATOM     34  O   UNL A   1      37.389  31.841  34.010  1.00  0.00    -0.246 OA
BRANCH  33  35
ATOM     35  C   UNL A   1      38.742  30.365  32.748  1.00  0.00     0.060 A 
ATOM     36  C   UNL A   1      38.683  28.988  32.551  1.00  0.00     0.016 A 
ATOM     37  C   UNL A   1      39.988  30.968  32.917  1.00  0.00     0.016 A 
ATOM     38  C   UNL A   1      39.841  28.206  32.628  1.00  0.00     0.010 A 
ATOM     39  C   UNL A   1      41.157  30.195  32.900  1.00  0.00     0.010 A 
ATOM     40  C   UNL A   1      41.101  28.795  32.793  1.00  0.00    -0.014 A 
BRANCH  40  41
ATOM     41  C   UNL A   1      42.350  27.975  32.856  1.00  0.00     0.031 A 
ATOM     42  C   UNL A   1      42.997  27.659  34.183  1.00  0.00     0.074 A 
ATOM     43  C   UNL A   1      42.939  27.540  31.722  1.00  0.00     0.049 A 
ATOM     44  N   UNL A   1      44.208  27.230  34.434  1.00  0.00    -0.248 NA
ATOM     45  C   UNL A   1      42.175  27.856  35.390  1.00  0.00     0.031 C 
ATOM     46  C   UNL A   1      42.407  27.709  30.368  1.00  0.00     0.029 A 
ATOM     47  N   UNL A   1      44.140  26.896  31.524  1.00  0.00    -0.354 N 
ATOM     48  C   UNL A   1      44.324  27.187  35.820  1.00  0.00     0.074 A 
ATOM     49  C   UNL A   1      43.045  27.600  36.358  1.00  0.00     0.031 C 
ATOM     50  C   UNL A   1      43.268  27.189  29.483  1.00  0.00     0.029 A 
ATOM     51  C   UNL A   1      44.467  26.763  30.191  1.00  0.00     0.049 A 
ATOM     52  H   UNL A   1      44.706  26.564  32.257  1.00  0.00     0.167 HD
ATOM     53  C   UNL A   1      45.401  26.846  36.572  1.00  0.00     0.034 A 
ATOM     54  C   UNL A   1      45.627  26.432  29.590  1.00  0.00     0.034 A 
ATOM     55  C   UNL A   1      46.651  26.383  36.025  1.00  0.00     0.049 A 
ATOM     56  C   UNL A   1      46.825  26.122  30.437  1.00  0.00     0.074 A 
ATOM     57  C   UNL A   1      47.792  25.983  36.701  1.00  0.00     0.029 A 
ATOM     58  N   UNL A   1      46.928  26.259  34.673  1.00  0.00    -0.354 N 
ATOM     59  N   UNL A   1      46.920  26.077  31.744  1.00  0.00    -0.248 NA
ATOM     60  C   UNL A   1      48.075  25.819  29.728  1.00  0.00     0.031 C 
ATOM     61  C   UNL A   1      48.768  25.648  35.757  1.00  0.00     0.029 A 
ATOM     62  C   UNL A   1      48.225  25.808  34.492  1.00  0.00     0.049 A 
ATOM     63  H   UNL A   1      46.295  26.463  33.946  1.00  0.00     0.167 HD
ATOM     64  C   UNL A   1      48.237  25.725  32.015  1.00  0.00     0.074 A 
ATOM     65  C   UNL A   1      48.891  25.538  30.735  1.00  0.00     0.031 C 
ATOM     66  C   UNL A   1      48.853  25.590  33.214  1.00  0.00     0.034 A 
BRANCH  53  67
ATOM     67  C   UNL A   1      45.292  26.969  38.072  1.00  0.00     0.023 A 
ATOM     68  C   UNL A   1      44.918  25.857  38.851  1.00  0.00     0.012 A 
ATOM     69  C   UNL A   1      45.635  28.176  38.716  1.00  0.00     0.148 A 
ATOM     70  C   UNL A   1      44.859  25.951  40.243  1.00  0.00     0.002 A 
ATOM     71  C   UNL A   1      45.614  28.251  40.105  1.00  0.00     0.091 A 
ATOM     72  F   UNL A   1      45.974  29.229  37.960  1.00  0.00    -0.205 F 
ATOM     73  C   UNL A   1      45.216  27.143  40.869  1.00  0.00     0.022 A 
BRANCH  71  74
ATOM     74  S   UNL A   1      46.131  29.720  41.002  1.00  0.00     0.127 S 
ATOM     75  O   UNL A   1      46.201  29.215  42.376  1.00  0.00    -0.237 OA
ATOM     76  O   UNL A   1      47.436  30.006  40.396  1.00  0.00    -0.237 OA
ATOM     77  O   UNL A   1      45.114  30.723  40.757  1.00  0.00    -0.744 OA
ENDBRANCH  71  74
ENDBRANCH  53  67
BRANCH  54  78
ATOM     78  C   UNL A   1      45.712  26.431  28.101  1.00  0.00     0.023 A 
ATOM     79  C   UNL A   1      45.947  27.639  27.418  1.00  0.00     0.012 A 
ATOM     80  C   UNL A   1      45.615  25.234  27.364  1.00  0.00     0.148 A 
ATOM     81  C   UNL A   1      46.071  27.654  26.028  1.00  0.00     0.002 A 
ATOM     82  C   UNL A   1      45.807  25.246  25.988  1.00  0.00     0.091 A 
ATOM     83  F   UNL A   1      45.363  24.096  28.030  1.00  0.00    -0.205 F 
ATOM     84  C   UNL A   1      46.017  26.459  25.315  1.00  0.00     0.022 A 
BRANCH  82  85
ATOM     85  S   UNL A   1      45.912  23.736  25.022  1.00  0.00     0.127 S 
ATOM     86  O   UNL A   1      44.527  23.556  24.596  1.00  0.00    -0.237 OA
ATOM     87  O   UNL A   1      46.839  24.122  23.957  1.00  0.00    -0.237 OA
ATOM     88  O   UNL A   1      46.435  22.725  25.930  1.00  0.00    -0.744 OA
ENDBRANCH  82  85
ENDBRANCH  54  78
BRANCH  66  89
ATOM     89  C   UNL A   1      50.306  25.195  33.201  1.00  0.00     0.023 A 
ATOM     90  C   UNL A   1      51.302  26.191  33.247  1.00  0.00     0.012 A 
ATOM     91  C   UNL A   1      50.683  23.838  33.192  1.00  0.00     0.148 A 
ATOM     92  C   UNL A   1      52.652  25.843  33.250  1.00  0.00     0.002 A 
ATOM     93  C   UNL A   1      52.028  23.497  33.246  1.00  0.00     0.091 A 
ATOM     94  F   UNL A   1      49.720  22.908  33.127  1.00  0.00    -0.205 F 
ATOM     95  C   UNL A   1      53.014  24.498  33.262  1.00  0.00     0.022 A 
BRANCH  93  96
ATOM     96  S   UNL A   1      52.588  21.795  33.353  1.00  0.00     0.127 S 
ATOM     97  O   UNL A   1      52.076  21.233  32.105  1.00  0.00    -0.237 OA
ATOM     98  O   UNL A   1      54.043  21.951  33.401  1.00  0.00    -0.237 OA
ATOM     99  O   UNL A   1      51.998  21.253  34.569  1.00  0.00    -0.744 OA
ENDBRANCH  93  96
ENDBRANCH  66  89
ENDBRANCH  40  41
ENDBRANCH  33  35
ENDBRANCH  32  33
ENDBRANCH  31  32
ENDBRANCH  30  31
ENDBRANCH  29  30
ENDBRANCH  28  29
ENDBRANCH   1  28
TORSDOF 26
ENDMDL
