MODEL 1
REMARK VINA RESULT:     -10.7      0.000      0.000
REMARK SMILES CCc1nc2sc(C(=O)NCC(=O)OCCOCCOCCOC(=O)c3ccc(-c4c5nc(c(-c6cccc(S(=O)(=O)[O-])c6F)c6ccc([nH]6)c(-c6cccc(S(=O)(=O)[O-])c6F)c6nc(c(-c7cccc(S(=O)(=O)[O-])c7F)c7ccc4[nH]7)C=C6)C=C5)cc3)c(N)c2c(C(F)(F)F)c1C
REMARK SMILES IDX 18 1 17 2 16 3 15 4 14 5 12 6 13 7 11 8 10 9 8 10 9 11 7 13
REMARK SMILES IDX 3 14 4 15 97 16 5 17 92 18 98 19 6 20 91 21 89 22 2 23 1 24
REMARK SMILES IDX 93 25 94 26 95 27 96 28 90 29 19 32 20 33 21 34 22 35 23 36
REMARK SMILES IDX 24 37 25 38 26 39 27 40 88 41 28 42 87 43 29 44 30 45 31 46
REMARK SMILES IDX 81 47 32 48 86 49 80 50 82 51 33 52 85 53 79 54 78 55 34 57
REMARK SMILES IDX 66 58 46 59 65 60 47 61 50 62 64 63 83 64 48 65 49 66 63 68
REMARK SMILES IDX 84 69 51 70 35 71 36 72 44 73 37 74 39 75 45 76 38 77 40 78
REMARK SMILES IDX 41 79 42 80 43 81 67 82 68 83 76 84 69 85 71 86 77 87 70 88
REMARK SMILES IDX 72 89 73 90 74 91 75 92 52 93 53 94 61 95 54 96 56 97 62 98
REMARK SMILES IDX 55 99 57 100 58 101 59 102 60 103
REMARK H PARENT 10 12 90 30 90 31 82 56 50 67
REMARK Flexibility Score: inf
ROOT
ATOM      1  C   UNL A   1      33.460  29.047  23.345  1.00  0.00     0.188 C 
ENDROOT
BRANCH   1   2
ATOM      2  O   UNL A   1      33.814  28.384  22.158  1.00  0.00    -0.376 OA
BRANCH   2   3
ATOM      3  C   UNL A   1      33.803  26.971  22.104  1.00  0.00     0.202 C 
BRANCH   3   4
ATOM      4  C   UNL A   1      32.718  26.169  21.355  1.00  0.00     0.261 C 
BRANCH   4   5
ATOM      5  O   UNL A   1      31.597  25.724  22.144  1.00  0.00    -0.462 OA
BRANCH   5   6
ATOM      6  C   UNL A   1      31.636  24.429  22.568  1.00  0.00     0.325 C 
ATOM      7  O   UNL A   1      32.623  23.706  22.440  1.00  0.00    -0.250 OA
BRANCH   6   8
ATOM      8  C   UNL A   1      30.413  24.011  23.416  1.00  0.00     0.239 C 
BRANCH   8   9
ATOM      9  N   UNL A   1      30.373  24.436  24.797  1.00  0.00    -0.340 N 
ATOM     10  C   UNL A   1      31.289  24.231  25.803  1.00  0.00     0.264 C 
ATOM     11  O   UNL A   1      31.096  24.908  26.819  1.00  0.00    -0.268 OA
ATOM     12  H   UNL A   1      29.572  24.948  25.056  1.00  0.00     0.164 HD
BRANCH  10  13
ATOM     13  C   UNL A   1      32.382  23.256  25.696  1.00  0.00     0.118 A 
ATOM     14  C   UNL A   1      35.151  19.520  24.890  1.00  0.00     0.045 A 
ATOM     15  N   UNL A   1      33.830  19.806  24.981  1.00  0.00    -0.242 NA
ATOM     16  C   UNL A   1      36.175  20.482  24.966  1.00  0.00    -0.017 A 
ATOM     17  C   UNL A   1      33.532  21.086  25.241  1.00  0.00     0.127 A 
ATOM     18  C   UNL A   1      35.830  21.814  25.287  1.00  0.00     0.073 A 
ATOM     19  C   UNL A   1      37.625  20.151  24.732  1.00  0.00     0.047 C 
ATOM     20  S   UNL A   1      31.921  21.609  25.374  1.00  0.00    -0.108 S 
ATOM     21  C   UNL A   1      34.442  22.100  25.429  1.00  0.00     0.048 A 
ATOM     22  C   UNL A   1      33.763  23.304  25.766  1.00  0.00     0.066 A 
BRANCH  14  23
ATOM     23  C   UNL A   1      35.437  18.056  24.650  1.00  0.00     0.053 C 
ATOM     24  C   UNL A   1      34.335  17.363  23.857  1.00  0.00     0.011 C 
ENDBRANCH  14  23
BRANCH  18  25
ATOM     25  C   UNL A   1      36.849  22.925  25.471  1.00  0.00     0.417 C 
ATOM     26  F   UNL A   1      36.711  23.560  26.674  1.00  0.00    -0.166 F 
ATOM     27  F   UNL A   1      38.136  22.463  25.436  1.00  0.00    -0.166 F 
ATOM     28  F   UNL A   1      36.824  23.924  24.549  1.00  0.00    -0.166 F 
ENDBRANCH  18  25
BRANCH  22  29
ATOM     29  N   UNL A   1      34.520  24.359  26.097  1.00  0.00    -0.397 N 
ATOM     30  H   UNL A   1      35.257  24.639  25.507  1.00  0.00     0.156 HD
ATOM     31  H   UNL A   1      34.338  24.854  26.928  1.00  0.00     0.156 HD
ENDBRANCH  22  29
ENDBRANCH  10  13
ENDBRANCH   8   9
ENDBRANCH   6   8
ENDBRANCH   5   6
ENDBRANCH   4   5
ENDBRANCH   3   4
ENDBRANCH   2   3
ENDBRANCH   1   2
BRANCH   1  32
ATOM     32  C   UNL A   1      32.430  28.437  24.306  1.00  0.00     0.188 C 
BRANCH  32  33
ATOM     33  O   UNL A   1      32.535  28.410  25.712  1.00  0.00    -0.376 OA
BRANCH  33  34
ATOM     34  C   UNL A   1      33.208  29.390  26.493  1.00  0.00     0.202 C 
BRANCH  34  35
ATOM     35  C   UNL A   1      32.674  30.793  26.792  1.00  0.00     0.261 C 
BRANCH  35  36
ATOM     36  O   UNL A   1      33.160  31.362  27.979  1.00  0.00    -0.460 OA
BRANCH  36  37
ATOM     37  C   UNL A   1      33.195  32.709  27.946  1.00  0.00     0.338 C 
ATOM     38  O   UNL A   1      32.353  33.468  27.479  1.00  0.00    -0.246 OA
BRANCH  37  39
ATOM     39  C   UNL A   1      34.378  33.131  28.696  1.00  0.00     0.060 A 
ATOM     40  C   UNL A   1      35.343  33.836  27.984  1.00  0.00     0.016 A 
ATOM     41  C   UNL A   1      34.610  32.576  29.962  1.00  0.00     0.016 A 
ATOM     42  C   UNL A   1      36.640  33.590  28.323  1.00  0.00     0.010 A 
ATOM     43  C   UNL A   1      35.903  32.314  30.292  1.00  0.00     0.010 A 
ATOM     44  C   UNL A   1      36.869  32.693  29.371  1.00  0.00    -0.014 A 
BRANCH  44  45
ATOM     45  C   UNL A   1      38.184  32.130  29.485  1.00  0.00     0.031 A 
ATOM     46  C   UNL A   1      38.177  30.730  29.055  1.00  0.00     0.074 A 
ATOM     47  C   UNL A   1      39.219  32.867  29.929  1.00  0.00     0.049 A 
ATOM     48  N   UNL A   1      38.137  29.695  29.824  1.00  0.00    -0.248 NA
ATOM     49  C   UNL A   1      37.876  30.451  27.643  1.00  0.00     0.031 C 
ATOM     50  C   UNL A   1      39.280  34.322  30.130  1.00  0.00     0.029 A 
ATOM     51  N   UNL A   1      40.494  32.476  30.176  1.00  0.00    -0.354 N 
ATOM     52  C   UNL A   1      38.129  28.622  28.947  1.00  0.00     0.074 A 
ATOM     53  C   UNL A   1      37.674  29.133  27.684  1.00  0.00     0.031 C 
ATOM     54  C   UNL A   1      40.577  34.705  30.203  1.00  0.00     0.029 A 
ATOM     55  C   UNL A   1      41.415  33.519  30.201  1.00  0.00     0.049 A 
ATOM     56  H   UNL A   1      40.746  31.536  30.325  1.00  0.00     0.167 HD
ATOM     57  C   UNL A   1      38.868  27.518  29.232  1.00  0.00     0.034 A 
ATOM     58  C   UNL A   1      42.762  33.376  30.125  1.00  0.00     0.034 A 
ATOM     59  C   UNL A   1      39.268  27.515  30.619  1.00  0.00     0.049 A 
ATOM     60  C   UNL A   1      43.057  31.988  30.553  1.00  0.00     0.074 A 
ATOM     61  C   UNL A   1      38.632  27.402  31.835  1.00  0.00     0.029 A 
ATOM     62  N   UNL A   1      40.489  28.099  30.845  1.00  0.00    -0.354 N 
ATOM     63  N   UNL A   1      42.860  31.554  31.765  1.00  0.00    -0.248 NA
ATOM     64  C   UNL A   1      43.215  30.958  29.536  1.00  0.00     0.031 C 
ATOM     65  C   UNL A   1      39.412  28.168  32.751  1.00  0.00     0.029 A 
ATOM     66  C   UNL A   1      40.524  28.682  32.081  1.00  0.00     0.049 A 
ATOM     67  H   UNL A   1      41.237  28.098  30.206  1.00  0.00     0.167 HD
ATOM     68  C   UNL A   1      42.402  30.259  31.586  1.00  0.00     0.074 A 
ATOM     69  C   UNL A   1      42.814  29.893  30.235  1.00  0.00     0.031 C 
ATOM     70  C   UNL A   1      41.460  29.736  32.423  1.00  0.00     0.034 A 
BRANCH  57  71
ATOM     71  C   UNL A   1      39.639  26.728  28.197  1.00  0.00     0.023 A 
ATOM     72  C   UNL A   1      39.423  25.334  28.176  1.00  0.00     0.012 A 
ATOM     73  C   UNL A   1      40.738  27.214  27.448  1.00  0.00     0.148 A 
ATOM     74  C   UNL A   1      40.268  24.473  27.469  1.00  0.00     0.002 A 
ATOM     75  C   UNL A   1      41.520  26.367  26.675  1.00  0.00     0.091 A 
ATOM     76  F   UNL A   1      41.141  28.479  27.578  1.00  0.00    -0.205 F 
ATOM     77  C   UNL A   1      41.308  24.989  26.706  1.00  0.00     0.022 A 
BRANCH  75  78
ATOM     78  S   UNL A   1      42.842  26.994  25.631  1.00  0.00     0.127 S 
ATOM     79  O   UNL A   1      43.782  27.507  26.623  1.00  0.00    -0.237 OA
ATOM     80  O   UNL A   1      43.272  25.779  24.939  1.00  0.00    -0.237 OA
ATOM     81  O   UNL A   1      42.224  27.987  24.762  1.00  0.00    -0.744 OA
ENDBRANCH  75  78
ENDBRANCH  57  71
BRANCH  58  82
ATOM     82  C   UNL A   1      43.775  34.169  29.383  1.00  0.00     0.023 A 
ATOM     83  C   UNL A   1      44.769  34.852  30.120  1.00  0.00     0.012 A 
ATOM     84  C   UNL A   1      43.996  33.959  28.006  1.00  0.00     0.148 A 
ATOM     85  C   UNL A   1      45.978  35.230  29.527  1.00  0.00     0.002 A 
ATOM     86  C   UNL A   1      45.206  34.327  27.424  1.00  0.00     0.091 A 
ATOM     87  F   UNL A   1      43.068  33.311  27.292  1.00  0.00    -0.205 F 
ATOM     88  C   UNL A   1      46.207  34.945  28.184  1.00  0.00     0.022 A 
BRANCH  86  89
ATOM     89  S   UNL A   1      45.605  33.930  25.715  1.00  0.00     0.127 S 
ATOM     90  O   UNL A   1      46.913  34.566  25.554  1.00  0.00    -0.237 OA
ATOM     91  O   UNL A   1      45.633  32.470  25.748  1.00  0.00    -0.237 OA
ATOM     92  O   UNL A   1      44.545  34.524  24.911  1.00  0.00    -0.744 OA
ENDBRANCH  86  89
ENDBRANCH  58  82
BRANCH  70  93
ATOM     93  C   UNL A   1      41.254  30.421  33.749  1.00  0.00     0.023 A 
ATOM     94  C   UNL A   1      42.124  30.264  34.847  1.00  0.00     0.012 A 
ATOM     95  C   UNL A   1      40.218  31.366  33.829  1.00  0.00     0.148 A 
ATOM     96  C   UNL A   1      41.953  31.030  36.005  1.00  0.00     0.002 A 
ATOM     97  C   UNL A   1      40.087  32.163  34.957  1.00  0.00     0.091 A 
ATOM     98  F   UNL A   1      39.394  31.489  32.778  1.00  0.00    -0.205 F 
ATOM     99  C   UNL A   1      40.945  31.992  36.054  1.00  0.00     0.022 A 
BRANCH  97 100
ATOM    100  S   UNL A   1      38.901  33.507  35.013  1.00  0.00     0.127 S 
ATOM    101  O   UNL A   1      37.642  32.816  34.747  1.00  0.00    -0.237 OA
ATOM    102  O   UNL A   1      39.052  34.000  36.383  1.00  0.00    -0.237 OA
ATOM    103  O   UNL A   1      39.322  34.458  33.992  1.00  0.00    -0.744 OA
ENDBRANCH  97 100
ENDBRANCH  70  93
ENDBRANCH  44  45
ENDBRANCH  37  39
ENDBRANCH  36  37
ENDBRANCH  35  36
ENDBRANCH  34  35
ENDBRANCH  33  34
ENDBRANCH  32  33
ENDBRANCH   1  32
TORSDOF 25
ENDMDL
MODEL 2
REMARK VINA RESULT:     -10.1      3.250      8.210
REMARK SMILES CCc1nc2sc(C(=O)NCC(=O)OCCOCCOCCOC(=O)c3ccc(-c4c5nc(c(-c6cccc(S(=O)(=O)[O-])c6F)c6ccc([nH]6)c(-c6cccc(S(=O)(=O)[O-])c6F)c6nc(c(-c7cccc(S(=O)(=O)[O-])c7F)c7ccc4[nH]7)C=C6)C=C5)cc3)c(N)c2c(C(F)(F)F)c1C
REMARK SMILES IDX 18 1 17 2 16 3 15 4 14 5 12 6 13 7 11 8 10 9 8 10 9 11 7 13
REMARK SMILES IDX 3 14 4 15 97 16 5 17 92 18 98 19 6 20 91 21 89 22 2 23 1 24
REMARK SMILES IDX 93 25 94 26 95 27 96 28 90 29 19 32 20 33 21 34 22 35 23 36
REMARK SMILES IDX 24 37 25 38 26 39 27 40 88 41 28 42 87 43 29 44 30 45 31 46
REMARK SMILES IDX 81 47 32 48 86 49 80 50 82 51 33 52 85 53 79 54 78 55 34 57
REMARK SMILES IDX 66 58 46 59 65 60 47 61 50 62 64 63 83 64 48 65 49 66 63 68
REMARK SMILES IDX 84 69 51 70 35 71 36 72 44 73 37 74 39 75 45 76 38 77 40 78
REMARK SMILES IDX 41 79 42 80 43 81 67 82 68 83 76 84 69 85 71 86 77 87 70 88
REMARK SMILES IDX 72 89 73 90 74 91 75 92 52 93 53 94 61 95 54 96 56 97 62 98
REMARK SMILES IDX 55 99 57 100 58 101 59 102 60 103
REMARK H PARENT 10 12 90 30 90 31 82 56 50 67
REMARK Flexibility Score: inf
ROOT
ATOM      1  C   UNL A   1      40.324  21.512  26.734  1.00  0.00     0.188 C 
ENDROOT
BRANCH   1   2
ATOM      2  O   UNL A   1      39.144  21.539  25.971  1.00  0.00    -0.376 OA
BRANCH   2   3
ATOM      3  C   UNL A   1      38.288  22.663  26.025  1.00  0.00     0.202 C 
BRANCH   3   4
ATOM      4  C   UNL A   1      37.066  22.832  25.099  1.00  0.00     0.261 C 
BRANCH   4   5
ATOM      5  O   UNL A   1      35.775  22.615  25.702  1.00  0.00    -0.462 OA
BRANCH   5   6
ATOM      6  C   UNL A   1      34.762  23.412  25.259  1.00  0.00     0.325 C 
ATOM      7  O   UNL A   1      34.826  24.641  25.247  1.00  0.00    -0.250 OA
BRANCH   6   8
ATOM      8  C   UNL A   1      33.613  22.640  24.571  1.00  0.00     0.239 C 
BRANCH   8   9
ATOM      9  N   UNL A   1      32.430  22.355  25.351  1.00  0.00    -0.340 N 
ATOM     10  C   UNL A   1      31.290  23.106  25.518  1.00  0.00     0.264 C 
ATOM     11  O   UNL A   1      30.353  22.504  26.055  1.00  0.00    -0.268 OA
ATOM     12  H   UNL A   1      32.442  21.496  25.834  1.00  0.00     0.164 HD
BRANCH  10  13
ATOM     13  C   UNL A   1      31.205  24.520  25.131  1.00  0.00     0.118 A 
ATOM     14  C   UNL A   1      30.217  28.706  23.190  1.00  0.00     0.045 A 
ATOM     15  N   UNL A   1      30.098  27.392  22.887  1.00  0.00    -0.242 NA
ATOM     16  C   UNL A   1      30.693  29.195  24.421  1.00  0.00    -0.017 A 
ATOM     17  C   UNL A   1      30.551  26.541  23.817  1.00  0.00     0.127 A 
ATOM     18  C   UNL A   1      31.206  28.273  25.361  1.00  0.00     0.073 A 
ATOM     19  C   UNL A   1      30.691  30.658  24.775  1.00  0.00     0.047 C 
ATOM     20  S   UNL A   1      30.465  24.859  23.593  1.00  0.00    -0.108 S 
ATOM     21  C   UNL A   1      31.124  26.894  25.017  1.00  0.00     0.048 A 
ATOM     22  C   UNL A   1      31.559  25.728  25.707  1.00  0.00     0.066 A 
BRANCH  14  23
ATOM     23  C   UNL A   1      29.742  29.626  22.089  1.00  0.00     0.053 C 
ATOM     24  C   UNL A   1      28.224  29.752  22.042  1.00  0.00     0.011 C 
ENDBRANCH  14  23
BRANCH  18  25
ATOM     25  C   UNL A   1      31.816  28.680  26.691  1.00  0.00     0.417 C 
ATOM     26  F   UNL A   1      33.181  28.604  26.680  1.00  0.00    -0.166 F 
ATOM     27  F   UNL A   1      31.515  29.972  27.028  1.00  0.00    -0.166 F 
ATOM     28  F   UNL A   1      31.439  27.952  27.775  1.00  0.00    -0.166 F 
ENDBRANCH  18  25
BRANCH  22  29
ATOM     29  N   UNL A   1      32.245  25.912  26.843  1.00  0.00    -0.397 N 
ATOM     30  H   UNL A   1      33.183  26.209  26.808  1.00  0.00     0.156 HD
ATOM     31  H   UNL A   1      31.810  25.753  27.712  1.00  0.00     0.156 HD
ENDBRANCH  22  29
ENDBRANCH  10  13
ENDBRANCH   8   9
ENDBRANCH   6   8
ENDBRANCH   5   6
ENDBRANCH   4   5
ENDBRANCH   3   4
ENDBRANCH   2   3
ENDBRANCH   1   2
BRANCH   1  32
ATOM     32  C   UNL A   1      41.473  20.565  26.366  1.00  0.00     0.188 C 
BRANCH  32  33
ATOM     33  O   UNL A   1      42.845  20.817  26.579  1.00  0.00    -0.376 OA
BRANCH  33  34
ATOM     34  C   UNL A   1      43.720  21.396  25.618  1.00  0.00     0.202 C 
BRANCH  34  35
ATOM     35  C   UNL A   1      43.420  22.658  24.805  1.00  0.00     0.261 C 
BRANCH  35  36
ATOM     36  O   UNL A   1      42.703  23.643  25.502  1.00  0.00    -0.460 OA
BRANCH  36  37
ATOM     37  C   UNL A   1      43.478  24.382  26.321  1.00  0.00     0.338 C 
ATOM     38  O   UNL A   1      44.658  24.680  26.168  1.00  0.00    -0.246 OA
BRANCH  37  39
ATOM     39  C   UNL A   1      42.618  24.892  27.388  1.00  0.00     0.060 A 
ATOM     40  C   UNL A   1      41.382  25.398  26.998  1.00  0.00     0.016 A 
ATOM     41  C   UNL A   1      43.171  25.109  28.658  1.00  0.00     0.016 A 
ATOM     42  C   UNL A   1      40.928  26.479  27.694  1.00  0.00     0.010 A 
ATOM     43  C   UNL A   1      42.731  26.198  29.342  1.00  0.00     0.010 A 
ATOM     44  C   UNL A   1      41.722  26.942  28.748  1.00  0.00    -0.014 A 
BRANCH  44  45
ATOM     45  C   UNL A   1      41.475  28.272  29.228  1.00  0.00     0.031 A 
ATOM     46  C   UNL A   1      42.420  29.214  28.624  1.00  0.00     0.074 A 
ATOM     47  C   UNL A   1      40.484  28.522  30.104  1.00  0.00     0.049 A 
ATOM     48  N   UNL A   1      43.491  29.678  29.174  1.00  0.00    -0.248 NA
ATOM     49  C   UNL A   1      42.342  29.424  27.171  1.00  0.00     0.031 C 
ATOM     50  C   UNL A   1      39.393  27.630  30.522  1.00  0.00     0.029 A 
ATOM     51  N   UNL A   1      40.170  29.689  30.718  1.00  0.00    -0.354 N 
ATOM     52  C   UNL A   1      44.039  30.502  28.203  1.00  0.00     0.074 A 
ATOM     53  C   UNL A   1      43.483  30.077  26.948  1.00  0.00     0.031 C 
ATOM     54  C   UNL A   1      38.412  28.368  31.094  1.00  0.00     0.029 A 
ATOM     55  C   UNL A   1      38.869  29.741  31.211  1.00  0.00     0.049 A 
ATOM     56  H   UNL A   1      40.807  30.434  30.808  1.00  0.00     0.167 HD
ATOM     57  C   UNL A   1      44.580  31.695  28.564  1.00  0.00     0.034 A 
ATOM     58  C   UNL A   1      38.220  30.871  31.587  1.00  0.00     0.034 A 
ATOM     59  C   UNL A   1      44.815  31.740  29.987  1.00  0.00     0.049 A 
ATOM     60  C   UNL A   1      39.269  31.874  31.885  1.00  0.00     0.074 A 
ATOM     61  C   UNL A   1      45.644  31.096  30.878  1.00  0.00     0.029 A 
ATOM     62  N   UNL A   1      43.769  32.267  30.704  1.00  0.00    -0.354 N 
ATOM     63  N   UNL A   1      40.105  31.764  32.878  1.00  0.00    -0.248 NA
ATOM     64  C   UNL A   1      39.647  32.824  30.848  1.00  0.00     0.031 C 
ATOM     65  C   UNL A   1      44.924  31.044  32.108  1.00  0.00     0.029 A 
ATOM     66  C   UNL A   1      43.701  31.700  31.946  1.00  0.00     0.049 A 
ATOM     67  H   UNL A   1      43.154  32.959  30.371  1.00  0.00     0.167 HD
ATOM     68  C   UNL A   1      41.297  32.250  32.365  1.00  0.00     0.074 A 
ATOM     69  C   UNL A   1      40.916  33.046  31.203  1.00  0.00     0.031 C 
ATOM     70  C   UNL A   1      42.487  31.697  32.740  1.00  0.00     0.034 A 
BRANCH  57  71
ATOM     71  C   UNL A   1      44.433  32.967  27.757  1.00  0.00     0.023 A 
ATOM     72  C   UNL A   1      45.479  33.271  26.861  1.00  0.00     0.012 A 
ATOM     73  C   UNL A   1      43.495  33.996  28.015  1.00  0.00     0.148 A 
ATOM     74  C   UNL A   1      45.597  34.536  26.275  1.00  0.00     0.002 A 
ATOM     75  C   UNL A   1      43.563  35.218  27.362  1.00  0.00     0.091 A 
ATOM     76  F   UNL A   1      42.604  33.870  28.999  1.00  0.00    -0.205 F 
ATOM     77  C   UNL A   1      44.631  35.506  26.513  1.00  0.00     0.022 A 
BRANCH  75  78
ATOM     78  S   UNL A   1      42.308  36.484  27.597  1.00  0.00     0.127 S 
ATOM     79  O   UNL A   1      42.564  37.367  26.464  1.00  0.00    -0.237 OA
ATOM     80  O   UNL A   1      41.077  35.699  27.506  1.00  0.00    -0.237 OA
ATOM     81  O   UNL A   1      42.557  37.049  28.917  1.00  0.00    -0.744 OA
ENDBRANCH  75  78
ENDBRANCH  57  71
BRANCH  58  82
ATOM     82  C   UNL A   1      36.813  31.293  31.365  1.00  0.00     0.023 A 
ATOM     83  C   UNL A   1      36.099  31.856  32.446  1.00  0.00     0.012 A 
ATOM     84  C   UNL A   1      36.312  31.493  30.061  1.00  0.00     0.148 A 
ATOM     85  C   UNL A   1      34.979  32.666  32.230  1.00  0.00     0.002 A 
ATOM     86  C   UNL A   1      35.203  32.309  29.852  1.00  0.00     0.091 A 
ATOM     87  F   UNL A   1      36.977  30.970  29.024  1.00  0.00    -0.205 F 
ATOM     88  C   UNL A   1      34.546  32.913  30.931  1.00  0.00     0.022 A 
BRANCH  86  89
ATOM     89  S   UNL A   1      34.627  32.734  28.201  1.00  0.00     0.127 S 
ATOM     90  O   UNL A   1      35.870  33.132  27.540  1.00  0.00    -0.237 OA
ATOM     91  O   UNL A   1      34.068  31.465  27.746  1.00  0.00    -0.237 OA
ATOM     92  O   UNL A   1      33.669  33.818  28.382  1.00  0.00    -0.744 OA
ENDBRANCH  86  89
ENDBRANCH  58  82
BRANCH  70  93
ATOM     93  C   UNL A   1      42.501  30.866  33.997  1.00  0.00     0.023 A 
ATOM     94  C   UNL A   1      42.587  31.418  35.291  1.00  0.00     0.012 A 
ATOM     95  C   UNL A   1      42.274  29.487  33.856  1.00  0.00     0.148 A 
ATOM     96  C   UNL A   1      42.461  30.604  36.421  1.00  0.00     0.002 A 
ATOM     97  C   UNL A   1      42.093  28.693  34.979  1.00  0.00     0.091 A 
ATOM     98  F   UNL A   1      42.210  28.981  32.616  1.00  0.00    -0.205 F 
ATOM     99  C   UNL A   1      42.197  29.244  36.265  1.00  0.00     0.022 A 
BRANCH  97 100
ATOM    100  S   UNL A   1      41.612  26.972  34.833  1.00  0.00     0.127 S 
ATOM    101  O   UNL A   1      40.451  27.053  33.948  1.00  0.00    -0.237 OA
ATOM    102  O   UNL A   1      42.800  26.365  34.230  1.00  0.00    -0.237 OA
ATOM    103  O   UNL A   1      41.336  26.514  36.189  1.00  0.00    -0.744 OA
ENDBRANCH  97 100
ENDBRANCH  70  93
ENDBRANCH  44  45
ENDBRANCH  37  39
ENDBRANCH  36  37
ENDBRANCH  35  36
ENDBRANCH  34  35
ENDBRANCH  33  34
ENDBRANCH  32  33
ENDBRANCH   1  32
TORSDOF 25
ENDMDL
MODEL 3
REMARK VINA RESULT:     -10.0      3.263      8.303
REMARK SMILES CCc1nc2sc(C(=O)NCC(=O)OCCOCCOCCOC(=O)c3ccc(-c4c5nc(c(-c6cccc(S(=O)(=O)[O-])c6F)c6ccc([nH]6)c(-c6cccc(S(=O)(=O)[O-])c6F)c6nc(c(-c7cccc(S(=O)(=O)[O-])c7F)c7ccc4[nH]7)C=C6)C=C5)cc3)c(N)c2c(C(F)(F)F)c1C
REMARK SMILES IDX 18 1 17 2 16 3 15 4 14 5 12 6 13 7 11 8 10 9 8 10 9 11 7 13
REMARK SMILES IDX 3 14 4 15 97 16 5 17 92 18 98 19 6 20 91 21 89 22 2 23 1 24
REMARK SMILES IDX 93 25 94 26 95 27 96 28 90 29 19 32 20 33 21 34 22 35 23 36
REMARK SMILES IDX 24 37 25 38 26 39 27 40 88 41 28 42 87 43 29 44 30 45 31 46
REMARK SMILES IDX 81 47 32 48 86 49 80 50 82 51 33 52 85 53 79 54 78 55 34 57
REMARK SMILES IDX 66 58 46 59 65 60 47 61 50 62 64 63 83 64 48 65 49 66 63 68
REMARK SMILES IDX 84 69 51 70 35 71 36 72 44 73 37 74 39 75 45 76 38 77 40 78
REMARK SMILES IDX 41 79 42 80 43 81 67 82 68 83 76 84 69 85 71 86 77 87 70 88
REMARK SMILES IDX 72 89 73 90 74 91 75 92 52 93 53 94 61 95 54 96 56 97 62 98
REMARK SMILES IDX 55 99 57 100 58 101 59 102 60 103
REMARK H PARENT 10 12 90 30 90 31 82 56 50 67
REMARK Flexibility Score: inf
ROOT
ATOM      1  C   UNL A   1      42.810  18.863  25.914  1.00  0.00     0.188 C 
ENDROOT
BRANCH   1   2
ATOM      2  O   UNL A   1      41.624  19.393  25.377  1.00  0.00    -0.376 OA
BRANCH   2   3
ATOM      3  C   UNL A   1      40.613  19.884  26.235  1.00  0.00     0.202 C 
BRANCH   3   4
ATOM      4  C   UNL A   1      40.144  21.353  26.224  1.00  0.00     0.261 C 
BRANCH   4   5
ATOM      5  O   UNL A   1      38.767  21.586  26.582  1.00  0.00    -0.462 OA
BRANCH   5   6
ATOM      6  C   UNL A   1      38.042  22.353  25.720  1.00  0.00     0.325 C 
ATOM      7  O   UNL A   1      38.066  23.583  25.729  1.00  0.00    -0.250 OA
BRANCH   6   8
ATOM      8  C   UNL A   1      37.355  21.549  24.592  1.00  0.00     0.239 C 
BRANCH   8   9
ATOM      9  N   UNL A   1      36.221  20.726  24.945  1.00  0.00    -0.340 N 
ATOM     10  C   UNL A   1      34.882  21.038  24.955  1.00  0.00     0.264 C 
ATOM     11  O   UNL A   1      34.129  20.066  25.078  1.00  0.00    -0.268 OA
ATOM     12  H   UNL A   1      36.440  19.805  25.219  1.00  0.00     0.164 HD
BRANCH  10  13
ATOM     13  C   UNL A   1      34.386  22.418  24.871  1.00  0.00     0.118 A 
ATOM     14  C   UNL A   1      33.384  26.990  25.474  1.00  0.00     0.045 A 
ATOM     15  N   UNL A   1      33.852  25.948  26.200  1.00  0.00    -0.242 NA
ATOM     16  C   UNL A   1      33.107  26.933  24.095  1.00  0.00    -0.017 A 
ATOM     17  C   UNL A   1      33.966  24.787  25.541  1.00  0.00     0.127 A 
ATOM     18  C   UNL A   1      33.192  25.684  23.440  1.00  0.00     0.073 A 
ATOM     19  C   UNL A   1      32.712  28.142  23.290  1.00  0.00     0.047 C 
ATOM     20  S   UNL A   1      34.548  23.387  26.307  1.00  0.00    -0.108 S 
ATOM     21  C   UNL A   1      33.639  24.580  24.220  1.00  0.00     0.048 A 
ATOM     22  C   UNL A   1      33.811  23.206  23.889  1.00  0.00     0.066 A 
BRANCH  14  23
ATOM     23  C   UNL A   1      33.224  28.262  26.275  1.00  0.00     0.053 C 
ATOM     24  C   UNL A   1      31.931  28.290  27.081  1.00  0.00     0.011 C 
ENDBRANCH  14  23
BRANCH  18  25
ATOM     25  C   UNL A   1      32.846  25.477  21.976  1.00  0.00     0.417 C 
ATOM     26  F   UNL A   1      31.498  25.380  21.770  1.00  0.00    -0.166 F 
ATOM     27  F   UNL A   1      33.273  26.512  21.189  1.00  0.00    -0.166 F 
ATOM     28  F   UNL A   1      33.366  24.368  21.384  1.00  0.00    -0.166 F 
ENDBRANCH  18  25
BRANCH  22  29
ATOM     29  N   UNL A   1      33.421  22.820  22.667  1.00  0.00    -0.397 N 
ATOM     30  H   UNL A   1      32.552  22.374  22.547  1.00  0.00     0.156 HD
ATOM     31  H   UNL A   1      34.003  22.984  21.890  1.00  0.00     0.156 HD
ENDBRANCH  22  29
ENDBRANCH  10  13
ENDBRANCH   8   9
ENDBRANCH   6   8
ENDBRANCH   5   6
ENDBRANCH   4   5
ENDBRANCH   3   4
ENDBRANCH   2   3
ENDBRANCH   1   2
BRANCH   1  32
ATOM     32  C   UNL A   1      44.173  19.226  25.310  1.00  0.00     0.188 C 
BRANCH  32  33
ATOM     33  O   UNL A   1      44.823  20.472  25.439  1.00  0.00    -0.376 OA
BRANCH  33  34
ATOM     34  C   UNL A   1      44.484  21.642  24.704  1.00  0.00     0.202 C 
BRANCH  34  35
ATOM     35  C   UNL A   1      43.313  22.573  25.028  1.00  0.00     0.261 C 
BRANCH  35  36
ATOM     36  O   UNL A   1      43.285  23.036  26.353  1.00  0.00    -0.460 OA
BRANCH  36  37
ATOM     37  C   UNL A   1      43.530  24.357  26.457  1.00  0.00     0.338 C 
ATOM     38  O   UNL A   1      44.273  25.039  25.759  1.00  0.00    -0.246 OA
BRANCH  37  39
ATOM     39  C   UNL A   1      42.637  24.884  27.490  1.00  0.00     0.060 A 
ATOM     40  C   UNL A   1      41.422  25.401  27.052  1.00  0.00     0.016 A 
ATOM     41  C   UNL A   1      43.146  25.102  28.778  1.00  0.00     0.016 A 
ATOM     42  C   UNL A   1      40.955  26.491  27.725  1.00  0.00     0.010 A 
ATOM     43  C   UNL A   1      42.693  26.200  29.440  1.00  0.00     0.010 A 
ATOM     44  C   UNL A   1      41.715  26.952  28.804  1.00  0.00    -0.014 A 
BRANCH  44  45
ATOM     45  C   UNL A   1      41.466  28.287  29.267  1.00  0.00     0.031 A 
ATOM     46  C   UNL A   1      42.414  29.222  28.657  1.00  0.00     0.074 A 
ATOM     47  C   UNL A   1      40.472  28.547  30.137  1.00  0.00     0.049 A 
ATOM     48  N   UNL A   1      43.482  29.693  29.206  1.00  0.00    -0.248 NA
ATOM     49  C   UNL A   1      42.342  29.415  27.201  1.00  0.00     0.031 C 
ATOM     50  C   UNL A   1      39.379  27.659  30.560  1.00  0.00     0.029 A 
ATOM     51  N   UNL A   1      40.155  29.721  30.736  1.00  0.00    -0.354 N 
ATOM     52  C   UNL A   1      44.034  30.505  28.227  1.00  0.00     0.074 A 
ATOM     53  C   UNL A   1      43.484  30.065  26.976  1.00  0.00     0.031 C 
ATOM     54  C   UNL A   1      38.396  28.404  31.120  1.00  0.00     0.029 A 
ATOM     55  C   UNL A   1      38.852  29.779  31.222  1.00  0.00     0.049 A 
ATOM     56  H   UNL A   1      40.791  30.467  30.819  1.00  0.00     0.167 HD
ATOM     57  C   UNL A   1      44.574  31.702  28.577  1.00  0.00     0.034 A 
ATOM     58  C   UNL A   1      38.201  30.913  31.582  1.00  0.00     0.034 A 
ATOM     59  C   UNL A   1      44.802  31.764  30.000  1.00  0.00     0.049 A 
ATOM     60  C   UNL A   1      39.248  31.919  31.873  1.00  0.00     0.074 A 
ATOM     61  C   UNL A   1      45.628  31.131  30.902  1.00  0.00     0.029 A 
ATOM     62  N   UNL A   1      43.754  32.299  30.707  1.00  0.00    -0.354 N 
ATOM     63  N   UNL A   1      40.081  31.821  32.871  1.00  0.00    -0.248 NA
ATOM     64  C   UNL A   1      39.631  32.857  30.827  1.00  0.00     0.031 C 
ATOM     65  C   UNL A   1      44.902  31.093  32.129  1.00  0.00     0.029 A 
ATOM     66  C   UNL A   1      43.680  31.747  31.955  1.00  0.00     0.049 A 
ATOM     67  H   UNL A   1      43.140  32.987  30.363  1.00  0.00     0.167 HD
ATOM     68  C   UNL A   1      41.275  32.301  32.358  1.00  0.00     0.074 A 
ATOM     69  C   UNL A   1      40.898  33.083  31.185  1.00  0.00     0.031 C 
ATOM     70  C   UNL A   1      42.463  31.753  32.743  1.00  0.00     0.034 A 
BRANCH  57  71
ATOM     71  C   UNL A   1      44.430  32.965  27.755  1.00  0.00     0.023 A 
ATOM     72  C   UNL A   1      45.469  33.248  26.843  1.00  0.00     0.012 A 
ATOM     73  C   UNL A   1      43.503  34.006  28.008  1.00  0.00     0.148 A 
ATOM     74  C   UNL A   1      45.592  34.503  26.239  1.00  0.00     0.002 A 
ATOM     75  C   UNL A   1      43.576  35.219  27.338  1.00  0.00     0.091 A 
ATOM     76  F   UNL A   1      42.622  33.901  29.003  1.00  0.00    -0.205 F 
ATOM     77  C   UNL A   1      44.637  35.485  26.474  1.00  0.00     0.022 A 
BRANCH  75  78
ATOM     78  S   UNL A   1      42.335  36.499  27.569  1.00  0.00     0.127 S 
ATOM     79  O   UNL A   1      41.098  35.729  27.486  1.00  0.00    -0.237 OA
ATOM     80  O   UNL A   1      42.669  36.995  28.905  1.00  0.00    -0.237 OA
ATOM     81  O   UNL A   1      42.560  37.467  26.503  1.00  0.00    -0.744 OA
ENDBRANCH  75  78
ENDBRANCH  57  71
BRANCH  58  82
ATOM     82  C   UNL A   1      36.794  31.332  31.350  1.00  0.00     0.023 A 
ATOM     83  C   UNL A   1      36.081  31.920  32.417  1.00  0.00     0.012 A 
ATOM     84  C   UNL A   1      36.295  31.503  30.041  1.00  0.00     0.148 A 
ATOM     85  C   UNL A   1      34.962  32.727  32.182  1.00  0.00     0.002 A 
ATOM     86  C   UNL A   1      35.188  32.316  29.813  1.00  0.00     0.091 A 
ATOM     87  F   UNL A   1      36.960  30.956  29.017  1.00  0.00    -0.205 F 
ATOM     88  C   UNL A   1      34.530  32.945  30.878  1.00  0.00     0.022 A 
BRANCH  86  89
ATOM     89  S   UNL A   1      34.614  32.705  28.153  1.00  0.00     0.127 S 
ATOM     90  O   UNL A   1      33.504  33.620  28.423  1.00  0.00    -0.237 OA
ATOM     91  O   UNL A   1      35.796  33.331  27.568  1.00  0.00    -0.237 OA
ATOM     92  O   UNL A   1      34.215  31.434  27.562  1.00  0.00    -0.744 OA
ENDBRANCH  86  89
ENDBRANCH  58  82
BRANCH  70  93
ATOM     93  C   UNL A   1      42.472  30.936  34.010  1.00  0.00     0.023 A 
ATOM     94  C   UNL A   1      42.524  31.505  35.299  1.00  0.00     0.012 A 
ATOM     95  C   UNL A   1      42.276  29.552  33.882  1.00  0.00     0.148 A 
ATOM     96  C   UNL A   1      42.395  30.701  36.436  1.00  0.00     0.002 A 
ATOM     97  C   UNL A   1      42.091  28.767  35.011  1.00  0.00     0.091 A 
ATOM     98  F   UNL A   1      42.243  29.031  32.647  1.00  0.00    -0.205 F 
ATOM     99  C   UNL A   1      42.161  29.334  36.292  1.00  0.00     0.022 A 
BRANCH  97 100
ATOM    100  S   UNL A   1      41.647  27.035  34.876  1.00  0.00     0.127 S 
ATOM    101  O   UNL A   1      41.338  26.689  36.262  1.00  0.00    -0.237 OA
ATOM    102  O   UNL A   1      40.489  27.078  33.982  1.00  0.00    -0.237 OA
ATOM    103  O   UNL A   1      42.810  26.364  34.307  1.00  0.00    -0.744 OA
ENDBRANCH  97 100
ENDBRANCH  70  93
ENDBRANCH  44  45
ENDBRANCH  37  39
ENDBRANCH  36  37
ENDBRANCH  35  36
ENDBRANCH  34  35
ENDBRANCH  33  34
ENDBRANCH  32  33
ENDBRANCH   1  32
TORSDOF 25
ENDMDL
