MODEL 1
REMARK VINA RESULT:     -10.2      0.000      0.000
REMARK SMILES C[C@H]1CCC[C@@](NC(=O)N2CCO[C@H](C#N)C2)(C(=O)OCCOCCOCCOC(=O)c2ccc(-c3c4nc(c(-c5cccc(S(=O)(=O)[O-])c5F)c5ccc([nH]5)c(-c5cccc(S(=O)(=O)[O-])c5F)c5nc(c(-c6cccc(S(=O)(=O)[O-])c6F)c6ccc3[nH]6)C=C5)C=C4)cc2)C1
REMARK SMILES IDX 24 1 23 2 22 3 21 4 20 5 18 6 19 7 6 8 1 9 2 10 3 11 95 12
REMARK SMILES IDX 4 13 5 14 7 15 8 16 9 18 10 19 11 20 17 21 12 22 14 23 13 24
REMARK SMILES IDX 15 25 16 26 25 27 26 28 27 29 28 30 29 31 30 32 31 33 32 34
REMARK SMILES IDX 33 35 94 36 34 37 93 38 35 39 36 40 37 41 87 42 38 43 92 44
REMARK SMILES IDX 86 45 88 46 39 47 91 48 85 49 84 50 40 52 72 53 52 54 71 55
REMARK SMILES IDX 53 56 56 57 70 58 89 59 54 60 55 61 69 63 90 64 57 65 41 66
REMARK SMILES IDX 42 67 50 68 43 69 45 70 51 71 44 72 46 73 47 74 48 75 49 76
REMARK SMILES IDX 73 77 74 78 82 79 75 80 77 81 83 82 76 83 78 84 79 85 80 86
REMARK SMILES IDX 81 87 58 88 59 89 67 90 60 91 62 92 68 93 61 94 63 95 64 96
REMARK SMILES IDX 65 97 66 98
REMARK H PARENT 7 17 88 51 56 62
REMARK Flexibility Score: inf
ROOT
ATOM      1  C   UNL A   1      36.836  21.835  25.674  1.00  0.00     0.188 C 
ENDROOT
BRANCH   1   2
ATOM      2  O   UNL A   1      37.499  23.057  25.431  1.00  0.00    -0.376 OA
BRANCH   2   3
ATOM      3  C   UNL A   1      36.733  24.014  24.726  1.00  0.00     0.202 C 
BRANCH   3   4
ATOM      4  C   UNL A   1      35.308  24.324  25.232  1.00  0.00     0.261 C 
BRANCH   4   5
ATOM      5  O   UNL A   1      34.439  25.331  24.647  1.00  0.00    -0.461 OA
BRANCH   5   6
ATOM      6  C   UNL A   1      33.744  26.285  25.318  1.00  0.00     0.331 C 
ATOM      7  O   UNL A   1      34.235  27.024  26.159  1.00  0.00    -0.249 OA
BRANCH   6   8
ATOM      8  C   UNL A   1      32.229  26.270  24.962  1.00  0.00     0.139 C 
ATOM      9  C   UNL A   1      30.212  29.472  23.779  1.00  0.00     0.008 C 
ATOM     10  C   UNL A   1      30.498  27.979  23.965  1.00  0.00    -0.011 C 
ATOM     11  C   UNL A   1      30.564  27.278  22.612  1.00  0.00     0.003 C 
ATOM     12  C   UNL A   1      31.816  27.761  24.730  1.00  0.00     0.044 C 
ATOM     13  C   UNL A   1      30.748  25.783  22.822  1.00  0.00     0.003 C 
ATOM     14  C   UNL A   1      31.985  25.440  23.659  1.00  0.00     0.040 C 
BRANCH   8  15
ATOM     15  N   UNL A   1      31.439  25.772  26.131  1.00  0.00    -0.322 N 
ATOM     16  C   UNL A   1      30.915  24.536  26.350  1.00  0.00     0.318 C 
ATOM     17  H   UNL A   1      31.275  26.433  26.842  1.00  0.00     0.166 HD
ATOM     18  O   UNL A   1      29.716  24.457  26.615  1.00  0.00    -0.249 OA
BRANCH  16  19
ATOM     19  N   UNL A   1      31.724  23.423  26.319  1.00  0.00    -0.319 N 
ATOM     20  C   UNL A   1      32.845  23.362  27.261  1.00  0.00     0.150 C 
ATOM     21  C   UNL A   1      31.961  22.582  25.115  1.00  0.00     0.169 C 
ATOM     22  C   UNL A   1      33.295  21.924  27.564  1.00  0.00     0.183 C 
ATOM     23  C   UNL A   1      32.286  21.149  25.564  1.00  0.00     0.240 C 
ATOM     24  O   UNL A   1      33.487  21.143  26.375  1.00  0.00    -0.360 OA
BRANCH  23  25
ATOM     25  C   UNL A   1      32.364  20.171  24.467  1.00  0.00     0.096 C 
ATOM     26  N   UNL A   1      32.515  19.391  23.626  1.00  0.00    -0.195 NA
ENDBRANCH  23  25
ENDBRANCH  16  19
ENDBRANCH   8  15
ENDBRANCH   6   8
ENDBRANCH   5   6
ENDBRANCH   4   5
ENDBRANCH   3   4
ENDBRANCH   2   3
ENDBRANCH   1   2
BRANCH   1  27
ATOM     27  C   UNL A   1      37.246  20.745  24.675  1.00  0.00     0.188 C 
BRANCH  27  28
ATOM     28  O   UNL A   1      37.273  19.384  25.067  1.00  0.00    -0.376 OA
BRANCH  28  29
ATOM     29  C   UNL A   1      38.502  18.819  25.500  1.00  0.00     0.202 C 
BRANCH  29  30
ATOM     30  C   UNL A   1      39.824  19.621  25.513  1.00  0.00     0.261 C 
BRANCH  30  31
ATOM     31  O   UNL A   1      40.408  19.964  26.781  1.00  0.00    -0.460 OA
BRANCH  31  32
ATOM     32  C   UNL A   1      41.670  20.465  26.763  1.00  0.00     0.338 C 
ATOM     33  O   UNL A   1      42.636  19.959  26.221  1.00  0.00    -0.246 OA
BRANCH  32  34
ATOM     34  C   UNL A   1      41.641  21.874  27.261  1.00  0.00     0.060 A 
ATOM     35  C   UNL A   1      40.926  22.839  26.525  1.00  0.00     0.016 A 
ATOM     36  C   UNL A   1      42.275  22.242  28.448  1.00  0.00     0.016 A 
ATOM     37  C   UNL A   1      40.862  24.164  26.949  1.00  0.00     0.010 A 
ATOM     38  C   UNL A   1      42.272  23.587  28.837  1.00  0.00     0.010 A 
ATOM     39  C   UNL A   1      41.604  24.558  28.063  1.00  0.00    -0.014 A 
BRANCH  39  40
ATOM     40  C   UNL A   1      41.936  25.995  28.224  1.00  0.00     0.031 A 
ATOM     41  C   UNL A   1      43.322  26.430  27.818  1.00  0.00     0.074 A 
ATOM     42  C   UNL A   1      41.046  26.896  28.675  1.00  0.00     0.049 A 
ATOM     43  N   UNL A   1      43.903  27.591  27.955  1.00  0.00    -0.248 NA
ATOM     44  C   UNL A   1      44.166  25.409  27.170  1.00  0.00     0.031 C 
ATOM     45  C   UNL A   1      39.662  26.611  29.046  1.00  0.00     0.029 A 
ATOM     46  N   UNL A   1      41.197  28.237  28.931  1.00  0.00    -0.354 N 
ATOM     47  C   UNL A   1      45.187  27.431  27.445  1.00  0.00     0.074 A 
ATOM     48  C   UNL A   1      45.307  26.060  27.006  1.00  0.00     0.031 C 
ATOM     49  C   UNL A   1      39.105  27.734  29.535  1.00  0.00     0.029 A 
ATOM     50  C   UNL A   1      40.103  28.802  29.545  1.00  0.00     0.049 A 
ATOM     51  H   UNL A   1      42.007  28.745  28.697  1.00  0.00     0.167 HD
ATOM     52  C   UNL A   1      46.176  28.348  27.340  1.00  0.00     0.034 A 
ATOM     53  C   UNL A   1      39.950  30.024  30.096  1.00  0.00     0.034 A 
ATOM     54  C   UNL A   1      46.052  29.711  27.775  1.00  0.00     0.049 A 
ATOM     55  C   UNL A   1      41.096  31.006  30.034  1.00  0.00     0.074 A 
ATOM     56  C   UNL A   1      46.993  30.721  27.708  1.00  0.00     0.029 A 
ATOM     57  N   UNL A   1      44.922  30.251  28.366  1.00  0.00    -0.354 N 
ATOM     58  N   UNL A   1      42.283  30.865  29.494  1.00  0.00    -0.248 NA
ATOM     59  C   UNL A   1      40.870  32.332  30.632  1.00  0.00     0.031 C 
ATOM     60  C   UNL A   1      46.444  31.865  28.294  1.00  0.00     0.029 A 
ATOM     61  C   UNL A   1      45.142  31.580  28.674  1.00  0.00     0.049 A 
ATOM     62  H   UNL A   1      44.085  29.760  28.540  1.00  0.00     0.167 HD
ATOM     63  C   UNL A   1      42.922  32.092  29.645  1.00  0.00     0.074 A 
ATOM     64  C   UNL A   1      41.984  32.971  30.309  1.00  0.00     0.031 C 
ATOM     65  C   UNL A   1      44.175  32.458  29.279  1.00  0.00     0.034 A 
BRANCH  52  66
ATOM     66  C   UNL A   1      47.477  27.910  26.720  1.00  0.00     0.023 A 
ATOM     67  C   UNL A   1      48.539  27.489  27.545  1.00  0.00     0.012 A 
ATOM     68  C   UNL A   1      47.621  27.851  25.320  1.00  0.00     0.148 A 
ATOM     69  C   UNL A   1      49.734  27.039  26.987  1.00  0.00     0.002 A 
ATOM     70  C   UNL A   1      48.797  27.354  24.771  1.00  0.00     0.091 A 
ATOM     71  F   UNL A   1      46.606  28.275  24.554  1.00  0.00    -0.205 F 
ATOM     72  C   UNL A   1      49.859  26.959  25.603  1.00  0.00     0.022 A 
BRANCH  70  73
ATOM     73  S   UNL A   1      49.029  27.137  23.004  1.00  0.00     0.127 S 
ATOM     74  O   UNL A   1      50.477  26.948  22.918  1.00  0.00    -0.237 OA
ATOM     75  O   UNL A   1      48.241  25.934  22.740  1.00  0.00    -0.237 OA
ATOM     76  O   UNL A   1      48.527  28.351  22.376  1.00  0.00    -0.744 OA
ENDBRANCH  70  73
ENDBRANCH  52  66
BRANCH  53  77
ATOM     77  C   UNL A   1      38.680  30.395  30.787  1.00  0.00     0.023 A 
ATOM     78  C   UNL A   1      38.436  29.950  32.100  1.00  0.00     0.012 A 
ATOM     79  C   UNL A   1      37.692  31.147  30.123  1.00  0.00     0.148 A 
ATOM     80  C   UNL A   1      37.210  30.200  32.720  1.00  0.00     0.002 A 
ATOM     81  C   UNL A   1      36.498  31.445  30.769  1.00  0.00     0.091 A 
ATOM     82  F   UNL A   1      37.933  31.548  28.867  1.00  0.00    -0.205 F 
ATOM     83  C   UNL A   1      36.245  30.953  32.057  1.00  0.00     0.022 A 
BRANCH  81  84
ATOM     84  S   UNL A   1      35.246  32.504  30.038  1.00  0.00     0.127 S 
ATOM     85  O   UNL A   1      36.027  33.683  29.676  1.00  0.00    -0.237 OA
ATOM     86  O   UNL A   1      34.792  31.694  28.907  1.00  0.00    -0.237 OA
ATOM     87  O   UNL A   1      34.246  32.705  31.077  1.00  0.00    -0.744 OA
ENDBRANCH  81  84
ENDBRANCH  53  77
BRANCH  65  88
ATOM     88  C   UNL A   1      44.587  33.890  29.511  1.00  0.00     0.023 A 
ATOM     89  C   UNL A   1      45.285  34.252  30.680  1.00  0.00     0.012 A 
ATOM     90  C   UNL A   1      44.339  34.864  28.523  1.00  0.00     0.148 A 
ATOM     91  C   UNL A   1      45.691  35.572  30.881  1.00  0.00     0.002 A 
ATOM     92  C   UNL A   1      44.798  36.163  28.704  1.00  0.00     0.091 A 
ATOM     93  F   UNL A   1      43.665  34.502  27.423  1.00  0.00    -0.205 F 
ATOM     94  C   UNL A   1      45.459  36.522  29.889  1.00  0.00     0.022 A 
BRANCH  92  95
ATOM     95  S   UNL A   1      44.633  37.429  27.442  1.00  0.00     0.127 S 
ATOM     96  O   UNL A   1      44.867  38.650  28.212  1.00  0.00    -0.237 OA
ATOM     97  O   UNL A   1      45.709  37.079  26.514  1.00  0.00    -0.237 OA
ATOM     98  O   UNL A   1      43.290  37.287  26.897  1.00  0.00    -0.744 OA
ENDBRANCH  92  95
ENDBRANCH  65  88
ENDBRANCH  39  40
ENDBRANCH  32  34
ENDBRANCH  31  32
ENDBRANCH  30  31
ENDBRANCH  29  30
ENDBRANCH  28  29
ENDBRANCH  27  28
ENDBRANCH   1  27
TORSDOF 23
ENDMDL
MODEL 2
REMARK VINA RESULT:     -10.0      2.604      4.377
REMARK SMILES C[C@H]1CCC[C@@](NC(=O)N2CCO[C@H](C#N)C2)(C(=O)OCCOCCOCCOC(=O)c2ccc(-c3c4nc(c(-c5cccc(S(=O)(=O)[O-])c5F)c5ccc([nH]5)c(-c5cccc(S(=O)(=O)[O-])c5F)c5nc(c(-c6cccc(S(=O)(=O)[O-])c6F)c6ccc3[nH]6)C=C5)C=C4)cc2)C1
REMARK SMILES IDX 24 1 23 2 22 3 21 4 20 5 18 6 19 7 6 8 1 9 2 10 3 11 95 12
REMARK SMILES IDX 4 13 5 14 7 15 8 16 9 18 10 19 11 20 17 21 12 22 14 23 13 24
REMARK SMILES IDX 15 25 16 26 25 27 26 28 27 29 28 30 29 31 30 32 31 33 32 34
REMARK SMILES IDX 33 35 94 36 34 37 93 38 35 39 36 40 37 41 87 42 38 43 92 44
REMARK SMILES IDX 86 45 88 46 39 47 91 48 85 49 84 50 40 52 72 53 52 54 71 55
REMARK SMILES IDX 53 56 56 57 70 58 89 59 54 60 55 61 69 63 90 64 57 65 41 66
REMARK SMILES IDX 42 67 50 68 43 69 45 70 51 71 44 72 46 73 47 74 48 75 49 76
REMARK SMILES IDX 73 77 74 78 82 79 75 80 77 81 83 82 76 83 78 84 79 85 80 86
REMARK SMILES IDX 81 87 58 88 59 89 67 90 60 91 62 92 68 93 61 94 63 95 64 96
REMARK SMILES IDX 65 97 66 98
REMARK H PARENT 7 17 88 51 56 62
REMARK Flexibility Score: inf
ROOT
ATOM      1  C   UNL A   1      39.619  21.610  26.168  1.00  0.00     0.188 C 
ENDROOT
BRANCH   1   2
ATOM      2  O   UNL A   1      39.480  22.849  26.830  1.00  0.00    -0.376 OA
BRANCH   2   3
ATOM      3  C   UNL A   1      38.567  23.743  26.221  1.00  0.00     0.202 C 
BRANCH   3   4
ATOM      4  C   UNL A   1      37.296  23.156  25.570  1.00  0.00     0.261 C 
BRANCH   4   5
ATOM      5  O   UNL A   1      36.260  23.959  24.942  1.00  0.00    -0.461 OA
BRANCH   5   6
ATOM      6  C   UNL A   1      35.400  23.552  23.974  1.00  0.00     0.331 C 
ATOM      7  O   UNL A   1      35.653  23.582  22.778  1.00  0.00    -0.249 OA
BRANCH   6   8
ATOM      8  C   UNL A   1      34.019  23.130  24.554  1.00  0.00     0.139 C 
ATOM      9  C   UNL A   1      33.028  19.379  25.373  1.00  0.00     0.008 C 
ATOM     10  C   UNL A   1      32.936  20.906  25.445  1.00  0.00    -0.011 C 
ATOM     11  C   UNL A   1      33.110  21.382  26.884  1.00  0.00     0.003 C 
ATOM     12  C   UNL A   1      33.997  21.565  24.546  1.00  0.00     0.044 C 
ATOM     13  C   UNL A   1      32.916  22.888  26.949  1.00  0.00     0.003 C 
ATOM     14  C   UNL A   1      33.859  23.658  26.017  1.00  0.00     0.040 C 
BRANCH   8  15
ATOM     15  N   UNL A   1      32.926  23.588  23.641  1.00  0.00    -0.322 N 
ATOM     16  C   UNL A   1      32.211  24.745  23.671  1.00  0.00     0.318 C 
ATOM     17  H   UNL A   1      32.690  22.964  22.917  1.00  0.00     0.166 HD
ATOM     18  O   UNL A   1      30.982  24.664  23.681  1.00  0.00    -0.249 OA
BRANCH  16  19
ATOM     19  N   UNL A   1      32.855  25.961  23.643  1.00  0.00    -0.319 N 
ATOM     20  C   UNL A   1      33.555  26.338  22.412  1.00  0.00     0.150 C 
ATOM     21  C   UNL A   1      33.413  26.651  24.836  1.00  0.00     0.169 C 
ATOM     22  C   UNL A   1      33.713  27.859  22.255  1.00  0.00     0.183 C 
ATOM     23  C   UNL A   1      33.404  28.167  24.585  1.00  0.00     0.240 C 
ATOM     24  O   UNL A   1      34.231  28.485  23.438  1.00  0.00    -0.360 OA
BRANCH  23  25
ATOM     25  C   UNL A   1      33.762  28.980  25.759  1.00  0.00     0.096 C 
ATOM     26  N   UNL A   1      34.054  29.539  26.728  1.00  0.00    -0.195 NA
ENDBRANCH  23  25
ENDBRANCH  16  19
ENDBRANCH   8  15
ENDBRANCH   6   8
ENDBRANCH   5   6
ENDBRANCH   4   5
ENDBRANCH   3   4
ENDBRANCH   2   3
ENDBRANCH   1   2
BRANCH   1  27
ATOM     27  C   UNL A   1      40.956  20.929  26.490  1.00  0.00     0.188 C 
BRANCH  27  28
ATOM     28  O   UNL A   1      41.014  19.533  26.722  1.00  0.00    -0.376 OA
BRANCH  28  29
ATOM     29  C   UNL A   1      42.250  18.858  26.542  1.00  0.00     0.202 C 
BRANCH  29  30
ATOM     30  C   UNL A   1      42.927  18.724  25.158  1.00  0.00     0.261 C 
BRANCH  30  31
ATOM     31  O   UNL A   1      44.340  18.464  25.105  1.00  0.00    -0.460 OA
BRANCH  31  32
ATOM     32  C   UNL A   1      45.096  19.311  24.360  1.00  0.00     0.338 C 
ATOM     33  O   UNL A   1      45.716  19.024  23.353  1.00  0.00    -0.246 OA
BRANCH  32  34
ATOM     34  C   UNL A   1      44.821  20.715  24.793  1.00  0.00     0.060 A 
ATOM     35  C   UNL A   1      44.685  21.715  23.809  1.00  0.00     0.016 A 
ATOM     36  C   UNL A   1      44.667  21.047  26.139  1.00  0.00     0.016 A 
ATOM     37  C   UNL A   1      44.423  23.037  24.158  1.00  0.00     0.010 A 
ATOM     38  C   UNL A   1      44.475  22.388  26.495  1.00  0.00     0.010 A 
ATOM     39  C   UNL A   1      44.399  23.391  25.508  1.00  0.00    -0.014 A 
BRANCH  39  40
ATOM     40  C   UNL A   1      44.615  24.812  25.873  1.00  0.00     0.031 A 
ATOM     41  C   UNL A   1      46.027  25.336  25.794  1.00  0.00     0.074 A 
ATOM     42  C   UNL A   1      43.607  25.628  26.228  1.00  0.00     0.049 A 
ATOM     43  N   UNL A   1      46.506  26.495  26.157  1.00  0.00    -0.248 NA
ATOM     44  C   UNL A   1      47.035  24.421  25.227  1.00  0.00     0.031 C 
ATOM     45  C   UNL A   1      42.195  25.258  26.289  1.00  0.00     0.029 A 
ATOM     46  N   UNL A   1      43.632  26.939  26.641  1.00  0.00    -0.354 N 
ATOM     47  C   UNL A   1      47.871  26.435  25.897  1.00  0.00     0.074 A 
ATOM     48  C   UNL A   1      48.148  25.125  25.356  1.00  0.00     0.031 C 
ATOM     49  C   UNL A   1      41.494  26.302  26.769  1.00  0.00     0.029 A 
ATOM     50  C   UNL A   1      42.411  27.396  27.081  1.00  0.00     0.049 A 
ATOM     51  H   UNL A   1      44.443  27.496  26.624  1.00  0.00     0.167 HD
ATOM     52  C   UNL A   1      48.811  27.391  26.081  1.00  0.00     0.034 A 
ATOM     53  C   UNL A   1      42.089  28.544  27.711  1.00  0.00     0.034 A 
ATOM     54  C   UNL A   1      48.531  28.693  26.616  1.00  0.00     0.049 A 
ATOM     55  C   UNL A   1      43.170  29.567  27.974  1.00  0.00     0.074 A 
ATOM     56  C   UNL A   1      49.411  29.737  26.837  1.00  0.00     0.029 A 
ATOM     57  N   UNL A   1      47.281  29.128  27.024  1.00  0.00    -0.354 N 
ATOM     58  N   UNL A   1      44.445  29.525  27.666  1.00  0.00    -0.248 NA
ATOM     59  C   UNL A   1      42.761  30.811  28.645  1.00  0.00     0.031 C 
ATOM     60  C   UNL A   1      48.698  30.791  27.415  1.00  0.00     0.029 A 
ATOM     61  C   UNL A   1      47.365  30.423  27.501  1.00  0.00     0.049 A 
ATOM     62  H   UNL A   1      46.454  28.593  26.980  1.00  0.00     0.167 HD
ATOM     63  C   UNL A   1      44.974  30.750  28.062  1.00  0.00     0.074 A 
ATOM     64  C   UNL A   1      43.880  31.519  28.613  1.00  0.00     0.031 C 
ATOM     65  C   UNL A   1      46.253  31.196  27.989  1.00  0.00     0.034 A 
BRANCH  52  66
ATOM     66  C   UNL A   1      50.228  27.068  25.688  1.00  0.00     0.023 A 
ATOM     67  C   UNL A   1      51.083  26.435  26.613  1.00  0.00     0.012 A 
ATOM     68  C   UNL A   1      50.689  27.329  24.383  1.00  0.00     0.148 A 
ATOM     69  C   UNL A   1      52.384  26.088  26.252  1.00  0.00     0.002 A 
ATOM     70  C   UNL A   1      51.971  26.936  24.016  1.00  0.00     0.091 A 
ATOM     71  F   UNL A   1      49.867  27.950  23.526  1.00  0.00    -0.205 F 
ATOM     72  C   UNL A   1      52.823  26.326  24.953  1.00  0.00     0.022 A 
BRANCH  70  73
ATOM     73  S   UNL A   1      52.605  27.125  22.348  1.00  0.00     0.127 S 
ATOM     74  O   UNL A   1      53.820  26.313  22.400  1.00  0.00    -0.237 OA
ATOM     75  O   UNL A   1      51.523  26.554  21.545  1.00  0.00    -0.237 OA
ATOM     76  O   UNL A   1      52.824  28.552  22.156  1.00  0.00    -0.744 OA
ENDBRANCH  70  73
ENDBRANCH  52  66
BRANCH  53  77
ATOM     77  C   UNL A   1      40.692  28.795  28.171  1.00  0.00     0.023 A 
ATOM     78  C   UNL A   1      39.715  29.228  27.255  1.00  0.00     0.012 A 
ATOM     79  C   UNL A   1      40.343  28.652  29.528  1.00  0.00     0.148 A 
ATOM     80  C   UNL A   1      38.432  29.567  27.690  1.00  0.00     0.002 A 
ATOM     81  C   UNL A   1      39.048  28.932  29.944  1.00  0.00     0.091 A 
ATOM     82  F   UNL A   1      41.290  28.255  30.391  1.00  0.00    -0.205 F 
ATOM     83  C   UNL A   1      38.096  29.412  29.032  1.00  0.00     0.022 A 
BRANCH  81  84
ATOM     84  S   UNL A   1      38.494  28.652  31.629  1.00  0.00     0.127 S 
ATOM     85  O   UNL A   1      39.318  29.600  32.375  1.00  0.00    -0.237 OA
ATOM     86  O   UNL A   1      37.076  29.003  31.540  1.00  0.00    -0.237 OA
ATOM     87  O   UNL A   1      38.752  27.245  31.899  1.00  0.00    -0.744 OA
ENDBRANCH  81  84
ENDBRANCH  53  77
BRANCH  65  88
ATOM     88  C   UNL A   1      46.534  32.607  28.439  1.00  0.00     0.023 A 
ATOM     89  C   UNL A   1      46.807  32.884  29.793  1.00  0.00     0.012 A 
ATOM     90  C   UNL A   1      46.596  33.650  27.492  1.00  0.00     0.148 A 
ATOM     91  C   UNL A   1      47.095  34.186  30.204  1.00  0.00     0.002 A 
ATOM     92  C   UNL A   1      46.941  34.933  27.901  1.00  0.00     0.091 A 
ATOM     93  F   UNL A   1      46.324  33.368  26.211  1.00  0.00    -0.205 F 
ATOM     94  C   UNL A   1      47.174  35.205  29.258  1.00  0.00     0.022 A 
BRANCH  92  95
ATOM     95  S   UNL A   1      47.165  36.287  26.743  1.00  0.00     0.127 S 
ATOM     96  O   UNL A   1      47.410  37.412  27.644  1.00  0.00    -0.237 OA
ATOM     97  O   UNL A   1      48.335  35.849  25.982  1.00  0.00    -0.237 OA
ATOM     98  O   UNL A   1      45.933  36.368  25.970  1.00  0.00    -0.744 OA
ENDBRANCH  92  95
ENDBRANCH  65  88
ENDBRANCH  39  40
ENDBRANCH  32  34
ENDBRANCH  31  32
ENDBRANCH  30  31
ENDBRANCH  29  30
ENDBRANCH  28  29
ENDBRANCH  27  28
ENDBRANCH   1  27
TORSDOF 23
ENDMDL
MODEL 3
REMARK VINA RESULT:      -9.7      1.791      7.675
REMARK SMILES C[C@H]1CCC[C@@](NC(=O)N2CCO[C@H](C#N)C2)(C(=O)OCCOCCOCCOC(=O)c2ccc(-c3c4nc(c(-c5cccc(S(=O)(=O)[O-])c5F)c5ccc([nH]5)c(-c5cccc(S(=O)(=O)[O-])c5F)c5nc(c(-c6cccc(S(=O)(=O)[O-])c6F)c6ccc3[nH]6)C=C5)C=C4)cc2)C1
REMARK SMILES IDX 24 1 23 2 22 3 21 4 20 5 18 6 19 7 6 8 1 9 2 10 3 11 95 12
REMARK SMILES IDX 4 13 5 14 7 15 8 16 9 18 10 19 11 20 17 21 12 22 14 23 13 24
REMARK SMILES IDX 15 25 16 26 25 27 26 28 27 29 28 30 29 31 30 32 31 33 32 34
REMARK SMILES IDX 33 35 94 36 34 37 93 38 35 39 36 40 37 41 87 42 38 43 92 44
REMARK SMILES IDX 86 45 88 46 39 47 91 48 85 49 84 50 40 52 72 53 52 54 71 55
REMARK SMILES IDX 53 56 56 57 70 58 89 59 54 60 55 61 69 63 90 64 57 65 41 66
REMARK SMILES IDX 42 67 50 68 43 69 45 70 51 71 44 72 46 73 47 74 48 75 49 76
REMARK SMILES IDX 73 77 74 78 82 79 75 80 77 81 83 82 76 83 78 84 79 85 80 86
REMARK SMILES IDX 81 87 58 88 59 89 67 90 60 91 62 92 68 93 61 94 63 95 64 96
REMARK SMILES IDX 65 97 66 98
REMARK H PARENT 7 17 88 51 56 62
REMARK Flexibility Score: inf
ROOT
ATOM      1  C   UNL A   1      35.263  21.486  26.116  1.00  0.00     0.188 C 
ENDROOT
BRANCH   1   2
ATOM      2  O   UNL A   1      36.051  22.657  26.140  1.00  0.00    -0.376 OA
BRANCH   2   3
ATOM      3  C   UNL A   1      35.313  23.862  26.207  1.00  0.00     0.202 C 
BRANCH   3   4
ATOM      4  C   UNL A   1      33.777  23.772  26.324  1.00  0.00     0.261 C 
BRANCH   4   5
ATOM      5  O   UNL A   1      32.854  24.621  25.588  1.00  0.00    -0.461 OA
BRANCH   5   6
ATOM      6  C   UNL A   1      32.021  25.552  26.116  1.00  0.00     0.331 C 
ATOM      7  O   UNL A   1      31.300  25.355  27.085  1.00  0.00    -0.249 OA
BRANCH   6   8
ATOM      8  C   UNL A   1      32.015  26.873  25.293  1.00  0.00     0.139 C 
ATOM      9  C   UNL A   1      31.654  30.476  26.909  1.00  0.00     0.008 C 
ATOM     10  C   UNL A   1      32.013  29.445  25.834  1.00  0.00    -0.011 C 
ATOM     11  C   UNL A   1      33.496  29.533  25.489  1.00  0.00     0.003 C 
ATOM     12  C   UNL A   1      31.670  28.019  26.300  1.00  0.00     0.044 C 
ATOM     13  C   UNL A   1      33.812  28.575  24.351  1.00  0.00     0.003 C 
ATOM     14  C   UNL A   1      33.423  27.124  24.660  1.00  0.00     0.040 C 
BRANCH   8  15
ATOM     15  N   UNL A   1      30.915  26.833  24.279  1.00  0.00    -0.322 N 
ATOM     16  C   UNL A   1      30.992  26.630  22.937  1.00  0.00     0.318 C 
ATOM     17  H   UNL A   1      30.008  26.974  24.635  1.00  0.00     0.166 HD
ATOM     18  O   UNL A   1      30.464  27.460  22.197  1.00  0.00    -0.249 OA
BRANCH  16  19
ATOM     19  N   UNL A   1      31.601  25.501  22.438  1.00  0.00    -0.319 N 
ATOM     20  C   UNL A   1      32.169  25.567  21.088  1.00  0.00     0.150 C 
ATOM     21  C   UNL A   1      31.255  24.109  22.830  1.00  0.00     0.169 C 
ATOM     22  C   UNL A   1      33.290  24.540  20.860  1.00  0.00     0.183 C 
ATOM     23  C   UNL A   1      32.497  23.220  22.662  1.00  0.00     0.240 C 
ATOM     24  O   UNL A   1      32.921  23.217  21.276  1.00  0.00    -0.360 OA
BRANCH  23  25
ATOM     25  C   UNL A   1      32.344  21.854  23.188  1.00  0.00     0.096 C 
ATOM     26  N   UNL A   1      32.272  20.809  23.677  1.00  0.00    -0.195 NA
ENDBRANCH  23  25
ENDBRANCH  16  19
ENDBRANCH   8  15
ENDBRANCH   6   8
ENDBRANCH   5   6
ENDBRANCH   4   5
ENDBRANCH   3   4
ENDBRANCH   2   3
ENDBRANCH   1   2
BRANCH   1  27
ATOM     27  C   UNL A   1      35.531  20.634  24.868  1.00  0.00     0.188 C 
BRANCH  27  28
ATOM     28  O   UNL A   1      35.979  19.295  24.994  1.00  0.00    -0.376 OA
BRANCH  28  29
ATOM     29  C   UNL A   1      37.370  19.027  24.904  1.00  0.00     0.202 C 
BRANCH  29  30
ATOM     30  C   UNL A   1      38.444  20.083  25.255  1.00  0.00     0.261 C 
BRANCH  30  31
ATOM     31  O   UNL A   1      39.306  19.842  26.380  1.00  0.00    -0.460 OA
BRANCH  31  32
ATOM     32  C   UNL A   1      40.619  20.151  26.228  1.00  0.00     0.338 C 
ATOM     33  O   UNL A   1      41.429  19.536  25.557  1.00  0.00    -0.246 OA
BRANCH  32  34
ATOM     34  C   UNL A   1      40.863  21.521  26.773  1.00  0.00     0.060 A 
ATOM     35  C   UNL A   1      40.544  22.636  25.973  1.00  0.00     0.016 A 
ATOM     36  C   UNL A   1      41.364  21.716  28.060  1.00  0.00     0.016 A 
ATOM     37  C   UNL A   1      40.745  23.933  26.436  1.00  0.00     0.010 A 
ATOM     38  C   UNL A   1      41.634  23.018  28.499  1.00  0.00     0.010 A 
ATOM     39  C   UNL A   1      41.369  24.126  27.670  1.00  0.00    -0.014 A 
BRANCH  39  40
ATOM     40  C   UNL A   1      42.019  25.431  27.941  1.00  0.00     0.031 A 
ATOM     41  C   UNL A   1      41.183  26.490  28.615  1.00  0.00     0.074 A 
ATOM     42  C   UNL A   1      43.307  25.672  27.641  1.00  0.00     0.049 A 
ATOM     43  N   UNL A   1      41.466  27.739  28.866  1.00  0.00    -0.248 NA
ATOM     44  C   UNL A   1      39.841  26.077  29.064  1.00  0.00     0.031 C 
ATOM     45  C   UNL A   1      44.234  24.715  27.041  1.00  0.00     0.029 A 
ATOM     46  N   UNL A   1      44.047  26.823  27.774  1.00  0.00    -0.354 N 
ATOM     47  C   UNL A   1      40.330  28.269  29.467  1.00  0.00     0.074 A 
ATOM     48  C   UNL A   1      39.348  27.211  29.535  1.00  0.00     0.031 C 
ATOM     49  C   UNL A   1      45.405  25.336  26.805  1.00  0.00     0.029 A 
ATOM     50  C   UNL A   1      45.296  26.738  27.204  1.00  0.00     0.049 A 
ATOM     51  H   UNL A   1      43.716  27.629  28.232  1.00  0.00     0.167 HD
ATOM     52  C   UNL A   1      40.125  29.522  29.934  1.00  0.00     0.034 A 
ATOM     53  C   UNL A   1      46.219  27.697  26.985  1.00  0.00     0.034 A 
ATOM     54  C   UNL A   1      41.104  30.569  29.868  1.00  0.00     0.049 A 
ATOM     55  C   UNL A   1      45.936  29.107  27.447  1.00  0.00     0.074 A 
ATOM     56  C   UNL A   1      40.998  31.873  30.317  1.00  0.00     0.029 A 
ATOM     57  N   UNL A   1      42.365  30.438  29.309  1.00  0.00    -0.354 N 
ATOM     58  N   UNL A   1      44.885  29.582  28.071  1.00  0.00    -0.248 NA
ATOM     59  C   UNL A   1      46.984  30.111  27.202  1.00  0.00     0.031 C 
ATOM     60  C   UNL A   1      42.183  32.540  29.995  1.00  0.00     0.029 A 
ATOM     61  C   UNL A   1      43.046  31.637  29.397  1.00  0.00     0.049 A 
ATOM     62  H   UNL A   1      42.722  29.611  28.909  1.00  0.00     0.167 HD
ATOM     63  C   UNL A   1      45.165  30.920  28.333  1.00  0.00     0.074 A 
ATOM     64  C   UNL A   1      46.493  31.176  27.818  1.00  0.00     0.031 C 
ATOM     65  C   UNL A   1      44.391  31.858  28.934  1.00  0.00     0.034 A 
BRANCH  52  66
ATOM     66  C   UNL A   1      38.794  29.826  30.570  1.00  0.00     0.023 A 
ATOM     67  C   UNL A   1      38.517  29.361  31.871  1.00  0.00     0.012 A 
ATOM     68  C   UNL A   1      37.848  30.630  29.904  1.00  0.00     0.148 A 
ATOM     69  C   UNL A   1      37.308  29.672  32.492  1.00  0.00     0.002 A 
ATOM     70  C   UNL A   1      36.666  30.976  30.549  1.00  0.00     0.091 A 
ATOM     71  F   UNL A   1      38.123  31.045  28.660  1.00  0.00    -0.205 F 
ATOM     72  C   UNL A   1      36.390  30.488  31.837  1.00  0.00     0.022 A 
BRANCH  70  73
ATOM     73  S   UNL A   1      35.453  32.084  29.826  1.00  0.00     0.127 S 
ATOM     74  O   UNL A   1      36.289  33.216  29.426  1.00  0.00    -0.237 OA
ATOM     75  O   UNL A   1      34.937  31.286  28.714  1.00  0.00    -0.237 OA
ATOM     76  O   UNL A   1      34.487  32.371  30.876  1.00  0.00    -0.744 OA
ENDBRANCH  70  73
ENDBRANCH  52  66
BRANCH  53  77
ATOM     77  C   UNL A   1      47.489  27.383  26.268  1.00  0.00     0.023 A 
ATOM     78  C   UNL A   1      47.553  27.491  24.866  1.00  0.00     0.012 A 
ATOM     79  C   UNL A   1      48.621  26.929  26.972  1.00  0.00     0.148 A 
ATOM     80  C   UNL A   1      48.701  27.099  24.173  1.00  0.00     0.002 A 
ATOM     81  C   UNL A   1      49.781  26.600  26.282  1.00  0.00     0.091 A 
ATOM     82  F   UNL A   1      48.538  26.816  28.306  1.00  0.00    -0.205 F 
ATOM     83  C   UNL A   1      49.817  26.662  24.881  1.00  0.00     0.022 A 
BRANCH  81  84
ATOM     84  S   UNL A   1      51.302  26.137  27.117  1.00  0.00     0.127 S 
ATOM     85  O   UNL A   1      50.964  24.817  27.642  1.00  0.00    -0.237 OA
ATOM     86  O   UNL A   1      52.261  26.135  26.012  1.00  0.00    -0.237 OA
ATOM     87  O   UNL A   1      51.533  27.172  28.115  1.00  0.00    -0.744 OA
ENDBRANCH  81  84
ENDBRANCH  53  77
BRANCH  65  88
ATOM     88  C   UNL A   1      44.982  33.228  29.145  1.00  0.00     0.023 A 
ATOM     89  C   UNL A   1      45.611  33.555  30.363  1.00  0.00     0.012 A 
ATOM     90  C   UNL A   1      44.973  34.170  28.096  1.00  0.00     0.148 A 
ATOM     91  C   UNL A   1      46.183  34.814  30.547  1.00  0.00     0.002 A 
ATOM     92  C   UNL A   1      45.596  35.400  28.267  1.00  0.00     0.091 A 
ATOM     93  F   UNL A   1      44.360  33.843  26.949  1.00  0.00    -0.205 F 
ATOM     94  C   UNL A   1      46.186  35.730  29.497  1.00  0.00     0.022 A 
BRANCH  92  95
ATOM     95  S   UNL A   1      45.737  36.603  26.941  1.00  0.00     0.127 S 
ATOM     96  O   UNL A   1      44.395  37.185  26.923  1.00  0.00    -0.237 OA
ATOM     97  O   UNL A   1      46.782  37.494  27.446  1.00  0.00    -0.237 OA
ATOM     98  O   UNL A   1      46.103  35.852  25.749  1.00  0.00    -0.744 OA
ENDBRANCH  92  95
ENDBRANCH  65  88
ENDBRANCH  39  40
ENDBRANCH  32  34
ENDBRANCH  31  32
ENDBRANCH  30  31
ENDBRANCH  29  30
ENDBRANCH  28  29
ENDBRANCH  27  28
ENDBRANCH   1  27
TORSDOF 23
ENDMDL
