MODEL 1
REMARK VINA RESULT:      -9.4      0.000      0.000
REMARK SMILES CC(C)(C(=O)OCCOCCOCCOC(=O)c1ccc(-c2c3nc(c(-c4cccc(S(=O)(=O)[O-])c4F)c4ccc([nH]4)c(-c4cccc(S(=O)(=O)[O-])c4F)c4nc(c(-c5cccc(S(=O)(=O)[O-])c5F)c5ccc2[nH]5)C=C4)C=C3)cc1)n1nnnc1C(F)(F)C(F)F
REMARK SMILES IDX 10 1 9 2 8 3 7 4 6 5 4 6 5 7 2 8 1 9 3 10 81 11 82 12 85 13
REMARK SMILES IDX 83 14 84 15 86 16 87 17 88 18 89 19 90 20 91 21 11 22 12 23
REMARK SMILES IDX 13 24 14 25 15 26 16 27 17 28 18 29 19 30 80 31 20 32 79 33
REMARK SMILES IDX 21 34 22 35 23 36 73 37 24 38 78 39 72 40 74 41 25 42 77 43
REMARK SMILES IDX 71 44 70 45 26 47 58 48 38 49 57 50 39 51 42 52 56 53 75 54
REMARK SMILES IDX 40 55 41 56 55 58 76 59 43 60 27 61 28 62 36 63 29 64 31 65
REMARK SMILES IDX 37 66 30 67 32 68 33 69 34 70 35 71 59 72 60 73 68 74 61 75
REMARK SMILES IDX 63 76 69 77 62 78 64 79 65 80 66 81 67 82 44 83 45 84 53 85
REMARK SMILES IDX 46 86 48 87 54 88 47 89 49 90 50 91 51 92 52 93
REMARK H PARENT 74 46 42 57
REMARK Flexibility Score: inf
ROOT
ATOM      1  C   UNL A   1      35.301  21.838  25.972  1.00  0.00     0.188 C 
ENDROOT
BRANCH   1   2
ATOM      2  O   UNL A   1      34.285  22.826  26.064  1.00  0.00    -0.376 OA
BRANCH   2   3
ATOM      3  C   UNL A   1      33.490  22.884  27.242  1.00  0.00     0.202 C 
BRANCH   3   4
ATOM      4  C   UNL A   1      31.955  22.785  27.140  1.00  0.00     0.261 C 
BRANCH   4   5
ATOM      5  O   UNL A   1      31.249  24.033  26.937  1.00  0.00    -0.461 OA
BRANCH   5   6
ATOM      6  C   UNL A   1      31.382  24.611  25.709  1.00  0.00     0.333 C 
ATOM      7  O   UNL A   1      31.493  23.961  24.671  1.00  0.00    -0.249 OA
BRANCH   6   8
ATOM      8  C   UNL A   1      31.557  26.167  25.723  1.00  0.00     0.158 C 
ATOM      9  C   UNL A   1      31.348  26.890  27.073  1.00  0.00     0.049 C 
ATOM     10  C   UNL A   1      33.054  26.235  25.385  1.00  0.00     0.049 C 
BRANCH   8  11
ATOM     11  N   UNL A   1      30.571  26.702  24.770  1.00  0.00    -0.207 N 
ATOM     12  N   UNL A   1      29.410  25.986  24.747  1.00  0.00    -0.044 NA
ATOM     13  C   UNL A   1      30.366  27.829  23.990  1.00  0.00     0.228 A 
ATOM     14  N   UNL A   1      28.628  26.540  23.852  1.00  0.00    -0.024 NA
ATOM     15  N   UNL A   1      29.194  27.670  23.382  1.00  0.00    -0.107 NA
BRANCH  13  16
ATOM     16  C   UNL A   1      31.087  29.117  23.775  1.00  0.00     0.367 C 
ATOM     17  F   UNL A   1      31.764  29.065  22.580  1.00  0.00    -0.191 F 
ATOM     18  F   UNL A   1      30.146  30.105  23.583  1.00  0.00    -0.191 F 
BRANCH  16  19
ATOM     19  C   UNL A   1      32.048  29.673  24.791  1.00  0.00     0.419 C 
ATOM     20  F   UNL A   1      31.484  29.744  26.022  1.00  0.00    -0.203 F 
ATOM     21  F   UNL A   1      33.168  28.918  24.892  1.00  0.00    -0.203 F 
ENDBRANCH  16  19
ENDBRANCH  13  16
ENDBRANCH   8  11
ENDBRANCH   6   8
ENDBRANCH   5   6
ENDBRANCH   4   5
ENDBRANCH   3   4
ENDBRANCH   2   3
ENDBRANCH   1   2
BRANCH   1  22
ATOM     22  C   UNL A   1      35.970  21.633  24.607  1.00  0.00     0.188 C 
BRANCH  22  23
ATOM     23  O   UNL A   1      37.380  21.630  24.624  1.00  0.00    -0.376 OA
BRANCH  23  24
ATOM     24  C   UNL A   1      38.040  21.289  25.830  1.00  0.00     0.202 C 
BRANCH  24  25
ATOM     25  C   UNL A   1      39.577  21.229  25.906  1.00  0.00     0.261 C 
BRANCH  25  26
ATOM     26  O   UNL A   1      40.180  19.945  26.129  1.00  0.00    -0.460 OA
BRANCH  26  27
ATOM     27  C   UNL A   1      41.537  19.883  26.163  1.00  0.00     0.338 C 
ATOM     28  O   UNL A   1      42.227  18.957  25.798  1.00  0.00    -0.246 OA
BRANCH  27  29
ATOM     29  C   UNL A   1      42.027  21.253  26.474  1.00  0.00     0.060 A 
ATOM     30  C   UNL A   1      42.176  21.635  27.816  1.00  0.00     0.016 A 
ATOM     31  C   UNL A   1      42.384  22.134  25.451  1.00  0.00     0.016 A 
ATOM     32  C   UNL A   1      42.653  22.908  28.140  1.00  0.00     0.010 A 
ATOM     33  C   UNL A   1      42.834  23.417  25.777  1.00  0.00     0.010 A 
ATOM     34  C   UNL A   1      42.938  23.824  27.121  1.00  0.00    -0.014 A 
BRANCH  34  35
ATOM     35  C   UNL A   1      43.127  25.264  27.435  1.00  0.00     0.031 A 
ATOM     36  C   UNL A   1      44.520  25.828  27.344  1.00  0.00     0.074 A 
ATOM     37  C   UNL A   1      42.109  26.054  27.821  1.00  0.00     0.049 A 
ATOM     38  N   UNL A   1      44.962  27.015  27.666  1.00  0.00    -0.248 NA
ATOM     39  C   UNL A   1      45.558  24.921  26.825  1.00  0.00     0.031 C 
ATOM     40  C   UNL A   1      40.710  25.649  27.923  1.00  0.00     0.029 A 
ATOM     41  N   UNL A   1      42.113  27.365  28.234  1.00  0.00    -0.354 N 
ATOM     42  C   UNL A   1      46.331  26.987  27.425  1.00  0.00     0.074 A 
ATOM     43  C   UNL A   1      46.649  25.662  26.940  1.00  0.00     0.031 C 
ATOM     44  C   UNL A   1      39.995  26.679  28.410  1.00  0.00     0.029 A 
ATOM     45  C   UNL A   1      40.890  27.804  28.682  1.00  0.00     0.049 A 
ATOM     46  H   UNL A   1      42.915  27.936  28.211  1.00  0.00     0.167 HD
ATOM     47  C   UNL A   1      47.243  27.974  27.586  1.00  0.00     0.034 A 
ATOM     48  C   UNL A   1      40.540  28.967  29.270  1.00  0.00     0.034 A 
ATOM     49  C   UNL A   1      46.928  29.295  28.055  1.00  0.00     0.049 A 
ATOM     50  C   UNL A   1      41.582  30.039  29.479  1.00  0.00     0.074 A 
ATOM     51  C   UNL A   1      47.778  30.376  28.209  1.00  0.00     0.029 A 
ATOM     52  N   UNL A   1      45.671  29.713  28.464  1.00  0.00    -0.354 N 
ATOM     53  N   UNL A   1      42.853  30.035  29.154  1.00  0.00    -0.248 NA
ATOM     54  C   UNL A   1      41.133  31.292  30.107  1.00  0.00     0.031 C 
ATOM     55  C   UNL A   1      47.044  31.435  28.751  1.00  0.00     0.029 A 
ATOM     56  C   UNL A   1      45.725  31.029  28.887  1.00  0.00     0.049 A 
ATOM     57  H   UNL A   1      44.860  29.156  28.454  1.00  0.00     0.167 HD
ATOM     58  C   UNL A   1      43.342  31.294  29.498  1.00  0.00     0.074 A 
ATOM     59  C   UNL A   1      42.227  32.039  30.043  1.00  0.00     0.031 C 
ATOM     60  C   UNL A   1      44.601  31.783  29.379  1.00  0.00     0.034 A 
BRANCH  47  61
ATOM     61  C   UNL A   1      48.676  27.659  27.245  1.00  0.00     0.023 A 
ATOM     62  C   UNL A   1      49.558  27.217  28.253  1.00  0.00     0.012 A 
ATOM     63  C   UNL A   1      49.138  27.762  25.919  1.00  0.00     0.148 A 
ATOM     64  C   UNL A   1      50.886  26.919  27.951  1.00  0.00     0.002 A 
ATOM     65  C   UNL A   1      50.448  27.415  25.618  1.00  0.00     0.091 A 
ATOM     66  F   UNL A   1      48.289  28.205  24.980  1.00  0.00    -0.205 F 
ATOM     67  C   UNL A   1      51.327  27.007  26.634  1.00  0.00     0.022 A 
BRANCH  65  68
ATOM     68  S   UNL A   1      51.089  27.416  23.940  1.00  0.00     0.127 S 
ATOM     69  O   UNL A   1      49.979  26.817  23.200  1.00  0.00    -0.237 OA
ATOM     70  O   UNL A   1      51.287  28.844  23.690  1.00  0.00    -0.237 OA
ATOM     71  O   UNL A   1      52.313  26.629  23.975  1.00  0.00    -0.744 OA
ENDBRANCH  65  68
ENDBRANCH  47  61
BRANCH  48  72
ATOM     72  C   UNL A   1      39.128  29.197  29.696  1.00  0.00     0.023 A 
ATOM     73  C   UNL A   1      38.732  28.856  31.003  1.00  0.00     0.012 A 
ATOM     74  C   UNL A   1      38.177  29.741  28.810  1.00  0.00     0.148 A 
ATOM     75  C   UNL A   1      37.406  29.018  31.411  1.00  0.00     0.002 A 
ATOM     76  C   UNL A   1      36.871  29.950  29.239  1.00  0.00     0.091 A 
ATOM     77  F   UNL A   1      38.569  30.042  27.564  1.00  0.00    -0.205 F 
ATOM     78  C   UNL A   1      36.480  29.572  30.533  1.00  0.00     0.022 A 
BRANCH  76  79
ATOM     79  S   UNL A   1      35.632  30.755  28.218  1.00  0.00     0.127 S 
ATOM     80  O   UNL A   1      35.234  29.671  27.321  1.00  0.00    -0.237 OA
ATOM     81  O   UNL A   1      34.625  31.132  29.209  1.00  0.00    -0.237 OA
ATOM     82  O   UNL A   1      36.307  31.878  27.583  1.00  0.00    -0.744 OA
ENDBRANCH  76  79
ENDBRANCH  48  72
BRANCH  60  83
ATOM     83  C   UNL A   1      44.849  33.215  29.792  1.00  0.00     0.023 A 
ATOM     84  C   UNL A   1      45.348  33.507  31.077  1.00  0.00     0.012 A 
ATOM     85  C   UNL A   1      44.664  34.265  28.869  1.00  0.00     0.148 A 
ATOM     86  C   UNL A   1      45.625  34.823  31.448  1.00  0.00     0.002 A 
ATOM     87  C   UNL A   1      44.993  35.567  29.228  1.00  0.00     0.091 A 
ATOM     88  F   UNL A   1      44.176  33.972  27.655  1.00  0.00    -0.205 F 
ATOM     89  C   UNL A   1      45.459  35.850  30.522  1.00  0.00     0.022 A 
BRANCH  87  90
ATOM     90  S   UNL A   1      44.908  36.940  28.071  1.00  0.00     0.127 S 
ATOM     91  O   UNL A   1      45.569  38.006  28.824  1.00  0.00    -0.237 OA
ATOM     92  O   UNL A   1      45.676  36.432  26.933  1.00  0.00    -0.237 OA
ATOM     93  O   UNL A   1      43.493  37.153  27.799  1.00  0.00    -0.744 OA
ENDBRANCH  87  90
ENDBRANCH  60  83
ENDBRANCH  34  35
ENDBRANCH  27  29
ENDBRANCH  26  27
ENDBRANCH  25  26
ENDBRANCH  24  25
ENDBRANCH  23  24
ENDBRANCH  22  23
ENDBRANCH   1  22
TORSDOF 23
ENDMDL
MODEL 2
REMARK VINA RESULT:      -8.8      8.242     16.353
REMARK SMILES CC(C)(C(=O)OCCOCCOCCOC(=O)c1ccc(-c2c3nc(c(-c4cccc(S(=O)(=O)[O-])c4F)c4ccc([nH]4)c(-c4cccc(S(=O)(=O)[O-])c4F)c4nc(c(-c5cccc(S(=O)(=O)[O-])c5F)c5ccc2[nH]5)C=C4)C=C3)cc1)n1nnnc1C(F)(F)C(F)F
REMARK SMILES IDX 10 1 9 2 8 3 7 4 6 5 4 6 5 7 2 8 1 9 3 10 81 11 82 12 85 13
REMARK SMILES IDX 83 14 84 15 86 16 87 17 88 18 89 19 90 20 91 21 11 22 12 23
REMARK SMILES IDX 13 24 14 25 15 26 16 27 17 28 18 29 19 30 80 31 20 32 79 33
REMARK SMILES IDX 21 34 22 35 23 36 73 37 24 38 78 39 72 40 74 41 25 42 77 43
REMARK SMILES IDX 71 44 70 45 26 47 58 48 38 49 57 50 39 51 42 52 56 53 75 54
REMARK SMILES IDX 40 55 41 56 55 58 76 59 43 60 27 61 28 62 36 63 29 64 31 65
REMARK SMILES IDX 37 66 30 67 32 68 33 69 34 70 35 71 59 72 60 73 68 74 61 75
REMARK SMILES IDX 63 76 69 77 62 78 64 79 65 80 66 81 67 82 44 83 45 84 53 85
REMARK SMILES IDX 46 86 48 87 54 88 47 89 49 90 50 91 51 92 52 93
REMARK H PARENT 74 46 42 57
REMARK Flexibility Score: inf
ROOT
ATOM      1  C   UNL A   1      47.097  42.809  25.181  1.00  0.00     0.188 C 
ENDROOT
BRANCH   1   2
ATOM      2  O   UNL A   1      46.964  41.656  24.361  1.00  0.00    -0.376 OA
BRANCH   2   3
ATOM      3  C   UNL A   1      47.150  41.788  22.957  1.00  0.00     0.202 C 
BRANCH   3   4
ATOM      4  C   UNL A   1      46.056  42.448  22.095  1.00  0.00     0.261 C 
BRANCH   4   5
ATOM      5  O   UNL A   1      46.455  43.627  21.353  1.00  0.00    -0.461 OA
BRANCH   5   6
ATOM      6  C   UNL A   1      45.514  44.604  21.218  1.00  0.00     0.333 C 
ATOM      7  O   UNL A   1      44.815  44.995  22.151  1.00  0.00    -0.249 OA
BRANCH   6   8
ATOM      8  C   UNL A   1      45.259  45.082  19.749  1.00  0.00     0.158 C 
ATOM      9  C   UNL A   1      44.986  46.588  19.533  1.00  0.00     0.049 C 
ATOM     10  C   UNL A   1      46.643  44.772  19.161  1.00  0.00     0.049 C 
BRANCH   8  11
ATOM     11  N   UNL A   1      44.082  44.339  19.270  1.00  0.00    -0.207 N 
ATOM     12  N   UNL A   1      43.468  43.622  20.256  1.00  0.00    -0.044 NA
ATOM     13  C   UNL A   1      43.270  44.264  18.150  1.00  0.00     0.228 A 
ATOM     14  N   UNL A   1      42.458  42.991  19.707  1.00  0.00    -0.024 NA
ATOM     15  N   UNL A   1      42.320  43.374  18.422  1.00  0.00    -0.107 NA
BRANCH  13  16
ATOM     16  C   UNL A   1      43.196  44.977  16.842  1.00  0.00     0.367 C 
ATOM     17  F   UNL A   1      44.449  45.419  16.494  1.00  0.00    -0.191 F 
ATOM     18  F   UNL A   1      42.886  44.051  15.869  1.00  0.00    -0.191 F 
BRANCH  16  19
ATOM     19  C   UNL A   1      42.254  46.128  16.612  1.00  0.00     0.419 C 
ATOM     20  F   UNL A   1      41.487  46.368  17.705  1.00  0.00    -0.203 F 
ATOM     21  F   UNL A   1      42.917  47.271  16.314  1.00  0.00    -0.203 F 
ENDBRANCH  16  19
ENDBRANCH  13  16
ENDBRANCH   8  11
ENDBRANCH   6   8
ENDBRANCH   5   6
ENDBRANCH   4   5
ENDBRANCH   3   4
ENDBRANCH   2   3
ENDBRANCH   1   2
BRANCH   1  22
ATOM     22  C   UNL A   1      45.910  43.778  25.243  1.00  0.00     0.188 C 
BRANCH  22  23
ATOM     23  O   UNL A   1      44.709  43.224  25.733  1.00  0.00    -0.376 OA
BRANCH  23  24
ATOM     24  C   UNL A   1      43.672  42.938  24.811  1.00  0.00     0.202 C 
BRANCH  24  25
ATOM     25  C   UNL A   1      42.719  41.749  25.031  1.00  0.00     0.261 C 
BRANCH  25  26
ATOM     26  O   UNL A   1      42.684  41.161  26.340  1.00  0.00    -0.460 OA
BRANCH  26  27
ATOM     27  C   UNL A   1      41.552  40.504  26.706  1.00  0.00     0.338 C 
ATOM     28  O   UNL A   1      40.415  40.813  26.427  1.00  0.00    -0.246 OA
BRANCH  27  29
ATOM     29  C   UNL A   1      41.975  39.196  27.277  1.00  0.00     0.060 A 
ATOM     30  C   UNL A   1      41.959  38.058  26.457  1.00  0.00     0.016 A 
ATOM     31  C   UNL A   1      42.430  39.105  28.593  1.00  0.00     0.016 A 
ATOM     32  C   UNL A   1      42.370  36.819  26.959  1.00  0.00     0.010 A 
ATOM     33  C   UNL A   1      42.813  37.861  29.102  1.00  0.00     0.010 A 
ATOM     34  C   UNL A   1      42.753  36.705  28.300  1.00  0.00    -0.014 A 
BRANCH  34  35
ATOM     35  C   UNL A   1      42.875  35.367  28.936  1.00  0.00     0.031 A 
ATOM     36  C   UNL A   1      41.610  34.681  29.380  1.00  0.00     0.074 A 
ATOM     37  C   UNL A   1      44.066  34.779  29.148  1.00  0.00     0.049 A 
ATOM     38  N   UNL A   1      41.456  33.568  30.048  1.00  0.00    -0.248 NA
ATOM     39  C   UNL A   1      40.346  35.349  29.026  1.00  0.00     0.031 C 
ATOM     40  C   UNL A   1      45.362  35.315  28.743  1.00  0.00     0.029 A 
ATOM     41  N   UNL A   1      44.371  33.605  29.794  1.00  0.00    -0.354 N 
ATOM     42  C   UNL A   1      40.086  33.422  30.228  1.00  0.00     0.074 A 
ATOM     43  C   UNL A   1      39.453  34.565  29.608  1.00  0.00     0.031 C 
ATOM     44  C   UNL A   1      46.329  34.492  29.188  1.00  0.00     0.029 A 
ATOM     45  C   UNL A   1      45.722  33.390  29.932  1.00  0.00     0.049 A 
ATOM     46  H   UNL A   1      43.688  32.979  30.126  1.00  0.00     0.167 HD
ATOM     47  C   UNL A   1      39.411  32.426  30.847  1.00  0.00     0.034 A 
ATOM     48  C   UNL A   1      46.389  32.430  30.607  1.00  0.00     0.034 A 
ATOM     49  C   UNL A   1      40.036  31.282  31.453  1.00  0.00     0.049 A 
ATOM     50  C   UNL A   1      45.616  31.351  31.327  1.00  0.00     0.074 A 
ATOM     51  C   UNL A   1      39.432  30.199  32.066  1.00  0.00     0.029 A 
ATOM     52  N   UNL A   1      41.404  31.080  31.540  1.00  0.00    -0.354 N 
ATOM     53  N   UNL A   1      44.320  31.170  31.404  1.00  0.00    -0.248 NA
ATOM     54  C   UNL A   1      46.403  30.323  32.027  1.00  0.00     0.031 C 
ATOM     55  C   UNL A   1      40.437  29.362  32.561  1.00  0.00     0.029 A 
ATOM     56  C   UNL A   1      41.666  29.899  32.212  1.00  0.00     0.049 A 
ATOM     57  H   UNL A   1      42.089  31.687  31.177  1.00  0.00     0.167 HD
ATOM     58  C   UNL A   1      44.138  29.989  32.121  1.00  0.00     0.074 A 
ATOM     59  C   UNL A   1      45.458  29.490  32.443  1.00  0.00     0.031 C 
ATOM     60  C   UNL A   1      42.981  29.380  32.484  1.00  0.00     0.034 A 
BRANCH  47  61
ATOM     61  C   UNL A   1      37.909  32.528  30.896  1.00  0.00     0.023 A 
ATOM     62  C   UNL A   1      37.128  31.911  29.898  1.00  0.00     0.012 A 
ATOM     63  C   UNL A   1      37.270  33.201  31.955  1.00  0.00     0.148 A 
ATOM     64  C   UNL A   1      35.736  31.996  29.933  1.00  0.00     0.002 A 
ATOM     65  C   UNL A   1      35.884  33.238  32.011  1.00  0.00     0.091 A 
ATOM     66  F   UNL A   1      38.031  33.801  32.883  1.00  0.00    -0.205 F 
ATOM     67  C   UNL A   1      35.116  32.649  30.994  1.00  0.00     0.022 A 
BRANCH  65  68
ATOM     68  S   UNL A   1      34.988  33.983  33.377  1.00  0.00     0.127 S 
ATOM     69  O   UNL A   1      35.374  35.388  33.253  1.00  0.00    -0.237 OA
ATOM     70  O   UNL A   1      33.597  33.701  33.022  1.00  0.00    -0.237 OA
ATOM     71  O   UNL A   1      35.456  33.312  34.581  1.00  0.00    -0.744 OA
ENDBRANCH  65  68
ENDBRANCH  47  61
BRANCH  48  72
ATOM     72  C   UNL A   1      47.881  32.427  30.627  1.00  0.00     0.023 A 
ATOM     73  C   UNL A   1      48.589  31.729  29.630  1.00  0.00     0.012 A 
ATOM     74  C   UNL A   1      48.600  33.103  31.632  1.00  0.00     0.148 A 
ATOM     75  C   UNL A   1      49.983  31.672  29.652  1.00  0.00     0.002 A 
ATOM     76  C   UNL A   1      49.990  33.089  31.619  1.00  0.00     0.091 A 
ATOM     77  F   UNL A   1      47.909  33.747  32.584  1.00  0.00    -0.205 F 
ATOM     78  C   UNL A   1      50.683  32.359  30.640  1.00  0.00     0.022 A 
BRANCH  76  79
ATOM     79  S   UNL A   1      50.982  34.028  32.786  1.00  0.00     0.127 S 
ATOM     80  O   UNL A   1      52.326  33.863  32.236  1.00  0.00    -0.237 OA
ATOM     81  O   UNL A   1      50.420  35.371  32.645  1.00  0.00    -0.237 OA
ATOM     82  O   UNL A   1      50.757  33.410  34.086  1.00  0.00    -0.744 OA
ENDBRANCH  76  79
ENDBRANCH  48  72
BRANCH  60  83
ATOM     83  C   UNL A   1      43.073  28.069  33.228  1.00  0.00     0.023 A 
ATOM     84  C   UNL A   1      43.591  26.925  32.589  1.00  0.00     0.012 A 
ATOM     85  C   UNL A   1      42.721  27.996  34.591  1.00  0.00     0.148 A 
ATOM     86  C   UNL A   1      43.724  25.723  33.284  1.00  0.00     0.002 A 
ATOM     87  C   UNL A   1      42.905  26.810  35.292  1.00  0.00     0.091 A 
ATOM     88  F   UNL A   1      42.217  29.090  35.181  1.00  0.00    -0.205 F 
ATOM     89  C   UNL A   1      43.393  25.668  34.636  1.00  0.00     0.022 A 
BRANCH  87  90
ATOM     90  S   UNL A   1      42.603  26.672  37.058  1.00  0.00     0.127 S 
ATOM     91  O   UNL A   1      42.972  25.281  37.316  1.00  0.00    -0.237 OA
ATOM     92  O   UNL A   1      43.531  27.661  37.608  1.00  0.00    -0.237 OA
ATOM     93  O   UNL A   1      41.195  26.990  37.253  1.00  0.00    -0.744 OA
ENDBRANCH  87  90
ENDBRANCH  60  83
ENDBRANCH  34  35
ENDBRANCH  27  29
ENDBRANCH  26  27
ENDBRANCH  25  26
ENDBRANCH  24  25
ENDBRANCH  23  24
ENDBRANCH  22  23
ENDBRANCH   1  22
TORSDOF 23
ENDMDL
MODEL 3
REMARK VINA RESULT:      -8.6      9.045     16.649
REMARK SMILES CC(C)(C(=O)OCCOCCOCCOC(=O)c1ccc(-c2c3nc(c(-c4cccc(S(=O)(=O)[O-])c4F)c4ccc([nH]4)c(-c4cccc(S(=O)(=O)[O-])c4F)c4nc(c(-c5cccc(S(=O)(=O)[O-])c5F)c5ccc2[nH]5)C=C4)C=C3)cc1)n1nnnc1C(F)(F)C(F)F
REMARK SMILES IDX 10 1 9 2 8 3 7 4 6 5 4 6 5 7 2 8 1 9 3 10 81 11 82 12 85 13
REMARK SMILES IDX 83 14 84 15 86 16 87 17 88 18 89 19 90 20 91 21 11 22 12 23
REMARK SMILES IDX 13 24 14 25 15 26 16 27 17 28 18 29 19 30 80 31 20 32 79 33
REMARK SMILES IDX 21 34 22 35 23 36 73 37 24 38 78 39 72 40 74 41 25 42 77 43
REMARK SMILES IDX 71 44 70 45 26 47 58 48 38 49 57 50 39 51 42 52 56 53 75 54
REMARK SMILES IDX 40 55 41 56 55 58 76 59 43 60 27 61 28 62 36 63 29 64 31 65
REMARK SMILES IDX 37 66 30 67 32 68 33 69 34 70 35 71 59 72 60 73 68 74 61 75
REMARK SMILES IDX 63 76 69 77 62 78 64 79 65 80 66 81 67 82 44 83 45 84 53 85
REMARK SMILES IDX 46 86 48 87 54 88 47 89 49 90 50 91 51 92 52 93
REMARK H PARENT 74 46 42 57
REMARK Flexibility Score: inf
ROOT
ATOM      1  C   UNL A   1      44.431  43.737  21.751  1.00  0.00     0.188 C 
ENDROOT
BRANCH   1   2
ATOM      2  O   UNL A   1      43.070  43.863  21.365  1.00  0.00    -0.376 OA
BRANCH   2   3
ATOM      3  C   UNL A   1      42.511  42.885  20.495  1.00  0.00     0.202 C 
BRANCH   3   4
ATOM      4  C   UNL A   1      42.707  43.011  18.971  1.00  0.00     0.261 C 
BRANCH   4   5
ATOM      5  O   UNL A   1      42.469  44.322  18.404  1.00  0.00    -0.461 OA
BRANCH   5   6
ATOM      6  C   UNL A   1      43.294  44.701  17.387  1.00  0.00     0.333 C 
ATOM      7  O   UNL A   1      43.548  43.978  16.425  1.00  0.00    -0.249 OA
BRANCH   6   8
ATOM      8  C   UNL A   1      44.038  46.061  17.607  1.00  0.00     0.158 C 
ATOM      9  C   UNL A   1      44.238  46.530  19.066  1.00  0.00     0.049 C 
ATOM     10  C   UNL A   1      45.414  45.665  17.053  1.00  0.00     0.049 C 
BRANCH   8  11
ATOM     11  N   UNL A   1      43.241  47.085  16.911  1.00  0.00    -0.207 N 
ATOM     12  N   UNL A   1      42.017  46.629  16.515  1.00  0.00    -0.044 NA
ATOM     13  C   UNL A   1      43.260  48.450  16.673  1.00  0.00     0.228 A 
ATOM     14  N   UNL A   1      41.417  47.615  15.893  1.00  0.00    -0.024 NA
ATOM     15  N   UNL A   1      42.160  48.736  15.983  1.00  0.00    -0.107 NA
BRANCH  13  16
ATOM     16  C   UNL A   1      44.143  49.585  17.069  1.00  0.00     0.367 C 
ATOM     17  F   UNL A   1      45.457  49.194  16.973  1.00  0.00    -0.191 F 
ATOM     18  F   UNL A   1      44.018  50.574  16.117  1.00  0.00    -0.191 F 
BRANCH  16  19
ATOM     19  C   UNL A   1      43.997  50.285  18.393  1.00  0.00     0.419 C 
ATOM     20  F   UNL A   1      42.733  50.182  18.874  1.00  0.00    -0.203 F 
ATOM     21  F   UNL A   1      44.837  49.777  19.327  1.00  0.00    -0.203 F 
ENDBRANCH  16  19
ENDBRANCH  13  16
ENDBRANCH   8  11
ENDBRANCH   6   8
ENDBRANCH   5   6
ENDBRANCH   4   5
ENDBRANCH   3   4
ENDBRANCH   2   3
ENDBRANCH   1   2
BRANCH   1  22
ATOM     22  C   UNL A   1      44.724  43.209  23.161  1.00  0.00     0.188 C 
BRANCH  22  23
ATOM     23  O   UNL A   1      43.587  42.966  23.958  1.00  0.00    -0.376 OA
BRANCH  23  24
ATOM     24  C   UNL A   1      43.745  42.209  25.146  1.00  0.00     0.202 C 
BRANCH  24  25
ATOM     25  C   UNL A   1      42.763  41.079  25.506  1.00  0.00     0.261 C 
BRANCH  25  26
ATOM     26  O   UNL A   1      42.354  40.969  26.877  1.00  0.00    -0.460 OA
BRANCH  26  27
ATOM     27  C   UNL A   1      43.316  40.724  27.805  1.00  0.00     0.338 C 
ATOM     28  O   UNL A   1      43.972  41.550  28.401  1.00  0.00    -0.246 OA
BRANCH  27  29
ATOM     29  C   UNL A   1      43.230  39.279  28.149  1.00  0.00     0.060 A 
ATOM     30  C   UNL A   1      43.721  38.844  29.390  1.00  0.00     0.016 A 
ATOM     31  C   UNL A   1      42.625  38.372  27.278  1.00  0.00     0.016 A 
ATOM     32  C   UNL A   1      43.636  37.497  29.751  1.00  0.00     0.010 A 
ATOM     33  C   UNL A   1      42.566  37.019  27.629  1.00  0.00     0.010 A 
ATOM     34  C   UNL A   1      43.102  36.568  28.850  1.00  0.00    -0.014 A 
BRANCH  34  35
ATOM     35  C   UNL A   1      43.298  35.111  29.068  1.00  0.00     0.031 A 
ATOM     36  C   UNL A   1      42.103  34.295  29.487  1.00  0.00     0.074 A 
ATOM     37  C   UNL A   1      44.499  34.520  28.934  1.00  0.00     0.049 A 
ATOM     38  N   UNL A   1      42.034  33.038  29.838  1.00  0.00    -0.248 NA
ATOM     39  C   UNL A   1      40.811  35.000  29.519  1.00  0.00     0.031 C 
ATOM     40  C   UNL A   1      45.728  35.181  28.507  1.00  0.00     0.029 A 
ATOM     41  N   UNL A   1      44.879  33.222  29.180  1.00  0.00    -0.354 N 
ATOM     42  C   UNL A   1      40.703  32.812  30.170  1.00  0.00     0.074 A 
ATOM     43  C   UNL A   1      40.002  34.064  29.987  1.00  0.00     0.031 C 
ATOM     44  C   UNL A   1      46.739  34.294  28.562  1.00  0.00     0.029 A 
ATOM     45  C   UNL A   1      46.232  33.014  29.055  1.00  0.00     0.049 A 
ATOM     46  H   UNL A   1      44.244  32.510  29.423  1.00  0.00     0.167 HD
ATOM     47  C   UNL A   1      40.113  31.666  30.582  1.00  0.00     0.034 A 
ATOM     48  C   UNL A   1      46.978  31.924  29.335  1.00  0.00     0.034 A 
ATOM     49  C   UNL A   1      40.804  30.417  30.752  1.00  0.00     0.049 A 
ATOM     50  C   UNL A   1      46.305  30.669  29.834  1.00  0.00     0.074 A 
ATOM     51  C   UNL A   1      40.282  29.191  31.124  1.00  0.00     0.029 A 
ATOM     52  N   UNL A   1      42.167  30.236  30.579  1.00  0.00    -0.354 N 
ATOM     53  N   UNL A   1      45.031  30.439  30.048  1.00  0.00    -0.248 NA
ATOM     54  C   UNL A   1      47.171  29.510  30.102  1.00  0.00     0.031 C 
ATOM     55  C   UNL A   1      41.337  28.278  31.219  1.00  0.00     0.029 A 
ATOM     56  C   UNL A   1      42.508  28.924  30.855  1.00  0.00     0.049 A 
ATOM     57  H   UNL A   1      42.799  30.938  30.301  1.00  0.00     0.167 HD
ATOM     58  C   UNL A   1      44.940  29.102  30.431  1.00  0.00     0.074 A 
ATOM     59  C   UNL A   1      46.286  28.570  30.407  1.00  0.00     0.031 C 
ATOM     60  C   UNL A   1      43.842  28.386  30.778  1.00  0.00     0.034 A 
BRANCH  47  61
ATOM     61  C   UNL A   1      38.636  31.711  30.877  1.00  0.00     0.023 A 
ATOM     62  C   UNL A   1      38.188  31.805  32.210  1.00  0.00     0.012 A 
ATOM     63  C   UNL A   1      37.695  31.701  29.830  1.00  0.00     0.148 A 
ATOM     64  C   UNL A   1      36.824  31.851  32.498  1.00  0.00     0.002 A 
ATOM     65  C   UNL A   1      36.341  31.798  30.122  1.00  0.00     0.091 A 
ATOM     66  F   UNL A   1      38.141  31.588  28.570  1.00  0.00    -0.205 F 
ATOM     67  C   UNL A   1      35.903  31.858  31.454  1.00  0.00     0.022 A 
BRANCH  65  68
ATOM     68  S   UNL A   1      35.080  31.897  28.846  1.00  0.00     0.127 S 
ATOM     69  O   UNL A   1      33.931  32.389  29.605  1.00  0.00    -0.237 OA
ATOM     70  O   UNL A   1      35.659  32.870  27.919  1.00  0.00    -0.237 OA
ATOM     71  O   UNL A   1      34.942  30.552  28.308  1.00  0.00    -0.744 OA
ENDBRANCH  65  68
ENDBRANCH  47  61
BRANCH  48  72
ATOM     72  C   UNL A   1      48.456  31.956  29.134  1.00  0.00     0.023 A 
ATOM     73  C   UNL A   1      49.300  32.237  30.226  1.00  0.00     0.012 A 
ATOM     74  C   UNL A   1      49.028  31.721  27.868  1.00  0.00     0.148 A 
ATOM     75  C   UNL A   1      50.683  32.319  30.056  1.00  0.00     0.002 A 
ATOM     76  C   UNL A   1      50.409  31.751  27.716  1.00  0.00     0.091 A 
ATOM     77  F   UNL A   1      48.207  31.474  26.837  1.00  0.00    -0.205 F 
ATOM     78  C   UNL A   1      51.237  32.067  28.804  1.00  0.00     0.022 A 
BRANCH  76  79
ATOM     79  S   UNL A   1      51.224  31.337  26.169  1.00  0.00     0.127 S 
ATOM     80  O   UNL A   1      50.781  32.424  25.298  1.00  0.00    -0.237 OA
ATOM     81  O   UNL A   1      52.635  31.391  26.549  1.00  0.00    -0.237 OA
ATOM     82  O   UNL A   1      50.743  30.011  25.808  1.00  0.00    -0.744 OA
ENDBRANCH  76  79
ENDBRANCH  48  72
BRANCH  60  83
ATOM     83  C   UNL A   1      44.024  26.924  31.110  1.00  0.00     0.023 A 
ATOM     84  C   UNL A   1      43.965  25.951  30.092  1.00  0.00     0.012 A 
ATOM     85  C   UNL A   1      44.337  26.526  32.427  1.00  0.00     0.148 A 
ATOM     86  C   UNL A   1      44.180  24.604  30.385  1.00  0.00     0.002 A 
ATOM     87  C   UNL A   1      44.603  25.189  32.701  1.00  0.00     0.091 A 
ATOM     88  F   UNL A   1      44.376  27.461  33.386  1.00  0.00    -0.205 F 
ATOM     89  C   UNL A   1      44.510  24.225  31.684  1.00  0.00     0.022 A 
BRANCH  87  90
ATOM     90  S   UNL A   1      45.134  24.620  34.321  1.00  0.00     0.127 S 
ATOM     91  O   UNL A   1      45.310  23.187  34.091  1.00  0.00    -0.237 OA
ATOM     92  O   UNL A   1      46.380  25.363  34.515  1.00  0.00    -0.237 OA
ATOM     93  O   UNL A   1      44.066  24.977  35.245  1.00  0.00    -0.744 OA
ENDBRANCH  87  90
ENDBRANCH  60  83
ENDBRANCH  34  35
ENDBRANCH  27  29
ENDBRANCH  26  27
ENDBRANCH  25  26
ENDBRANCH  24  25
ENDBRANCH  23  24
ENDBRANCH  22  23
ENDBRANCH   1  22
TORSDOF 23
ENDMDL
