MODEL 1
REMARK VINA RESULT:     -10.8      0.000      0.000
REMARK SMILES O=C(CCCN1C(=O)/C(=C\c2ccc(O)cc2O)SC1=S)OCCOCCOCCOC(=O)c1ccc(-c2c3nc(c(-c4cccc(S(=O)(=O)[O-])c4F)c4ccc([nH]4)c(-c4cccc(S(=O)(=O)[O-])c4F)c4nc(c(-c5cccc(S(=O)(=O)[O-])c5F)c5ccc2[nH]5)C=C4)C=C3)cc1
REMARK SMILES IDX 26 1 25 2 24 3 23 4 22 5 2 6 1 7 3 8 4 9 5 10 6 11 7 12
REMARK SMILES IDX 20 13 8 14 9 15 19 16 21 17 10 18 11 19 12 20 17 21 13 22
REMARK SMILES IDX 16 23 14 24 18 25 15 27 27 29 28 30 29 31 30 32 31 33 32 34
REMARK SMILES IDX 33 35 34 36 35 37 96 38 36 39 95 40 37 41 38 42 39 43 89 44
REMARK SMILES IDX 40 45 94 46 88 47 90 48 41 49 93 50 87 51 86 52 42 54 74 55
REMARK SMILES IDX 54 56 73 57 55 58 58 59 72 60 91 61 56 62 57 63 71 65 92 66
REMARK SMILES IDX 59 67 43 68 44 69 52 70 45 71 47 72 53 73 46 74 48 75 49 76
REMARK SMILES IDX 50 77 51 78 75 79 76 80 84 81 77 82 79 83 85 84 78 85 80 86
REMARK SMILES IDX 81 87 82 88 83 89 60 90 61 91 69 92 62 93 64 94 70 95 63 96
REMARK SMILES IDX 65 97 66 98 67 99 68 100
REMARK H PARENT 18 26 15 28 90 53 58 64
REMARK Flexibility Score: inf
ROOT
ATOM      1  C   UNL A   1      42.962  18.363  26.750  1.00  0.00     0.188 C 
ENDROOT
BRANCH   1   2
ATOM      2  O   UNL A   1      42.054  19.237  27.400  1.00  0.00    -0.376 OA
BRANCH   2   3
ATOM      3  C   UNL A   1      41.035  19.823  26.603  1.00  0.00     0.202 C 
BRANCH   3   4
ATOM      4  C   UNL A   1      40.557  21.222  26.966  1.00  0.00     0.261 C 
BRANCH   4   5
ATOM      5  O   UNL A   1      39.755  21.990  26.039  1.00  0.00    -0.463 OA
BRANCH   5   6
ATOM      6  C   UNL A   1      38.706  22.807  26.235  1.00  0.00     0.305 C 
ATOM      7  O   UNL A   1      38.838  23.774  26.985  1.00  0.00    -0.252 OA
BRANCH   6   8
ATOM      8  C   UNL A   1      37.451  22.629  25.424  1.00  0.00     0.124 C 
BRANCH   8   9
ATOM      9  C   UNL A   1      36.364  23.652  25.730  1.00  0.00     0.034 C 
BRANCH   9  10
ATOM     10  C   UNL A   1      35.171  23.714  24.762  1.00  0.00     0.128 C 
BRANCH  10  11
ATOM     11  N   UNL A   1      33.796  23.857  25.280  1.00  0.00    -0.293 N 
ATOM     12  C   UNL A   1      33.063  25.017  25.099  1.00  0.00     0.266 C 
ATOM     13  C   UNL A   1      33.126  22.831  25.924  1.00  0.00     0.148 C 
ATOM     14  O   UNL A   1      33.470  26.037  24.563  1.00  0.00    -0.268 OA
ATOM     15  C   UNL A   1      31.703  24.896  25.709  1.00  0.00     0.081 C 
ATOM     16  S   UNL A   1      31.586  23.407  26.559  1.00  0.00    -0.054 SA
ATOM     17  S   UNL A   1      33.624  21.252  26.154  1.00  0.00    -0.052 S 
ATOM     18  C   UNL A   1      30.680  25.756  25.580  1.00  0.00     0.033 C 
BRANCH  18  19
ATOM     19  C   UNL A   1      30.708  26.894  24.650  1.00  0.00     0.018 A 
ATOM     20  C   UNL A   1      30.341  26.651  23.312  1.00  0.00     0.016 A 
ATOM     21  C   UNL A   1      31.094  28.190  25.016  1.00  0.00     0.126 A 
ATOM     22  C   UNL A   1      30.459  27.649  22.344  1.00  0.00     0.047 A 
ATOM     23  C   UNL A   1      31.165  29.203  24.059  1.00  0.00     0.092 A 
ATOM     24  C   UNL A   1      30.888  28.912  22.725  1.00  0.00     0.119 A 
BRANCH  21  25
ATOM     25  O   UNL A   1      31.441  28.518  26.299  1.00  0.00    -0.507 OA
ATOM     26  H   UNL A   1      30.988  29.205  26.746  1.00  0.00     0.293 HD
ENDBRANCH  21  25
BRANCH  24  27
ATOM     27  O   UNL A   1      31.027  29.901  21.798  1.00  0.00    -0.508 OA
ATOM     28  H   UNL A   1      31.828  30.383  21.743  1.00  0.00     0.293 HD
ENDBRANCH  24  27
ENDBRANCH  18  19
ENDBRANCH  10  11
ENDBRANCH   9  10
ENDBRANCH   8   9
ENDBRANCH   6   8
ENDBRANCH   5   6
ENDBRANCH   4   5
ENDBRANCH   3   4
ENDBRANCH   2   3
ENDBRANCH   1   2
BRANCH   1  29
ATOM     29  C   UNL A   1      43.353  18.767  25.330  1.00  0.00     0.188 C 
BRANCH  29  30
ATOM     30  O   UNL A   1      44.704  19.215  25.253  1.00  0.00    -0.376 OA
BRANCH  30  31
ATOM     31  C   UNL A   1      44.837  20.582  24.859  1.00  0.00     0.202 C 
BRANCH  31  32
ATOM     32  C   UNL A   1      44.187  21.650  25.765  1.00  0.00     0.261 C 
BRANCH  32  33
ATOM     33  O   UNL A   1      43.448  22.703  25.124  1.00  0.00    -0.460 OA
BRANCH  33  34
ATOM     34  C   UNL A   1      44.071  23.894  24.978  1.00  0.00     0.338 C 
ATOM     35  O   UNL A   1      44.948  24.160  24.176  1.00  0.00    -0.246 OA
BRANCH  34  36
ATOM     36  C   UNL A   1      43.451  24.871  25.899  1.00  0.00     0.060 A 
ATOM     37  C   UNL A   1      43.975  26.166  25.987  1.00  0.00     0.016 A 
ATOM     38  C   UNL A   1      42.394  24.484  26.726  1.00  0.00     0.016 A 
ATOM     39  C   UNL A   1      43.446  27.075  26.907  1.00  0.00     0.010 A 
ATOM     40  C   UNL A   1      41.876  25.391  27.659  1.00  0.00     0.010 A 
ATOM     41  C   UNL A   1      42.415  26.684  27.773  1.00  0.00    -0.014 A 
BRANCH  41  42
ATOM     42  C   UNL A   1      41.997  27.573  28.889  1.00  0.00     0.031 A 
ATOM     43  C   UNL A   1      42.717  27.476  30.208  1.00  0.00     0.074 A 
ATOM     44  C   UNL A   1      40.977  28.439  28.745  1.00  0.00     0.049 A 
ATOM     45  N   UNL A   1      42.497  28.123  31.323  1.00  0.00    -0.248 NA
ATOM     46  C   UNL A   1      43.838  26.524  30.276  1.00  0.00     0.031 C 
ATOM     47  C   UNL A   1      40.199  28.630  27.523  1.00  0.00     0.029 A 
ATOM     48  N   UNL A   1      40.401  29.297  29.650  1.00  0.00    -0.354 N 
ATOM     49  C   UNL A   1      43.430  27.638  32.233  1.00  0.00     0.074 A 
ATOM     50  C   UNL A   1      44.219  26.644  31.539  1.00  0.00     0.031 C 
ATOM     51  C   UNL A   1      39.219  29.517  27.766  1.00  0.00     0.029 A 
ATOM     52  C   UNL A   1      39.283  29.937  29.165  1.00  0.00     0.049 A 
ATOM     53  H   UNL A   1      40.753  29.441  30.558  1.00  0.00     0.167 HD
ATOM     54  C   UNL A   1      43.617  27.994  33.527  1.00  0.00     0.034 A 
ATOM     55  C   UNL A   1      38.396  30.740  29.788  1.00  0.00     0.034 A 
ATOM     56  C   UNL A   1      42.835  28.983  34.217  1.00  0.00     0.049 A 
ATOM     57  C   UNL A   1      38.613  31.100  31.238  1.00  0.00     0.074 A 
ATOM     58  C   UNL A   1      42.983  29.443  35.514  1.00  0.00     0.029 A 
ATOM     59  N   UNL A   1      41.744  29.649  33.679  1.00  0.00    -0.354 N 
ATOM     60  N   UNL A   1      39.582  30.740  32.044  1.00  0.00    -0.248 NA
ATOM     61  C   UNL A   1      37.631  32.006  31.856  1.00  0.00     0.031 C 
ATOM     62  C   UNL A   1      41.960  30.360  35.772  1.00  0.00     0.029 A 
ATOM     63  C   UNL A   1      41.199  30.502  34.622  1.00  0.00     0.049 A 
ATOM     64  H   UNL A   1      41.409  29.531  32.761  1.00  0.00     0.167 HD
ATOM     65  C   UNL A   1      39.349  31.402  33.246  1.00  0.00     0.074 A 
ATOM     66  C   UNL A   1      38.160  32.205  33.056  1.00  0.00     0.031 C 
ATOM     67  C   UNL A   1      40.048  31.340  34.408  1.00  0.00     0.034 A 
BRANCH  54  68
ATOM     68  C   UNL A   1      44.727  27.317  34.288  1.00  0.00     0.023 A 
ATOM     69  C   UNL A   1      46.052  27.777  34.148  1.00  0.00     0.012 A 
ATOM     70  C   UNL A   1      44.447  26.280  35.200  1.00  0.00     0.148 A 
ATOM     71  C   UNL A   1      47.086  27.200  34.884  1.00  0.00     0.002 A 
ATOM     72  C   UNL A   1      45.475  25.740  35.963  1.00  0.00     0.091 A 
ATOM     73  F   UNL A   1      43.183  25.846  35.305  1.00  0.00    -0.205 F 
ATOM     74  C   UNL A   1      46.795  26.191  35.799  1.00  0.00     0.022 A 
BRANCH  72  75
ATOM     75  S   UNL A   1      45.196  24.493  37.225  1.00  0.00     0.127 S 
ATOM     76  O   UNL A   1      45.136  23.271  36.424  1.00  0.00    -0.237 OA
ATOM     77  O   UNL A   1      46.395  24.620  38.052  1.00  0.00    -0.237 OA
ATOM     78  O   UNL A   1      43.954  24.860  37.891  1.00  0.00    -0.744 OA
ENDBRANCH  72  75
ENDBRANCH  54  68
BRANCH  55  79
ATOM     79  C   UNL A   1      37.223  31.278  29.040  1.00  0.00     0.023 A 
ATOM     80  C   UNL A   1      37.138  32.658  28.770  1.00  0.00     0.012 A 
ATOM     81  C   UNL A   1      36.191  30.427  28.594  1.00  0.00     0.148 A 
ATOM     82  C   UNL A   1      36.027  33.185  28.110  1.00  0.00     0.002 A 
ATOM     83  C   UNL A   1      35.120  30.948  27.879  1.00  0.00     0.091 A 
ATOM     84  F   UNL A   1      36.272  29.120  28.879  1.00  0.00    -0.205 F 
ATOM     85  C   UNL A   1      35.024  32.331  27.656  1.00  0.00     0.022 A 
BRANCH  83  86
ATOM     86  S   UNL A   1      33.864  29.889  27.143  1.00  0.00     0.127 S 
ATOM     87  O   UNL A   1      33.498  29.034  28.266  1.00  0.00    -0.237 OA
ATOM     88  O   UNL A   1      32.840  30.860  26.752  1.00  0.00    -0.237 OA
ATOM     89  O   UNL A   1      34.506  29.219  26.013  1.00  0.00    -0.744 OA
ENDBRANCH  83  86
ENDBRANCH  55  79
BRANCH  67  90
ATOM     90  C   UNL A   1      39.580  32.192  35.561  1.00  0.00     0.023 A 
ATOM     91  C   UNL A   1      39.939  33.553  35.624  1.00  0.00     0.012 A 
ATOM     92  C   UNL A   1      38.718  31.662  36.543  1.00  0.00     0.148 A 
ATOM     93  C   UNL A   1      39.478  34.363  36.661  1.00  0.00     0.002 A 
ATOM     94  C   UNL A   1      38.220  32.488  37.545  1.00  0.00     0.091 A 
ATOM     95  F   UNL A   1      38.397  30.362  36.477  1.00  0.00    -0.205 F 
ATOM     96  C   UNL A   1      38.609  33.834  37.614  1.00  0.00     0.022 A 
BRANCH  94  97
ATOM     97  S   UNL A   1      37.020  31.920  38.757  1.00  0.00     0.127 S 
ATOM     98  O   UNL A   1      36.936  30.494  38.448  1.00  0.00    -0.237 OA
ATOM     99  O   UNL A   1      37.686  32.232  40.021  1.00  0.00    -0.237 OA
ATOM    100  O   UNL A   1      35.805  32.685  38.507  1.00  0.00    -0.744 OA
ENDBRANCH  94  97
ENDBRANCH  67  90
ENDBRANCH  41  42
ENDBRANCH  34  36
ENDBRANCH  33  34
ENDBRANCH  32  33
ENDBRANCH  31  32
ENDBRANCH  30  31
ENDBRANCH  29  30
ENDBRANCH   1  29
TORSDOF 26
ENDMDL
MODEL 2
REMARK VINA RESULT:     -10.1      2.909      9.522
REMARK SMILES O=C(CCCN1C(=O)/C(=C\c2ccc(O)cc2O)SC1=S)OCCOCCOCCOC(=O)c1ccc(-c2c3nc(c(-c4cccc(S(=O)(=O)[O-])c4F)c4ccc([nH]4)c(-c4cccc(S(=O)(=O)[O-])c4F)c4nc(c(-c5cccc(S(=O)(=O)[O-])c5F)c5ccc2[nH]5)C=C4)C=C3)cc1
REMARK SMILES IDX 26 1 25 2 24 3 23 4 22 5 2 6 1 7 3 8 4 9 5 10 6 11 7 12
REMARK SMILES IDX 20 13 8 14 9 15 19 16 21 17 10 18 11 19 12 20 17 21 13 22
REMARK SMILES IDX 16 23 14 24 18 25 15 27 27 29 28 30 29 31 30 32 31 33 32 34
REMARK SMILES IDX 33 35 34 36 35 37 96 38 36 39 95 40 37 41 38 42 39 43 89 44
REMARK SMILES IDX 40 45 94 46 88 47 90 48 41 49 93 50 87 51 86 52 42 54 74 55
REMARK SMILES IDX 54 56 73 57 55 58 58 59 72 60 91 61 56 62 57 63 71 65 92 66
REMARK SMILES IDX 59 67 43 68 44 69 52 70 45 71 47 72 53 73 46 74 48 75 49 76
REMARK SMILES IDX 50 77 51 78 75 79 76 80 84 81 77 82 79 83 85 84 78 85 80 86
REMARK SMILES IDX 81 87 82 88 83 89 60 90 61 91 69 92 62 93 64 94 70 95 63 96
REMARK SMILES IDX 65 97 66 98 67 99 68 100
REMARK H PARENT 18 26 15 28 90 53 58 64
REMARK Flexibility Score: inf
ROOT
ATOM      1  C   UNL A   1      31.502  27.943  23.765  1.00  0.00     0.188 C 
ENDROOT
BRANCH   1   2
ATOM      2  O   UNL A   1      31.773  26.902  24.689  1.00  0.00    -0.376 OA
BRANCH   2   3
ATOM      3  C   UNL A   1      30.810  26.670  25.707  1.00  0.00     0.202 C 
BRANCH   3   4
ATOM      4  C   UNL A   1      30.017  25.373  25.662  1.00  0.00     0.261 C 
BRANCH   4   5
ATOM      5  O   UNL A   1      29.896  24.542  26.840  1.00  0.00    -0.463 OA
BRANCH   5   6
ATOM      6  C   UNL A   1      29.940  23.207  26.996  1.00  0.00     0.305 C 
ATOM      7  O   UNL A   1      29.358  22.703  27.956  1.00  0.00    -0.252 OA
BRANCH   6   8
ATOM      8  C   UNL A   1      30.551  22.345  25.925  1.00  0.00     0.124 C 
BRANCH   8   9
ATOM      9  C   UNL A   1      31.872  22.875  25.381  1.00  0.00     0.034 C 
BRANCH   9  10
ATOM     10  C   UNL A   1      33.129  22.620  26.230  1.00  0.00     0.128 C 
BRANCH  10  11
ATOM     11  N   UNL A   1      34.290  21.916  25.652  1.00  0.00    -0.293 N 
ATOM     12  C   UNL A   1      34.366  20.534  25.620  1.00  0.00     0.266 C 
ATOM     13  C   UNL A   1      35.348  22.578  25.053  1.00  0.00     0.148 C 
ATOM     14  O   UNL A   1      33.543  19.767  26.097  1.00  0.00    -0.268 OA
ATOM     15  C   UNL A   1      35.636  20.079  24.975  1.00  0.00     0.081 C 
ATOM     16  S   UNL A   1      36.630  21.441  24.639  1.00  0.00    -0.054 SA
ATOM     17  S   UNL A   1      35.508  24.214  24.749  1.00  0.00    -0.052 S 
ATOM     18  C   UNL A   1      35.962  18.823  24.629  1.00  0.00     0.033 C 
BRANCH  18  19
ATOM     19  C   UNL A   1      35.007  17.707  24.690  1.00  0.00     0.018 A 
ATOM     20  C   UNL A   1      33.807  17.835  23.963  1.00  0.00     0.016 A 
ATOM     21  C   UNL A   1      35.217  16.542  25.439  1.00  0.00     0.126 A 
ATOM     22  C   UNL A   1      32.801  16.875  24.067  1.00  0.00     0.047 A 
ATOM     23  C   UNL A   1      34.231  15.557  25.505  1.00  0.00     0.092 A 
ATOM     24  C   UNL A   1      33.016  15.752  24.854  1.00  0.00     0.119 A 
BRANCH  21  25
ATOM     25  O   UNL A   1      36.365  16.325  26.153  1.00  0.00    -0.507 OA
ATOM     26  H   UNL A   1      36.572  15.465  26.459  1.00  0.00     0.293 HD
ENDBRANCH  21  25
BRANCH  24  27
ATOM     27  O   UNL A   1      32.044  14.806  24.985  1.00  0.00    -0.508 OA
ATOM     28  H   UNL A   1      32.269  13.936  25.252  1.00  0.00     0.293 HD
ENDBRANCH  24  27
ENDBRANCH  18  19
ENDBRANCH  10  11
ENDBRANCH   9  10
ENDBRANCH   8   9
ENDBRANCH   6   8
ENDBRANCH   5   6
ENDBRANCH   4   5
ENDBRANCH   3   4
ENDBRANCH   2   3
ENDBRANCH   1   2
BRANCH   1  29
ATOM     29  C   UNL A   1      32.584  29.015  23.656  1.00  0.00     0.188 C 
BRANCH  29  30
ATOM     30  O   UNL A   1      32.787  29.700  24.890  1.00  0.00    -0.376 OA
BRANCH  30  31
ATOM     31  C   UNL A   1      31.614  30.339  25.395  1.00  0.00     0.202 C 
BRANCH  31  32
ATOM     32  C   UNL A   1      31.793  31.332  26.564  1.00  0.00     0.261 C 
BRANCH  32  33
ATOM     33  O   UNL A   1      32.863  31.080  27.490  1.00  0.00    -0.460 OA
BRANCH  33  34
ATOM     34  C   UNL A   1      33.768  32.068  27.673  1.00  0.00     0.338 C 
ATOM     35  O   UNL A   1      33.561  33.265  27.589  1.00  0.00    -0.246 OA
BRANCH  34  36
ATOM     36  C   UNL A   1      35.054  31.465  28.086  1.00  0.00     0.060 A 
ATOM     37  C   UNL A   1      35.118  30.093  28.352  1.00  0.00     0.016 A 
ATOM     38  C   UNL A   1      36.179  32.270  28.275  1.00  0.00     0.016 A 
ATOM     39  C   UNL A   1      36.308  29.524  28.815  1.00  0.00     0.010 A 
ATOM     40  C   UNL A   1      37.366  31.701  28.754  1.00  0.00     0.010 A 
ATOM     41  C   UNL A   1      37.431  30.329  29.051  1.00  0.00    -0.014 A 
BRANCH  41  42
ATOM     42  C   UNL A   1      38.623  29.768  29.739  1.00  0.00     0.031 A 
ATOM     43  C   UNL A   1      38.993  30.292  31.101  1.00  0.00     0.074 A 
ATOM     44  C   UNL A   1      39.383  28.823  29.155  1.00  0.00     0.049 A 
ATOM     45  N   UNL A   1      40.007  29.977  31.864  1.00  0.00    -0.248 NA
ATOM     46  C   UNL A   1      38.096  31.306  31.681  1.00  0.00     0.031 C 
ATOM     47  C   UNL A   1      39.135  28.233  27.842  1.00  0.00     0.029 A 
ATOM     48  N   UNL A   1      40.541  28.220  29.584  1.00  0.00    -0.354 N 
ATOM     49  C   UNL A   1      39.889  30.771  33.000  1.00  0.00     0.074 A 
ATOM     50  C   UNL A   1      38.703  31.581  32.826  1.00  0.00     0.031 C 
ATOM     51  C   UNL A   1      40.134  27.382  27.552  1.00  0.00     0.029 A 
ATOM     52  C   UNL A   1      41.106  27.386  28.645  1.00  0.00     0.049 A 
ATOM     53  H   UNL A   1      40.930  28.368  30.476  1.00  0.00     0.167 HD
ATOM     54  C   UNL A   1      40.691  30.816  34.091  1.00  0.00     0.034 A 
ATOM     55  C   UNL A   1      42.284  26.731  28.654  1.00  0.00     0.034 A 
ATOM     56  C   UNL A   1      41.868  30.009  34.265  1.00  0.00     0.049 A 
ATOM     57  C   UNL A   1      43.172  26.818  29.873  1.00  0.00     0.074 A 
ATOM     58  C   UNL A   1      42.716  29.952  35.358  1.00  0.00     0.029 A 
ATOM     59  N   UNL A   1      42.381  29.138  33.317  1.00  0.00    -0.354 N 
ATOM     60  N   UNL A   1      42.975  27.465  30.995  1.00  0.00    -0.248 NA
ATOM     61  C   UNL A   1      44.430  26.056  29.838  1.00  0.00     0.031 C 
ATOM     62  C   UNL A   1      43.760  29.073  35.056  1.00  0.00     0.029 A 
ATOM     63  C   UNL A   1      43.541  28.552  33.791  1.00  0.00     0.049 A 
ATOM     64  H   UNL A   1      41.977  28.963  32.436  1.00  0.00     0.167 HD
ATOM     65  C   UNL A   1      44.060  27.160  31.812  1.00  0.00     0.074 A 
ATOM     66  C   UNL A   1      44.901  26.249  31.063  1.00  0.00     0.031 C 
ATOM     67  C   UNL A   1      44.343  27.604  33.062  1.00  0.00     0.034 A 
BRANCH  54  68
ATOM     68  C   UNL A   1      40.315  31.763  35.200  1.00  0.00     0.023 A 
ATOM     69  C   UNL A   1      40.902  33.043  35.254  1.00  0.00     0.012 A 
ATOM     70  C   UNL A   1      39.323  31.415  36.139  1.00  0.00     0.148 A 
ATOM     71  C   UNL A   1      40.527  33.955  36.241  1.00  0.00     0.002 A 
ATOM     72  C   UNL A   1      38.923  32.344  37.092  1.00  0.00     0.091 A 
ATOM     73  F   UNL A   1      38.791  30.186  36.080  1.00  0.00    -0.205 F 
ATOM     74  C   UNL A   1      39.531  33.609  37.150  1.00  0.00     0.022 A 
BRANCH  72  75
ATOM     75  S   UNL A   1      37.594  32.029  38.258  1.00  0.00     0.127 S 
ATOM     76  O   UNL A   1      37.305  30.618  38.000  1.00  0.00    -0.237 OA
ATOM     77  O   UNL A   1      38.244  32.292  39.541  1.00  0.00    -0.237 OA
ATOM     78  O   UNL A   1      36.525  32.955  37.914  1.00  0.00    -0.744 OA
ENDBRANCH  72  75
ENDBRANCH  54  68
BRANCH  55  79
ATOM     79  C   UNL A   1      42.693  25.915  27.474  1.00  0.00     0.023 A 
ATOM     80  C   UNL A   1      43.496  26.490  26.470  1.00  0.00     0.012 A 
ATOM     81  C   UNL A   1      42.290  24.570  27.344  1.00  0.00     0.148 A 
ATOM     82  C   UNL A   1      43.852  25.756  25.338  1.00  0.00     0.002 A 
ATOM     83  C   UNL A   1      42.703  23.823  26.247  1.00  0.00     0.091 A 
ATOM     84  F   UNL A   1      41.506  24.042  28.294  1.00  0.00    -0.205 F 
ATOM     85  C   UNL A   1      43.465  24.421  25.231  1.00  0.00     0.022 A 
BRANCH  83  86
ATOM     86  S   UNL A   1      42.359  22.062  26.114  1.00  0.00     0.127 S 
ATOM     87  O   UNL A   1      42.915  21.553  27.363  1.00  0.00    -0.237 OA
ATOM     88  O   UNL A   1      40.897  22.042  26.040  1.00  0.00    -0.237 OA
ATOM     89  O   UNL A   1      43.020  21.608  24.891  1.00  0.00    -0.744 OA
ENDBRANCH  83  86
ENDBRANCH  55  79
BRANCH  67  90
ATOM     90  C   UNL A   1      45.592  27.085  33.731  1.00  0.00     0.023 A 
ATOM     91  C   UNL A   1      46.829  27.721  33.509  1.00  0.00     0.012 A 
ATOM     92  C   UNL A   1      45.524  26.012  34.644  1.00  0.00     0.148 A 
ATOM     93  C   UNL A   1      47.982  27.279  34.156  1.00  0.00     0.002 A 
ATOM     94  C   UNL A   1      46.667  25.610  35.325  1.00  0.00     0.091 A 
ATOM     95  F   UNL A   1      44.341  25.408  34.834  1.00  0.00    -0.205 F 
ATOM     96  C   UNL A   1      47.899  26.232  35.072  1.00  0.00     0.022 A 
BRANCH  94  97
ATOM     97  S   UNL A   1      46.639  24.338  36.595  1.00  0.00     0.127 S 
ATOM     98  O   UNL A   1      45.693  24.900  37.558  1.00  0.00    -0.237 OA
ATOM     99  O   UNL A   1      46.141  23.176  35.858  1.00  0.00    -0.237 OA
ATOM    100  O   UNL A   1      48.011  24.213  37.069  1.00  0.00    -0.744 OA
ENDBRANCH  94  97
ENDBRANCH  67  90
ENDBRANCH  41  42
ENDBRANCH  34  36
ENDBRANCH  33  34
ENDBRANCH  32  33
ENDBRANCH  31  32
ENDBRANCH  30  31
ENDBRANCH  29  30
ENDBRANCH   1  29
TORSDOF 26
ENDMDL
MODEL 3
REMARK VINA RESULT:      -9.6      3.437      4.873
REMARK SMILES O=C(CCCN1C(=O)/C(=C\c2ccc(O)cc2O)SC1=S)OCCOCCOCCOC(=O)c1ccc(-c2c3nc(c(-c4cccc(S(=O)(=O)[O-])c4F)c4ccc([nH]4)c(-c4cccc(S(=O)(=O)[O-])c4F)c4nc(c(-c5cccc(S(=O)(=O)[O-])c5F)c5ccc2[nH]5)C=C4)C=C3)cc1
REMARK SMILES IDX 26 1 25 2 24 3 23 4 22 5 2 6 1 7 3 8 4 9 5 10 6 11 7 12
REMARK SMILES IDX 20 13 8 14 9 15 19 16 21 17 10 18 11 19 12 20 17 21 13 22
REMARK SMILES IDX 16 23 14 24 18 25 15 27 27 29 28 30 29 31 30 32 31 33 32 34
REMARK SMILES IDX 33 35 34 36 35 37 96 38 36 39 95 40 37 41 38 42 39 43 89 44
REMARK SMILES IDX 40 45 94 46 88 47 90 48 41 49 93 50 87 51 86 52 42 54 74 55
REMARK SMILES IDX 54 56 73 57 55 58 58 59 72 60 91 61 56 62 57 63 71 65 92 66
REMARK SMILES IDX 59 67 43 68 44 69 52 70 45 71 47 72 53 73 46 74 48 75 49 76
REMARK SMILES IDX 50 77 51 78 75 79 76 80 84 81 77 82 79 83 85 84 78 85 80 86
REMARK SMILES IDX 81 87 82 88 83 89 60 90 61 91 69 92 62 93 64 94 70 95 63 96
REMARK SMILES IDX 65 97 66 98 67 99 68 100
REMARK H PARENT 18 26 15 28 90 53 58 64
REMARK Flexibility Score: inf
ROOT
ATOM      1  C   UNL A   1      41.835  19.529  27.358  1.00  0.00     0.188 C 
ENDROOT
BRANCH   1   2
ATOM      2  O   UNL A   1      40.812  20.497  27.516  1.00  0.00    -0.376 OA
BRANCH   2   3
ATOM      3  C   UNL A   1      40.308  21.107  26.337  1.00  0.00     0.202 C 
BRANCH   3   4
ATOM      4  C   UNL A   1      39.446  22.353  26.486  1.00  0.00     0.261 C 
BRANCH   4   5
ATOM      5  O   UNL A   1      38.062  22.345  26.069  1.00  0.00    -0.463 OA
BRANCH   5   6
ATOM      6  C   UNL A   1      37.500  22.279  24.849  1.00  0.00     0.305 C 
ATOM      7  O   UNL A   1      37.520  21.207  24.244  1.00  0.00    -0.252 OA
BRANCH   6   8
ATOM      8  C   UNL A   1      36.722  23.450  24.315  1.00  0.00     0.124 C 
BRANCH   8   9
ATOM      9  C   UNL A   1      35.795  24.097  25.337  1.00  0.00     0.034 C 
BRANCH   9  10
ATOM     10  C   UNL A   1      34.638  23.238  25.872  1.00  0.00     0.128 C 
BRANCH  10  11
ATOM     11  N   UNL A   1      33.679  22.612  24.941  1.00  0.00    -0.293 N 
ATOM     12  C   UNL A   1      33.752  21.271  24.607  1.00  0.00     0.266 C 
ATOM     13  C   UNL A   1      32.613  23.301  24.386  1.00  0.00     0.148 C 
ATOM     14  O   UNL A   1      34.616  20.492  24.982  1.00  0.00    -0.268 OA
ATOM     15  C   UNL A   1      32.661  20.892  23.657  1.00  0.00     0.081 C 
ATOM     16  S   UNL A   1      31.790  22.299  23.192  1.00  0.00    -0.054 SA
ATOM     17  S   UNL A   1      32.112  24.863  24.703  1.00  0.00    -0.052 S 
ATOM     18  C   UNL A   1      32.332  19.653  23.257  1.00  0.00     0.033 C 
BRANCH  18  19
ATOM     19  C   UNL A   1      32.916  18.442  23.853  1.00  0.00     0.018 A 
ATOM     20  C   UNL A   1      33.615  17.568  22.999  1.00  0.00     0.016 A 
ATOM     21  C   UNL A   1      32.799  18.106  25.208  1.00  0.00     0.126 A 
ATOM     22  C   UNL A   1      34.092  16.341  23.463  1.00  0.00     0.047 A 
ATOM     23  C   UNL A   1      33.318  16.902  25.685  1.00  0.00     0.092 A 
ATOM     24  C   UNL A   1      33.921  16.013  24.800  1.00  0.00     0.119 A 
BRANCH  21  25
ATOM     25  O   UNL A   1      32.158  18.912  26.111  1.00  0.00    -0.507 OA
ATOM     26  H   UNL A   1      31.259  18.757  26.322  1.00  0.00     0.293 HD
ENDBRANCH  21  25
BRANCH  24  27
ATOM     27  O   UNL A   1      34.364  14.815  25.277  1.00  0.00    -0.508 OA
ATOM     28  H   UNL A   1      33.803  14.287  25.811  1.00  0.00     0.293 HD
ENDBRANCH  24  27
ENDBRANCH  18  19
ENDBRANCH  10  11
ENDBRANCH   9  10
ENDBRANCH   8   9
ENDBRANCH   6   8
ENDBRANCH   5   6
ENDBRANCH   4   5
ENDBRANCH   3   4
ENDBRANCH   2   3
ENDBRANCH   1   2
BRANCH   1  29
ATOM     29  C   UNL A   1      42.366  19.368  25.935  1.00  0.00     0.188 C 
BRANCH  29  30
ATOM     30  O   UNL A   1      43.766  19.103  25.911  1.00  0.00    -0.376 OA
BRANCH  30  31
ATOM     31  C   UNL A   1      44.471  19.816  24.893  1.00  0.00     0.202 C 
BRANCH  31  32
ATOM     32  C   UNL A   1      45.037  21.205  25.260  1.00  0.00     0.261 C 
BRANCH  32  33
ATOM     33  O   UNL A   1      44.287  22.001  26.194  1.00  0.00    -0.460 OA
BRANCH  33  34
ATOM     34  C   UNL A   1      43.465  22.944  25.681  1.00  0.00     0.338 C 
ATOM     35  O   UNL A   1      42.892  22.900  24.609  1.00  0.00    -0.246 OA
BRANCH  34  36
ATOM     36  C   UNL A   1      43.294  24.020  26.682  1.00  0.00     0.060 A 
ATOM     37  C   UNL A   1      44.106  25.157  26.618  1.00  0.00     0.016 A 
ATOM     38  C   UNL A   1      42.375  23.871  27.723  1.00  0.00     0.016 A 
ATOM     39  C   UNL A   1      44.006  26.147  27.601  1.00  0.00     0.010 A 
ATOM     40  C   UNL A   1      42.287  24.856  28.716  1.00  0.00     0.010 A 
ATOM     41  C   UNL A   1      43.119  25.988  28.675  1.00  0.00    -0.014 A 
BRANCH  41  42
ATOM     42  C   UNL A   1      43.161  26.928  29.826  1.00  0.00     0.031 A 
ATOM     43  C   UNL A   1      43.998  26.574  31.026  1.00  0.00     0.074 A 
ATOM     44  C   UNL A   1      42.449  28.069  29.818  1.00  0.00     0.049 A 
ATOM     45  N   UNL A   1      44.151  27.223  32.151  1.00  0.00    -0.248 NA
ATOM     46  C   UNL A   1      44.767  25.321  30.945  1.00  0.00     0.031 C 
ATOM     47  C   UNL A   1      41.601  28.527  28.720  1.00  0.00     0.029 A 
ATOM     48  N   UNL A   1      42.302  29.035  30.785  1.00  0.00    -0.354 N 
ATOM     49  C   UNL A   1      45.009  26.448  32.923  1.00  0.00     0.074 A 
ATOM     50  C   UNL A   1      45.345  25.280  32.137  1.00  0.00     0.031 C 
ATOM     51  C   UNL A   1      40.987  29.664  29.089  1.00  0.00     0.029 A 
ATOM     52  C   UNL A   1      41.378  30.002  30.458  1.00  0.00     0.049 A 
ATOM     53  H   UNL A   1      42.807  29.036  31.629  1.00  0.00     0.167 HD
ATOM     54  C   UNL A   1      45.481  26.689  34.170  1.00  0.00     0.034 A 
ATOM     55  C   UNL A   1      40.881  31.019  31.191  1.00  0.00     0.034 A 
ATOM     56  C   UNL A   1      45.150  27.850  34.951  1.00  0.00     0.049 A 
ATOM     57  C   UNL A   1      41.405  31.251  32.588  1.00  0.00     0.074 A 
ATOM     58  C   UNL A   1      45.617  28.203  36.205  1.00  0.00     0.029 A 
ATOM     59  N   UNL A   1      44.252  28.834  34.568  1.00  0.00    -0.354 N 
ATOM     60  N   UNL A   1      42.321  30.586  33.249  1.00  0.00    -0.248 NA
ATOM     61  C   UNL A   1      40.850  32.396  33.328  1.00  0.00     0.031 C 
ATOM     62  C   UNL A   1      44.975  29.381  36.596  1.00  0.00     0.029 A 
ATOM     63  C   UNL A   1      44.138  29.784  35.567  1.00  0.00     0.049 A 
ATOM     64  H   UNL A   1      43.768  28.853  33.711  1.00  0.00     0.167 HD
ATOM     65  C   UNL A   1      42.479  31.251  34.462  1.00  0.00     0.074 A 
ATOM     66  C   UNL A   1      41.581  32.386  34.435  1.00  0.00     0.031 C 
ATOM     67  C   UNL A   1      43.283  30.942  35.510  1.00  0.00     0.034 A 
BRANCH  54  68
ATOM     68  C   UNL A   1      46.425  25.681  34.771  1.00  0.00     0.023 A 
ATOM     69  C   UNL A   1      47.816  25.866  34.645  1.00  0.00     0.012 A 
ATOM     70  C   UNL A   1      45.936  24.597  35.527  1.00  0.00     0.148 A 
ATOM     71  C   UNL A   1      48.708  24.974  35.241  1.00  0.00     0.002 A 
ATOM     72  C   UNL A   1      46.829  23.737  36.155  1.00  0.00     0.091 A 
ATOM     73  F   UNL A   1      44.609  24.430  35.619  1.00  0.00    -0.205 F 
ATOM     74  C   UNL A   1      48.214  23.918  36.004  1.00  0.00     0.022 A 
BRANCH  72  75
ATOM     75  S   UNL A   1      46.298  22.396  37.224  1.00  0.00     0.127 S 
ATOM     76  O   UNL A   1      45.637  23.125  38.306  1.00  0.00    -0.237 OA
ATOM     77  O   UNL A   1      45.394  21.649  36.351  1.00  0.00    -0.237 OA
ATOM     78  O   UNL A   1      47.507  21.680  37.606  1.00  0.00    -0.744 OA
ENDBRANCH  72  75
ENDBRANCH  54  68
BRANCH  55  79
ATOM     79  C   UNL A   1      39.837  31.914  30.614  1.00  0.00     0.023 A 
ATOM     80  C   UNL A   1      40.206  33.157  30.063  1.00  0.00     0.012 A 
ATOM     81  C   UNL A   1      38.478  31.538  30.608  1.00  0.00     0.148 A 
ATOM     82  C   UNL A   1      39.238  34.027  29.559  1.00  0.00     0.002 A 
ATOM     83  C   UNL A   1      37.526  32.378  30.044  1.00  0.00     0.091 A 
ATOM     84  F   UNL A   1      38.136  30.364  31.157  1.00  0.00    -0.205 F 
ATOM     85  C   UNL A   1      37.901  33.634  29.540  1.00  0.00     0.022 A 
BRANCH  83  86
ATOM     86  S   UNL A   1      35.807  31.878  29.857  1.00  0.00     0.127 S 
ATOM     87  O   UNL A   1      35.363  31.814  31.246  1.00  0.00    -0.237 OA
ATOM     88  O   UNL A   1      35.249  32.989  29.085  1.00  0.00    -0.237 OA
ATOM     89  O   UNL A   1      35.828  30.606  29.135  1.00  0.00    -0.744 OA
ENDBRANCH  83  86
ENDBRANCH  55  79
BRANCH  67  90
ATOM     90  C   UNL A   1      43.273  31.862  36.706  1.00  0.00     0.023 A 
ATOM     91  C   UNL A   1      42.320  31.680  37.728  1.00  0.00     0.012 A 
ATOM     92  C   UNL A   1      44.259  32.858  36.855  1.00  0.00     0.148 A 
ATOM     93  C   UNL A   1      42.326  32.495  38.859  1.00  0.00     0.002 A 
ATOM     94  C   UNL A   1      44.292  33.632  38.009  1.00  0.00     0.091 A 
ATOM     95  F   UNL A   1      45.151  33.027  35.867  1.00  0.00    -0.205 F 
ATOM     96  C   UNL A   1      43.319  33.462  39.005  1.00  0.00     0.022 A 
BRANCH  94  97
ATOM     97  S   UNL A   1      45.590  34.834  38.330  1.00  0.00     0.127 S 
ATOM     98  O   UNL A   1      45.328  35.837  37.300  1.00  0.00    -0.237 OA
ATOM     99  O   UNL A   1      45.282  35.265  39.693  1.00  0.00    -0.237 OA
ATOM    100  O   UNL A   1      46.848  34.113  38.192  1.00  0.00    -0.744 OA
ENDBRANCH  94  97
ENDBRANCH  67  90
ENDBRANCH  41  42
ENDBRANCH  34  36
ENDBRANCH  33  34
ENDBRANCH  32  33
ENDBRANCH  31  32
ENDBRANCH  30  31
ENDBRANCH  29  30
ENDBRANCH   1  29
TORSDOF 26
ENDMDL
