MODEL 1
REMARK VINA RESULT:     -10.0      0.000      0.000
REMARK SMILES C/C=C/C[C@H](Cc1cccc(F)c1)C(=O)OCCOCCOCCOC(=O)c1ccc(-c2c3nc(c(-c4cccc(S(=O)(=O)[O-])c4F)c4ccc([nH]4)c(-c4cccc(S(=O)(=O)[O-])c4F)c4nc(c(-c5cccc(S(=O)(=O)[O-])c5F)c5ccc2[nH]5)C=C4)C=C3)cc1
REMARK SMILES IDX 21 1 20 2 19 3 18 4 17 5 16 6 14 7 15 8 5 9 4 10 3 11 1 12
REMARK SMILES IDX 2 13 6 14 7 15 8 16 13 17 9 18 11 19 10 20 12 21 22 22 23 23
REMARK SMILES IDX 24 24 25 25 26 26 27 27 28 28 29 29 90 30 30 31 89 32 31 33
REMARK SMILES IDX 32 34 33 35 83 36 34 37 88 38 82 39 84 40 35 41 87 42 81 43
REMARK SMILES IDX 80 44 36 46 68 47 48 48 67 49 49 50 52 51 66 52 85 53 50 54
REMARK SMILES IDX 51 55 65 57 86 58 53 59 37 60 38 61 46 62 39 63 41 64 47 65
REMARK SMILES IDX 40 66 42 67 43 68 44 69 45 70 69 71 70 72 78 73 71 74 73 75
REMARK SMILES IDX 79 76 72 77 74 78 75 79 76 80 77 81 54 82 55 83 63 84 56 85
REMARK SMILES IDX 58 86 64 87 57 88 59 89 60 90 61 91 62 92
REMARK H PARENT 84 45 52 56
REMARK Flexibility Score: inf
ROOT
ATOM      1  C   UNL A   1      34.534  21.671  24.467  1.00  0.00     0.188 C 
ENDROOT
BRANCH   1   2
ATOM      2  C   UNL A   1      33.150  21.369  23.888  1.00  0.00     0.188 C 
BRANCH   2   3
ATOM      3  O   UNL A   1      32.093  21.059  24.784  1.00  0.00    -0.376 OA
BRANCH   3   4
ATOM      4  C   UNL A   1      31.938  21.818  25.977  1.00  0.00     0.202 C 
BRANCH   4   5
ATOM      5  C   UNL A   1      30.942  22.993  26.013  1.00  0.00     0.261 C 
BRANCH   5   6
ATOM      6  O   UNL A   1      30.729  23.698  24.765  1.00  0.00    -0.463 OA
BRANCH   6   7
ATOM      7  C   UNL A   1      31.460  24.827  24.588  1.00  0.00     0.309 C 
ATOM      8  O   UNL A   1      32.666  24.822  24.354  1.00  0.00    -0.252 OA
BRANCH   7   9
ATOM      9  C   UNL A   1      30.703  26.156  24.725  1.00  0.00     0.107 C 
BRANCH   9  10
ATOM     10  C   UNL A   1      30.846  26.524  26.219  1.00  0.00     0.042 C 
BRANCH  10  11
ATOM     11  C   UNL A   1      31.655  27.755  26.499  1.00  0.00    -0.031 C 
ATOM     12  C   UNL A   1      33.776  29.075  26.338  1.00  0.00     0.035 C 
ATOM     13  C   UNL A   1      32.887  27.929  25.997  1.00  0.00    -0.035 C 
ENDBRANCH  10  11
ENDBRANCH   9  10
BRANCH   9  14
ATOM     14  C   UNL A   1      29.241  26.278  24.195  1.00  0.00     0.051 C 
BRANCH  14  15
ATOM     15  C   UNL A   1      28.879  27.598  23.494  1.00  0.00    -0.044 A 
ATOM     16  C   UNL A   1      27.583  28.146  23.502  1.00  0.00     0.004 A 
ATOM     17  C   UNL A   1      29.861  28.279  22.750  1.00  0.00     0.043 A 
ATOM     18  C   UNL A   1      27.292  29.353  22.849  1.00  0.00     0.003 A 
ATOM     19  C   UNL A   1      29.558  29.470  22.085  1.00  0.00     0.123 A 
ATOM     20  C   UNL A   1      28.285  30.022  22.141  1.00  0.00     0.039 A 
ATOM     21  F   UNL A   1      30.518  30.112  21.407  1.00  0.00    -0.207 F 
ENDBRANCH  14  15
ENDBRANCH   9  14
ENDBRANCH   7   9
ENDBRANCH   6   7
ENDBRANCH   5   6
ENDBRANCH   4   5
ENDBRANCH   3   4
ENDBRANCH   2   3
ENDBRANCH   1   2
BRANCH   1  22
ATOM     22  O   UNL A   1      35.435  22.306  23.590  1.00  0.00    -0.376 OA
BRANCH  22  23
ATOM     23  C   UNL A   1      36.820  22.211  23.872  1.00  0.00     0.202 C 
BRANCH  23  24
ATOM     24  C   UNL A   1      37.379  20.962  24.581  1.00  0.00     0.261 C 
BRANCH  24  25
ATOM     25  O   UNL A   1      37.850  21.125  25.929  1.00  0.00    -0.460 OA
BRANCH  25  26
ATOM     26  C   UNL A   1      39.188  21.080  26.128  1.00  0.00     0.338 C 
ATOM     27  O   UNL A   1      39.943  20.180  25.787  1.00  0.00    -0.246 OA
BRANCH  26  28
ATOM     28  C   UNL A   1      39.617  22.415  26.606  1.00  0.00     0.060 A 
ATOM     29  C   UNL A   1      38.864  23.543  26.250  1.00  0.00     0.016 A 
ATOM     30  C   UNL A   1      40.741  22.559  27.417  1.00  0.00     0.016 A 
ATOM     31  C   UNL A   1      39.245  24.819  26.664  1.00  0.00     0.010 A 
ATOM     32  C   UNL A   1      41.135  23.840  27.819  1.00  0.00     0.010 A 
ATOM     33  C   UNL A   1      40.410  24.978  27.417  1.00  0.00    -0.014 A 
BRANCH  33  34
ATOM     34  C   UNL A   1      40.972  26.332  27.639  1.00  0.00     0.031 A 
ATOM     35  C   UNL A   1      42.369  26.610  27.160  1.00  0.00     0.074 A 
ATOM     36  C   UNL A   1      40.266  27.294  28.260  1.00  0.00     0.049 A 
ATOM     37  N   UNL A   1      43.111  27.670  27.342  1.00  0.00    -0.248 NA
ATOM     38  C   UNL A   1      43.018  25.549  26.371  1.00  0.00     0.031 C 
ATOM     39  C   UNL A   1      38.889  27.162  28.732  1.00  0.00     0.029 A 
ATOM     40  N   UNL A   1      40.630  28.567  28.628  1.00  0.00    -0.354 N 
ATOM     41  C   UNL A   1      44.328  27.387  26.736  1.00  0.00     0.074 A 
ATOM     42  C   UNL A   1      44.226  26.057  26.176  1.00  0.00     0.031 C 
ATOM     43  C   UNL A   1      38.534  28.297  29.360  1.00  0.00     0.029 A 
ATOM     44  C   UNL A   1      39.671  29.217  29.369  1.00  0.00     0.049 A 
ATOM     45  H   UNL A   1      41.492  28.973  28.384  1.00  0.00     0.167 HD
ATOM     46  C   UNL A   1      45.428  28.168  26.646  1.00  0.00     0.034 A 
ATOM     47  C   UNL A   1      39.718  30.403  30.012  1.00  0.00     0.034 A 
ATOM     48  C   UNL A   1      45.514  29.500  27.178  1.00  0.00     0.049 A 
ATOM     49  C   UNL A   1      40.970  31.239  29.934  1.00  0.00     0.074 A 
ATOM     50  C   UNL A   1      46.574  30.385  27.098  1.00  0.00     0.029 A 
ATOM     51  N   UNL A   1      44.516  30.134  27.899  1.00  0.00    -0.354 N 
ATOM     52  N   UNL A   1      42.087  30.994  29.291  1.00  0.00    -0.248 NA
ATOM     53  C   UNL A   1      40.962  32.526  30.647  1.00  0.00     0.031 C 
ATOM     54  C   UNL A   1      46.232  31.539  27.805  1.00  0.00     0.029 A 
ATOM     55  C   UNL A   1      44.939  31.394  28.283  1.00  0.00     0.049 A 
ATOM     56  H   UNL A   1      43.634  29.747  28.106  1.00  0.00     0.167 HD
ATOM     57  C   UNL A   1      42.898  32.107  29.491  1.00  0.00     0.074 A 
ATOM     58  C   UNL A   1      42.140  33.034  30.305  1.00  0.00     0.031 C 
ATOM     59  C   UNL A   1      44.160  32.333  29.049  1.00  0.00     0.034 A 
BRANCH  46  60
ATOM     60  C   UNL A   1      46.633  27.616  25.933  1.00  0.00     0.023 A 
ATOM     61  C   UNL A   1      46.843  27.913  24.573  1.00  0.00     0.012 A 
ATOM     62  C   UNL A   1      47.607  26.881  26.641  1.00  0.00     0.148 A 
ATOM     63  C   UNL A   1      47.993  27.472  23.920  1.00  0.00     0.002 A 
ATOM     64  C   UNL A   1      48.774  26.490  25.998  1.00  0.00     0.091 A 
ATOM     65  F   UNL A   1      47.376  26.591  27.929  1.00  0.00    -0.205 F 
ATOM     66  C   UNL A   1      48.964  26.774  24.636  1.00  0.00     0.022 A 
BRANCH  64  67
ATOM     67  S   UNL A   1      50.124  25.670  26.852  1.00  0.00     0.127 S 
ATOM     68  O   UNL A   1      49.470  24.458  27.344  1.00  0.00    -0.237 OA
ATOM     69  O   UNL A   1      51.082  25.449  25.768  1.00  0.00    -0.237 OA
ATOM     70  O   UNL A   1      50.572  26.595  27.884  1.00  0.00    -0.744 OA
ENDBRANCH  64  67
ENDBRANCH  46  60
BRANCH  47  71
ATOM     71  C   UNL A   1      38.525  30.879  30.770  1.00  0.00     0.023 A 
ATOM     72  C   UNL A   1      38.487  30.730  32.169  1.00  0.00     0.012 A 
ATOM     73  C   UNL A   1      37.452  31.517  30.116  1.00  0.00     0.148 A 
ATOM     74  C   UNL A   1      37.394  31.194  32.903  1.00  0.00     0.002 A 
ATOM     75  C   UNL A   1      36.395  32.029  30.860  1.00  0.00     0.091 A 
ATOM     76  F   UNL A   1      37.500  31.633  28.782  1.00  0.00    -0.205 F 
ATOM     77  C   UNL A   1      36.356  31.854  32.251  1.00  0.00     0.022 A 
BRANCH  75  78
ATOM     78  S   UNL A   1      35.078  33.006  30.126  1.00  0.00     0.127 S 
ATOM     79  O   UNL A   1      34.438  32.031  29.245  1.00  0.00    -0.237 OA
ATOM     80  O   UNL A   1      34.294  33.379  31.304  1.00  0.00    -0.237 OA
ATOM     81  O   UNL A   1      35.735  34.119  29.456  1.00  0.00    -0.744 OA
ENDBRANCH  75  78
ENDBRANCH  47  71
BRANCH  59  82
ATOM     82  C   UNL A   1      44.814  33.650  29.385  1.00  0.00     0.023 A 
ATOM     83  C   UNL A   1      45.638  33.756  30.522  1.00  0.00     0.012 A 
ATOM     84  C   UNL A   1      44.716  34.742  28.497  1.00  0.00     0.148 A 
ATOM     85  C   UNL A   1      46.340  34.933  30.780  1.00  0.00     0.002 A 
ATOM     86  C   UNL A   1      45.461  35.891  28.732  1.00  0.00     0.091 A 
ATOM     87  F   UNL A   1      43.917  34.625  27.428  1.00  0.00    -0.205 F 
ATOM     88  C   UNL A   1      46.265  35.993  29.879  1.00  0.00     0.022 A 
BRANCH  86  89
ATOM     89  S   UNL A   1      45.514  37.263  27.573  1.00  0.00     0.127 S 
ATOM     90  O   UNL A   1      46.147  36.643  26.408  1.00  0.00    -0.237 OA
ATOM     91  O   UNL A   1      44.096  37.576  27.400  1.00  0.00    -0.237 OA
ATOM     92  O   UNL A   1      46.294  38.310  28.218  1.00  0.00    -0.744 OA
ENDBRANCH  86  89
ENDBRANCH  59  82
ENDBRANCH  33  34
ENDBRANCH  26  28
ENDBRANCH  25  26
ENDBRANCH  24  25
ENDBRANCH  23  24
ENDBRANCH  22  23
ENDBRANCH   1  22
TORSDOF 24
ENDMDL
MODEL 2
REMARK VINA RESULT:      -9.6      1.951      2.252
REMARK SMILES C/C=C/C[C@H](Cc1cccc(F)c1)C(=O)OCCOCCOCCOC(=O)c1ccc(-c2c3nc(c(-c4cccc(S(=O)(=O)[O-])c4F)c4ccc([nH]4)c(-c4cccc(S(=O)(=O)[O-])c4F)c4nc(c(-c5cccc(S(=O)(=O)[O-])c5F)c5ccc2[nH]5)C=C4)C=C3)cc1
REMARK SMILES IDX 21 1 20 2 19 3 18 4 17 5 16 6 14 7 15 8 5 9 4 10 3 11 1 12
REMARK SMILES IDX 2 13 6 14 7 15 8 16 13 17 9 18 11 19 10 20 12 21 22 22 23 23
REMARK SMILES IDX 24 24 25 25 26 26 27 27 28 28 29 29 90 30 30 31 89 32 31 33
REMARK SMILES IDX 32 34 33 35 83 36 34 37 88 38 82 39 84 40 35 41 87 42 81 43
REMARK SMILES IDX 80 44 36 46 68 47 48 48 67 49 49 50 52 51 66 52 85 53 50 54
REMARK SMILES IDX 51 55 65 57 86 58 53 59 37 60 38 61 46 62 39 63 41 64 47 65
REMARK SMILES IDX 40 66 42 67 43 68 44 69 45 70 69 71 70 72 78 73 71 74 73 75
REMARK SMILES IDX 79 76 72 77 74 78 75 79 76 80 77 81 54 82 55 83 63 84 56 85
REMARK SMILES IDX 58 86 64 87 57 88 59 89 60 90 61 91 62 92
REMARK H PARENT 84 45 52 56
REMARK Flexibility Score: inf
ROOT
ATOM      1  C   UNL A   1      34.451  21.593  24.495  1.00  0.00     0.188 C 
ENDROOT
BRANCH   1   2
ATOM      2  C   UNL A   1      33.065  21.327  23.904  1.00  0.00     0.188 C 
BRANCH   2   3
ATOM      3  O   UNL A   1      32.029  20.892  24.772  1.00  0.00    -0.376 OA
BRANCH   3   4
ATOM      4  C   UNL A   1      31.841  21.544  26.022  1.00  0.00     0.202 C 
BRANCH   4   5
ATOM      5  C   UNL A   1      31.047  22.863  26.088  1.00  0.00     0.261 C 
BRANCH   5   6
ATOM      6  O   UNL A   1      30.954  23.622  24.857  1.00  0.00    -0.463 OA
BRANCH   6   7
ATOM      7  C   UNL A   1      31.671  24.772  24.812  1.00  0.00     0.309 C 
ATOM      8  O   UNL A   1      32.900  24.802  24.830  1.00  0.00    -0.252 OA
BRANCH   7   9
ATOM      9  C   UNL A   1      30.864  26.077  24.764  1.00  0.00     0.107 C 
BRANCH   9  10
ATOM     10  C   UNL A   1      30.836  26.561  26.231  1.00  0.00     0.042 C 
BRANCH  10  11
ATOM     11  C   UNL A   1      31.599  27.824  26.501  1.00  0.00    -0.031 C 
ATOM     12  C   UNL A   1      33.495  29.390  26.031  1.00  0.00     0.035 C 
ATOM     13  C   UNL A   1      32.633  28.210  25.738  1.00  0.00    -0.035 C 
ENDBRANCH  10  11
ENDBRANCH   9  10
BRANCH   9  14
ATOM     14  C   UNL A   1      29.463  26.102  24.078  1.00  0.00     0.051 C 
BRANCH  14  15
ATOM     15  C   UNL A   1      29.033  27.441  23.459  1.00  0.00    -0.044 A 
ATOM     16  C   UNL A   1      27.717  27.938  23.532  1.00  0.00     0.004 A 
ATOM     17  C   UNL A   1      29.966  28.198  22.727  1.00  0.00     0.043 A 
ATOM     18  C   UNL A   1      27.363  29.166  22.952  1.00  0.00     0.003 A 
ATOM     19  C   UNL A   1      29.600  29.410  22.135  1.00  0.00     0.123 A 
ATOM     20  C   UNL A   1      28.309  29.908  22.254  1.00  0.00     0.039 A 
ATOM     21  F   UNL A   1      30.516  30.123  21.467  1.00  0.00    -0.207 F 
ENDBRANCH  14  15
ENDBRANCH   9  14
ENDBRANCH   7   9
ENDBRANCH   6   7
ENDBRANCH   5   6
ENDBRANCH   4   5
ENDBRANCH   3   4
ENDBRANCH   2   3
ENDBRANCH   1   2
BRANCH   1  22
ATOM     22  O   UNL A   1      35.345  22.290  23.659  1.00  0.00    -0.376 OA
BRANCH  22  23
ATOM     23  C   UNL A   1      36.725  22.252  23.980  1.00  0.00     0.202 C 
BRANCH  23  24
ATOM     24  C   UNL A   1      37.317  21.022  24.693  1.00  0.00     0.261 C 
BRANCH  24  25
ATOM     25  O   UNL A   1      37.824  21.213  26.025  1.00  0.00    -0.460 OA
BRANCH  25  26
ATOM     26  C   UNL A   1      39.165  21.149  26.195  1.00  0.00     0.338 C 
ATOM     27  O   UNL A   1      39.905  20.260  25.796  1.00  0.00    -0.246 OA
BRANCH  26  28
ATOM     28  C   UNL A   1      39.615  22.455  26.728  1.00  0.00     0.060 A 
ATOM     29  C   UNL A   1      38.938  23.621  26.343  1.00  0.00     0.016 A 
ATOM     30  C   UNL A   1      40.683  22.536  27.619  1.00  0.00     0.016 A 
ATOM     31  C   UNL A   1      39.342  24.871  26.808  1.00  0.00     0.010 A 
ATOM     32  C   UNL A   1      41.101  23.791  28.075  1.00  0.00     0.010 A 
ATOM     33  C   UNL A   1      40.456  24.966  27.645  1.00  0.00    -0.014 A 
BRANCH  33  34
ATOM     34  C   UNL A   1      41.058  26.291  27.933  1.00  0.00     0.031 A 
ATOM     35  C   UNL A   1      42.473  26.540  27.495  1.00  0.00     0.074 A 
ATOM     36  C   UNL A   1      40.371  27.250  28.578  1.00  0.00     0.049 A 
ATOM     37  N   UNL A   1      43.246  27.565  27.736  1.00  0.00    -0.248 NA
ATOM     38  C   UNL A   1      43.104  25.489  26.677  1.00  0.00     0.031 C 
ATOM     39  C   UNL A   1      38.980  27.147  29.016  1.00  0.00     0.029 A 
ATOM     40  N   UNL A   1      40.769  28.495  29.005  1.00  0.00    -0.354 N 
ATOM     41  C   UNL A   1      44.466  27.265  27.144  1.00  0.00     0.074 A 
ATOM     42  C   UNL A   1      44.333  25.963  26.529  1.00  0.00     0.031 C 
ATOM     43  C   UNL A   1      38.649  28.268  29.681  1.00  0.00     0.029 A 
ATOM     44  C   UNL A   1      39.816  29.148  29.751  1.00  0.00     0.049 A 
ATOM     45  H   UNL A   1      41.649  28.881  28.795  1.00  0.00     0.167 HD
ATOM     46  C   UNL A   1      45.594  28.011  27.109  1.00  0.00     0.034 A 
ATOM     47  C   UNL A   1      39.888  30.304  30.443  1.00  0.00     0.034 A 
ATOM     48  C   UNL A   1      45.712  29.317  27.696  1.00  0.00     0.049 A 
ATOM     49  C   UNL A   1      41.169  31.100  30.425  1.00  0.00     0.074 A 
ATOM     50  C   UNL A   1      46.803  30.168  27.673  1.00  0.00     0.029 A 
ATOM     51  N   UNL A   1      44.719  29.955  28.420  1.00  0.00    -0.354 N 
ATOM     52  N   UNL A   1      42.291  30.842  29.796  1.00  0.00    -0.248 NA
ATOM     53  C   UNL A   1      41.188  32.356  31.189  1.00  0.00     0.031 C 
ATOM     54  C   UNL A   1      46.484  31.304  28.420  1.00  0.00     0.029 A 
ATOM     55  C   UNL A   1      45.176  31.184  28.864  1.00  0.00     0.049 A 
ATOM     56  H   UNL A   1      43.821  29.591  28.593  1.00  0.00     0.167 HD
ATOM     57  C   UNL A   1      43.134  31.918  30.058  1.00  0.00     0.074 A 
ATOM     58  C   UNL A   1      42.389  32.838  30.893  1.00  0.00     0.031 C 
ATOM     59  C   UNL A   1      44.412  32.118  29.651  1.00  0.00     0.034 A 
BRANCH  46  60
ATOM     60  C   UNL A   1      46.795  27.447  26.399  1.00  0.00     0.023 A 
ATOM     61  C   UNL A   1      47.575  26.451  27.020  1.00  0.00     0.012 A 
ATOM     62  C   UNL A   1      47.092  27.836  25.078  1.00  0.00     0.148 A 
ATOM     63  C   UNL A   1      48.645  25.865  26.344  1.00  0.00     0.002 A 
ATOM     64  C   UNL A   1      48.126  27.212  24.393  1.00  0.00     0.091 A 
ATOM     65  F   UNL A   1      46.351  28.801  24.515  1.00  0.00    -0.205 F 
ATOM     66  C   UNL A   1      48.910  26.234  25.027  1.00  0.00     0.022 A 
BRANCH  64  67
ATOM     67  S   UNL A   1      48.489  27.548  22.666  1.00  0.00     0.127 S 
ATOM     68  O   UNL A   1      47.329  28.345  22.270  1.00  0.00    -0.237 OA
ATOM     69  O   UNL A   1      49.742  28.298  22.758  1.00  0.00    -0.237 OA
ATOM     70  O   UNL A   1      48.600  26.250  22.015  1.00  0.00    -0.744 OA
ENDBRANCH  64  67
ENDBRANCH  46  60
BRANCH  47  71
ATOM     71  C   UNL A   1      38.695  30.790  31.194  1.00  0.00     0.023 A 
ATOM     72  C   UNL A   1      38.682  30.715  32.600  1.00  0.00     0.012 A 
ATOM     73  C   UNL A   1      37.596  31.366  30.526  1.00  0.00     0.148 A 
ATOM     74  C   UNL A   1      37.589  31.190  33.326  1.00  0.00     0.002 A 
ATOM     75  C   UNL A   1      36.538  31.891  31.259  1.00  0.00     0.091 A 
ATOM     76  F   UNL A   1      37.620  31.412  29.186  1.00  0.00    -0.205 F 
ATOM     77  C   UNL A   1      36.525  31.789  32.658  1.00  0.00     0.022 A 
BRANCH  75  78
ATOM     78  S   UNL A   1      35.185  32.794  30.497  1.00  0.00     0.127 S 
ATOM     79  O   UNL A   1      34.222  32.871  31.592  1.00  0.00    -0.237 OA
ATOM     80  O   UNL A   1      35.832  34.062  30.155  1.00  0.00    -0.237 OA
ATOM     81  O   UNL A   1      34.770  31.997  29.352  1.00  0.00    -0.744 OA
ENDBRANCH  75  78
ENDBRANCH  47  71
BRANCH  59  82
ATOM     82  C   UNL A   1      45.102  33.397  30.054  1.00  0.00     0.023 A 
ATOM     83  C   UNL A   1      44.995  34.542  29.242  1.00  0.00     0.012 A 
ATOM     84  C   UNL A   1      45.742  33.497  31.308  1.00  0.00     0.148 A 
ATOM     85  C   UNL A   1      45.530  35.760  29.659  1.00  0.00     0.002 A 
ATOM     86  C   UNL A   1      46.225  34.726  31.741  1.00  0.00     0.091 A 
ATOM     87  F   UNL A   1      45.845  32.393  32.061  1.00  0.00    -0.205 F 
ATOM     88  C   UNL A   1      46.129  35.857  30.913  1.00  0.00     0.022 A 
BRANCH  86  89
ATOM     89  S   UNL A   1      46.912  34.971  33.383  1.00  0.00     0.127 S 
ATOM     90  O   UNL A   1      45.803  34.547  34.236  1.00  0.00    -0.237 OA
ATOM     91  O   UNL A   1      48.058  34.062  33.376  1.00  0.00    -0.237 OA
ATOM     92  O   UNL A   1      47.257  36.384  33.471  1.00  0.00    -0.744 OA
ENDBRANCH  86  89
ENDBRANCH  59  82
ENDBRANCH  33  34
ENDBRANCH  26  28
ENDBRANCH  25  26
ENDBRANCH  24  25
ENDBRANCH  23  24
ENDBRANCH  22  23
ENDBRANCH   1  22
TORSDOF 24
ENDMDL
MODEL 3
REMARK VINA RESULT:      -9.5      2.912      8.308
REMARK SMILES C/C=C/C[C@H](Cc1cccc(F)c1)C(=O)OCCOCCOCCOC(=O)c1ccc(-c2c3nc(c(-c4cccc(S(=O)(=O)[O-])c4F)c4ccc([nH]4)c(-c4cccc(S(=O)(=O)[O-])c4F)c4nc(c(-c5cccc(S(=O)(=O)[O-])c5F)c5ccc2[nH]5)C=C4)C=C3)cc1
REMARK SMILES IDX 21 1 20 2 19 3 18 4 17 5 16 6 14 7 15 8 5 9 4 10 3 11 1 12
REMARK SMILES IDX 2 13 6 14 7 15 8 16 13 17 9 18 11 19 10 20 12 21 22 22 23 23
REMARK SMILES IDX 24 24 25 25 26 26 27 27 28 28 29 29 90 30 30 31 89 32 31 33
REMARK SMILES IDX 32 34 33 35 83 36 34 37 88 38 82 39 84 40 35 41 87 42 81 43
REMARK SMILES IDX 80 44 36 46 68 47 48 48 67 49 49 50 52 51 66 52 85 53 50 54
REMARK SMILES IDX 51 55 65 57 86 58 53 59 37 60 38 61 46 62 39 63 41 64 47 65
REMARK SMILES IDX 40 66 42 67 43 68 44 69 45 70 69 71 70 72 78 73 71 74 73 75
REMARK SMILES IDX 79 76 72 77 74 78 75 79 76 80 77 81 54 82 55 83 63 84 56 85
REMARK SMILES IDX 58 86 64 87 57 88 59 89 60 90 61 91 62 92
REMARK H PARENT 84 45 52 56
REMARK Flexibility Score: inf
ROOT
ATOM      1  C   UNL A   1      34.935  23.032  25.029  1.00  0.00     0.188 C 
ENDROOT
BRANCH   1   2
ATOM      2  C   UNL A   1      33.813  22.082  25.454  1.00  0.00     0.188 C 
BRANCH   2   3
ATOM      3  O   UNL A   1      33.328  22.158  26.786  1.00  0.00    -0.376 OA
BRANCH   3   4
ATOM      4  C   UNL A   1      31.987  22.570  27.022  1.00  0.00     0.202 C 
BRANCH   4   5
ATOM      5  C   UNL A   1      30.999  22.677  25.846  1.00  0.00     0.261 C 
BRANCH   5   6
ATOM      6  O   UNL A   1      30.366  23.966  25.649  1.00  0.00    -0.463 OA
BRANCH   6   7
ATOM      7  C   UNL A   1      30.765  24.664  24.557  1.00  0.00     0.309 C 
ATOM      8  O   UNL A   1      30.340  24.449  23.425  1.00  0.00    -0.252 OA
BRANCH   7   9
ATOM      9  C   UNL A   1      31.825  25.750  24.794  1.00  0.00     0.107 C 
BRANCH   9  10
ATOM     10  C   UNL A   1      32.939  25.423  23.775  1.00  0.00     0.042 C 
BRANCH  10  11
ATOM     11  C   UNL A   1      33.612  26.615  23.161  1.00  0.00    -0.031 C 
ATOM     12  C   UNL A   1      33.612  29.016  22.450  1.00  0.00     0.035 C 
ATOM     13  C   UNL A   1      33.041  27.829  23.149  1.00  0.00    -0.035 C 
ENDBRANCH  10  11
ENDBRANCH   9  10
BRANCH   9  14
ATOM     14  C   UNL A   1      32.361  26.014  26.235  1.00  0.00     0.051 C 
BRANCH  14  15
ATOM     15  C   UNL A   1      32.692  27.475  26.581  1.00  0.00    -0.044 A 
ATOM     16  C   UNL A   1      31.709  28.451  26.831  1.00  0.00     0.004 A 
ATOM     17  C   UNL A   1      34.035  27.897  26.595  1.00  0.00     0.043 A 
ATOM     18  C   UNL A   1      32.051  29.776  27.142  1.00  0.00     0.003 A 
ATOM     19  C   UNL A   1      34.366  29.223  26.885  1.00  0.00     0.123 A 
ATOM     20  C   UNL A   1      33.386  30.163  27.174  1.00  0.00     0.039 A 
ATOM     21  F   UNL A   1      35.653  29.591  26.918  1.00  0.00    -0.207 F 
ENDBRANCH  14  15
ENDBRANCH   9  14
ENDBRANCH   7   9
ENDBRANCH   6   7
ENDBRANCH   5   6
ENDBRANCH   4   5
ENDBRANCH   3   4
ENDBRANCH   2   3
ENDBRANCH   1   2
BRANCH   1  22
ATOM     22  O   UNL A   1      35.534  22.749  23.786  1.00  0.00    -0.376 OA
BRANCH  22  23
ATOM     23  C   UNL A   1      36.932  22.522  23.756  1.00  0.00     0.202 C 
BRANCH  23  24
ATOM     24  C   UNL A   1      37.626  21.823  24.940  1.00  0.00     0.261 C 
BRANCH  24  25
ATOM     25  O   UNL A   1      38.012  22.643  26.056  1.00  0.00    -0.460 OA
BRANCH  25  26
ATOM     26  C   UNL A   1      39.331  22.710  26.350  1.00  0.00     0.338 C 
ATOM     27  O   UNL A   1      40.185  21.888  26.049  1.00  0.00    -0.246 OA
BRANCH  26  28
ATOM     28  C   UNL A   1      39.607  24.067  26.879  1.00  0.00     0.060 A 
ATOM     29  C   UNL A   1      40.175  25.029  26.031  1.00  0.00     0.016 A 
ATOM     30  C   UNL A   1      39.289  24.401  28.193  1.00  0.00     0.016 A 
ATOM     31  C   UNL A   1      40.466  26.310  26.496  1.00  0.00     0.010 A 
ATOM     32  C   UNL A   1      39.595  25.681  28.667  1.00  0.00     0.010 A 
ATOM     33  C   UNL A   1      40.216  26.630  27.832  1.00  0.00    -0.014 A 
BRANCH  33  34
ATOM     34  C   UNL A   1      40.757  27.885  28.409  1.00  0.00     0.031 A 
ATOM     35  C   UNL A   1      39.784  28.911  28.919  1.00  0.00     0.074 A 
ATOM     36  C   UNL A   1      42.080  28.118  28.471  1.00  0.00     0.049 A 
ATOM     37  N   UNL A   1      40.010  30.121  29.355  1.00  0.00    -0.248 NA
ATOM     38  C   UNL A   1      38.364  28.519  28.939  1.00  0.00     0.031 C 
ATOM     39  C   UNL A   1      43.124  27.186  28.049  1.00  0.00     0.029 A 
ATOM     40  N   UNL A   1      42.768  29.232  28.887  1.00  0.00    -0.354 N 
ATOM     41  C   UNL A   1      38.763  30.654  29.654  1.00  0.00     0.074 A 
ATOM     42  C   UNL A   1      37.782  29.635  29.354  1.00  0.00     0.031 C 
ATOM     43  C   UNL A   1      44.321  27.780  28.195  1.00  0.00     0.029 A 
ATOM     44  C   UNL A   1      44.125  29.146  28.681  1.00  0.00     0.049 A 
ATOM     45  H   UNL A   1      42.332  30.014  29.295  1.00  0.00     0.167 HD
ATOM     46  C   UNL A   1      38.463  31.879  30.142  1.00  0.00     0.034 A 
ATOM     47  C   UNL A   1      45.093  30.074  28.831  1.00  0.00     0.034 A 
ATOM     48  C   UNL A   1      39.444  32.878  30.465  1.00  0.00     0.049 A 
ATOM     49  C   UNL A   1      44.731  31.448  29.336  1.00  0.00     0.074 A 
ATOM     50  C   UNL A   1      39.237  34.134  31.007  1.00  0.00     0.029 A 
ATOM     51  N   UNL A   1      40.808  32.745  30.268  1.00  0.00    -0.354 N 
ATOM     52  N   UNL A   1      43.556  31.913  29.690  1.00  0.00    -0.248 NA
ATOM     53  C   UNL A   1      45.827  32.416  29.489  1.00  0.00     0.031 C 
ATOM     54  C   UNL A   1      40.474  34.777  31.098  1.00  0.00     0.029 A 
ATOM     55  C   UNL A   1      41.456  33.903  30.661  1.00  0.00     0.049 A 
ATOM     56  H   UNL A   1      41.252  31.946  29.902  1.00  0.00     0.167 HD
ATOM     57  C   UNL A   1      43.777  33.212  30.139  1.00  0.00     0.074 A 
ATOM     58  C   UNL A   1      45.200  33.456  30.025  1.00  0.00     0.031 C 
ATOM     59  C   UNL A   1      42.879  34.121  30.594  1.00  0.00     0.034 A 
BRANCH  46  60
ATOM     60  C   UNL A   1      37.014  32.214  30.375  1.00  0.00     0.023 A 
ATOM     61  C   UNL A   1      36.415  31.920  31.615  1.00  0.00     0.012 A 
ATOM     62  C   UNL A   1      36.276  32.908  29.395  1.00  0.00     0.148 A 
ATOM     63  C   UNL A   1      35.096  32.294  31.871  1.00  0.00     0.002 A 
ATOM     64  C   UNL A   1      34.980  33.322  29.676  1.00  0.00     0.091 A 
ATOM     65  F   UNL A   1      36.859  33.156  28.213  1.00  0.00    -0.205 F 
ATOM     66  C   UNL A   1      34.386  33.007  30.908  1.00  0.00     0.022 A 
BRANCH  64  67
ATOM     67  S   UNL A   1      34.015  34.325  28.541  1.00  0.00     0.127 S 
ATOM     68  O   UNL A   1      32.830  34.622  29.344  1.00  0.00    -0.237 OA
ATOM     69  O   UNL A   1      34.900  35.467  28.313  1.00  0.00    -0.237 OA
ATOM     70  O   UNL A   1      33.776  33.494  27.369  1.00  0.00    -0.744 OA
ENDBRANCH  64  67
ENDBRANCH  46  60
BRANCH  47  71
ATOM     71  C   UNL A   1      46.508  29.722  28.518  1.00  0.00     0.023 A 
ATOM     72  C   UNL A   1      47.024  29.996  27.237  1.00  0.00     0.012 A 
ATOM     73  C   UNL A   1      47.354  29.160  29.494  1.00  0.00     0.148 A 
ATOM     74  C   UNL A   1      48.353  29.702  26.929  1.00  0.00     0.002 A 
ATOM     75  C   UNL A   1      48.692  28.924  29.199  1.00  0.00     0.091 A 
ATOM     76  F   UNL A   1      46.838  28.891  30.702  1.00  0.00    -0.205 F 
ATOM     77  C   UNL A   1      49.189  29.180  27.912  1.00  0.00     0.022 A 
BRANCH  75  78
ATOM     78  S   UNL A   1      49.874  28.376  30.434  1.00  0.00     0.127 S 
ATOM     79  O   UNL A   1      49.444  27.000  30.670  1.00  0.00    -0.237 OA
ATOM     80  O   UNL A   1      51.140  28.510  29.712  1.00  0.00    -0.237 OA
ATOM     81  O   UNL A   1      49.721  29.283  31.562  1.00  0.00    -0.744 OA
ENDBRANCH  75  78
ENDBRANCH  47  71
BRANCH  59  82
ATOM     82  C   UNL A   1      43.387  35.464  31.053  1.00  0.00     0.023 A 
ATOM     83  C   UNL A   1      43.607  36.491  30.115  1.00  0.00     0.012 A 
ATOM     84  C   UNL A   1      43.516  35.746  32.429  1.00  0.00     0.148 A 
ATOM     85  C   UNL A   1      43.965  37.771  30.537  1.00  0.00     0.002 A 
ATOM     86  C   UNL A   1      43.820  37.037  32.845  1.00  0.00     0.091 A 
ATOM     87  F   UNL A   1      43.314  34.752  33.306  1.00  0.00    -0.205 F 
ATOM     88  C   UNL A   1      44.055  38.049  31.900  1.00  0.00     0.022 A 
BRANCH  86  89
ATOM     89  S   UNL A   1      43.849  37.514  34.577  1.00  0.00     0.127 S 
ATOM     90  O   UNL A   1      44.800  36.552  35.134  1.00  0.00    -0.237 OA
ATOM     91  O   UNL A   1      44.342  38.889  34.510  1.00  0.00    -0.237 OA
ATOM     92  O   UNL A   1      42.479  37.381  35.057  1.00  0.00    -0.744 OA
ENDBRANCH  86  89
ENDBRANCH  59  82
ENDBRANCH  33  34
ENDBRANCH  26  28
ENDBRANCH  25  26
ENDBRANCH  24  25
ENDBRANCH  23  24
ENDBRANCH  22  23
ENDBRANCH   1  22
TORSDOF 24
ENDMDL
