MODEL 1
REMARK VINA RESULT:     -11.0      0.000      0.000
REMARK SMILES O=C(COc1ccccc1/C=C1\C(=O)Nc2ccccc21)OCCOCCOCCOC(=O)c1ccc(-c2c3nc(c(-c4cccc(S(=O)(=O)[O-])c4F)c4ccc([nH]4)c(-c4cccc(S(=O)(=O)[O-])c4F)c4nc(c(-c5cccc(S(=O)(=O)[O-])c5F)c5ccc2[nH]5)C=C4)C=C3)cc1
REMARK SMILES IDX 26 1 25 2 24 3 23 4 22 5 2 6 1 7 3 8 4 9 5 10 6 11 10 12
REMARK SMILES IDX 7 13 9 14 8 15 11 16 12 17 13 18 21 19 14 20 15 21 16 22
REMARK SMILES IDX 20 23 17 25 19 26 18 27 27 28 28 29 29 30 30 31 31 32 32 33
REMARK SMILES IDX 33 34 34 35 35 36 96 37 36 38 95 39 37 40 38 41 39 42 89 43
REMARK SMILES IDX 40 44 94 45 88 46 90 47 41 48 93 49 87 50 86 51 42 53 74 54
REMARK SMILES IDX 54 55 73 56 55 57 58 58 72 59 91 60 56 61 57 62 71 64 92 65
REMARK SMILES IDX 59 66 43 67 44 68 52 69 45 70 47 71 53 72 46 73 48 74 49 75
REMARK SMILES IDX 50 76 51 77 75 78 76 79 84 80 77 81 79 82 85 83 78 84 80 85
REMARK SMILES IDX 81 86 82 87 83 88 60 89 61 90 69 91 62 92 64 93 70 94 63 95
REMARK SMILES IDX 65 96 66 97 67 98 68 99
REMARK H PARENT 15 24 90 52 58 63
REMARK Flexibility Score: inf
ROOT
ATOM      1  C   UNL A   1      42.645  18.596  26.181  1.00  0.00     0.188 C 
ENDROOT
BRANCH   1   2
ATOM      2  O   UNL A   1      41.434  19.281  25.912  1.00  0.00    -0.376 OA
BRANCH   2   3
ATOM      3  C   UNL A   1      40.931  20.085  26.960  1.00  0.00     0.202 C 
BRANCH   3   4
ATOM      4  C   UNL A   1      40.212  21.354  26.498  1.00  0.00     0.261 C 
BRANCH   4   5
ATOM      5  O   UNL A   1      39.119  21.206  25.548  1.00  0.00    -0.461 OA
BRANCH   5   6
ATOM      6  C   UNL A   1      37.954  21.888  25.414  1.00  0.00     0.344 C 
ATOM      7  O   UNL A   1      37.847  23.009  25.913  1.00  0.00    -0.248 OA
BRANCH   6   8
ATOM      8  C   UNL A   1      36.789  21.243  24.709  1.00  0.00     0.351 C 
BRANCH   8   9
ATOM      9  O   UNL A   1      35.578  21.846  25.113  1.00  0.00    -0.481 OA
BRANCH   9  10
ATOM     10  C   UNL A   1      34.509  21.114  24.694  1.00  0.00     0.127 A 
ATOM     11  C   UNL A   1      34.670  19.736  24.882  1.00  0.00     0.047 A 
ATOM     12  C   UNL A   1      33.358  21.671  24.102  1.00  0.00     0.017 A 
ATOM     13  C   UNL A   1      33.669  18.869  24.485  1.00  0.00     0.004 A 
ATOM     14  C   UNL A   1      32.418  20.758  23.613  1.00  0.00     0.012 A 
ATOM     15  C   UNL A   1      32.552  19.380  23.833  1.00  0.00     0.001 A 
BRANCH  12  16
ATOM     16  C   UNL A   1      33.090  23.134  23.976  1.00  0.00     0.026 C 
ATOM     17  C   UNL A   1      32.579  23.945  24.929  1.00  0.00     0.050 C 
ATOM     18  C   UNL A   1      32.125  23.490  26.304  1.00  0.00     0.256 C 
ATOM     19  C   UNL A   1      32.254  25.392  24.856  1.00  0.00     0.011 A 
ATOM     20  O   UNL A   1      32.303  22.436  26.867  1.00  0.00    -0.269 OA
ATOM     21  N   UNL A   1      31.423  24.560  26.827  1.00  0.00    -0.321 N 
ATOM     22  C   UNL A   1      31.512  25.676  26.012  1.00  0.00     0.049 A 
ATOM     23  C   UNL A   1      32.568  26.436  23.999  1.00  0.00     0.011 A 
ATOM     24  H   UNL A   1      30.922  24.531  27.674  1.00  0.00     0.170 HD
ATOM     25  C   UNL A   1      31.009  26.926  26.323  1.00  0.00     0.027 A 
ATOM     26  C   UNL A   1      32.093  27.728  24.309  1.00  0.00     0.001 A 
ATOM     27  C   UNL A   1      31.307  27.968  25.452  1.00  0.00     0.002 A 
ENDBRANCH  12  16
ENDBRANCH   9  10
ENDBRANCH   8   9
ENDBRANCH   6   8
ENDBRANCH   5   6
ENDBRANCH   4   5
ENDBRANCH   3   4
ENDBRANCH   2   3
ENDBRANCH   1   2
BRANCH   1  28
ATOM     28  C   UNL A   1      43.811  18.975  25.240  1.00  0.00     0.188 C 
BRANCH  28  29
ATOM     29  O   UNL A   1      43.878  20.287  24.702  1.00  0.00    -0.376 OA
BRANCH  29  30
ATOM     30  C   UNL A   1      43.906  21.381  25.601  1.00  0.00     0.202 C 
BRANCH  30  31
ATOM     31  C   UNL A   1      45.172  22.257  25.674  1.00  0.00     0.261 C 
BRANCH  31  32
ATOM     32  O   UNL A   1      45.082  23.465  26.461  1.00  0.00    -0.460 OA
BRANCH  32  33
ATOM     33  C   UNL A   1      44.699  24.595  25.806  1.00  0.00     0.338 C 
ATOM     34  O   UNL A   1      44.883  24.841  24.626  1.00  0.00    -0.246 OA
BRANCH  33  35
ATOM     35  C   UNL A   1      43.827  25.439  26.672  1.00  0.00     0.060 A 
ATOM     36  C   UNL A   1      44.112  26.812  26.797  1.00  0.00     0.016 A 
ATOM     37  C   UNL A   1      42.778  24.885  27.405  1.00  0.00     0.016 A 
ATOM     38  C   UNL A   1      43.397  27.614  27.693  1.00  0.00     0.010 A 
ATOM     39  C   UNL A   1      42.080  25.685  28.325  1.00  0.00     0.010 A 
ATOM     40  C   UNL A   1      42.420  27.041  28.513  1.00  0.00    -0.014 A 
BRANCH  40  41
ATOM     41  C   UNL A   1      41.945  27.766  29.726  1.00  0.00     0.031 A 
ATOM     42  C   UNL A   1      40.708  28.624  29.599  1.00  0.00     0.074 A 
ATOM     43  C   UNL A   1      42.574  27.690  30.913  1.00  0.00     0.049 A 
ATOM     44  N   UNL A   1      40.138  29.404  30.480  1.00  0.00    -0.248 NA
ATOM     45  C   UNL A   1      40.032  28.602  28.291  1.00  0.00     0.031 C 
ATOM     46  C   UNL A   1      43.756  26.882  31.198  1.00  0.00     0.029 A 
ATOM     47  N   UNL A   1      42.310  28.333  32.101  1.00  0.00    -0.354 N 
ATOM     48  C   UNL A   1      39.067  29.999  29.822  1.00  0.00     0.074 A 
ATOM     49  C   UNL A   1      39.076  29.498  28.465  1.00  0.00     0.031 C 
ATOM     50  C   UNL A   1      44.135  27.100  32.471  1.00  0.00     0.029 A 
ATOM     51  C   UNL A   1      43.241  28.085  33.081  1.00  0.00     0.049 A 
ATOM     52  H   UNL A   1      41.528  28.916  32.236  1.00  0.00     0.167 HD
ATOM     53  C   UNL A   1      38.150  30.875  30.298  1.00  0.00     0.034 A 
ATOM     54  C   UNL A   1      43.373  28.607  34.320  1.00  0.00     0.034 A 
ATOM     55  C   UNL A   1      38.127  31.369  31.649  1.00  0.00     0.049 A 
ATOM     56  C   UNL A   1      42.367  29.614  34.820  1.00  0.00     0.074 A 
ATOM     57  C   UNL A   1      37.209  32.222  32.236  1.00  0.00     0.029 A 
ATOM     58  N   UNL A   1      39.073  31.073  32.617  1.00  0.00    -0.354 N 
ATOM     59  N   UNL A   1      41.304  30.094  34.218  1.00  0.00    -0.248 NA
ATOM     60  C   UNL A   1      42.559  30.128  36.185  1.00  0.00     0.031 C 
ATOM     61  C   UNL A   1      37.630  32.482  33.545  1.00  0.00     0.029 A 
ATOM     62  C   UNL A   1      38.776  31.743  33.791  1.00  0.00     0.049 A 
ATOM     63  H   UNL A   1      39.845  30.475  32.487  1.00  0.00     0.167 HD
ATOM     64  C   UNL A   1      40.678  30.923  35.146  1.00  0.00     0.074 A 
ATOM     65  C   UNL A   1      41.476  30.876  36.352  1.00  0.00     0.031 C 
ATOM     66  C   UNL A   1      39.545  31.657  35.007  1.00  0.00     0.034 A 
BRANCH  53  67
ATOM     67  C   UNL A   1      37.096  31.366  29.336  1.00  0.00     0.023 A 
ATOM     68  C   UNL A   1      37.106  32.705  28.896  1.00  0.00     0.012 A 
ATOM     69  C   UNL A   1      36.104  30.489  28.853  1.00  0.00     0.148 A 
ATOM     70  C   UNL A   1      36.114  33.178  28.036  1.00  0.00     0.002 A 
ATOM     71  C   UNL A   1      35.152  30.954  27.954  1.00  0.00     0.091 A 
ATOM     72  F   UNL A   1      36.097  29.224  29.296  1.00  0.00    -0.205 F 
ATOM     73  C   UNL A   1      35.145  32.301  27.558  1.00  0.00     0.022 A 
BRANCH  71  74
ATOM     74  S   UNL A   1      33.916  29.881  27.216  1.00  0.00     0.127 S 
ATOM     75  O   UNL A   1      34.597  29.440  26.000  1.00  0.00    -0.237 OA
ATOM     76  O   UNL A   1      33.762  28.844  28.238  1.00  0.00    -0.237 OA
ATOM     77  O   UNL A   1      32.737  30.708  27.009  1.00  0.00    -0.744 OA
ENDBRANCH  71  74
ENDBRANCH  53  67
BRANCH  54  78
ATOM     78  C   UNL A   1      44.493  28.163  35.200  1.00  0.00     0.023 A 
ATOM     79  C   UNL A   1      45.773  28.728  35.034  1.00  0.00     0.012 A 
ATOM     80  C   UNL A   1      44.295  27.196  36.206  1.00  0.00     0.148 A 
ATOM     81  C   UNL A   1      46.841  28.320  35.835  1.00  0.00     0.002 A 
ATOM     82  C   UNL A   1      45.350  26.834  37.036  1.00  0.00     0.091 A 
ATOM     83  F   UNL A   1      43.074  26.659  36.337  1.00  0.00    -0.205 F 
ATOM     84  C   UNL A   1      46.628  27.381  36.841  1.00  0.00     0.022 A 
BRANCH  82  85
ATOM     85  S   UNL A   1      45.145  25.726  38.434  1.00  0.00     0.127 S 
ATOM     86  O   UNL A   1      44.154  26.435  39.239  1.00  0.00    -0.237 OA
ATOM     87  O   UNL A   1      44.655  24.512  37.781  1.00  0.00    -0.237 OA
ATOM     88  O   UNL A   1      46.465  25.597  39.037  1.00  0.00    -0.744 OA
ENDBRANCH  82  85
ENDBRANCH  54  78
BRANCH  66  89
ATOM     89  C   UNL A   1      39.046  32.427  36.205  1.00  0.00     0.023 A 
ATOM     90  C   UNL A   1      38.112  31.850  37.089  1.00  0.00     0.012 A 
ATOM     91  C   UNL A   1      39.566  33.707  36.495  1.00  0.00     0.148 A 
ATOM     92  C   UNL A   1      37.674  32.548  38.216  1.00  0.00     0.002 A 
ATOM     93  C   UNL A   1      39.168  34.372  37.649  1.00  0.00     0.091 A 
ATOM     94  F   UNL A   1      40.443  34.248  35.638  1.00  0.00    -0.205 F 
ATOM     95  C   UNL A   1      38.211  33.802  38.501  1.00  0.00     0.022 A 
BRANCH  93  96
ATOM     96  S   UNL A   1      39.881  35.943  38.150  1.00  0.00     0.127 S 
ATOM     97  O   UNL A   1      39.787  36.721  36.915  1.00  0.00    -0.237 OA
ATOM     98  O   UNL A   1      38.968  36.372  39.211  1.00  0.00    -0.237 OA
ATOM     99  O   UNL A   1      41.235  35.648  38.599  1.00  0.00    -0.744 OA
ENDBRANCH  93  96
ENDBRANCH  66  89
ENDBRANCH  40  41
ENDBRANCH  33  35
ENDBRANCH  32  33
ENDBRANCH  31  32
ENDBRANCH  30  31
ENDBRANCH  29  30
ENDBRANCH  28  29
ENDBRANCH   1  28
TORSDOF 23
ENDMDL
MODEL 2
REMARK VINA RESULT:     -10.5      1.725      2.153
REMARK SMILES O=C(COc1ccccc1/C=C1\C(=O)Nc2ccccc21)OCCOCCOCCOC(=O)c1ccc(-c2c3nc(c(-c4cccc(S(=O)(=O)[O-])c4F)c4ccc([nH]4)c(-c4cccc(S(=O)(=O)[O-])c4F)c4nc(c(-c5cccc(S(=O)(=O)[O-])c5F)c5ccc2[nH]5)C=C4)C=C3)cc1
REMARK SMILES IDX 26 1 25 2 24 3 23 4 22 5 2 6 1 7 3 8 4 9 5 10 6 11 10 12
REMARK SMILES IDX 7 13 9 14 8 15 11 16 12 17 13 18 21 19 14 20 15 21 16 22
REMARK SMILES IDX 20 23 17 25 19 26 18 27 27 28 28 29 29 30 30 31 31 32 32 33
REMARK SMILES IDX 33 34 34 35 35 36 96 37 36 38 95 39 37 40 38 41 39 42 89 43
REMARK SMILES IDX 40 44 94 45 88 46 90 47 41 48 93 49 87 50 86 51 42 53 74 54
REMARK SMILES IDX 54 55 73 56 55 57 58 58 72 59 91 60 56 61 57 62 71 64 92 65
REMARK SMILES IDX 59 66 43 67 44 68 52 69 45 70 47 71 53 72 46 73 48 74 49 75
REMARK SMILES IDX 50 76 51 77 75 78 76 79 84 80 77 81 79 82 85 83 78 84 80 85
REMARK SMILES IDX 81 86 82 87 83 88 60 89 61 90 69 91 62 92 64 93 70 94 63 95
REMARK SMILES IDX 65 96 66 97 67 98 68 99
REMARK H PARENT 15 24 90 52 58 63
REMARK Flexibility Score: inf
ROOT
ATOM      1  C   UNL A   1      42.040  22.186  26.970  1.00  0.00     0.188 C 
ENDROOT
BRANCH   1   2
ATOM      2  O   UNL A   1      40.638  22.341  26.835  1.00  0.00    -0.376 OA
BRANCH   2   3
ATOM      3  C   UNL A   1      40.157  23.670  26.857  1.00  0.00     0.202 C 
BRANCH   3   4
ATOM      4  C   UNL A   1      38.632  23.794  26.874  1.00  0.00     0.261 C 
BRANCH   4   5
ATOM      5  O   UNL A   1      37.906  23.392  25.678  1.00  0.00    -0.461 OA
BRANCH   5   6
ATOM      6  C   UNL A   1      37.541  22.167  25.224  1.00  0.00     0.344 C 
ATOM      7  O   UNL A   1      38.324  21.223  25.333  1.00  0.00    -0.248 OA
BRANCH   6   8
ATOM      8  C   UNL A   1      36.210  21.991  24.540  1.00  0.00     0.351 C 
BRANCH   8   9
ATOM      9  O   UNL A   1      35.206  21.703  25.491  1.00  0.00    -0.481 OA
BRANCH   9  10
ATOM     10  C   UNL A   1      34.251  20.892  24.956  1.00  0.00     0.127 A 
ATOM     11  C   UNL A   1      34.695  19.584  24.731  1.00  0.00     0.047 A 
ATOM     12  C   UNL A   1      32.949  21.321  24.630  1.00  0.00     0.017 A 
ATOM     13  C   UNL A   1      33.834  18.656  24.175  1.00  0.00     0.004 A 
ATOM     14  C   UNL A   1      32.146  20.387  23.966  1.00  0.00     0.012 A 
ATOM     15  C   UNL A   1      32.567  19.064  23.775  1.00  0.00     0.001 A 
BRANCH  12  16
ATOM     16  C   UNL A   1      32.393  22.670  24.945  1.00  0.00     0.026 C 
ATOM     17  C   UNL A   1      32.537  23.793  24.207  1.00  0.00     0.050 C 
ATOM     18  C   UNL A   1      33.354  23.895  22.932  1.00  0.00     0.256 C 
ATOM     19  C   UNL A   1      32.044  25.167  24.482  1.00  0.00     0.011 A 
ATOM     20  O   UNL A   1      33.834  23.022  22.249  1.00  0.00    -0.269 OA
ATOM     21  N   UNL A   1      33.460  25.250  22.678  1.00  0.00    -0.321 N 
ATOM     22  C   UNL A   1      32.687  25.996  23.551  1.00  0.00     0.049 A 
ATOM     23  C   UNL A   1      31.113  25.733  25.339  1.00  0.00     0.011 A 
ATOM     24  H   UNL A   1      34.018  25.636  21.964  1.00  0.00     0.170 HD
ATOM     25  C   UNL A   1      32.503  27.365  23.474  1.00  0.00     0.027 A 
ATOM     26  C   UNL A   1      30.883  27.123  25.261  1.00  0.00     0.001 A 
ATOM     27  C   UNL A   1      31.583  27.934  24.348  1.00  0.00     0.002 A 
ENDBRANCH  12  16
ENDBRANCH   9  10
ENDBRANCH   8   9
ENDBRANCH   6   8
ENDBRANCH   5   6
ENDBRANCH   4   5
ENDBRANCH   3   4
ENDBRANCH   2   3
ENDBRANCH   1   2
BRANCH   1  28
ATOM     28  C   UNL A   1      42.674  21.222  25.941  1.00  0.00     0.188 C 
BRANCH  28  29
ATOM     29  O   UNL A   1      44.082  21.220  25.758  1.00  0.00    -0.376 OA
BRANCH  29  30
ATOM     30  C   UNL A   1      44.763  22.462  25.775  1.00  0.00     0.202 C 
BRANCH  30  31
ATOM     31  C   UNL A   1      44.875  23.271  24.469  1.00  0.00     0.261 C 
BRANCH  31  32
ATOM     32  O   UNL A   1      44.277  24.587  24.466  1.00  0.00    -0.460 OA
BRANCH  32  33
ATOM     33  C   UNL A   1      44.933  25.557  25.159  1.00  0.00     0.338 C 
ATOM     34  O   UNL A   1      46.074  25.938  24.961  1.00  0.00    -0.246 OA
BRANCH  33  35
ATOM     35  C   UNL A   1      44.004  26.263  26.088  1.00  0.00     0.060 A 
ATOM     36  C   UNL A   1      44.158  27.648  26.285  1.00  0.00     0.016 A 
ATOM     37  C   UNL A   1      43.032  25.570  26.809  1.00  0.00     0.016 A 
ATOM     38  C   UNL A   1      43.390  28.326  27.239  1.00  0.00     0.010 A 
ATOM     39  C   UNL A   1      42.283  26.246  27.786  1.00  0.00     0.010 A 
ATOM     40  C   UNL A   1      42.493  27.616  28.043  1.00  0.00    -0.014 A 
BRANCH  40  41
ATOM     41  C   UNL A   1      41.980  28.224  29.304  1.00  0.00     0.031 A 
ATOM     42  C   UNL A   1      40.660  28.956  29.251  1.00  0.00     0.074 A 
ATOM     43  C   UNL A   1      42.645  28.151  30.472  1.00  0.00     0.049 A 
ATOM     44  N   UNL A   1      40.038  29.626  30.186  1.00  0.00    -0.248 NA
ATOM     45  C   UNL A   1      39.955  28.934  27.959  1.00  0.00     0.031 C 
ATOM     46  C   UNL A   1      43.910  27.454  30.687  1.00  0.00     0.029 A 
ATOM     47  N   UNL A   1      42.349  28.699  31.699  1.00  0.00    -0.354 N 
ATOM     48  C   UNL A   1      38.895  30.142  29.585  1.00  0.00     0.074 A 
ATOM     49  C   UNL A   1      38.918  29.717  28.203  1.00  0.00     0.031 C 
ATOM     50  C   UNL A   1      44.299  27.642  31.961  1.00  0.00     0.029 A 
ATOM     51  C   UNL A   1      43.327  28.496  32.644  1.00  0.00     0.049 A 
ATOM     52  H   UNL A   1      41.517  29.191  31.882  1.00  0.00     0.167 HD
ATOM     53  C   UNL A   1      37.907  30.894  30.127  1.00  0.00     0.034 A 
ATOM     54  C   UNL A   1      43.439  28.963  33.906  1.00  0.00     0.034 A 
ATOM     55  C   UNL A   1      37.871  31.311  31.504  1.00  0.00     0.049 A 
ATOM     56  C   UNL A   1      42.349  29.834  34.482  1.00  0.00     0.074 A 
ATOM     57  C   UNL A   1      36.887  32.033  32.157  1.00  0.00     0.029 A 
ATOM     58  N   UNL A   1      38.867  31.063  32.434  1.00  0.00    -0.354 N 
ATOM     59  N   UNL A   1      41.228  30.234  33.931  1.00  0.00    -0.248 NA
ATOM     60  C   UNL A   1      42.525  30.293  35.870  1.00  0.00     0.031 C 
ATOM     61  C   UNL A   1      37.315  32.265  33.469  1.00  0.00     0.029 A 
ATOM     62  C   UNL A   1      38.535  31.635  33.649  1.00  0.00     0.049 A 
ATOM     63  H   UNL A   1      39.692  30.554  32.255  1.00  0.00     0.167 HD
ATOM     64  C   UNL A   1      40.546  30.945  34.916  1.00  0.00     0.074 A 
ATOM     65  C   UNL A   1      41.377  30.916  36.100  1.00  0.00     0.031 C 
ATOM     66  C   UNL A   1      39.342  31.565  34.842  1.00  0.00     0.034 A 
BRANCH  53  67
ATOM     67  C   UNL A   1      36.784  31.324  29.217  1.00  0.00     0.023 A 
ATOM     68  C   UNL A   1      36.640  32.680  28.860  1.00  0.00     0.012 A 
ATOM     69  C   UNL A   1      35.880  30.376  28.698  1.00  0.00     0.148 A 
ATOM     70  C   UNL A   1      35.583  33.094  28.049  1.00  0.00     0.002 A 
ATOM     71  C   UNL A   1      34.862  30.788  27.847  1.00  0.00     0.091 A 
ATOM     72  F   UNL A   1      36.018  29.093  29.062  1.00  0.00    -0.205 F 
ATOM     73  C   UNL A   1      34.701  32.147  27.535  1.00  0.00     0.022 A 
BRANCH  71  74
ATOM     74  S   UNL A   1      33.729  29.632  27.066  1.00  0.00     0.127 S 
ATOM     75  O   UNL A   1      32.794  30.540  26.403  1.00  0.00    -0.237 OA
ATOM     76  O   UNL A   1      34.615  28.901  26.159  1.00  0.00    -0.237 OA
ATOM     77  O   UNL A   1      33.168  28.830  28.142  1.00  0.00    -0.744 OA
ENDBRANCH  71  74
ENDBRANCH  53  67
BRANCH  54  78
ATOM     78  C   UNL A   1      44.621  28.591  34.737  1.00  0.00     0.023 A 
ATOM     79  C   UNL A   1      45.846  29.259  34.541  1.00  0.00     0.012 A 
ATOM     80  C   UNL A   1      44.536  27.589  35.725  1.00  0.00     0.148 A 
ATOM     81  C   UNL A   1      46.970  28.919  35.295  1.00  0.00     0.002 A 
ATOM     82  C   UNL A   1      45.644  27.294  36.510  1.00  0.00     0.091 A 
ATOM     83  F   UNL A   1      43.366  26.955  35.884  1.00  0.00    -0.205 F 
ATOM     84  C   UNL A   1      46.868  27.945  36.285  1.00  0.00     0.022 A 
BRANCH  82  85
ATOM     85  S   UNL A   1      45.578  26.143  37.886  1.00  0.00     0.127 S 
ATOM     86  O   UNL A   1      46.943  26.210  38.401  1.00  0.00    -0.237 OA
ATOM     87  O   UNL A   1      44.565  26.762  38.741  1.00  0.00    -0.237 OA
ATOM     88  O   UNL A   1      45.186  24.862  37.315  1.00  0.00    -0.744 OA
ENDBRANCH  82  85
ENDBRANCH  54  78
BRANCH  66  89
ATOM     89  C   UNL A   1      38.799  32.216  36.091  1.00  0.00     0.023 A 
ATOM     90  C   UNL A   1      38.897  33.610  36.272  1.00  0.00     0.012 A 
ATOM     91  C   UNL A   1      38.122  31.443  37.059  1.00  0.00     0.148 A 
ATOM     92  C   UNL A   1      38.365  34.218  37.412  1.00  0.00     0.002 A 
ATOM     93  C   UNL A   1      37.547  32.062  38.161  1.00  0.00     0.091 A 
ATOM     94  F   UNL A   1      38.050  30.117  36.879  1.00  0.00    -0.205 F 
ATOM     95  C   UNL A   1      37.681  33.446  38.348  1.00  0.00     0.022 A 
BRANCH  93  96
ATOM     96  S   UNL A   1      36.560  31.164  39.366  1.00  0.00     0.127 S 
ATOM     97  O   UNL A   1      37.552  30.859  40.396  1.00  0.00    -0.237 OA
ATOM     98  O   UNL A   1      35.564  32.163  39.756  1.00  0.00    -0.237 OA
ATOM     99  O   UNL A   1      36.017  30.010  38.663  1.00  0.00    -0.744 OA
ENDBRANCH  93  96
ENDBRANCH  66  89
ENDBRANCH  40  41
ENDBRANCH  33  35
ENDBRANCH  32  33
ENDBRANCH  31  32
ENDBRANCH  30  31
ENDBRANCH  29  30
ENDBRANCH  28  29
ENDBRANCH   1  28
TORSDOF 23
ENDMDL
MODEL 3
REMARK VINA RESULT:      -9.9      5.459      9.011
REMARK SMILES O=C(COc1ccccc1/C=C1\C(=O)Nc2ccccc21)OCCOCCOCCOC(=O)c1ccc(-c2c3nc(c(-c4cccc(S(=O)(=O)[O-])c4F)c4ccc([nH]4)c(-c4cccc(S(=O)(=O)[O-])c4F)c4nc(c(-c5cccc(S(=O)(=O)[O-])c5F)c5ccc2[nH]5)C=C4)C=C3)cc1
REMARK SMILES IDX 26 1 25 2 24 3 23 4 22 5 2 6 1 7 3 8 4 9 5 10 6 11 10 12
REMARK SMILES IDX 7 13 9 14 8 15 11 16 12 17 13 18 21 19 14 20 15 21 16 22
REMARK SMILES IDX 20 23 17 25 19 26 18 27 27 28 28 29 29 30 30 31 31 32 32 33
REMARK SMILES IDX 33 34 34 35 35 36 96 37 36 38 95 39 37 40 38 41 39 42 89 43
REMARK SMILES IDX 40 44 94 45 88 46 90 47 41 48 93 49 87 50 86 51 42 53 74 54
REMARK SMILES IDX 54 55 73 56 55 57 58 58 72 59 91 60 56 61 57 62 71 64 92 65
REMARK SMILES IDX 59 66 43 67 44 68 52 69 45 70 47 71 53 72 46 73 48 74 49 75
REMARK SMILES IDX 50 76 51 77 75 78 76 79 84 80 77 81 79 82 85 83 78 84 80 85
REMARK SMILES IDX 81 86 82 87 83 88 60 89 61 90 69 91 62 92 64 93 70 94 63 95
REMARK SMILES IDX 65 96 66 97 67 98 68 99
REMARK H PARENT 15 24 90 52 58 63
REMARK Flexibility Score: inf
ROOT
ATOM      1  C   UNL A   1      38.444  23.092  26.291  1.00  0.00     0.188 C 
ENDROOT
BRANCH   1   2
ATOM      2  O   UNL A   1      37.624  23.794  25.374  1.00  0.00    -0.376 OA
BRANCH   2   3
ATOM      3  C   UNL A   1      36.333  23.260  25.162  1.00  0.00     0.202 C 
BRANCH   3   4
ATOM      4  C   UNL A   1      35.423  23.289  26.391  1.00  0.00     0.261 C 
BRANCH   4   5
ATOM      5  O   UNL A   1      34.270  24.179  26.360  1.00  0.00    -0.461 OA
BRANCH   5   6
ATOM      6  C   UNL A   1      32.944  23.926  26.493  1.00  0.00     0.344 C 
ATOM      7  O   UNL A   1      32.563  23.115  27.338  1.00  0.00    -0.248 OA
BRANCH   6   8
ATOM      8  C   UNL A   1      31.960  24.596  25.568  1.00  0.00     0.351 C 
BRANCH   8   9
ATOM      9  O   UNL A   1      32.613  25.573  24.785  1.00  0.00    -0.481 OA
BRANCH   9  10
ATOM     10  C   UNL A   1      32.655  25.195  23.477  1.00  0.00     0.127 A 
ATOM     11  C   UNL A   1      33.164  23.905  23.286  1.00  0.00     0.047 A 
ATOM     12  C   UNL A   1      32.256  26.021  22.408  1.00  0.00     0.017 A 
ATOM     13  C   UNL A   1      33.281  23.398  22.005  1.00  0.00     0.004 A 
ATOM     14  C   UNL A   1      32.494  25.518  21.124  1.00  0.00     0.012 A 
ATOM     15  C   UNL A   1      32.964  24.213  20.924  1.00  0.00     0.001 A 
BRANCH  12  16
ATOM     16  C   UNL A   1      31.610  27.359  22.561  1.00  0.00     0.026 C 
ATOM     17  C   UNL A   1      30.346  27.600  22.972  1.00  0.00     0.050 C 
ATOM     18  C   UNL A   1      29.320  26.530  23.302  1.00  0.00     0.256 C 
ATOM     19  C   UNL A   1      29.634  28.896  23.109  1.00  0.00     0.011 A 
ATOM     20  O   UNL A   1      29.467  25.341  23.457  1.00  0.00    -0.269 OA
ATOM     21  N   UNL A   1      28.114  27.199  23.392  1.00  0.00    -0.321 N 
ATOM     22  C   UNL A   1      28.284  28.571  23.309  1.00  0.00     0.049 A 
ATOM     23  C   UNL A   1      30.005  30.231  23.149  1.00  0.00     0.011 A 
ATOM     24  H   UNL A   1      27.243  26.755  23.502  1.00  0.00     0.170 HD
ATOM     25  C   UNL A   1      27.278  29.505  23.479  1.00  0.00     0.027 A 
ATOM     26  C   UNL A   1      29.003  31.203  23.352  1.00  0.00     0.001 A 
ATOM     27  C   UNL A   1      27.650  30.845  23.499  1.00  0.00     0.002 A 
ENDBRANCH  12  16
ENDBRANCH   9  10
ENDBRANCH   8   9
ENDBRANCH   6   8
ENDBRANCH   5   6
ENDBRANCH   4   5
ENDBRANCH   3   4
ENDBRANCH   2   3
ENDBRANCH   1   2
BRANCH   1  28
ATOM     28  C   UNL A   1      38.668  21.605  25.933  1.00  0.00     0.188 C 
BRANCH  28  29
ATOM     29  O   UNL A   1      39.829  20.938  26.406  1.00  0.00    -0.376 OA
BRANCH  29  30
ATOM     30  C   UNL A   1      40.141  19.668  25.864  1.00  0.00     0.202 C 
BRANCH  30  31
ATOM     31  C   UNL A   1      41.540  19.072  26.114  1.00  0.00     0.261 C 
BRANCH  31  32
ATOM     32  O   UNL A   1      42.529  19.280  25.082  1.00  0.00    -0.460 OA
BRANCH  32  33
ATOM     33  C   UNL A   1      43.646  19.973  25.436  1.00  0.00     0.338 C 
ATOM     34  O   UNL A   1      44.799  19.626  25.248  1.00  0.00    -0.246 OA
BRANCH  33  35
ATOM     35  C   UNL A   1      43.290  21.339  25.916  1.00  0.00     0.060 A 
ATOM     36  C   UNL A   1      43.012  22.344  24.971  1.00  0.00     0.016 A 
ATOM     37  C   UNL A   1      43.289  21.653  27.275  1.00  0.00     0.016 A 
ATOM     38  C   UNL A   1      42.796  23.666  25.373  1.00  0.00     0.010 A 
ATOM     39  C   UNL A   1      43.100  22.986  27.675  1.00  0.00     0.010 A 
ATOM     40  C   UNL A   1      42.904  24.009  26.725  1.00  0.00    -0.014 A 
BRANCH  40  41
ATOM     41  C   UNL A   1      43.079  25.436  27.120  1.00  0.00     0.031 A 
ATOM     42  C   UNL A   1      44.450  26.052  26.965  1.00  0.00     0.074 A 
ATOM     43  C   UNL A   1      42.073  26.185  27.609  1.00  0.00     0.049 A 
ATOM     44  N   UNL A   1      44.873  27.242  27.301  1.00  0.00    -0.248 NA
ATOM     45  C   UNL A   1      45.482  25.196  26.357  1.00  0.00     0.031 C 
ATOM     46  C   UNL A   1      40.693  25.743  27.786  1.00  0.00     0.029 A 
ATOM     47  N   UNL A   1      42.075  27.481  28.073  1.00  0.00    -0.354 N 
ATOM     48  C   UNL A   1      46.229  27.263  26.987  1.00  0.00     0.074 A 
ATOM     49  C   UNL A   1      46.556  25.962  26.448  1.00  0.00     0.031 C 
ATOM     50  C   UNL A   1      39.986  26.740  28.349  1.00  0.00     0.029 A 
ATOM     51  C   UNL A   1      40.869  27.879  28.600  1.00  0.00     0.049 A 
ATOM     52  H   UNL A   1      42.865  28.067  28.033  1.00  0.00     0.167 HD
ATOM     53  C   UNL A   1      47.124  28.270  27.125  1.00  0.00     0.034 A 
ATOM     54  C   UNL A   1      40.520  29.021  29.232  1.00  0.00     0.034 A 
ATOM     55  C   UNL A   1      46.804  29.571  27.650  1.00  0.00     0.049 A 
ATOM     56  C   UNL A   1      41.541  30.118  29.414  1.00  0.00     0.074 A 
ATOM     57  C   UNL A   1      47.633  30.671  27.783  1.00  0.00     0.029 A 
ATOM     58  N   UNL A   1      45.566  29.942  28.149  1.00  0.00    -0.354 N 
ATOM     59  N   UNL A   1      42.794  30.158  29.026  1.00  0.00    -0.248 NA
ATOM     60  C   UNL A   1      41.090  31.342  30.094  1.00  0.00     0.031 C 
ATOM     61  C   UNL A   1      46.907  31.691  28.409  1.00  0.00     0.029 A 
ATOM     62  C   UNL A   1      45.611  31.246  28.610  1.00  0.00     0.049 A 
ATOM     63  H   UNL A   1      44.770  29.362  28.172  1.00  0.00     0.167 HD
ATOM     64  C   UNL A   1      43.262  31.424  29.369  1.00  0.00     0.074 A 
ATOM     65  C   UNL A   1      42.158  32.123  29.991  1.00  0.00     0.031 C 
ATOM     66  C   UNL A   1      44.496  31.957  29.186  1.00  0.00     0.034 A 
BRANCH  53  67
ATOM     67  C   UNL A   1      48.547  27.995  26.707  1.00  0.00     0.023 A 
ATOM     68  C   UNL A   1      49.544  27.782  27.681  1.00  0.00     0.012 A 
ATOM     69  C   UNL A   1      48.892  27.930  25.342  1.00  0.00     0.148 A 
ATOM     70  C   UNL A   1      50.869  27.563  27.305  1.00  0.00     0.002 A 
ATOM     71  C   UNL A   1      50.204  27.657  24.975  1.00  0.00     0.091 A 
ATOM     72  F   UNL A   1      47.937  28.154  24.428  1.00  0.00    -0.205 F 
ATOM     73  C   UNL A   1      51.197  27.491  25.954  1.00  0.00     0.022 A 
BRANCH  71  74
ATOM     74  S   UNL A   1      50.707  27.460  23.262  1.00  0.00     0.127 S 
ATOM     75  O   UNL A   1      49.557  26.756  22.697  1.00  0.00    -0.237 OA
ATOM     76  O   UNL A   1      50.847  28.849  22.823  1.00  0.00    -0.237 OA
ATOM     77  O   UNL A   1      51.950  26.705  23.292  1.00  0.00    -0.744 OA
ENDBRANCH  71  74
ENDBRANCH  53  67
BRANCH  54  78
ATOM     78  C   UNL A   1      39.122  29.207  29.718  1.00  0.00     0.023 A 
ATOM     79  C   UNL A   1      38.774  28.774  31.013  1.00  0.00     0.012 A 
ATOM     80  C   UNL A   1      38.142  29.819  28.912  1.00  0.00     0.148 A 
ATOM     81  C   UNL A   1      37.469  28.923  31.486  1.00  0.00     0.002 A 
ATOM     82  C   UNL A   1      36.859  30.015  29.410  1.00  0.00     0.091 A 
ATOM     83  F   UNL A   1      38.490  30.210  27.678  1.00  0.00    -0.205 F 
ATOM     84  C   UNL A   1      36.515  29.552  30.690  1.00  0.00     0.022 A 
BRANCH  82  85
ATOM     85  S   UNL A   1      35.597  30.920  28.508  1.00  0.00     0.127 S 
ATOM     86  O   UNL A   1      36.402  31.761  27.626  1.00  0.00    -0.237 OA
ATOM     87  O   UNL A   1      34.877  29.836  27.839  1.00  0.00    -0.237 OA
ATOM     88  O   UNL A   1      34.821  31.631  29.514  1.00  0.00    -0.744 OA
ENDBRANCH  82  85
ENDBRANCH  54  78
BRANCH  66  89
ATOM     89  C   UNL A   1      44.721  33.392  29.597  1.00  0.00     0.023 A 
ATOM     90  C   UNL A   1      45.226  33.698  30.876  1.00  0.00     0.012 A 
ATOM     91  C   UNL A   1      44.496  34.439  28.678  1.00  0.00     0.148 A 
ATOM     92  C   UNL A   1      45.467  35.024  31.247  1.00  0.00     0.002 A 
ATOM     93  C   UNL A   1      44.790  35.749  29.034  1.00  0.00     0.091 A 
ATOM     94  F   UNL A   1      44.001  34.131  27.471  1.00  0.00    -0.205 F 
ATOM     95  C   UNL A   1      45.260  36.045  30.323  1.00  0.00     0.022 A 
BRANCH  93  96
ATOM     96  S   UNL A   1      44.652  37.117  27.877  1.00  0.00     0.127 S 
ATOM     97  O   UNL A   1      43.270  36.982  27.418  1.00  0.00    -0.237 OA
ATOM     98  O   UNL A   1      44.898  38.275  28.737  1.00  0.00    -0.237 OA
ATOM     99  O   UNL A   1      45.671  36.891  26.861  1.00  0.00    -0.744 OA
ENDBRANCH  93  96
ENDBRANCH  66  89
ENDBRANCH  40  41
ENDBRANCH  33  35
ENDBRANCH  32  33
ENDBRANCH  31  32
ENDBRANCH  30  31
ENDBRANCH  29  30
ENDBRANCH  28  29
ENDBRANCH   1  28
TORSDOF 23
ENDMDL
