MODEL 1
REMARK VINA RESULT:     -10.9      0.000      0.000
REMARK SMILES Nc1cc(C(=O)OCCOCCOCCOC(=O)c2ccc(-c3c4nc(c(-c5cccc(S(=O)(=O)[O-])c5F)c5ccc([nH]5)c(-c5cccc(S(=O)(=O)[O-])c5F)c5nc(c(-c6cccc(S(=O)(=O)[O-])c6F)c6ccc3[nH]6)C=C5)C=C4)cc2)ccc1N1CC2(CCOCC2)C1
REMARK SMILES IDX 12 1 11 2 10 3 9 4 8 5 7 6 5 7 6 8 4 9 2 10 3 11 84 12 83 13
REMARK SMILES IDX 82 14 1 15 85 18 86 19 93 20 87 21 88 22 92 23 89 24 91 25
REMARK SMILES IDX 90 26 13 27 14 28 15 29 16 30 17 31 18 32 19 33 20 34 81 35
REMARK SMILES IDX 21 36 80 37 22 38 23 39 24 40 74 41 25 42 79 43 73 44 75 45
REMARK SMILES IDX 26 46 78 47 72 48 71 49 27 51 59 52 39 53 58 54 40 55 43 56
REMARK SMILES IDX 57 57 76 58 41 59 42 60 56 62 77 63 44 64 28 65 29 66 37 67
REMARK SMILES IDX 30 68 32 69 38 70 31 71 33 72 34 73 35 74 36 75 60 76 61 77
REMARK SMILES IDX 69 78 62 79 64 80 70 81 63 82 65 83 66 84 67 85 68 86 45 87
REMARK SMILES IDX 46 88 54 89 47 90 49 91 55 92 48 93 50 94 51 95 52 96 53 97
REMARK H PARENT 1 16 1 17 75 50 43 61
REMARK Flexibility Score: inf
ROOT
ATOM      1  C   UNL A   1      33.452  29.426  25.248  1.00  0.00     0.188 C 
ENDROOT
BRANCH   1   2
ATOM      2  C   UNL A   1      33.613  28.063  24.541  1.00  0.00     0.188 C 
BRANCH   2   3
ATOM      3  O   UNL A   1      32.725  27.718  23.500  1.00  0.00    -0.376 OA
BRANCH   3   4
ATOM      4  C   UNL A   1      31.328  27.896  23.642  1.00  0.00     0.202 C 
BRANCH   4   5
ATOM      5  C   UNL A   1      30.442  27.122  24.631  1.00  0.00     0.261 C 
BRANCH   5   6
ATOM      6  O   UNL A   1      31.114  26.436  25.690  1.00  0.00    -0.460 OA
BRANCH   6   7
ATOM      7  C   UNL A   1      30.529  25.266  26.065  1.00  0.00     0.338 C 
ATOM      8  O   UNL A   1      29.456  25.123  26.604  1.00  0.00    -0.246 OA
BRANCH   7   9
ATOM      9  C   UNL A   1      31.331  24.128  25.571  1.00  0.00     0.062 A 
ATOM     10  C   UNL A   1      31.787  22.595  23.723  1.00  0.00     0.056 A 
ATOM     11  C   UNL A   1      31.121  23.711  24.251  1.00  0.00     0.043 A 
ATOM     12  C   UNL A   1      32.686  21.885  24.550  1.00  0.00     0.060 A 
ATOM     13  C   UNL A   1      32.910  22.351  25.866  1.00  0.00     0.029 A 
ATOM     14  C   UNL A   1      32.253  23.473  26.376  1.00  0.00     0.018 A 
BRANCH  10  15
ATOM     15  N   UNL A   1      31.553  22.289  22.389  1.00  0.00    -0.397 N 
ATOM     16  H   UNL A   1      32.213  21.764  21.881  1.00  0.00     0.156 HD
ATOM     17  H   UNL A   1      30.727  22.598  21.951  1.00  0.00     0.156 HD
ENDBRANCH  10  15
BRANCH  12  18
ATOM     18  N   UNL A   1      33.320  20.670  24.205  1.00  0.00    -0.369 N 
ATOM     19  C   UNL A   1      32.893  19.461  23.582  1.00  0.00     0.125 C 
ATOM     20  C   UNL A   1      34.302  20.028  25.034  1.00  0.00     0.125 C 
ATOM     21  C   UNL A   1      33.663  18.674  24.672  1.00  0.00     0.010 C 
ATOM     22  C   UNL A   1      34.675  17.631  24.190  1.00  0.00     0.039 C 
ATOM     23  C   UNL A   1      32.800  18.083  25.798  1.00  0.00     0.039 C 
ATOM     24  C   UNL A   1      33.934  16.358  23.801  1.00  0.00     0.161 C 
ATOM     25  C   UNL A   1      32.161  16.790  25.306  1.00  0.00     0.161 C 
ATOM     26  O   UNL A   1      33.177  15.866  24.909  1.00  0.00    -0.381 OA
ENDBRANCH  12  18
ENDBRANCH   7   9
ENDBRANCH   6   7
ENDBRANCH   5   6
ENDBRANCH   4   5
ENDBRANCH   3   4
ENDBRANCH   2   3
ENDBRANCH   1   2
BRANCH   1  27
ATOM     27  O   UNL A   1      32.593  29.566  26.362  1.00  0.00    -0.376 OA
BRANCH  27  28
ATOM     28  C   UNL A   1      31.510  30.479  26.315  1.00  0.00     0.202 C 
BRANCH  28  29
ATOM     29  C   UNL A   1      31.592  31.933  26.808  1.00  0.00     0.261 C 
BRANCH  29  30
ATOM     30  O   UNL A   1      32.834  32.611  26.607  1.00  0.00    -0.460 OA
BRANCH  30  31
ATOM     31  C   UNL A   1      33.336  33.228  27.705  1.00  0.00     0.338 C 
ATOM     32  O   UNL A   1      32.820  34.124  28.352  1.00  0.00    -0.246 OA
BRANCH  31  33
ATOM     33  C   UNL A   1      34.566  32.536  28.127  1.00  0.00     0.060 A 
ATOM     34  C   UNL A   1      34.492  31.177  28.457  1.00  0.00     0.016 A 
ATOM     35  C   UNL A   1      35.768  33.234  28.244  1.00  0.00     0.016 A 
ATOM     36  C   UNL A   1      35.623  30.511  28.927  1.00  0.00     0.010 A 
ATOM     37  C   UNL A   1      36.894  32.571  28.736  1.00  0.00     0.010 A 
ATOM     38  C   UNL A   1      36.819  31.215  29.107  1.00  0.00    -0.014 A 
BRANCH  38  39
ATOM     39  C   UNL A   1      37.947  30.584  29.832  1.00  0.00     0.031 A 
ATOM     40  C   UNL A   1      38.204  30.990  31.258  1.00  0.00     0.074 A 
ATOM     41  C   UNL A   1      38.740  29.680  29.230  1.00  0.00     0.049 A 
ATOM     42  N   UNL A   1      39.160  30.615  32.065  1.00  0.00    -0.248 NA
ATOM     43  C   UNL A   1      37.256  31.949  31.851  1.00  0.00     0.031 C 
ATOM     44  C   UNL A   1      38.589  29.203  27.856  1.00  0.00     0.029 A 
ATOM     45  N   UNL A   1      39.854  29.026  29.694  1.00  0.00    -0.354 N 
ATOM     46  C   UNL A   1      38.954  31.317  33.247  1.00  0.00     0.074 A 
ATOM     47  C   UNL A   1      37.782  32.141  33.052  1.00  0.00     0.031 C 
ATOM     48  C   UNL A   1      39.596  28.358  27.576  1.00  0.00     0.029 A 
ATOM     49  C   UNL A   1      40.475  28.255  28.740  1.00  0.00     0.049 A 
ATOM     50  H   UNL A   1      40.176  29.101  30.621  1.00  0.00     0.167 HD
ATOM     51  C   UNL A   1      39.669  31.270  34.395  1.00  0.00     0.034 A 
ATOM     52  C   UNL A   1      41.636  27.571  28.794  1.00  0.00     0.034 A 
ATOM     53  C   UNL A   1      40.824  30.437  34.594  1.00  0.00     0.049 A 
ATOM     54  C   UNL A   1      42.429  27.561  30.078  1.00  0.00     0.074 A 
ATOM     55  C   UNL A   1      41.583  30.281  35.739  1.00  0.00     0.029 A 
ATOM     56  N   UNL A   1      41.397  29.634  33.621  1.00  0.00    -0.354 N 
ATOM     57  N   UNL A   1      42.150  28.128  31.226  1.00  0.00    -0.248 NA
ATOM     58  C   UNL A   1      43.681  26.789  30.080  1.00  0.00     0.031 C 
ATOM     59  C   UNL A   1      42.637  29.410  35.449  1.00  0.00     0.029 A 
ATOM     60  C   UNL A   1      42.510  28.992  34.134  1.00  0.00     0.049 A 
ATOM     61  H   UNL A   1      41.062  29.536  32.701  1.00  0.00     0.167 HD
ATOM     62  C   UNL A   1      43.167  27.747  32.097  1.00  0.00     0.074 A 
ATOM     63  C   UNL A   1      44.057  26.885  31.348  1.00  0.00     0.031 C 
ATOM     64  C   UNL A   1      43.354  28.088  33.397  1.00  0.00     0.034 A 
BRANCH  51  65
ATOM     65  C   UNL A   1      39.218  32.136  35.540  1.00  0.00     0.023 A 
ATOM     66  C   UNL A   1      38.328  31.618  36.502  1.00  0.00     0.012 A 
ATOM     67  C   UNL A   1      39.730  33.439  35.702  1.00  0.00     0.148 A 
ATOM     68  C   UNL A   1      37.936  32.390  37.595  1.00  0.00     0.002 A 
ATOM     69  C   UNL A   1      39.370  34.185  36.817  1.00  0.00     0.091 A 
ATOM     70  F   UNL A   1      40.558  33.919  34.764  1.00  0.00    -0.205 F 
ATOM     71  C   UNL A   1      38.465  33.667  37.758  1.00  0.00     0.022 A 
BRANCH  69  72
ATOM     72  S   UNL A   1      40.060  35.808  37.160  1.00  0.00     0.127 S 
ATOM     73  O   UNL A   1      39.369  36.166  38.398  1.00  0.00    -0.237 OA
ATOM     74  O   UNL A   1      41.482  35.508  37.321  1.00  0.00    -0.237 OA
ATOM     75  O   UNL A   1      39.737  36.636  36.007  1.00  0.00    -0.744 OA
ENDBRANCH  69  72
ENDBRANCH  51  65
BRANCH  52  76
ATOM     76  C   UNL A   1      42.119  26.811  27.604  1.00  0.00     0.023 A 
ATOM     77  C   UNL A   1      42.792  27.493  26.572  1.00  0.00     0.012 A 
ATOM     78  C   UNL A   1      41.900  25.426  27.483  1.00  0.00     0.148 A 
ATOM     79  C   UNL A   1      43.203  26.816  25.422  1.00  0.00     0.002 A 
ATOM     80  C   UNL A   1      42.362  24.747  26.362  1.00  0.00     0.091 A 
ATOM     81  F   UNL A   1      41.241  24.798  28.467  1.00  0.00    -0.205 F 
ATOM     82  C   UNL A   1      42.997  25.443  25.321  1.00  0.00     0.022 A 
BRANCH  80  83
ATOM     83  S   UNL A   1      42.245  22.962  26.199  1.00  0.00     0.127 S 
ATOM     84  O   UNL A   1      42.970  22.506  27.381  1.00  0.00    -0.237 OA
ATOM     85  O   UNL A   1      40.797  22.751  26.243  1.00  0.00    -0.237 OA
ATOM     86  O   UNL A   1      42.859  22.645  24.918  1.00  0.00    -0.744 OA
ENDBRANCH  80  83
ENDBRANCH  52  76
BRANCH  64  87
ATOM     87  C   UNL A   1      44.533  27.490  34.120  1.00  0.00     0.023 A 
ATOM     88  C   UNL A   1      45.679  28.270  34.370  1.00  0.00     0.012 A 
ATOM     89  C   UNL A   1      44.469  26.175  34.625  1.00  0.00     0.148 A 
ATOM     90  C   UNL A   1      46.757  27.741  35.080  1.00  0.00     0.002 A 
ATOM     91  C   UNL A   1      45.525  25.672  35.376  1.00  0.00     0.091 A 
ATOM     92  F   UNL A   1      43.378  25.442  34.365  1.00  0.00    -0.205 F 
ATOM     93  C   UNL A   1      46.675  26.448  35.593  1.00  0.00     0.022 A 
BRANCH  91  94
ATOM     94  S   UNL A   1      45.466  24.057  36.162  1.00  0.00     0.127 S 
ATOM     95  O   UNL A   1      46.575  23.367  35.507  1.00  0.00    -0.237 OA
ATOM     96  O   UNL A   1      45.698  24.387  37.568  1.00  0.00    -0.237 OA
ATOM     97  O   UNL A   1      44.142  23.521  35.878  1.00  0.00    -0.744 OA
ENDBRANCH  91  94
ENDBRANCH  64  87
ENDBRANCH  38  39
ENDBRANCH  31  33
ENDBRANCH  30  31
ENDBRANCH  29  30
ENDBRANCH  28  29
ENDBRANCH  27  28
ENDBRANCH   1  27
TORSDOF 22
ENDMDL
MODEL 2
REMARK VINA RESULT:     -10.6      2.111      7.555
REMARK SMILES Nc1cc(C(=O)OCCOCCOCCOC(=O)c2ccc(-c3c4nc(c(-c5cccc(S(=O)(=O)[O-])c5F)c5ccc([nH]5)c(-c5cccc(S(=O)(=O)[O-])c5F)c5nc(c(-c6cccc(S(=O)(=O)[O-])c6F)c6ccc3[nH]6)C=C5)C=C4)cc2)ccc1N1CC2(CCOCC2)C1
REMARK SMILES IDX 12 1 11 2 10 3 9 4 8 5 7 6 5 7 6 8 4 9 2 10 3 11 84 12 83 13
REMARK SMILES IDX 82 14 1 15 85 18 86 19 93 20 87 21 88 22 92 23 89 24 91 25
REMARK SMILES IDX 90 26 13 27 14 28 15 29 16 30 17 31 18 32 19 33 20 34 81 35
REMARK SMILES IDX 21 36 80 37 22 38 23 39 24 40 74 41 25 42 79 43 73 44 75 45
REMARK SMILES IDX 26 46 78 47 72 48 71 49 27 51 59 52 39 53 58 54 40 55 43 56
REMARK SMILES IDX 57 57 76 58 41 59 42 60 56 62 77 63 44 64 28 65 29 66 37 67
REMARK SMILES IDX 30 68 32 69 38 70 31 71 33 72 34 73 35 74 36 75 60 76 61 77
REMARK SMILES IDX 69 78 62 79 64 80 70 81 63 82 65 83 66 84 67 85 68 86 45 87
REMARK SMILES IDX 46 88 54 89 47 90 49 91 55 92 48 93 50 94 51 95 52 96 53 97
REMARK H PARENT 1 16 1 17 75 50 43 61
REMARK Flexibility Score: inf
ROOT
ATOM      1  C   UNL A   1      32.371  29.215  23.814  1.00  0.00     0.188 C 
ENDROOT
BRANCH   1   2
ATOM      2  C   UNL A   1      31.873  28.598  22.490  1.00  0.00     0.188 C 
BRANCH   2   3
ATOM      3  O   UNL A   1      30.543  28.824  22.080  1.00  0.00    -0.376 OA
BRANCH   3   4
ATOM      4  C   UNL A   1      29.456  28.565  22.950  1.00  0.00     0.202 C 
BRANCH   4   5
ATOM      5  C   UNL A   1      29.109  27.185  23.532  1.00  0.00     0.261 C 
BRANCH   5   6
ATOM      6  O   UNL A   1      30.152  26.207  23.522  1.00  0.00    -0.460 OA
BRANCH   6   7
ATOM      7  C   UNL A   1      30.346  25.578  24.713  1.00  0.00     0.338 C 
ATOM      8  O   UNL A   1      30.004  25.959  25.809  1.00  0.00    -0.246 OA
BRANCH   7   9
ATOM      9  C   UNL A   1      30.917  24.235  24.479  1.00  0.00     0.062 A 
ATOM     10  C   UNL A   1      31.795  22.183  25.475  1.00  0.00     0.056 A 
ATOM     11  C   UNL A   1      31.187  23.441  25.600  1.00  0.00     0.043 A 
ATOM     12  C   UNL A   1      32.137  21.718  24.185  1.00  0.00     0.060 A 
ATOM     13  C   UNL A   1      31.816  22.523  23.066  1.00  0.00     0.029 A 
ATOM     14  C   UNL A   1      31.196  23.766  23.203  1.00  0.00     0.018 A 
BRANCH  10  15
ATOM     15  N   UNL A   1      31.976  21.447  26.638  1.00  0.00    -0.397 N 
ATOM     16  H   UNL A   1      31.289  20.803  26.925  1.00  0.00     0.156 HD
ATOM     17  H   UNL A   1      32.792  21.569  27.175  1.00  0.00     0.156 HD
ENDBRANCH  10  15
BRANCH  12  18
ATOM     18  N   UNL A   1      32.872  20.543  23.914  1.00  0.00    -0.369 N 
ATOM     19  C   UNL A   1      32.530  19.219  23.509  1.00  0.00     0.125 C 
ATOM     20  C   UNL A   1      34.018  20.133  24.678  1.00  0.00     0.125 C 
ATOM     21  C   UNL A   1      33.515  18.681  24.577  1.00  0.00     0.010 C 
ATOM     22  C   UNL A   1      34.585  17.696  24.100  1.00  0.00     0.039 C 
ATOM     23  C   UNL A   1      32.871  18.164  25.873  1.00  0.00     0.039 C 
ATOM     24  C   UNL A   1      33.969  16.308  23.975  1.00  0.00     0.161 C 
ATOM     25  C   UNL A   1      32.344  16.753  25.636  1.00  0.00     0.161 C 
ATOM     26  O   UNL A   1      33.415  15.898  25.227  1.00  0.00    -0.381 OA
ENDBRANCH  12  18
ENDBRANCH   7   9
ENDBRANCH   6   7
ENDBRANCH   5   6
ENDBRANCH   4   5
ENDBRANCH   3   4
ENDBRANCH   2   3
ENDBRANCH   1   2
BRANCH   1  27
ATOM     27  O   UNL A   1      32.372  28.461  25.010  1.00  0.00    -0.376 OA
BRANCH  27  28
ATOM     28  C   UNL A   1      31.734  28.965  26.169  1.00  0.00     0.202 C 
BRANCH  28  29
ATOM     29  C   UNL A   1      32.184  30.233  26.913  1.00  0.00     0.261 C 
BRANCH  29  30
ATOM     30  O   UNL A   1      33.549  30.625  26.748  1.00  0.00    -0.460 OA
BRANCH  30  31
ATOM     31  C   UNL A   1      33.945  31.666  27.522  1.00  0.00     0.338 C 
ATOM     32  O   UNL A   1      33.311  32.672  27.790  1.00  0.00    -0.246 OA
BRANCH  31  33
ATOM     33  C   UNL A   1      35.234  31.334  28.153  1.00  0.00     0.060 A 
ATOM     34  C   UNL A   1      35.398  30.061  28.716  1.00  0.00     0.016 A 
ATOM     35  C   UNL A   1      36.251  32.286  28.232  1.00  0.00     0.016 A 
ATOM     36  C   UNL A   1      36.579  29.741  29.382  1.00  0.00     0.010 A 
ATOM     37  C   UNL A   1      37.425  31.970  28.919  1.00  0.00     0.010 A 
ATOM     38  C   UNL A   1      37.582  30.708  29.522  1.00  0.00    -0.014 A 
BRANCH  38  39
ATOM     39  C   UNL A   1      38.725  30.460  30.432  1.00  0.00     0.031 A 
ATOM     40  C   UNL A   1      39.781  29.473  30.011  1.00  0.00     0.074 A 
ATOM     41  C   UNL A   1      38.817  31.087  31.618  1.00  0.00     0.049 A 
ATOM     42  N   UNL A   1      40.833  29.059  30.665  1.00  0.00    -0.248 NA
ATOM     43  C   UNL A   1      39.625  28.872  28.676  1.00  0.00     0.031 C 
ATOM     44  C   UNL A   1      37.861  32.066  32.133  1.00  0.00     0.029 A 
ATOM     45  N   UNL A   1      39.747  30.964  32.620  1.00  0.00    -0.354 N 
ATOM     46  C   UNL A   1      41.446  28.123  29.840  1.00  0.00     0.074 A 
ATOM     47  C   UNL A   1      40.647  28.029  28.638  1.00  0.00     0.031 C 
ATOM     48  C   UNL A   1      38.236  32.430  33.372  1.00  0.00     0.029 A 
ATOM     49  C   UNL A   1      39.441  31.690  33.746  1.00  0.00     0.049 A 
ATOM     50  H   UNL A   1      40.557  30.410  32.538  1.00  0.00     0.167 HD
ATOM     51  C   UNL A   1      42.578  27.414  30.059  1.00  0.00     0.034 A 
ATOM     52  C   UNL A   1      40.048  31.728  34.950  1.00  0.00     0.034 A 
ATOM     53  C   UNL A   1      43.381  27.521  31.247  1.00  0.00     0.049 A 
ATOM     54  C   UNL A   1      41.292  30.905  35.175  1.00  0.00     0.074 A 
ATOM     55  C   UNL A   1      44.574  26.884  31.537  1.00  0.00     0.029 A 
ATOM     56  N   UNL A   1      43.065  28.302  32.347  1.00  0.00    -0.354 N 
ATOM     57  N   UNL A   1      41.930  30.123  34.339  1.00  0.00    -0.248 NA
ATOM     58  C   UNL A   1      41.917  30.994  36.504  1.00  0.00     0.031 C 
ATOM     59  C   UNL A   1      44.962  27.253  32.828  1.00  0.00     0.029 A 
ATOM     60  C   UNL A   1      44.032  28.151  33.325  1.00  0.00     0.049 A 
ATOM     61  H   UNL A   1      42.271  28.878  32.422  1.00  0.00     0.167 HD
ATOM     62  C   UNL A   1      43.051  29.663  35.023  1.00  0.00     0.074 A 
ATOM     63  C   UNL A   1      43.015  30.269  36.338  1.00  0.00     0.031 C 
ATOM     64  C   UNL A   1      44.018  28.808  34.608  1.00  0.00     0.034 A 
BRANCH  51  65
ATOM     65  C   UNL A   1      43.031  26.464  28.983  1.00  0.00     0.023 A 
ATOM     66  C   UNL A   1      42.516  25.153  28.944  1.00  0.00     0.012 A 
ATOM     67  C   UNL A   1      43.912  26.893  27.970  1.00  0.00     0.148 A 
ATOM     68  C   UNL A   1      42.888  24.274  27.927  1.00  0.00     0.002 A 
ATOM     69  C   UNL A   1      44.242  26.027  26.935  1.00  0.00     0.091 A 
ATOM     70  F   UNL A   1      44.406  28.136  28.039  1.00  0.00    -0.205 F 
ATOM     71  C   UNL A   1      43.741  24.715  26.918  1.00  0.00     0.022 A 
BRANCH  69  72
ATOM     72  S   UNL A   1      45.267  26.523  25.546  1.00  0.00     0.127 S 
ATOM     73  O   UNL A   1      45.265  25.309  24.730  1.00  0.00    -0.237 OA
ATOM     74  O   UNL A   1      44.503  27.636  24.984  1.00  0.00    -0.237 OA
ATOM     75  O   UNL A   1      46.558  26.891  26.109  1.00  0.00    -0.744 OA
ENDBRANCH  69  72
ENDBRANCH  51  65
BRANCH  52  76
ATOM     76  C   UNL A   1      39.510  32.595  36.038  1.00  0.00     0.023 A 
ATOM     77  C   UNL A   1      39.869  33.956  36.083  1.00  0.00     0.012 A 
ATOM     78  C   UNL A   1      38.662  32.076  37.034  1.00  0.00     0.148 A 
ATOM     79  C   UNL A   1      39.425  34.775  37.123  1.00  0.00     0.002 A 
ATOM     80  C   UNL A   1      38.178  32.909  38.035  1.00  0.00     0.091 A 
ATOM     81  F   UNL A   1      38.347  30.773  36.985  1.00  0.00    -0.205 F 
ATOM     82  C   UNL A   1      38.573  34.255  38.093  1.00  0.00     0.022 A 
BRANCH  80  83
ATOM     83  S   UNL A   1      36.985  32.355  39.258  1.00  0.00     0.127 S 
ATOM     84  O   UNL A   1      37.326  33.188  40.407  1.00  0.00    -0.237 OA
ATOM     85  O   UNL A   1      35.715  32.686  38.611  1.00  0.00    -0.237 OA
ATOM     86  O   UNL A   1      37.223  30.927  39.418  1.00  0.00    -0.744 OA
ENDBRANCH  80  83
ENDBRANCH  52  76
BRANCH  64  87
ATOM     87  C   UNL A   1      45.153  28.511  35.553  1.00  0.00     0.023 A 
ATOM     88  C   UNL A   1      46.397  29.149  35.386  1.00  0.00     0.012 A 
ATOM     89  C   UNL A   1      44.957  27.659  36.659  1.00  0.00     0.148 A 
ATOM     90  C   UNL A   1      47.440  28.917  36.284  1.00  0.00     0.002 A 
ATOM     91  C   UNL A   1      45.983  27.474  37.578  1.00  0.00     0.091 A 
ATOM     92  F   UNL A   1      43.771  27.049  36.794  1.00  0.00    -0.205 F 
ATOM     93  C   UNL A   1      47.229  28.090  37.385  1.00  0.00     0.022 A 
BRANCH  91  94
ATOM     94  S   UNL A   1      45.770  26.508  39.078  1.00  0.00     0.127 S 
ATOM     95  O   UNL A   1      44.669  27.213  39.733  1.00  0.00    -0.237 OA
ATOM     96  O   UNL A   1      45.419  25.189  38.551  1.00  0.00    -0.237 OA
ATOM     97  O   UNL A   1      47.047  26.560  39.776  1.00  0.00    -0.744 OA
ENDBRANCH  91  94
ENDBRANCH  64  87
ENDBRANCH  38  39
ENDBRANCH  31  33
ENDBRANCH  30  31
ENDBRANCH  29  30
ENDBRANCH  28  29
ENDBRANCH  27  28
ENDBRANCH   1  27
TORSDOF 22
ENDMDL
MODEL 3
REMARK VINA RESULT:     -10.2      2.775      4.354
REMARK SMILES Nc1cc(C(=O)OCCOCCOCCOC(=O)c2ccc(-c3c4nc(c(-c5cccc(S(=O)(=O)[O-])c5F)c5ccc([nH]5)c(-c5cccc(S(=O)(=O)[O-])c5F)c5nc(c(-c6cccc(S(=O)(=O)[O-])c6F)c6ccc3[nH]6)C=C5)C=C4)cc2)ccc1N1CC2(CCOCC2)C1
REMARK SMILES IDX 12 1 11 2 10 3 9 4 8 5 7 6 5 7 6 8 4 9 2 10 3 11 84 12 83 13
REMARK SMILES IDX 82 14 1 15 85 18 86 19 93 20 87 21 88 22 92 23 89 24 91 25
REMARK SMILES IDX 90 26 13 27 14 28 15 29 16 30 17 31 18 32 19 33 20 34 81 35
REMARK SMILES IDX 21 36 80 37 22 38 23 39 24 40 74 41 25 42 79 43 73 44 75 45
REMARK SMILES IDX 26 46 78 47 72 48 71 49 27 51 59 52 39 53 58 54 40 55 43 56
REMARK SMILES IDX 57 57 76 58 41 59 42 60 56 62 77 63 44 64 28 65 29 66 37 67
REMARK SMILES IDX 30 68 32 69 38 70 31 71 33 72 34 73 35 74 36 75 60 76 61 77
REMARK SMILES IDX 69 78 62 79 64 80 70 81 63 82 65 83 66 84 67 85 68 86 45 87
REMARK SMILES IDX 46 88 54 89 47 90 49 91 55 92 48 93 50 94 51 95 52 96 53 97
REMARK H PARENT 1 16 1 17 75 50 43 61
REMARK Flexibility Score: inf
ROOT
ATOM      1  C   UNL A   1      36.241  33.404  28.787  1.00  0.00     0.188 C 
ENDROOT
BRANCH   1   2
ATOM      2  C   UNL A   1      36.646  32.043  28.183  1.00  0.00     0.188 C 
BRANCH   2   3
ATOM      3  O   UNL A   1      35.996  30.871  28.625  1.00  0.00    -0.376 OA
BRANCH   3   4
ATOM      4  C   UNL A   1      35.387  29.983  27.706  1.00  0.00     0.202 C 
BRANCH   4   5
ATOM      5  C   UNL A   1      33.922  30.061  27.250  1.00  0.00     0.261 C 
BRANCH   5   6
ATOM      6  O   UNL A   1      33.632  29.560  25.942  1.00  0.00    -0.460 OA
BRANCH   6   7
ATOM      7  C   UNL A   1      32.347  29.146  25.768  1.00  0.00     0.338 C 
ATOM      8  O   UNL A   1      31.387  29.829  25.496  1.00  0.00    -0.246 OA
BRANCH   7   9
ATOM      9  C   UNL A   1      32.291  27.670  25.801  1.00  0.00     0.062 A 
ATOM     10  C   UNL A   1      33.473  25.568  25.399  1.00  0.00     0.056 A 
ATOM     11  C   UNL A   1      33.456  26.970  25.463  1.00  0.00     0.043 A 
ATOM     12  C   UNL A   1      32.283  24.860  25.684  1.00  0.00     0.060 A 
ATOM     13  C   UNL A   1      31.132  25.590  26.063  1.00  0.00     0.029 A 
ATOM     14  C   UNL A   1      31.132  26.984  26.139  1.00  0.00     0.018 A 
BRANCH  10  15
ATOM     15  N   UNL A   1      34.686  24.961  25.105  1.00  0.00    -0.397 N 
ATOM     16  H   UNL A   1      34.887  24.683  24.183  1.00  0.00     0.156 HD
ATOM     17  H   UNL A   1      35.345  24.808  25.820  1.00  0.00     0.156 HD
ENDBRANCH  10  15
BRANCH  12  18
ATOM     18  N   UNL A   1      32.111  23.467  25.527  1.00  0.00    -0.369 N 
ATOM     19  C   UNL A   1      32.622  22.314  26.193  1.00  0.00     0.125 C 
ATOM     20  C   UNL A   1      32.012  22.822  24.247  1.00  0.00     0.125 C 
ATOM     21  C   UNL A   1      32.873  21.673  24.805  1.00  0.00     0.010 C 
ATOM     22  C   UNL A   1      32.272  20.286  24.563  1.00  0.00     0.039 C 
ATOM     23  C   UNL A   1      34.329  21.704  24.314  1.00  0.00     0.039 C 
ATOM     24  C   UNL A   1      33.166  19.233  25.207  1.00  0.00     0.161 C 
ATOM     25  C   UNL A   1      35.103  20.575  24.984  1.00  0.00     0.161 C 
ATOM     26  O   UNL A   1      34.491  19.319  24.678  1.00  0.00    -0.381 OA
ENDBRANCH  12  18
ENDBRANCH   7   9
ENDBRANCH   6   7
ENDBRANCH   5   6
ENDBRANCH   4   5
ENDBRANCH   3   4
ENDBRANCH   2   3
ENDBRANCH   1   2
BRANCH   1  27
ATOM     27  O   UNL A   1      35.000  33.564  29.446  1.00  0.00    -0.376 OA
BRANCH  27  28
ATOM     28  C   UNL A   1      33.897  34.126  28.757  1.00  0.00     0.202 C 
BRANCH  28  29
ATOM     29  C   UNL A   1      32.895  35.102  29.394  1.00  0.00     0.261 C 
BRANCH  29  30
ATOM     30  O   UNL A   1      33.391  35.940  30.440  1.00  0.00    -0.460 OA
BRANCH  30  31
ATOM     31  C   UNL A   1      33.014  35.579  31.692  1.00  0.00     0.338 C 
ATOM     32  O   UNL A   1      31.902  35.665  32.183  1.00  0.00    -0.246 OA
BRANCH  31  33
ATOM     33  C   UNL A   1      34.137  34.894  32.355  1.00  0.00     0.060 A 
ATOM     34  C   UNL A   1      35.420  35.447  32.245  1.00  0.00     0.016 A 
ATOM     35  C   UNL A   1      33.934  33.693  33.033  1.00  0.00     0.016 A 
ATOM     36  C   UNL A   1      36.514  34.785  32.800  1.00  0.00     0.010 A 
ATOM     37  C   UNL A   1      35.034  33.020  33.570  1.00  0.00     0.010 A 
ATOM     38  C   UNL A   1      36.331  33.549  33.430  1.00  0.00    -0.014 A 
BRANCH  38  39
ATOM     39  C   UNL A   1      37.508  32.728  33.801  1.00  0.00     0.031 A 
ATOM     40  C   UNL A   1      38.292  33.105  35.029  1.00  0.00     0.074 A 
ATOM     41  C   UNL A   1      37.885  31.677  33.051  1.00  0.00     0.049 A 
ATOM     42  N   UNL A   1      39.382  32.570  35.511  1.00  0.00    -0.248 NA
ATOM     43  C   UNL A   1      37.778  34.239  35.815  1.00  0.00     0.031 C 
ATOM     44  C   UNL A   1      37.205  31.211  31.843  1.00  0.00     0.029 A 
ATOM     45  N   UNL A   1      38.958  30.830  33.181  1.00  0.00    -0.354 N 
ATOM     46  C   UNL A   1      39.706  33.321  36.635  1.00  0.00     0.074 A 
ATOM     47  C   UNL A   1      38.699  34.351  36.761  1.00  0.00     0.031 C 
ATOM     48  C   UNL A   1      37.897  30.183  31.323  1.00  0.00     0.029 A 
ATOM     49  C   UNL A   1      39.082  29.937  32.145  1.00  0.00     0.049 A 
ATOM     50  H   UNL A   1      39.578  30.861  33.945  1.00  0.00     0.167 HD
ATOM     51  C   UNL A   1      40.743  33.161  37.490  1.00  0.00     0.034 A 
ATOM     52  C   UNL A   1      40.056  29.044  31.876  1.00  0.00     0.034 A 
ATOM     53  C   UNL A   1      41.734  32.127  37.372  1.00  0.00     0.049 A 
ATOM     54  C   UNL A   1      41.217  28.907  32.831  1.00  0.00     0.074 A 
ATOM     55  C   UNL A   1      42.792  31.850  38.219  1.00  0.00     0.029 A 
ATOM     56  N   UNL A   1      41.801  31.210  36.335  1.00  0.00    -0.354 N 
ATOM     57  N   UNL A   1      41.440  29.540  33.958  1.00  0.00    -0.248 NA
ATOM     58  C   UNL A   1      42.244  27.911  32.492  1.00  0.00     0.031 C 
ATOM     59  C   UNL A   1      43.520  30.788  37.676  1.00  0.00     0.029 A 
ATOM     60  C   UNL A   1      42.891  30.376  36.512  1.00  0.00     0.049 A 
ATOM     61  H   UNL A   1      41.168  31.159  35.584  1.00  0.00     0.167 HD
ATOM     62  C   UNL A   1      42.605  28.988  34.481  1.00  0.00     0.074 A 
ATOM     63  C   UNL A   1      43.031  27.958  33.558  1.00  0.00     0.031 C 
ATOM     64  C   UNL A   1      43.271  29.312  35.618  1.00  0.00     0.034 A 
BRANCH  51  65
ATOM     65  C   UNL A   1      40.856  34.120  38.644  1.00  0.00     0.023 A 
ATOM     66  C   UNL A   1      41.691  35.250  38.536  1.00  0.00     0.012 A 
ATOM     67  C   UNL A   1      40.081  33.939  39.806  1.00  0.00     0.148 A 
ATOM     68  C   UNL A   1      41.771  36.175  39.577  1.00  0.00     0.002 A 
ATOM     69  C   UNL A   1      40.132  34.888  40.820  1.00  0.00     0.091 A 
ATOM     70  F   UNL A   1      39.311  32.846  39.896  1.00  0.00    -0.205 F 
ATOM     71  C   UNL A   1      40.984  35.999  40.713  1.00  0.00     0.022 A 
BRANCH  69  72
ATOM     72  S   UNL A   1      39.098  34.797  42.287  1.00  0.00     0.127 S 
ATOM     73  O   UNL A   1      37.811  34.404  41.715  1.00  0.00    -0.237 OA
ATOM     74  O   UNL A   1      39.763  33.752  43.065  1.00  0.00    -0.237 OA
ATOM     75  O   UNL A   1      39.133  36.122  42.888  1.00  0.00    -0.744 OA
ENDBRANCH  69  72
ENDBRANCH  51  65
BRANCH  52  76
ATOM     76  C   UNL A   1      39.975  28.183  30.661  1.00  0.00     0.023 A 
ATOM     77  C   UNL A   1      39.110  27.071  30.654  1.00  0.00     0.012 A 
ATOM     78  C   UNL A   1      40.761  28.449  29.523  1.00  0.00     0.148 A 
ATOM     79  C   UNL A   1      39.058  26.217  29.551  1.00  0.00     0.002 A 
ATOM     80  C   UNL A   1      40.662  27.627  28.407  1.00  0.00     0.091 A 
ATOM     81  F   UNL A   1      41.592  29.500  29.556  1.00  0.00    -0.205 F 
ATOM     82  C   UNL A   1      39.826  26.500  28.425  1.00  0.00     0.022 A 
BRANCH  80  83
ATOM     83  S   UNL A   1      41.525  27.979  26.871  1.00  0.00     0.127 S 
ATOM     84  O   UNL A   1      42.883  28.235  27.344  1.00  0.00    -0.237 OA
ATOM     85  O   UNL A   1      41.354  26.727  26.135  1.00  0.00    -0.237 OA
ATOM     86  O   UNL A   1      40.834  29.119  26.286  1.00  0.00    -0.744 OA
ENDBRANCH  80  83
ENDBRANCH  52  76
BRANCH  64  87
ATOM     87  C   UNL A   1      44.500  28.515  35.968  1.00  0.00     0.023 A 
ATOM     88  C   UNL A   1      45.770  28.944  35.534  1.00  0.00     0.012 A 
ATOM     89  C   UNL A   1      44.402  27.380  36.800  1.00  0.00     0.148 A 
ATOM     90  C   UNL A   1      46.918  28.238  35.892  1.00  0.00     0.002 A 
ATOM     91  C   UNL A   1      45.556  26.713  37.196  1.00  0.00     0.091 A 
ATOM     92  F   UNL A   1      43.186  26.977  37.191  1.00  0.00    -0.205 F 
ATOM     93  C   UNL A   1      46.812  27.132  36.732  1.00  0.00     0.022 A 
BRANCH  91  94
ATOM     94  S   UNL A   1      45.525  25.341  38.355  1.00  0.00     0.127 S 
ATOM     95  O   UNL A   1      44.794  24.326  37.597  1.00  0.00    -0.237 OA
ATOM     96  O   UNL A   1      46.948  25.057  38.538  1.00  0.00    -0.237 OA
ATOM     97  O   UNL A   1      44.850  25.836  39.547  1.00  0.00    -0.744 OA
ENDBRANCH  91  94
ENDBRANCH  64  87
ENDBRANCH  38  39
ENDBRANCH  31  33
ENDBRANCH  30  31
ENDBRANCH  29  30
ENDBRANCH  28  29
ENDBRANCH  27  28
ENDBRANCH   1  27
TORSDOF 22
ENDMDL
