MODEL 1
REMARK VINA RESULT:      -8.9      0.000      0.000
REMARK SMILES CCC[NH2+][C@@]1(C(=O)OCCOCCOCCOC(=O)c2ccc(-c3c4nc(c(-c5cccc(S(=O)(=O)[O-])c5F)c5ccc([nH]5)c(-c5cccc(S(=O)(=O)[O-])c5F)c5nc(c(-c6cccc(S(=O)(=O)[O-])c6F)c6ccc3[nH]6)C=C5)C=C4)cc2)CC[C@@H](Sc2ccc(Cl)cc2)C1
REMARK SMILES IDX 12 1 11 2 10 3 9 4 8 5 6 6 7 7 5 8 83 9 94 10 84 11 85 12
REMARK SMILES IDX 4 13 3 16 2 17 1 18 86 19 87 20 88 21 93 22 89 23 92 24
REMARK SMILES IDX 90 25 91 26 13 27 14 28 15 29 16 30 17 31 18 32 19 33 20 34
REMARK SMILES IDX 21 35 82 36 22 37 81 38 23 39 24 40 25 41 75 42 26 43 80 44
REMARK SMILES IDX 74 45 76 46 27 47 79 48 73 49 72 50 28 52 60 53 40 54 59 55
REMARK SMILES IDX 41 56 44 57 58 58 77 59 42 60 43 61 57 63 78 64 45 65 29 66
REMARK SMILES IDX 30 67 38 68 31 69 33 70 39 71 32 72 34 73 35 74 36 75 37 76
REMARK SMILES IDX 61 77 62 78 70 79 63 80 65 81 71 82 64 83 66 84 67 85 68 86
REMARK SMILES IDX 69 87 46 88 47 89 55 90 48 91 50 92 56 93 49 94 51 95 52 96
REMARK SMILES IDX 53 97 54 98
REMARK H PARENT 4 14 4 15 76 51 44 62
REMARK Flexibility Score: inf
ROOT
ATOM      1  C   UNL A   1      40.304  20.892  26.148  1.00  0.00     0.188 C 
ENDROOT
BRANCH   1   2
ATOM      2  O   UNL A   1      39.713  21.687  27.162  1.00  0.00    -0.376 OA
BRANCH   2   3
ATOM      3  C   UNL A   1      39.936  23.092  27.156  1.00  0.00     0.202 C 
BRANCH   3   4
ATOM      4  C   UNL A   1      38.918  24.053  26.507  1.00  0.00     0.261 C 
BRANCH   4   5
ATOM      5  O   UNL A   1      37.516  23.706  26.629  1.00  0.00    -0.459 OA
BRANCH   5   6
ATOM      6  C   UNL A   1      36.963  23.109  25.541  1.00  0.00     0.368 C 
ATOM      7  O   UNL A   1      37.603  22.426  24.742  1.00  0.00    -0.245 OA
BRANCH   6   8
ATOM      8  C   UNL A   1      35.422  23.332  25.351  1.00  0.00     0.195 C 
ATOM      9  C   UNL A   1      34.763  23.138  26.734  1.00  0.00     0.082 C 
ATOM     10  C   UNL A   1      34.633  22.341  24.475  1.00  0.00     0.096 C 
ATOM     11  C   UNL A   1      34.438  21.651  26.811  1.00  0.00     0.022 C 
ATOM     12  C   UNL A   1      34.093  21.242  25.385  1.00  0.00     0.059 C 
BRANCH   8  13
ATOM     13  N   UNL A   1      35.245  24.775  25.006  1.00  0.00    -0.332 N 
ATOM     14  H   UNL A   1      36.081  25.268  25.319  1.00  0.00     0.347 HD
ATOM     15  H   UNL A   1      35.083  24.780  23.999  1.00  0.00     0.347 HD
BRANCH  13  16
ATOM     16  C   UNL A   1      34.093  25.471  25.566  1.00  0.00     0.261 C 
BRANCH  16  17
ATOM     17  C   UNL A   1      33.630  26.631  24.680  1.00  0.00     0.058 C 
ATOM     18  C   UNL A   1      32.955  27.737  25.474  1.00  0.00     0.010 C 
ENDBRANCH  16  17
ENDBRANCH  13  16
ENDBRANCH   8  13
BRANCH  12  19
ATOM     19  S   UNL A   1      32.335  20.818  25.035  1.00  0.00    -0.122 SA
BRANCH  19  20
ATOM     20  C   UNL A   1      31.524  22.406  24.980  1.00  0.00     0.008 A 
ATOM     21  C   UNL A   1      31.422  23.058  23.747  1.00  0.00     0.016 A 
ATOM     22  C   UNL A   1      31.074  23.060  26.132  1.00  0.00     0.016 A 
ATOM     23  C   UNL A   1      30.833  24.322  23.659  1.00  0.00     0.021 A 
ATOM     24  C   UNL A   1      30.464  24.317  26.045  1.00  0.00     0.021 A 
ATOM     25  C   UNL A   1      30.345  24.941  24.807  1.00  0.00     0.041 A 
ATOM     26  Cl  UNL A   1      29.613  26.493  24.693  1.00  0.00    -0.084 Cl
ENDBRANCH  19  20
ENDBRANCH  12  19
ENDBRANCH   6   8
ENDBRANCH   5   6
ENDBRANCH   4   5
ENDBRANCH   3   4
ENDBRANCH   2   3
ENDBRANCH   1   2
BRANCH   1  27
ATOM     27  C   UNL A   1      41.021  19.604  26.558  1.00  0.00     0.188 C 
BRANCH  27  28
ATOM     28  O   UNL A   1      42.061  19.173  25.718  1.00  0.00    -0.376 OA
BRANCH  28  29
ATOM     29  C   UNL A   1      43.195  18.536  26.280  1.00  0.00     0.202 C 
BRANCH  29  30
ATOM     30  C   UNL A   1      44.497  18.239  25.502  1.00  0.00     0.261 C 
BRANCH  30  31
ATOM     31  O   UNL A   1      45.402  19.321  25.243  1.00  0.00    -0.460 OA
BRANCH  31  32
ATOM     32  C   UNL A   1      45.049  20.193  24.262  1.00  0.00     0.338 C 
ATOM     33  O   UNL A   1      44.673  19.911  23.144  1.00  0.00    -0.246 OA
BRANCH  32  34
ATOM     34  C   UNL A   1      44.941  21.545  24.871  1.00  0.00     0.060 A 
ATOM     35  C   UNL A   1      44.446  22.596  24.084  1.00  0.00     0.016 A 
ATOM     36  C   UNL A   1      45.309  21.776  26.197  1.00  0.00     0.016 A 
ATOM     37  C   UNL A   1      44.335  23.881  24.618  1.00  0.00     0.010 A 
ATOM     38  C   UNL A   1      45.230  23.074  26.720  1.00  0.00     0.010 A 
ATOM     39  C   UNL A   1      44.762  24.137  25.927  1.00  0.00    -0.014 A 
BRANCH  39  40
ATOM     40  C   UNL A   1      44.882  25.544  26.392  1.00  0.00     0.031 A 
ATOM     41  C   UNL A   1      46.221  26.217  26.300  1.00  0.00     0.074 A 
ATOM     42  C   UNL A   1      43.824  26.226  26.866  1.00  0.00     0.049 A 
ATOM     43  N   UNL A   1      46.569  27.418  26.675  1.00  0.00    -0.248 NA
ATOM     44  C   UNL A   1      47.314  25.424  25.714  1.00  0.00     0.031 C 
ATOM     45  C   UNL A   1      42.476  25.690  27.001  1.00  0.00     0.029 A 
ATOM     46  N   UNL A   1      43.717  27.519  27.323  1.00  0.00    -0.354 N 
ATOM     47  C   UNL A   1      47.932  27.511  26.424  1.00  0.00     0.074 A 
ATOM     48  C   UNL A   1      48.340  26.253  25.836  1.00  0.00     0.031 C 
ATOM     49  C   UNL A   1      41.665  26.651  27.476  1.00  0.00     0.029 A 
ATOM     50  C   UNL A   1      42.450  27.853  27.749  1.00  0.00     0.049 A 
ATOM     51  H   UNL A   1      44.475  28.147  27.343  1.00  0.00     0.167 HD
ATOM     52  C   UNL A   1      48.770  28.542  26.677  1.00  0.00     0.034 A 
ATOM     53  C   UNL A   1      41.987  28.981  28.326  1.00  0.00     0.034 A 
ATOM     54  C   UNL A   1      48.368  29.788  27.268  1.00  0.00     0.049 A 
ATOM     55  C   UNL A   1      42.951  30.109  28.608  1.00  0.00     0.074 A 
ATOM     56  C   UNL A   1      49.152  30.890  27.565  1.00  0.00     0.029 A 
ATOM     57  N   UNL A   1      47.079  30.096  27.673  1.00  0.00    -0.354 N 
ATOM     58  N   UNL A   1      44.223  30.205  28.309  1.00  0.00    -0.248 NA
ATOM     59  C   UNL A   1      42.414  31.285  29.312  1.00  0.00     0.031 C 
ATOM     60  C   UNL A   1      48.344  31.847  28.185  1.00  0.00     0.029 A 
ATOM     61  C   UNL A   1      47.047  31.364  28.227  1.00  0.00     0.049 A 
ATOM     62  H   UNL A   1      46.300  29.500  27.580  1.00  0.00     0.167 HD
ATOM     63  C   UNL A   1      44.632  31.453  28.767  1.00  0.00     0.074 A 
ATOM     64  C   UNL A   1      43.464  32.094  29.334  1.00  0.00     0.031 C 
ATOM     65  C   UNL A   1      45.868  32.011  28.743  1.00  0.00     0.034 A 
BRANCH  52  66
ATOM     66  C   UNL A   1      50.224  28.346  26.348  1.00  0.00     0.023 A 
ATOM     67  C   UNL A   1      50.684  28.535  25.029  1.00  0.00     0.012 A 
ATOM     68  C   UNL A   1      51.142  28.007  27.361  1.00  0.00     0.148 A 
ATOM     69  C   UNL A   1      52.031  28.356  24.718  1.00  0.00     0.002 A 
ATOM     70  C   UNL A   1      52.490  27.879  27.053  1.00  0.00     0.091 A 
ATOM     71  F   UNL A   1      50.678  27.809  28.603  1.00  0.00    -0.205 F 
ATOM     72  C   UNL A   1      52.934  28.039  25.731  1.00  0.00     0.022 A 
BRANCH  70  73
ATOM     73  S   UNL A   1      53.740  27.548  28.298  1.00  0.00     0.127 S 
ATOM     74  O   UNL A   1      53.565  28.687  29.201  1.00  0.00    -0.237 OA
ATOM     75  O   UNL A   1      53.297  26.266  28.843  1.00  0.00    -0.237 OA
ATOM     76  O   UNL A   1      55.012  27.506  27.592  1.00  0.00    -0.744 OA
ENDBRANCH  70  73
ENDBRANCH  52  66
BRANCH  53  77
ATOM     77  C   UNL A   1      40.548  29.113  28.706  1.00  0.00     0.023 A 
ATOM     78  C   UNL A   1      39.584  29.401  27.717  1.00  0.00     0.012 A 
ATOM     79  C   UNL A   1      40.131  28.980  30.043  1.00  0.00     0.148 A 
ATOM     80  C   UNL A   1      38.244  29.593  28.059  1.00  0.00     0.002 A 
ATOM     81  C   UNL A   1      38.784  29.102  30.368  1.00  0.00     0.091 A 
ATOM     82  F   UNL A   1      41.060  28.741  30.978  1.00  0.00    -0.205 F 
ATOM     83  C   UNL A   1      37.842  29.430  29.382  1.00  0.00     0.022 A 
BRANCH  81  84
ATOM     84  S   UNL A   1      38.164  28.772  32.020  1.00  0.00     0.127 S 
ATOM     85  O   UNL A   1      38.541  27.374  32.209  1.00  0.00    -0.237 OA
ATOM     86  O   UNL A   1      38.923  29.730  32.824  1.00  0.00    -0.237 OA
ATOM     87  O   UNL A   1      36.733  29.040  31.962  1.00  0.00    -0.744 OA
ENDBRANCH  81  84
ENDBRANCH  53  77
BRANCH  65  88
ATOM     88  C   UNL A   1      46.025  33.404  29.300  1.00  0.00     0.023 A 
ATOM     89  C   UNL A   1      45.803  34.526  28.478  1.00  0.00     0.012 A 
ATOM     90  C   UNL A   1      46.313  33.595  30.667  1.00  0.00     0.148 A 
ATOM     91  C   UNL A   1      45.900  35.816  28.999  1.00  0.00     0.002 A 
ATOM     92  C   UNL A   1      46.355  34.881  31.190  1.00  0.00     0.091 A 
ATOM     93  F   UNL A   1      46.536  32.515  31.429  1.00  0.00    -0.205 F 
ATOM     94  C   UNL A   1      46.162  35.993  30.355  1.00  0.00     0.022 A 
BRANCH  92  95
ATOM     95  S   UNL A   1      46.585  35.202  32.943  1.00  0.00     0.127 S 
ATOM     96  O   UNL A   1      47.970  34.777  33.142  1.00  0.00    -0.237 OA
ATOM     97  O   UNL A   1      46.373  36.647  33.022  1.00  0.00    -0.237 OA
ATOM     98  O   UNL A   1      45.583  34.404  33.634  1.00  0.00    -0.744 OA
ENDBRANCH  92  95
ENDBRANCH  65  88
ENDBRANCH  39  40
ENDBRANCH  32  34
ENDBRANCH  31  32
ENDBRANCH  30  31
ENDBRANCH  29  30
ENDBRANCH  28  29
ENDBRANCH  27  28
ENDBRANCH   1  27
TORSDOF 25
ENDMDL
MODEL 2
REMARK VINA RESULT:      -8.6      1.740      2.526
REMARK SMILES CCC[NH2+][C@@]1(C(=O)OCCOCCOCCOC(=O)c2ccc(-c3c4nc(c(-c5cccc(S(=O)(=O)[O-])c5F)c5ccc([nH]5)c(-c5cccc(S(=O)(=O)[O-])c5F)c5nc(c(-c6cccc(S(=O)(=O)[O-])c6F)c6ccc3[nH]6)C=C5)C=C4)cc2)CC[C@@H](Sc2ccc(Cl)cc2)C1
REMARK SMILES IDX 12 1 11 2 10 3 9 4 8 5 6 6 7 7 5 8 83 9 94 10 84 11 85 12
REMARK SMILES IDX 4 13 3 16 2 17 1 18 86 19 87 20 88 21 93 22 89 23 92 24
REMARK SMILES IDX 90 25 91 26 13 27 14 28 15 29 16 30 17 31 18 32 19 33 20 34
REMARK SMILES IDX 21 35 82 36 22 37 81 38 23 39 24 40 25 41 75 42 26 43 80 44
REMARK SMILES IDX 74 45 76 46 27 47 79 48 73 49 72 50 28 52 60 53 40 54 59 55
REMARK SMILES IDX 41 56 44 57 58 58 77 59 42 60 43 61 57 63 78 64 45 65 29 66
REMARK SMILES IDX 30 67 38 68 31 69 33 70 39 71 32 72 34 73 35 74 36 75 37 76
REMARK SMILES IDX 61 77 62 78 70 79 63 80 65 81 71 82 64 83 66 84 67 85 68 86
REMARK SMILES IDX 69 87 46 88 47 89 55 90 48 91 50 92 56 93 49 94 51 95 52 96
REMARK SMILES IDX 53 97 54 98
REMARK H PARENT 4 14 4 15 76 51 44 62
REMARK Flexibility Score: inf
ROOT
ATOM      1  C   UNL A   1      40.159  21.079  26.155  1.00  0.00     0.188 C 
ENDROOT
BRANCH   1   2
ATOM      2  O   UNL A   1      39.509  21.951  27.063  1.00  0.00    -0.376 OA
BRANCH   2   3
ATOM      3  C   UNL A   1      39.490  23.346  26.788  1.00  0.00     0.202 C 
BRANCH   3   4
ATOM      4  C   UNL A   1      38.259  24.009  26.135  1.00  0.00     0.261 C 
BRANCH   4   5
ATOM      5  O   UNL A   1      37.003  23.292  26.222  1.00  0.00    -0.459 OA
BRANCH   5   6
ATOM      6  C   UNL A   1      36.268  23.255  25.080  1.00  0.00     0.368 C 
ATOM      7  O   UNL A   1      36.694  23.627  23.986  1.00  0.00    -0.245 OA
BRANCH   6   8
ATOM      8  C   UNL A   1      34.812  22.691  25.223  1.00  0.00     0.195 C 
ATOM      9  C   UNL A   1      34.254  22.513  23.795  1.00  0.00     0.082 C 
ATOM     10  C   UNL A   1      33.737  23.576  25.883  1.00  0.00     0.096 C 
ATOM     11  C   UNL A   1      33.597  23.846  23.458  1.00  0.00     0.022 C 
ATOM     12  C   UNL A   1      33.039  24.362  24.777  1.00  0.00     0.059 C 
BRANCH   8  13
ATOM     13  N   UNL A   1      34.947  21.316  25.791  1.00  0.00    -0.332 N 
ATOM     14  H   UNL A   1      35.913  21.207  26.100  1.00  0.00     0.347 HD
ATOM     15  H   UNL A   1      34.242  21.271  26.527  1.00  0.00     0.347 HD
BRANCH  13  16
ATOM     16  C   UNL A   1      34.639  20.188  24.920  1.00  0.00     0.261 C 
BRANCH  16  17
ATOM     17  C   UNL A   1      33.385  19.434  25.371  1.00  0.00     0.058 C 
ATOM     18  C   UNL A   1      32.102  20.156  24.992  1.00  0.00     0.010 C 
ENDBRANCH  16  17
ENDBRANCH  13  16
ENDBRANCH   8  13
BRANCH  12  19
ATOM     19  S   UNL A   1      31.206  24.389  24.961  1.00  0.00    -0.122 SA
BRANCH  19  20
ATOM     20  C   UNL A   1      30.772  26.078  24.588  1.00  0.00     0.008 A 
ATOM     21  C   UNL A   1      29.612  26.317  23.845  1.00  0.00     0.016 A 
ATOM     22  C   UNL A   1      31.595  27.158  24.927  1.00  0.00     0.016 A 
ATOM     23  C   UNL A   1      29.251  27.621  23.492  1.00  0.00     0.021 A 
ATOM     24  C   UNL A   1      31.227  28.466  24.594  1.00  0.00     0.021 A 
ATOM     25  C   UNL A   1      30.054  28.691  23.878  1.00  0.00     0.041 A 
ATOM     26  Cl  UNL A   1      29.603  30.294  23.448  1.00  0.00    -0.084 Cl
ENDBRANCH  19  20
ENDBRANCH  12  19
ENDBRANCH   6   8
ENDBRANCH   5   6
ENDBRANCH   4   5
ENDBRANCH   3   4
ENDBRANCH   2   3
ENDBRANCH   1   2
BRANCH   1  27
ATOM     27  C   UNL A   1      41.072  19.989  26.719  1.00  0.00     0.188 C 
BRANCH  27  28
ATOM     28  O   UNL A   1      41.861  19.292  25.789  1.00  0.00    -0.376 OA
BRANCH  28  29
ATOM     29  C   UNL A   1      42.930  18.482  26.246  1.00  0.00     0.202 C 
BRANCH  29  30
ATOM     30  C   UNL A   1      44.149  18.085  25.382  1.00  0.00     0.261 C 
BRANCH  30  31
ATOM     31  O   UNL A   1      45.165  19.068  25.139  1.00  0.00    -0.460 OA
BRANCH  31  32
ATOM     32  C   UNL A   1      44.941  19.941  24.121  1.00  0.00     0.338 C 
ATOM     33  O   UNL A   1      44.643  19.660  22.979  1.00  0.00    -0.246 OA
BRANCH  32  34
ATOM     34  C   UNL A   1      44.857  21.306  24.702  1.00  0.00     0.060 A 
ATOM     35  C   UNL A   1      44.351  22.343  23.903  1.00  0.00     0.016 A 
ATOM     36  C   UNL A   1      45.257  21.564  26.014  1.00  0.00     0.016 A 
ATOM     37  C   UNL A   1      44.261  23.641  24.410  1.00  0.00     0.010 A 
ATOM     38  C   UNL A   1      45.198  22.874  26.509  1.00  0.00     0.010 A 
ATOM     39  C   UNL A   1      44.720  23.923  25.704  1.00  0.00    -0.014 A 
BRANCH  39  40
ATOM     40  C   UNL A   1      44.860  25.338  26.135  1.00  0.00     0.031 A 
ATOM     41  C   UNL A   1      46.205  25.995  26.009  1.00  0.00     0.074 A 
ATOM     42  C   UNL A   1      43.816  26.043  26.606  1.00  0.00     0.049 A 
ATOM     43  N   UNL A   1      46.570  27.201  26.352  1.00  0.00    -0.248 NA
ATOM     44  C   UNL A   1      47.281  25.178  25.428  1.00  0.00     0.031 C 
ATOM     45  C   UNL A   1      42.465  25.523  26.771  1.00  0.00     0.029 A 
ATOM     46  N   UNL A   1      43.728  27.346  27.034  1.00  0.00    -0.354 N 
ATOM     47  C   UNL A   1      47.930  27.273  26.081  1.00  0.00     0.074 A 
ATOM     48  C   UNL A   1      48.318  25.998  25.517  1.00  0.00     0.031 C 
ATOM     49  C   UNL A   1      41.670  26.504  27.234  1.00  0.00     0.029 A 
ATOM     50  C   UNL A   1      42.471  27.703  27.469  1.00  0.00     0.049 A 
ATOM     51  H   UNL A   1      44.493  27.966  27.030  1.00  0.00     0.167 HD
ATOM     52  C   UNL A   1      48.782  28.301  26.299  1.00  0.00     0.034 A 
ATOM     53  C   UNL A   1      42.027  28.850  28.026  1.00  0.00     0.034 A 
ATOM     54  C   UNL A   1      48.401  29.565  26.866  1.00  0.00     0.049 A 
ATOM     55  C   UNL A   1      43.006  29.973  28.270  1.00  0.00     0.074 A 
ATOM     56  C   UNL A   1      49.200  30.665  27.127  1.00  0.00     0.029 A 
ATOM     57  N   UNL A   1      47.120  29.895  27.280  1.00  0.00    -0.354 N 
ATOM     58  N   UNL A   1      44.275  30.049  27.951  1.00  0.00    -0.248 NA
ATOM     59  C   UNL A   1      42.491  31.171  28.953  1.00  0.00     0.031 C 
ATOM     60  C   UNL A   1      48.410  31.645  27.735  1.00  0.00     0.029 A 
ATOM     61  C   UNL A   1      47.109  31.177  27.805  1.00  0.00     0.049 A 
ATOM     62  H   UNL A   1      46.334  29.306  27.212  1.00  0.00     0.167 HD
ATOM     63  C   UNL A   1      44.702  31.303  28.375  1.00  0.00     0.074 A 
ATOM     64  C   UNL A   1      43.549  31.969  28.942  1.00  0.00     0.031 C 
ATOM     65  C   UNL A   1      45.943  31.847  28.322  1.00  0.00     0.034 A 
BRANCH  52  66
ATOM     66  C   UNL A   1      50.230  28.082  25.955  1.00  0.00     0.023 A 
ATOM     67  C   UNL A   1      50.673  28.230  24.625  1.00  0.00     0.012 A 
ATOM     68  C   UNL A   1      51.159  27.763  26.964  1.00  0.00     0.148 A 
ATOM     69  C   UNL A   1      52.014  28.030  24.300  1.00  0.00     0.002 A 
ATOM     70  C   UNL A   1      52.501  27.613  26.642  1.00  0.00     0.091 A 
ATOM     71  F   UNL A   1      50.710  27.604  28.217  1.00  0.00    -0.205 F 
ATOM     72  C   UNL A   1      52.928  27.733  25.309  1.00  0.00     0.022 A 
BRANCH  70  73
ATOM     73  S   UNL A   1      53.765  27.306  27.878  1.00  0.00     0.127 S 
ATOM     74  O   UNL A   1      53.604  25.871  28.114  1.00  0.00    -0.237 OA
ATOM     75  O   UNL A   1      54.987  27.673  27.163  1.00  0.00    -0.237 OA
ATOM     76  O   UNL A   1      53.440  28.161  29.010  1.00  0.00    -0.744 OA
ENDBRANCH  70  73
ENDBRANCH  52  66
BRANCH  53  77
ATOM     77  C   UNL A   1      40.594  29.005  28.421  1.00  0.00     0.023 A 
ATOM     78  C   UNL A   1      39.626  29.317  27.444  1.00  0.00     0.012 A 
ATOM     79  C   UNL A   1      40.188  28.872  29.762  1.00  0.00     0.148 A 
ATOM     80  C   UNL A   1      38.293  29.531  27.802  1.00  0.00     0.002 A 
ATOM     81  C   UNL A   1      38.848  29.016  30.102  1.00  0.00     0.091 A 
ATOM     82  F   UNL A   1      41.123  28.609  30.686  1.00  0.00    -0.205 F 
ATOM     83  C   UNL A   1      37.902  29.368  29.128  1.00  0.00     0.022 A 
BRANCH  81  84
ATOM     84  S   UNL A   1      38.239  28.687  31.758  1.00  0.00     0.127 S 
ATOM     85  O   UNL A   1      36.823  29.025  31.630  1.00  0.00    -0.237 OA
ATOM     86  O   UNL A   1      38.522  27.259  31.906  1.00  0.00    -0.237 OA
ATOM     87  O   UNL A   1      39.017  29.547  32.640  1.00  0.00    -0.744 OA
ENDBRANCH  81  84
ENDBRANCH  53  77
BRANCH  65  88
ATOM     88  C   UNL A   1      46.122  33.251  28.844  1.00  0.00     0.023 A 
ATOM     89  C   UNL A   1      46.538  33.467  30.172  1.00  0.00     0.012 A 
ATOM     90  C   UNL A   1      45.955  34.356  27.984  1.00  0.00     0.148 A 
ATOM     91  C   UNL A   1      46.751  34.761  30.647  1.00  0.00     0.002 A 
ATOM     92  C   UNL A   1      46.221  35.638  28.448  1.00  0.00     0.091 A 
ATOM     93  F   UNL A   1      45.543  34.131  26.728  1.00  0.00    -0.205 F 
ATOM     94  C   UNL A   1      46.606  35.844  29.782  1.00  0.00     0.022 A 
BRANCH  92  95
ATOM     95  S   UNL A   1      46.158  37.081  27.380  1.00  0.00     0.127 S 
ATOM     96  O   UNL A   1      44.718  37.320  27.288  1.00  0.00    -0.237 OA
ATOM     97  O   UNL A   1      46.892  38.076  28.164  1.00  0.00    -0.237 OA
ATOM     98  O   UNL A   1      46.806  36.692  26.136  1.00  0.00    -0.744 OA
ENDBRANCH  92  95
ENDBRANCH  65  88
ENDBRANCH  39  40
ENDBRANCH  32  34
ENDBRANCH  31  32
ENDBRANCH  30  31
ENDBRANCH  29  30
ENDBRANCH  28  29
ENDBRANCH  27  28
ENDBRANCH   1  27
TORSDOF 25
ENDMDL
MODEL 3
REMARK VINA RESULT:      -8.5      6.102     11.195
REMARK SMILES CCC[NH2+][C@@]1(C(=O)OCCOCCOCCOC(=O)c2ccc(-c3c4nc(c(-c5cccc(S(=O)(=O)[O-])c5F)c5ccc([nH]5)c(-c5cccc(S(=O)(=O)[O-])c5F)c5nc(c(-c6cccc(S(=O)(=O)[O-])c6F)c6ccc3[nH]6)C=C5)C=C4)cc2)CC[C@@H](Sc2ccc(Cl)cc2)C1
REMARK SMILES IDX 12 1 11 2 10 3 9 4 8 5 6 6 7 7 5 8 83 9 94 10 84 11 85 12
REMARK SMILES IDX 4 13 3 16 2 17 1 18 86 19 87 20 88 21 93 22 89 23 92 24
REMARK SMILES IDX 90 25 91 26 13 27 14 28 15 29 16 30 17 31 18 32 19 33 20 34
REMARK SMILES IDX 21 35 82 36 22 37 81 38 23 39 24 40 25 41 75 42 26 43 80 44
REMARK SMILES IDX 74 45 76 46 27 47 79 48 73 49 72 50 28 52 60 53 40 54 59 55
REMARK SMILES IDX 41 56 44 57 58 58 77 59 42 60 43 61 57 63 78 64 45 65 29 66
REMARK SMILES IDX 30 67 38 68 31 69 33 70 39 71 32 72 34 73 35 74 36 75 37 76
REMARK SMILES IDX 61 77 62 78 70 79 63 80 65 81 71 82 64 83 66 84 67 85 68 86
REMARK SMILES IDX 69 87 46 88 47 89 55 90 48 91 50 92 56 93 49 94 51 95 52 96
REMARK SMILES IDX 53 97 54 98
REMARK H PARENT 4 14 4 15 76 51 44 62
REMARK Flexibility Score: inf
ROOT
ATOM      1  C   UNL A   1      33.274  29.161  25.858  1.00  0.00     0.188 C 
ENDROOT
BRANCH   1   2
ATOM      2  O   UNL A   1      33.597  27.965  25.172  1.00  0.00    -0.376 OA
BRANCH   2   3
ATOM      3  C   UNL A   1      34.015  26.830  25.920  1.00  0.00     0.202 C 
BRANCH   3   4
ATOM      4  C   UNL A   1      34.286  25.478  25.227  1.00  0.00     0.261 C 
BRANCH   4   5
ATOM      5  O   UNL A   1      33.258  24.979  24.335  1.00  0.00    -0.459 OA
BRANCH   5   6
ATOM      6  C   UNL A   1      32.005  24.928  24.856  1.00  0.00     0.368 C 
ATOM      7  O   UNL A   1      31.773  24.858  26.063  1.00  0.00    -0.245 OA
BRANCH   6   8
ATOM      8  C   UNL A   1      30.832  24.970  23.815  1.00  0.00     0.195 C 
ATOM      9  C   UNL A   1      31.373  25.677  22.554  1.00  0.00     0.082 C 
ATOM     10  C   UNL A   1      29.581  25.807  24.143  1.00  0.00     0.096 C 
ATOM     11  C   UNL A   1      31.093  27.157  22.779  1.00  0.00     0.022 C 
ATOM     12  C   UNL A   1      29.790  27.203  23.566  1.00  0.00     0.059 C 
BRANCH   8  13
ATOM     13  N   UNL A   1      30.570  23.553  23.418  1.00  0.00    -0.332 N 
ATOM     14  H   UNL A   1      30.100  23.099  24.200  1.00  0.00     0.347 HD
ATOM     15  H   UNL A   1      30.025  23.624  22.558  1.00  0.00     0.347 HD
BRANCH  13  16
ATOM     16  C   UNL A   1      31.716  22.727  23.058  1.00  0.00     0.261 C 
BRANCH  16  17
ATOM     17  C   UNL A   1      31.882  21.528  23.996  1.00  0.00     0.058 C 
ATOM     18  C   UNL A   1      32.435  20.303  23.285  1.00  0.00     0.010 C 
ENDBRANCH  16  17
ENDBRANCH  13  16
ENDBRANCH   8  13
BRANCH  12  19
ATOM     19  S   UNL A   1      28.303  27.850  22.691  1.00  0.00    -0.122 SA
BRANCH  19  20
ATOM     20  C   UNL A   1      28.518  29.620  22.753  1.00  0.00     0.008 A 
ATOM     21  C   UNL A   1      28.935  30.197  23.955  1.00  0.00     0.016 A 
ATOM     22  C   UNL A   1      28.194  30.453  21.676  1.00  0.00     0.016 A 
ATOM     23  C   UNL A   1      29.078  31.583  24.066  1.00  0.00     0.021 A 
ATOM     24  C   UNL A   1      28.356  31.839  21.775  1.00  0.00     0.021 A 
ATOM     25  C   UNL A   1      28.799  32.398  22.971  1.00  0.00     0.041 A 
ATOM     26  Cl  UNL A   1      28.984  34.103  23.108  1.00  0.00    -0.084 Cl
ENDBRANCH  19  20
ENDBRANCH  12  19
ENDBRANCH   6   8
ENDBRANCH   5   6
ENDBRANCH   4   5
ENDBRANCH   3   4
ENDBRANCH   2   3
ENDBRANCH   1   2
BRANCH   1  27
ATOM     27  C   UNL A   1      32.155  30.043  25.299  1.00  0.00     0.188 C 
BRANCH  27  28
ATOM     28  O   UNL A   1      31.587  30.970  26.188  1.00  0.00    -0.376 OA
BRANCH  28  29
ATOM     29  C   UNL A   1      32.429  31.740  27.028  1.00  0.00     0.202 C 
BRANCH  29  30
ATOM     30  C   UNL A   1      32.264  33.258  27.264  1.00  0.00     0.261 C 
BRANCH  30  31
ATOM     31  O   UNL A   1      33.439  34.045  27.505  1.00  0.00    -0.460 OA
BRANCH  31  32
ATOM     32  C   UNL A   1      33.761  34.282  28.804  1.00  0.00     0.338 C 
ATOM     33  O   UNL A   1      33.098  34.895  29.614  1.00  0.00    -0.246 OA
BRANCH  32  34
ATOM     34  C   UNL A   1      34.935  33.436  29.144  1.00  0.00     0.060 A 
ATOM     35  C   UNL A   1      34.709  32.194  29.758  1.00  0.00     0.016 A 
ATOM     36  C   UNL A   1      36.237  33.848  28.854  1.00  0.00     0.016 A 
ATOM     37  C   UNL A   1      35.786  31.373  30.098  1.00  0.00     0.010 A 
ATOM     38  C   UNL A   1      37.317  33.037  29.228  1.00  0.00     0.010 A 
ATOM     39  C   UNL A   1      37.099  31.805  29.870  1.00  0.00    -0.014 A 
BRANCH  39  40
ATOM     40  C   UNL A   1      38.230  31.048  30.466  1.00  0.00     0.031 A 
ATOM     41  C   UNL A   1      38.594  31.312  31.899  1.00  0.00     0.074 A 
ATOM     42  C   UNL A   1      38.911  30.123  29.766  1.00  0.00     0.049 A 
ATOM     43  N   UNL A   1      39.558  30.800  32.615  1.00  0.00    -0.248 NA
ATOM     44  C   UNL A   1      37.763  32.293  32.615  1.00  0.00     0.031 C 
ATOM     45  C   UNL A   1      38.654  29.772  28.375  1.00  0.00     0.029 A 
ATOM     46  N   UNL A   1      39.960  29.311  30.128  1.00  0.00    -0.354 N 
ATOM     47  C   UNL A   1      39.488  31.434  33.848  1.00  0.00     0.074 A 
ATOM     48  C   UNL A   1      38.367  32.347  33.793  1.00  0.00     0.031 C 
ATOM     49  C   UNL A   1      39.497  28.792  28.005  1.00  0.00     0.029 A 
ATOM     50  C   UNL A   1      40.406  28.495  29.111  1.00  0.00     0.049 A 
ATOM     51  H   UNL A   1      40.355  29.312  31.030  1.00  0.00     0.167 HD
ATOM     52  C   UNL A   1      40.296  31.282  34.923  1.00  0.00     0.034 A 
ATOM     53  C   UNL A   1      41.447  27.638  29.066  1.00  0.00     0.034 A 
ATOM     54  C   UNL A   1      41.414  30.382  34.978  1.00  0.00     0.049 A 
ATOM     55  C   UNL A   1      42.339  27.503  30.277  1.00  0.00     0.074 A 
ATOM     56  C   UNL A   1      42.291  30.166  36.026  1.00  0.00     0.029 A 
ATOM     57  N   UNL A   1      41.826  29.565  33.938  1.00  0.00    -0.354 N 
ATOM     58  N   UNL A   1      42.223  28.063  31.456  1.00  0.00    -0.248 NA
ATOM     59  C   UNL A   1      43.508  26.618  30.150  1.00  0.00     0.031 C 
ATOM     60  C   UNL A   1      43.257  29.246  35.607  1.00  0.00     0.029 A 
ATOM     61  C   UNL A   1      42.951  28.850  34.315  1.00  0.00     0.049 A 
ATOM     62  H   UNL A   1      41.385  29.500  33.060  1.00  0.00     0.167 HD
ATOM     63  C   UNL A   1      43.287  27.583  32.214  1.00  0.00     0.074 A 
ATOM     64  C   UNL A   1      44.018  26.660  31.372  1.00  0.00     0.031 C 
ATOM     65  C   UNL A   1      43.642  27.897  33.485  1.00  0.00     0.034 A 
BRANCH  52  66
ATOM     66  C   UNL A   1      40.016  32.146  36.123  1.00  0.00     0.023 A 
ATOM     67  C   UNL A   1      40.814  33.277  36.383  1.00  0.00     0.012 A 
ATOM     68  C   UNL A   1      38.934  31.849  36.974  1.00  0.00     0.148 A 
ATOM     69  C   UNL A   1      40.559  34.082  37.493  1.00  0.00     0.002 A 
ATOM     70  C   UNL A   1      38.656  32.682  38.049  1.00  0.00     0.091 A 
ATOM     71  F   UNL A   1      38.204  30.754  36.719  1.00  0.00    -0.205 F 
ATOM     72  C   UNL A   1      39.475  33.791  38.318  1.00  0.00     0.022 A 
BRANCH  70  73
ATOM     73  S   UNL A   1      37.239  32.435  39.123  1.00  0.00     0.127 S 
ATOM     74  O   UNL A   1      37.451  33.472  40.133  1.00  0.00    -0.237 OA
ATOM     75  O   UNL A   1      36.120  32.688  38.216  1.00  0.00    -0.237 OA
ATOM     76  O   UNL A   1      37.333  31.066  39.609  1.00  0.00    -0.744 OA
ENDBRANCH  70  73
ENDBRANCH  52  66
BRANCH  53  77
ATOM     77  C   UNL A   1      41.737  26.849  27.830  1.00  0.00     0.023 A 
ATOM     78  C   UNL A   1      42.282  27.492  26.699  1.00  0.00     0.012 A 
ATOM     79  C   UNL A   1      41.451  25.473  27.759  1.00  0.00     0.148 A 
ATOM     80  C   UNL A   1      42.499  26.787  25.512  1.00  0.00     0.002 A 
ATOM     81  C   UNL A   1      41.736  24.762  26.598  1.00  0.00     0.091 A 
ATOM     82  F   UNL A   1      40.901  24.882  28.828  1.00  0.00    -0.205 F 
ATOM     83  C   UNL A   1      42.238  25.420  25.466  1.00  0.00     0.022 A 
BRANCH  81  84
ATOM     84  S   UNL A   1      41.560  22.978  26.501  1.00  0.00     0.127 S 
ATOM     85  O   UNL A   1      42.239  22.543  27.719  1.00  0.00    -0.237 OA
ATOM     86  O   UNL A   1      40.106  22.817  26.514  1.00  0.00    -0.237 OA
ATOM     87  O   UNL A   1      42.195  22.589  25.249  1.00  0.00    -0.744 OA
ENDBRANCH  81  84
ENDBRANCH  53  77
BRANCH  65  88
ATOM     88  C   UNL A   1      44.846  27.205  34.072  1.00  0.00     0.023 A 
ATOM     89  C   UNL A   1      46.134  27.749  33.896  1.00  0.00     0.012 A 
ATOM     90  C   UNL A   1      44.686  26.056  34.873  1.00  0.00     0.148 A 
ATOM     91  C   UNL A   1      47.246  27.140  34.476  1.00  0.00     0.002 A 
ATOM     92  C   UNL A   1      45.791  25.486  35.492  1.00  0.00     0.091 A 
ATOM     93  F   UNL A   1      43.455  25.544  35.016  1.00  0.00    -0.205 F 
ATOM     94  C   UNL A   1      47.073  26.019  35.285  1.00  0.00     0.022 A 
BRANCH  92  95
ATOM     95  S   UNL A   1      45.652  24.103  36.630  1.00  0.00     0.127 S 
ATOM     96  O   UNL A   1      44.857  24.685  37.709  1.00  0.00    -0.237 OA
ATOM     97  O   UNL A   1      44.946  23.108  35.820  1.00  0.00    -0.237 OA
ATOM     98  O   UNL A   1      47.015  23.735  36.987  1.00  0.00    -0.744 OA
ENDBRANCH  92  95
ENDBRANCH  65  88
ENDBRANCH  39  40
ENDBRANCH  32  34
ENDBRANCH  31  32
ENDBRANCH  30  31
ENDBRANCH  29  30
ENDBRANCH  28  29
ENDBRANCH  27  28
ENDBRANCH   1  27
TORSDOF 25
ENDMDL
