MODEL 1
REMARK VINA RESULT:      -9.7      0.000      0.000
REMARK SMILES C=CCCC[C@@H](Cc1ccc(F)cc1)C(=O)OCCOCCOCCOC(=O)c1ccc(-c2c3nc(c(-c4cccc(S(=O)(=O)[O-])c4F)c4ccc([nH]4)c(-c4cccc(S(=O)(=O)[O-])c4F)c4nc(c(-c5cccc(S(=O)(=O)[O-])c5F)c5ccc2[nH]5)C=C4)C=C3)cc1
REMARK SMILES IDX 21 1 20 2 19 3 18 4 17 5 15 6 16 7 6 8 5 9 4 10 3 11 2 12
REMARK SMILES IDX 1 13 7 14 8 15 9 16 14 17 10 18 13 19 11 20 12 21 22 22
REMARK SMILES IDX 23 23 24 24 25 25 26 26 27 27 28 28 29 29 30 30 91 31 31 32
REMARK SMILES IDX 90 33 32 34 33 35 34 36 84 37 35 38 89 39 83 40 85 41 36 42
REMARK SMILES IDX 88 43 82 44 81 45 37 47 69 48 49 49 68 50 50 51 53 52 67 53
REMARK SMILES IDX 86 54 51 55 52 56 66 58 87 59 54 60 38 61 39 62 47 63 40 64
REMARK SMILES IDX 42 65 48 66 41 67 43 68 44 69 45 70 46 71 70 72 71 73 79 74
REMARK SMILES IDX 72 75 74 76 80 77 73 78 75 79 76 80 77 81 78 82 55 83 56 84
REMARK SMILES IDX 64 85 57 86 59 87 65 88 58 89 60 90 61 91 62 92 63 93
REMARK H PARENT 85 46 53 57
REMARK Flexibility Score: inf
ROOT
ATOM      1  C   UNL A   1      39.166  21.959  26.238  1.00  0.00     0.188 C 
ENDROOT
BRANCH   1   2
ATOM      2  O   UNL A   1      38.085  21.391  25.518  1.00  0.00    -0.376 OA
BRANCH   2   3
ATOM      3  C   UNL A   1      36.780  21.917  25.731  1.00  0.00     0.202 C 
BRANCH   3   4
ATOM      4  C   UNL A   1      35.542  21.121  25.270  1.00  0.00     0.261 C 
BRANCH   4   5
ATOM      5  O   UNL A   1      34.320  21.268  26.040  1.00  0.00    -0.463 OA
BRANCH   5   6
ATOM      6  C   UNL A   1      34.175  22.436  26.721  1.00  0.00     0.309 C 
ATOM      7  O   UNL A   1      34.540  22.589  27.884  1.00  0.00    -0.252 OA
BRANCH   6   8
ATOM      8  C   UNL A   1      33.391  23.542  25.999  1.00  0.00     0.103 C 
BRANCH   8   9
ATOM      9  C   UNL A   1      32.299  24.333  26.758  1.00  0.00     0.016 C 
BRANCH   9  10
ATOM     10  C   UNL A   1      30.855  23.832  26.531  1.00  0.00     0.005 C 
BRANCH  10  11
ATOM     11  C   UNL A   1      29.894  24.869  25.922  1.00  0.00     0.027 C 
BRANCH  11  12
ATOM     12  C   UNL A   1      30.506  25.668  24.805  1.00  0.00    -0.035 C 
ATOM     13  C   UNL A   1      29.811  26.434  23.955  1.00  0.00     0.004 C 
ENDBRANCH  11  12
ENDBRANCH  10  11
ENDBRANCH   9  10
ENDBRANCH   8   9
BRANCH   8  14
ATOM     14  C   UNL A   1      34.429  24.453  25.300  1.00  0.00     0.050 C 
BRANCH  14  15
ATOM     15  C   UNL A   1      33.997  24.838  23.900  1.00  0.00    -0.047 A 
ATOM     16  C   UNL A   1      33.895  26.191  23.542  1.00  0.00     0.007 A 
ATOM     17  C   UNL A   1      33.537  23.858  23.008  1.00  0.00     0.007 A 
ATOM     18  C   UNL A   1      33.242  26.562  22.369  1.00  0.00     0.039 A 
ATOM     19  C   UNL A   1      32.892  24.230  21.829  1.00  0.00     0.039 A 
ATOM     20  C   UNL A   1      32.731  25.578  21.533  1.00  0.00     0.123 A 
ATOM     21  F   UNL A   1      32.056  25.934  20.432  1.00  0.00    -0.207 F 
ENDBRANCH  14  15
ENDBRANCH   8  14
ENDBRANCH   6   8
ENDBRANCH   5   6
ENDBRANCH   4   5
ENDBRANCH   3   4
ENDBRANCH   2   3
ENDBRANCH   1   2
BRANCH   1  22
ATOM     22  C   UNL A   1      40.586  21.659  25.753  1.00  0.00     0.188 C 
BRANCH  22  23
ATOM     23  O   UNL A   1      41.213  20.546  26.343  1.00  0.00    -0.376 OA
BRANCH  23  24
ATOM     24  C   UNL A   1      42.600  20.594  26.625  1.00  0.00     0.202 C 
BRANCH  24  25
ATOM     25  C   UNL A   1      43.561  21.447  25.773  1.00  0.00     0.261 C 
BRANCH  25  26
ATOM     26  O   UNL A   1      44.024  22.683  26.340  1.00  0.00    -0.460 OA
BRANCH  26  27
ATOM     27  C   UNL A   1      43.754  23.812  25.645  1.00  0.00     0.338 C 
ATOM     28  O   UNL A   1      43.864  23.964  24.436  1.00  0.00    -0.246 OA
BRANCH  27  29
ATOM     29  C   UNL A   1      43.019  24.739  26.541  1.00  0.00     0.060 A 
ATOM     30  C   UNL A   1      43.419  26.083  26.563  1.00  0.00     0.016 A 
ATOM     31  C   UNL A   1      41.943  24.316  27.322  1.00  0.00     0.016 A 
ATOM     32  C   UNL A   1      42.776  27.003  27.389  1.00  0.00     0.010 A 
ATOM     33  C   UNL A   1      41.323  25.231  28.184  1.00  0.00     0.010 A 
ATOM     34  C   UNL A   1      41.769  26.567  28.255  1.00  0.00    -0.014 A 
BRANCH  34  35
ATOM     35  C   UNL A   1      41.400  27.428  29.408  1.00  0.00     0.031 A 
ATOM     36  C   UNL A   1      40.104  28.192  29.322  1.00  0.00     0.074 A 
ATOM     37  C   UNL A   1      42.140  27.491  30.529  1.00  0.00     0.049 A 
ATOM     38  N   UNL A   1      39.569  29.021  30.178  1.00  0.00    -0.248 NA
ATOM     39  C   UNL A   1      39.301  27.988  28.102  1.00  0.00     0.031 C 
ATOM     40  C   UNL A   1      43.384  26.763  30.766  1.00  0.00     0.029 A 
ATOM     41  N   UNL A   1      41.951  28.217  31.681  1.00  0.00    -0.354 N 
ATOM     42  C   UNL A   1      38.393  29.465  29.586  1.00  0.00     0.074 A 
ATOM     43  C   UNL A   1      38.296  28.828  28.293  1.00  0.00     0.031 C 
ATOM     44  C   UNL A   1      43.855  27.090  31.982  1.00  0.00     0.029 A 
ATOM     45  C   UNL A   1      42.965  28.076  32.598  1.00  0.00     0.049 A 
ATOM     46  H   UNL A   1      41.161  28.785  31.835  1.00  0.00     0.167 HD
ATOM     47  C   UNL A   1      37.461  30.310  30.081  1.00  0.00     0.034 A 
ATOM     48  C   UNL A   1      43.165  28.687  33.785  1.00  0.00     0.034 A 
ATOM     49  C   UNL A   1      37.534  30.915  31.381  1.00  0.00     0.049 A 
ATOM     50  C   UNL A   1      42.143  29.676  34.293  1.00  0.00     0.074 A 
ATOM     51  C   UNL A   1      36.616  31.753  31.985  1.00  0.00     0.029 A 
ATOM     52  N   UNL A   1      38.583  30.754  32.271  1.00  0.00    -0.354 N 
ATOM     53  N   UNL A   1      40.996  30.023  33.761  1.00  0.00    -0.248 NA
ATOM     54  C   UNL A   1      42.432  30.345  35.573  1.00  0.00     0.031 C 
ATOM     55  C   UNL A   1      37.129  32.134  33.227  1.00  0.00     0.029 A 
ATOM     56  C   UNL A   1      38.348  31.499  33.412  1.00  0.00     0.049 A 
ATOM     57  H   UNL A   1      39.378  30.193  32.115  1.00  0.00     0.167 HD
ATOM     58  C   UNL A   1      40.417  30.927  34.648  1.00  0.00     0.074 A 
ATOM     59  C   UNL A   1      41.332  31.063  35.762  1.00  0.00     0.031 C 
ATOM     60  C   UNL A   1      39.240  31.591  34.539  1.00  0.00     0.034 A 
BRANCH  47  61
ATOM     61  C   UNL A   1      36.264  30.619  29.221  1.00  0.00     0.023 A 
ATOM     62  C   UNL A   1      35.588  29.574  28.559  1.00  0.00     0.012 A 
ATOM     63  C   UNL A   1      35.770  31.935  29.127  1.00  0.00     0.148 A 
ATOM     64  C   UNL A   1      34.456  29.838  27.791  1.00  0.00     0.002 A 
ATOM     65  C   UNL A   1      34.611  32.182  28.401  1.00  0.00     0.091 A 
ATOM     66  F   UNL A   1      36.442  32.916  29.745  1.00  0.00    -0.205 F 
ATOM     67  C   UNL A   1      33.960  31.138  27.723  1.00  0.00     0.022 A 
BRANCH  65  68
ATOM     68  S   UNL A   1      33.844  33.803  28.323  1.00  0.00     0.127 S 
ATOM     69  O   UNL A   1      34.821  34.555  27.539  1.00  0.00    -0.237 OA
ATOM     70  O   UNL A   1      32.592  33.515  27.623  1.00  0.00    -0.237 OA
ATOM     71  O   UNL A   1      33.684  34.241  29.703  1.00  0.00    -0.744 OA
ENDBRANCH  65  68
ENDBRANCH  47  61
BRANCH  48  72
ATOM     72  C   UNL A   1      44.375  28.353  34.592  1.00  0.00     0.023 A 
ATOM     73  C   UNL A   1      45.546  29.119  34.437  1.00  0.00     0.012 A 
ATOM     74  C   UNL A   1      44.354  27.314  35.545  1.00  0.00     0.148 A 
ATOM     75  C   UNL A   1      46.678  28.851  35.211  1.00  0.00     0.002 A 
ATOM     76  C   UNL A   1      45.464  27.089  36.348  1.00  0.00     0.091 A 
ATOM     77  F   UNL A   1      43.236  26.585  35.660  1.00  0.00    -0.205 F 
ATOM     78  C   UNL A   1      46.633  27.847  36.174  1.00  0.00     0.022 A 
BRANCH  76  79
ATOM     79  S   UNL A   1      45.460  25.905  37.700  1.00  0.00     0.127 S 
ATOM     80  O   UNL A   1      46.452  26.479  38.605  1.00  0.00    -0.237 OA
ATOM     81  O   UNL A   1      44.075  25.993  38.166  1.00  0.00    -0.237 OA
ATOM     82  O   UNL A   1      45.820  24.625  37.108  1.00  0.00    -0.744 OA
ENDBRANCH  76  79
ENDBRANCH  48  72
BRANCH  60  83
ATOM     83  C   UNL A   1      38.830  32.530  35.646  1.00  0.00     0.023 A 
ATOM     84  C   UNL A   1      38.034  32.050  36.703  1.00  0.00     0.012 A 
ATOM     85  C   UNL A   1      39.384  33.825  35.728  1.00  0.00     0.148 A 
ATOM     86  C   UNL A   1      37.792  32.844  37.823  1.00  0.00     0.002 A 
ATOM     87  C   UNL A   1      39.180  34.591  36.869  1.00  0.00     0.091 A 
ATOM     88  F   UNL A   1      40.135  34.262  34.706  1.00  0.00    -0.205 F 
ATOM     89  C   UNL A   1      38.378  34.105  37.914  1.00  0.00     0.022 A 
BRANCH  87  90
ATOM     90  S   UNL A   1      39.979  36.179  37.129  1.00  0.00     0.127 S 
ATOM     91  O   UNL A   1      41.345  35.776  37.462  1.00  0.00    -0.237 OA
ATOM     92  O   UNL A   1      39.832  36.815  35.820  1.00  0.00    -0.237 OA
ATOM     93  O   UNL A   1      39.248  36.829  38.210  1.00  0.00    -0.744 OA
ENDBRANCH  87  90
ENDBRANCH  60  83
ENDBRANCH  34  35
ENDBRANCH  27  29
ENDBRANCH  26  27
ENDBRANCH  25  26
ENDBRANCH  24  25
ENDBRANCH  23  24
ENDBRANCH  22  23
ENDBRANCH   1  22
TORSDOF 26
ENDMDL
MODEL 2
REMARK VINA RESULT:      -9.6      5.220     11.033
REMARK SMILES C=CCCC[C@@H](Cc1ccc(F)cc1)C(=O)OCCOCCOCCOC(=O)c1ccc(-c2c3nc(c(-c4cccc(S(=O)(=O)[O-])c4F)c4ccc([nH]4)c(-c4cccc(S(=O)(=O)[O-])c4F)c4nc(c(-c5cccc(S(=O)(=O)[O-])c5F)c5ccc2[nH]5)C=C4)C=C3)cc1
REMARK SMILES IDX 21 1 20 2 19 3 18 4 17 5 15 6 16 7 6 8 5 9 4 10 3 11 2 12
REMARK SMILES IDX 1 13 7 14 8 15 9 16 14 17 10 18 13 19 11 20 12 21 22 22
REMARK SMILES IDX 23 23 24 24 25 25 26 26 27 27 28 28 29 29 30 30 91 31 31 32
REMARK SMILES IDX 90 33 32 34 33 35 34 36 84 37 35 38 89 39 83 40 85 41 36 42
REMARK SMILES IDX 88 43 82 44 81 45 37 47 69 48 49 49 68 50 50 51 53 52 67 53
REMARK SMILES IDX 86 54 51 55 52 56 66 58 87 59 54 60 38 61 39 62 47 63 40 64
REMARK SMILES IDX 42 65 48 66 41 67 43 68 44 69 45 70 46 71 70 72 71 73 79 74
REMARK SMILES IDX 72 75 74 76 80 77 73 78 75 79 76 80 77 81 78 82 55 83 56 84
REMARK SMILES IDX 64 85 57 86 59 87 65 88 58 89 60 90 61 91 62 92 63 93
REMARK H PARENT 85 46 53 57
REMARK Flexibility Score: inf
ROOT
ATOM      1  C   UNL A   1      33.651  33.870  28.023  1.00  0.00     0.188 C 
ENDROOT
BRANCH   1   2
ATOM      2  O   UNL A   1      33.137  32.549  27.969  1.00  0.00    -0.376 OA
BRANCH   2   3
ATOM      3  C   UNL A   1      34.057  31.471  27.837  1.00  0.00     0.202 C 
BRANCH   3   4
ATOM      4  C   UNL A   1      33.630  30.178  27.114  1.00  0.00     0.261 C 
BRANCH   4   5
ATOM      5  O   UNL A   1      32.218  29.839  27.115  1.00  0.00    -0.463 OA
BRANCH   5   6
ATOM      6  C   UNL A   1      31.917  28.515  27.059  1.00  0.00     0.309 C 
ATOM      7  O   UNL A   1      31.429  27.891  27.998  1.00  0.00    -0.252 OA
BRANCH   6   8
ATOM      8  C   UNL A   1      32.351  27.781  25.781  1.00  0.00     0.103 C 
BRANCH   8   9
ATOM      9  C   UNL A   1      33.634  26.918  25.786  1.00  0.00     0.016 C 
BRANCH   9  10
ATOM     10  C   UNL A   1      33.429  25.440  25.382  1.00  0.00     0.005 C 
BRANCH  10  11
ATOM     11  C   UNL A   1      34.296  24.960  24.205  1.00  0.00     0.027 C 
BRANCH  11  12
ATOM     12  C   UNL A   1      35.412  24.042  24.620  1.00  0.00    -0.035 C 
ATOM     13  C   UNL A   1      35.908  23.062  23.855  1.00  0.00     0.004 C 
ENDBRANCH  11  12
ENDBRANCH  10  11
ENDBRANCH   9  10
ENDBRANCH   8   9
BRANCH   8  14
ATOM     14  C   UNL A   1      31.110  27.026  25.245  1.00  0.00     0.050 C 
BRANCH  14  15
ATOM     15  C   UNL A   1      30.330  27.851  24.243  1.00  0.00    -0.047 A 
ATOM     16  C   UNL A   1      30.703  29.179  23.984  1.00  0.00     0.007 A 
ATOM     17  C   UNL A   1      29.139  27.355  23.694  1.00  0.00     0.007 A 
ATOM     18  C   UNL A   1      29.844  30.028  23.288  1.00  0.00     0.039 A 
ATOM     19  C   UNL A   1      28.285  28.203  22.989  1.00  0.00     0.039 A 
ATOM     20  C   UNL A   1      28.636  29.536  22.813  1.00  0.00     0.123 A 
ATOM     21  F   UNL A   1      27.787  30.364  22.190  1.00  0.00    -0.207 F 
ENDBRANCH  14  15
ENDBRANCH   8  14
ENDBRANCH   6   8
ENDBRANCH   5   6
ENDBRANCH   4   5
ENDBRANCH   3   4
ENDBRANCH   2   3
ENDBRANCH   1   2
BRANCH   1  22
ATOM     22  C   UNL A   1      34.529  34.249  29.218  1.00  0.00     0.188 C 
BRANCH  22  23
ATOM     23  O   UNL A   1      33.950  34.063  30.487  1.00  0.00    -0.376 OA
BRANCH  23  24
ATOM     24  C   UNL A   1      34.383  32.990  31.302  1.00  0.00     0.202 C 
BRANCH  24  25
ATOM     25  C   UNL A   1      34.992  33.238  32.696  1.00  0.00     0.261 C 
BRANCH  25  26
ATOM     26  O   UNL A   1      36.421  33.361  32.779  1.00  0.00    -0.460 OA
BRANCH  26  27
ATOM     27  C   UNL A   1      37.082  32.376  33.429  1.00  0.00     0.338 C 
ATOM     28  O   UNL A   1      36.834  31.953  34.550  1.00  0.00    -0.246 OA
BRANCH  27  29
ATOM     29  C   UNL A   1      37.960  31.688  32.451  1.00  0.00     0.060 A 
ATOM     30  C   UNL A   1      38.883  30.754  32.943  1.00  0.00     0.016 A 
ATOM     31  C   UNL A   1      37.867  31.923  31.079  1.00  0.00     0.016 A 
ATOM     32  C   UNL A   1      39.744  30.080  32.078  1.00  0.00     0.010 A 
ATOM     33  C   UNL A   1      38.759  31.277  30.212  1.00  0.00     0.010 A 
ATOM     34  C   UNL A   1      39.732  30.388  30.714  1.00  0.00    -0.014 A 
BRANCH  34  35
ATOM     35  C   UNL A   1      40.906  30.006  29.888  1.00  0.00     0.031 A 
ATOM     36  C   UNL A   1      40.844  28.691  29.155  1.00  0.00     0.074 A 
ATOM     37  C   UNL A   1      41.970  30.813  29.727  1.00  0.00     0.049 A 
ATOM     38  N   UNL A   1      41.738  28.123  28.390  1.00  0.00    -0.248 NA
ATOM     39  C   UNL A   1      39.599  27.914  29.303  1.00  0.00     0.031 C 
ATOM     40  C   UNL A   1      42.133  32.131  30.334  1.00  0.00     0.029 A 
ATOM     41  N   UNL A   1      43.125  30.628  29.005  1.00  0.00    -0.354 N 
ATOM     42  C   UNL A   1      41.183  26.910  28.001  1.00  0.00     0.074 A 
ATOM     43  C   UNL A   1      39.882  26.814  28.621  1.00  0.00     0.031 C 
ATOM     44  C   UNL A   1      43.328  32.632  29.971  1.00  0.00     0.029 A 
ATOM     45  C   UNL A   1      44.028  31.657  29.133  1.00  0.00     0.049 A 
ATOM     46  H   UNL A   1      43.290  29.833  28.447  1.00  0.00     0.167 HD
ATOM     47  C   UNL A   1      41.697  25.967  27.179  1.00  0.00     0.034 A 
ATOM     48  C   UNL A   1      45.282  31.787  28.650  1.00  0.00     0.034 A 
ATOM     49  C   UNL A   1      42.972  26.076  26.529  1.00  0.00     0.049 A 
ATOM     50  C   UNL A   1      45.863  30.694  27.785  1.00  0.00     0.074 A 
ATOM     51  C   UNL A   1      43.559  25.189  25.647  1.00  0.00     0.029 A 
ATOM     52  N   UNL A   1      43.858  27.128  26.695  1.00  0.00    -0.354 N 
ATOM     53  N   UNL A   1      45.296  29.592  27.357  1.00  0.00    -0.248 NA
ATOM     54  C   UNL A   1      47.249  30.868  27.321  1.00  0.00     0.031 C 
ATOM     55  C   UNL A   1      44.820  25.684  25.310  1.00  0.00     0.029 A 
ATOM     56  C   UNL A   1      45.001  26.900  25.950  1.00  0.00     0.049 A 
ATOM     57  H   UNL A   1      43.698  27.919  27.259  1.00  0.00     0.167 HD
ATOM     58  C   UNL A   1      46.241  28.957  26.557  1.00  0.00     0.074 A 
ATOM     59  C   UNL A   1      47.415  29.804  26.544  1.00  0.00     0.031 C 
ATOM     60  C   UNL A   1      46.146  27.772  25.904  1.00  0.00     0.034 A 
BRANCH  47  61
ATOM     61  C   UNL A   1      40.870  24.737  26.916  1.00  0.00     0.023 A 
ATOM     62  C   UNL A   1      39.526  24.869  26.508  1.00  0.00     0.012 A 
ATOM     63  C   UNL A   1      41.444  23.454  27.008  1.00  0.00     0.148 A 
ATOM     64  C   UNL A   1      38.759  23.741  26.223  1.00  0.00     0.002 A 
ATOM     65  C   UNL A   1      40.687  22.338  26.673  1.00  0.00     0.091 A 
ATOM     66  F   UNL A   1      42.715  23.351  27.421  1.00  0.00    -0.205 F 
ATOM     67  C   UNL A   1      39.342  22.478  26.293  1.00  0.00     0.022 A 
BRANCH  65  68
ATOM     68  S   UNL A   1      41.369  20.677  26.646  1.00  0.00     0.127 S 
ATOM     69  O   UNL A   1      40.213  19.890  26.222  1.00  0.00    -0.237 OA
ATOM     70  O   UNL A   1      42.426  20.798  25.642  1.00  0.00    -0.237 OA
ATOM     71  O   UNL A   1      41.840  20.411  27.998  1.00  0.00    -0.744 OA
ENDBRANCH  65  68
ENDBRANCH  47  61
BRANCH  48  72
ATOM     72  C   UNL A   1      46.064  33.022  28.951  1.00  0.00     0.023 A 
ATOM     73  C   UNL A   1      46.926  33.045  30.063  1.00  0.00     0.012 A 
ATOM     74  C   UNL A   1      45.992  34.154  28.113  1.00  0.00     0.148 A 
ATOM     75  C   UNL A   1      47.698  34.176  30.340  1.00  0.00     0.002 A 
ATOM     76  C   UNL A   1      46.803  35.253  28.364  1.00  0.00     0.091 A 
ATOM     77  F   UNL A   1      45.149  34.118  27.072  1.00  0.00    -0.205 F 
ATOM     78  C   UNL A   1      47.647  35.272  29.485  1.00  0.00     0.022 A 
BRANCH  76  79
ATOM     79  S   UNL A   1      46.901  36.661  27.251  1.00  0.00     0.127 S 
ATOM     80  O   UNL A   1      47.060  37.772  28.186  1.00  0.00    -0.237 OA
ATOM     81  O   UNL A   1      48.095  36.338  26.469  1.00  0.00    -0.237 OA
ATOM     82  O   UNL A   1      45.658  36.655  26.493  1.00  0.00    -0.744 OA
ENDBRANCH  76  79
ENDBRANCH  48  72
BRANCH  60  83
ATOM     83  C   UNL A   1      47.325  27.292  25.094  1.00  0.00     0.023 A 
ATOM     84  C   UNL A   1      47.353  27.525  23.706  1.00  0.00     0.012 A 
ATOM     85  C   UNL A   1      48.472  26.779  25.735  1.00  0.00     0.148 A 
ATOM     86  C   UNL A   1      48.504  27.254  22.967  1.00  0.00     0.002 A 
ATOM     87  C   UNL A   1      49.630  26.558  25.001  1.00  0.00     0.091 A 
ATOM     88  F   UNL A   1      48.418  26.560  27.058  1.00  0.00    -0.205 F 
ATOM     89  C   UNL A   1      49.646  26.787  23.616  1.00  0.00     0.022 A 
BRANCH  87  90
ATOM     90  S   UNL A   1      51.183  26.064  25.760  1.00  0.00     0.127 S 
ATOM     91  O   UNL A   1      52.045  25.892  24.592  1.00  0.00    -0.237 OA
ATOM     92  O   UNL A   1      51.503  27.227  26.589  1.00  0.00    -0.237 OA
ATOM     93  O   UNL A   1      50.901  24.843  26.503  1.00  0.00    -0.744 OA
ENDBRANCH  87  90
ENDBRANCH  60  83
ENDBRANCH  34  35
ENDBRANCH  27  29
ENDBRANCH  26  27
ENDBRANCH  25  26
ENDBRANCH  24  25
ENDBRANCH  23  24
ENDBRANCH  22  23
ENDBRANCH   1  22
TORSDOF 26
ENDMDL
MODEL 3
REMARK VINA RESULT:      -9.3      4.953     10.873
REMARK SMILES C=CCCC[C@@H](Cc1ccc(F)cc1)C(=O)OCCOCCOCCOC(=O)c1ccc(-c2c3nc(c(-c4cccc(S(=O)(=O)[O-])c4F)c4ccc([nH]4)c(-c4cccc(S(=O)(=O)[O-])c4F)c4nc(c(-c5cccc(S(=O)(=O)[O-])c5F)c5ccc2[nH]5)C=C4)C=C3)cc1
REMARK SMILES IDX 21 1 20 2 19 3 18 4 17 5 15 6 16 7 6 8 5 9 4 10 3 11 2 12
REMARK SMILES IDX 1 13 7 14 8 15 9 16 14 17 10 18 13 19 11 20 12 21 22 22
REMARK SMILES IDX 23 23 24 24 25 25 26 26 27 27 28 28 29 29 30 30 91 31 31 32
REMARK SMILES IDX 90 33 32 34 33 35 34 36 84 37 35 38 89 39 83 40 85 41 36 42
REMARK SMILES IDX 88 43 82 44 81 45 37 47 69 48 49 49 68 50 50 51 53 52 67 53
REMARK SMILES IDX 86 54 51 55 52 56 66 58 87 59 54 60 38 61 39 62 47 63 40 64
REMARK SMILES IDX 42 65 48 66 41 67 43 68 44 69 45 70 46 71 70 72 71 73 79 74
REMARK SMILES IDX 72 75 74 76 80 77 73 78 75 79 76 80 77 81 78 82 55 83 56 84
REMARK SMILES IDX 64 85 57 86 59 87 65 88 58 89 60 90 61 91 62 92 63 93
REMARK H PARENT 85 46 53 57
REMARK Flexibility Score: inf
ROOT
ATOM      1  C   UNL A   1      33.398  33.495  27.815  1.00  0.00     0.188 C 
ENDROOT
BRANCH   1   2
ATOM      2  O   UNL A   1      32.896  32.173  27.923  1.00  0.00    -0.376 OA
BRANCH   2   3
ATOM      3  C   UNL A   1      33.791  31.090  27.688  1.00  0.00     0.202 C 
BRANCH   3   4
ATOM      4  C   UNL A   1      33.488  30.069  26.572  1.00  0.00     0.261 C 
BRANCH   4   5
ATOM      5  O   UNL A   1      32.099  29.719  26.336  1.00  0.00    -0.463 OA
BRANCH   5   6
ATOM      6  C   UNL A   1      31.762  28.419  26.545  1.00  0.00     0.309 C 
ATOM      7  O   UNL A   1      31.317  27.999  27.610  1.00  0.00    -0.252 OA
BRANCH   6   8
ATOM      8  C   UNL A   1      32.098  27.447  25.405  1.00  0.00     0.103 C 
BRANCH   8   9
ATOM      9  C   UNL A   1      31.871  27.874  23.935  1.00  0.00     0.016 C 
BRANCH   9  10
ATOM     10  C   UNL A   1      30.427  27.685  23.417  1.00  0.00     0.005 C 
BRANCH  10  11
ATOM     11  C   UNL A   1      29.853  28.882  22.638  1.00  0.00     0.027 C 
BRANCH  11  12
ATOM     12  C   UNL A   1      29.118  29.864  23.507  1.00  0.00    -0.035 C 
ATOM     13  C   UNL A   1      29.007  31.172  23.242  1.00  0.00     0.004 C 
ENDBRANCH  11  12
ENDBRANCH  10  11
ENDBRANCH   9  10
ENDBRANCH   8   9
BRANCH   8  14
ATOM     14  C   UNL A   1      33.525  26.910  25.670  1.00  0.00     0.050 C 
BRANCH  14  15
ATOM     15  C   UNL A   1      33.638  25.426  25.386  1.00  0.00    -0.047 A 
ATOM     16  C   UNL A   1      32.480  24.636  25.305  1.00  0.00     0.007 A 
ATOM     17  C   UNL A   1      34.894  24.803  25.368  1.00  0.00     0.007 A 
ATOM     18  C   UNL A   1      32.574  23.246  25.324  1.00  0.00     0.039 A 
ATOM     19  C   UNL A   1      34.987  23.412  25.377  1.00  0.00     0.039 A 
ATOM     20  C   UNL A   1      33.826  22.648  25.378  1.00  0.00     0.123 A 
ATOM     21  F   UNL A   1      33.916  21.314  25.450  1.00  0.00    -0.207 F 
ENDBRANCH  14  15
ENDBRANCH   8  14
ENDBRANCH   6   8
ENDBRANCH   5   6
ENDBRANCH   4   5
ENDBRANCH   3   4
ENDBRANCH   2   3
ENDBRANCH   1   2
BRANCH   1  22
ATOM     22  C   UNL A   1      34.498  33.925  28.787  1.00  0.00     0.188 C 
BRANCH  22  23
ATOM     23  O   UNL A   1      34.112  34.843  29.782  1.00  0.00    -0.376 OA
BRANCH  23  24
ATOM     24  C   UNL A   1      34.322  34.523  31.145  1.00  0.00     0.202 C 
BRANCH  24  25
ATOM     25  C   UNL A   1      34.416  33.059  31.619  1.00  0.00     0.261 C 
BRANCH  25  26
ATOM     26  O   UNL A   1      35.230  32.790  32.772  1.00  0.00    -0.460 OA
BRANCH  26  27
ATOM     27  C   UNL A   1      36.495  33.272  32.751  1.00  0.00     0.338 C 
ATOM     28  O   UNL A   1      36.944  34.163  33.458  1.00  0.00    -0.246 OA
BRANCH  27  29
ATOM     29  C   UNL A   1      37.326  32.343  31.946  1.00  0.00     0.060 A 
ATOM     30  C   UNL A   1      38.246  31.531  32.626  1.00  0.00     0.016 A 
ATOM     31  C   UNL A   1      37.194  32.241  30.561  1.00  0.00     0.016 A 
ATOM     32  C   UNL A   1      39.064  30.644  31.928  1.00  0.00     0.010 A 
ATOM     33  C   UNL A   1      38.044  31.380  29.853  1.00  0.00     0.010 A 
ATOM     34  C   UNL A   1      39.014  30.613  30.531  1.00  0.00    -0.014 A 
BRANCH  34  35
ATOM     35  C   UNL A   1      40.153  30.010  29.792  1.00  0.00     0.031 A 
ATOM     36  C   UNL A   1      41.421  30.817  29.685  1.00  0.00     0.074 A 
ATOM     37  C   UNL A   1      40.108  28.766  29.283  1.00  0.00     0.049 A 
ATOM     38  N   UNL A   1      42.542  30.528  29.080  1.00  0.00    -0.248 NA
ATOM     39  C   UNL A   1      41.423  32.130  30.358  1.00  0.00     0.031 C 
ATOM     40  C   UNL A   1      38.966  27.859  29.364  1.00  0.00     0.029 A 
ATOM     41  N   UNL A   1      41.055  28.054  28.586  1.00  0.00    -0.354 N 
ATOM     42  C   UNL A   1      43.364  31.634  29.265  1.00  0.00     0.074 A 
ATOM     43  C   UNL A   1      42.613  32.606  30.025  1.00  0.00     0.031 C 
ATOM     44  C   UNL A   1      39.273  26.715  28.726  1.00  0.00     0.029 A 
ATOM     45  C   UNL A   1      40.620  26.820  28.164  1.00  0.00     0.049 A 
ATOM     46  H   UNL A   1      41.961  28.397  28.406  1.00  0.00     0.167 HD
ATOM     47  C   UNL A   1      44.642  31.818  28.861  1.00  0.00     0.034 A 
ATOM     48  C   UNL A   1      41.230  25.893  27.395  1.00  0.00     0.034 A 
ATOM     49  C   UNL A   1      45.405  30.839  28.140  1.00  0.00     0.049 A 
ATOM     50  C   UNL A   1      42.634  26.143  26.900  1.00  0.00     0.074 A 
ATOM     51  C   UNL A   1      46.720  30.920  27.723  1.00  0.00     0.029 A 
ATOM     52  N   UNL A   1      44.923  29.608  27.723  1.00  0.00    -0.354 N 
ATOM     53  N   UNL A   1      43.429  27.156  27.151  1.00  0.00    -0.248 NA
ATOM     54  C   UNL A   1      43.234  25.118  26.030  1.00  0.00     0.031 C 
ATOM     55  C   UNL A   1      47.023  29.754  27.017  1.00  0.00     0.029 A 
ATOM     56  C   UNL A   1      45.909  28.929  27.030  1.00  0.00     0.049 A 
ATOM     57  H   UNL A   1      44.015  29.268  27.895  1.00  0.00     0.167 HD
ATOM     58  C   UNL A   1      44.625  26.879  26.496  1.00  0.00     0.074 A 
ATOM     59  C   UNL A   1      44.459  25.595  25.847  1.00  0.00     0.031 C 
ATOM     60  C   UNL A   1      45.752  27.630  26.429  1.00  0.00     0.034 A 
BRANCH  47  61
ATOM     61  C   UNL A   1      45.307  33.123  29.206  1.00  0.00     0.023 A 
ATOM     62  C   UNL A   1      46.092  33.223  30.373  1.00  0.00     0.012 A 
ATOM     63  C   UNL A   1      45.210  34.228  28.339  1.00  0.00     0.148 A 
ATOM     64  C   UNL A   1      46.747  34.412  30.687  1.00  0.00     0.002 A 
ATOM     65  C   UNL A   1      45.907  35.394  28.632  1.00  0.00     0.091 A 
ATOM     66  F   UNL A   1      44.440  34.119  27.247  1.00  0.00    -0.205 F 
ATOM     67  C   UNL A   1      46.665  35.492  29.810  1.00  0.00     0.022 A 
BRANCH  65  68
ATOM     68  S   UNL A   1      45.938  36.809  27.527  1.00  0.00     0.127 S 
ATOM     69  O   UNL A   1      46.940  37.660  28.166  1.00  0.00    -0.237 OA
ATOM     70  O   UNL A   1      46.367  36.203  26.267  1.00  0.00    -0.237 OA
ATOM     71  O   UNL A   1      44.584  37.344  27.517  1.00  0.00    -0.744 OA
ENDBRANCH  65  68
ENDBRANCH  47  61
BRANCH  48  72
ATOM     72  C   UNL A   1      40.520  24.621  27.072  1.00  0.00     0.023 A 
ATOM     73  C   UNL A   1      39.245  24.668  26.477  1.00  0.00     0.012 A 
ATOM     74  C   UNL A   1      41.122  23.368  27.307  1.00  0.00     0.148 A 
ATOM     75  C   UNL A   1      38.579  23.491  26.129  1.00  0.00     0.002 A 
ATOM     76  C   UNL A   1      40.477  22.204  26.908  1.00  0.00     0.091 A 
ATOM     77  F   UNL A   1      42.327  23.345  27.893  1.00  0.00    -0.205 F 
ATOM     78  C   UNL A   1      39.199  22.261  26.331  1.00  0.00     0.022 A 
BRANCH  76  79
ATOM     79  S   UNL A   1      41.248  20.584  27.011  1.00  0.00     0.127 S 
ATOM     80  O   UNL A   1      41.042  20.243  28.417  1.00  0.00    -0.237 OA
ATOM     81  O   UNL A   1      40.442  19.811  26.065  1.00  0.00    -0.237 OA
ATOM     82  O   UNL A   1      42.635  20.777  26.612  1.00  0.00    -0.744 OA
ENDBRANCH  76  79
ENDBRANCH  48  72
BRANCH  60  83
ATOM     83  C   UNL A   1      46.929  27.107  25.643  1.00  0.00     0.023 A 
ATOM     84  C   UNL A   1      46.976  27.310  24.250  1.00  0.00     0.012 A 
ATOM     85  C   UNL A   1      48.058  26.584  26.307  1.00  0.00     0.148 A 
ATOM     86  C   UNL A   1      48.129  26.998  23.529  1.00  0.00     0.002 A 
ATOM     87  C   UNL A   1      49.219  26.324  25.590  1.00  0.00     0.091 A 
ATOM     88  F   UNL A   1      47.986  26.395  27.633  1.00  0.00    -0.205 F 
ATOM     89  C   UNL A   1      49.254  26.522  24.200  1.00  0.00     0.022 A 
BRANCH  87  90
ATOM     90  S   UNL A   1      50.753  25.814  26.376  1.00  0.00     0.127 S 
ATOM     91  O   UNL A   1      51.691  25.856  25.256  1.00  0.00    -0.237 OA
ATOM     92  O   UNL A   1      50.948  26.863  27.376  1.00  0.00    -0.237 OA
ATOM     93  O   UNL A   1      50.506  24.486  26.923  1.00  0.00    -0.744 OA
ENDBRANCH  87  90
ENDBRANCH  60  83
ENDBRANCH  34  35
ENDBRANCH  27  29
ENDBRANCH  26  27
ENDBRANCH  25  26
ENDBRANCH  24  25
ENDBRANCH  23  24
ENDBRANCH  22  23
ENDBRANCH   1  22
TORSDOF 26
ENDMDL
