MODEL 1
REMARK VINA RESULT:     -10.3      0.000      0.000
REMARK SMILES CN1C(=O)C[C@@H](C(=O)OCCOCCOCCOC(=O)c2ccc(-c3c4nc(c(-c5cccc(S(=O)(=O)[O-])c5F)c5ccc([nH]5)c(-c5cccc(S(=O)(=O)[O-])c5F)c5nc(c(-c6cccc(S(=O)(=O)[O-])c6F)c6ccc3[nH]6)C=C5)C=C4)cc2)C12CC[NH+](CCSc1ccccc1)CC2
REMARK SMILES IDX 13 1 12 2 11 3 10 4 9 5 7 6 8 7 6 8 1 9 2 10 3 11 84 12 4 13
REMARK SMILES IDX 5 14 85 15 98 16 86 17 97 18 87 19 88 21 89 22 90 23 91 24
REMARK SMILES IDX 92 25 96 26 93 27 95 28 94 29 14 30 15 31 16 32 17 33 18 34
REMARK SMILES IDX 19 35 20 36 21 37 22 38 83 39 23 40 82 41 24 42 25 43 26 44
REMARK SMILES IDX 76 45 27 46 81 47 75 48 77 49 28 50 80 51 74 52 73 53 29 55
REMARK SMILES IDX 61 56 41 57 60 58 42 59 45 60 59 61 78 62 43 63 44 64 58 66
REMARK SMILES IDX 79 67 46 68 30 69 31 70 39 71 32 72 34 73 40 74 33 75 35 76
REMARK SMILES IDX 36 77 37 78 38 79 62 80 63 81 71 82 64 83 66 84 72 85 65 86
REMARK SMILES IDX 67 87 68 88 69 89 70 90 47 91 48 92 56 93 49 94 51 95 57 96
REMARK SMILES IDX 50 97 52 98 53 99 54 100 55 101
REMARK H PARENT 87 20 77 54 45 65
REMARK Flexibility Score: inf
ROOT
ATOM      1  C   UNL A   1      32.796  29.591  25.207  1.00  0.00     0.188 C 
ENDROOT
BRANCH   1   2
ATOM      2  O   UNL A   1      33.266  28.533  26.028  1.00  0.00    -0.376 OA
BRANCH   2   3
ATOM      3  C   UNL A   1      32.661  28.294  27.292  1.00  0.00     0.202 C 
BRANCH   3   4
ATOM      4  C   UNL A   1      31.456  27.351  27.356  1.00  0.00     0.261 C 
BRANCH   4   5
ATOM      5  O   UNL A   1      31.210  26.563  26.161  1.00  0.00    -0.463 OA
BRANCH   5   6
ATOM      6  C   UNL A   1      31.852  25.382  26.167  1.00  0.00     0.311 C 
ATOM      7  O   UNL A   1      31.616  24.489  26.985  1.00  0.00    -0.252 OA
BRANCH   6   8
ATOM      8  C   UNL A   1      32.919  25.118  25.137  1.00  0.00     0.134 C 
ATOM      9  C   UNL A   1      33.090  22.960  22.014  1.00  0.00     0.147 C 
ATOM     10  N   UNL A   1      32.822  23.888  23.105  1.00  0.00    -0.339 N 
ATOM     11  C   UNL A   1      32.312  25.145  22.799  1.00  0.00     0.223 C 
ATOM     12  C   UNL A   1      33.490  23.843  24.426  1.00  0.00     0.067 C 
ATOM     13  O   UNL A   1      31.830  25.491  21.743  1.00  0.00    -0.275 OA
ATOM     14  C   UNL A   1      32.567  26.058  23.961  1.00  0.00     0.118 C 
ATOM     15  C   UNL A   1      33.405  22.420  25.057  1.00  0.00     0.091 C 
ATOM     16  C   UNL A   1      34.976  24.201  24.228  1.00  0.00     0.091 C 
ATOM     17  C   UNL A   1      34.711  21.754  25.614  1.00  0.00     0.264 C 
ATOM     18  C   UNL A   1      35.765  23.883  25.481  1.00  0.00     0.264 C 
ATOM     19  N   UNL A   1      35.963  22.473  25.492  1.00  0.00    -0.334 N 
ATOM     20  H   UNL A   1      36.414  22.206  26.367  1.00  0.00     0.348 HD
BRANCH  19  21
ATOM     21  C   UNL A   1      37.101  21.946  24.726  1.00  0.00     0.273 C 
BRANCH  21  22
ATOM     22  C   UNL A   1      38.308  21.186  25.393  1.00  0.00     0.136 C 
BRANCH  22  23
ATOM     23  S   UNL A   1      39.549  22.040  26.503  1.00  0.00    -0.120 SA
BRANCH  23  24
ATOM     24  C   UNL A   1      41.164  21.317  26.204  1.00  0.00     0.007 A 
ATOM     25  C   UNL A   1      41.461  19.955  26.346  1.00  0.00     0.015 A 
ATOM     26  C   UNL A   1      42.202  22.183  25.815  1.00  0.00     0.015 A 
ATOM     27  C   UNL A   1      42.732  19.465  25.988  1.00  0.00     0.001 A 
ATOM     28  C   UNL A   1      43.447  21.690  25.409  1.00  0.00     0.001 A 
ATOM     29  C   UNL A   1      43.708  20.326  25.481  1.00  0.00     0.000 A 
ENDBRANCH  23  24
ENDBRANCH  22  23
ENDBRANCH  21  22
ENDBRANCH  19  21
ENDBRANCH   6   8
ENDBRANCH   5   6
ENDBRANCH   4   5
ENDBRANCH   3   4
ENDBRANCH   2   3
ENDBRANCH   1   2
BRANCH   1  30
ATOM     30  C   UNL A   1      31.330  30.027  25.320  1.00  0.00     0.188 C 
BRANCH  30  31
ATOM     31  O   UNL A   1      31.160  31.274  25.970  1.00  0.00    -0.376 OA
BRANCH  31  32
ATOM     32  C   UNL A   1      32.224  31.739  26.786  1.00  0.00     0.202 C 
BRANCH  32  33
ATOM     33  C   UNL A   1      32.046  33.205  27.193  1.00  0.00     0.261 C 
BRANCH  33  34
ATOM     34  O   UNL A   1      33.290  33.898  27.418  1.00  0.00    -0.460 OA
BRANCH  34  35
ATOM     35  C   UNL A   1      33.369  34.597  28.576  1.00  0.00     0.338 C 
ATOM     36  O   UNL A   1      32.598  35.465  28.952  1.00  0.00    -0.246 OA
BRANCH  35  37
ATOM     37  C   UNL A   1      34.415  33.992  29.428  1.00  0.00     0.060 A 
ATOM     38  C   UNL A   1      35.752  34.310  29.160  1.00  0.00     0.016 A 
ATOM     39  C   UNL A   1      34.104  33.098  30.447  1.00  0.00     0.016 A 
ATOM     40  C   UNL A   1      36.787  33.701  29.868  1.00  0.00     0.010 A 
ATOM     41  C   UNL A   1      35.144  32.488  31.163  1.00  0.00     0.010 A 
ATOM     42  C   UNL A   1      36.495  32.757  30.855  1.00  0.00    -0.014 A 
BRANCH  42  43
ATOM     43  C   UNL A   1      37.584  31.935  31.452  1.00  0.00     0.031 A 
ATOM     44  C   UNL A   1      38.065  32.274  32.841  1.00  0.00     0.074 A 
ATOM     45  C   UNL A   1      38.126  30.888  30.801  1.00  0.00     0.049 A 
ATOM     46  N   UNL A   1      39.107  31.829  33.491  1.00  0.00    -0.248 NA
ATOM     47  C   UNL A   1      37.262  33.254  33.593  1.00  0.00     0.031 C 
ATOM     48  C   UNL A   1      37.719  30.402  29.482  1.00  0.00     0.029 A 
ATOM     49  N   UNL A   1      39.163  30.056  31.157  1.00  0.00    -0.354 N 
ATOM     50  C   UNL A   1      39.117  32.510  34.704  1.00  0.00     0.074 A 
ATOM     51  C   UNL A   1      37.979  33.402  34.697  1.00  0.00     0.031 C 
ATOM     52  C   UNL A   1      38.514  29.376  29.129  1.00  0.00     0.029 A 
ATOM     53  C   UNL A   1      39.519  29.168  30.168  1.00  0.00     0.049 A 
ATOM     54  H   UNL A   1      39.606  30.094  32.034  1.00  0.00     0.167 HD
ATOM     55  C   UNL A   1      39.984  32.394  35.738  1.00  0.00     0.034 A 
ATOM     56  C   UNL A   1      40.567  28.320  30.089  1.00  0.00     0.034 A 
ATOM     57  C   UNL A   1      41.088  31.474  35.769  1.00  0.00     0.049 A 
ATOM     58  C   UNL A   1      41.548  28.248  31.233  1.00  0.00     0.074 A 
ATOM     59  C   UNL A   1      42.029  31.291  36.767  1.00  0.00     0.029 A 
ATOM     60  N   UNL A   1      41.391  30.568  34.764  1.00  0.00    -0.354 N 
ATOM     61  N   UNL A   1      41.533  28.884  32.379  1.00  0.00    -0.248 NA
ATOM     62  C   UNL A   1      42.682  27.323  31.078  1.00  0.00     0.031 C 
ATOM     63  C   UNL A   1      42.907  30.281  36.363  1.00  0.00     0.029 A 
ATOM     64  C   UNL A   1      42.497  29.818  35.123  1.00  0.00     0.049 A 
ATOM     65  H   UNL A   1      40.893  30.473  33.920  1.00  0.00     0.167 HD
ATOM     66  C   UNL A   1      42.629  28.408  33.094  1.00  0.00     0.074 A 
ATOM     67  C   UNL A   1      43.269  27.410  32.263  1.00  0.00     0.031 C 
ATOM     68  C   UNL A   1      43.080  28.777  34.318  1.00  0.00     0.034 A 
BRANCH  55  69
ATOM     69  C   UNL A   1      39.760  33.271  36.941  1.00  0.00     0.023 A 
ATOM     70  C   UNL A   1      40.330  34.560  36.980  1.00  0.00     0.012 A 
ATOM     71  C   UNL A   1      38.934  32.847  38.001  1.00  0.00     0.148 A 
ATOM     72  C   UNL A   1      40.103  35.403  38.067  1.00  0.00     0.002 A 
ATOM     73  C   UNL A   1      38.676  33.710  39.060  1.00  0.00     0.091 A 
ATOM     74  F   UNL A   1      38.417  31.612  37.952  1.00  0.00    -0.205 F 
ATOM     75  C   UNL A   1      39.268  34.982  39.099  1.00  0.00     0.022 A 
BRANCH  73  76
ATOM     76  S   UNL A   1      37.557  33.295  40.401  1.00  0.00     0.127 S 
ATOM     77  O   UNL A   1      38.240  32.156  41.014  1.00  0.00    -0.237 OA
ATOM     78  O   UNL A   1      37.574  34.519  41.203  1.00  0.00    -0.237 OA
ATOM     79  O   UNL A   1      36.276  32.989  39.780  1.00  0.00    -0.744 OA
ENDBRANCH  73  76
ENDBRANCH  55  69
BRANCH  56  80
ATOM     80  C   UNL A   1      40.769  27.470  28.877  1.00  0.00     0.023 A 
ATOM     81  C   UNL A   1      39.998  26.304  28.705  1.00  0.00     0.012 A 
ATOM     82  C   UNL A   1      41.748  27.789  27.917  1.00  0.00     0.148 A 
ATOM     83  C   UNL A   1      40.231  25.448  27.627  1.00  0.00     0.002 A 
ATOM     84  C   UNL A   1      41.931  26.965  26.811  1.00  0.00     0.091 A 
ATOM     85  F   UNL A   1      42.494  28.887  28.106  1.00  0.00    -0.205 F 
ATOM     86  C   UNL A   1      41.189  25.783  26.675  1.00  0.00     0.022 A 
BRANCH  84  87
ATOM     87  S   UNL A   1      43.050  27.398  25.475  1.00  0.00     0.127 S 
ATOM     88  O   UNL A   1      44.193  27.940  26.205  1.00  0.00    -0.237 OA
ATOM     89  O   UNL A   1      43.283  26.100  24.840  1.00  0.00    -0.237 OA
ATOM     90  O   UNL A   1      42.314  28.343  24.645  1.00  0.00    -0.744 OA
ENDBRANCH  84  87
ENDBRANCH  56  80
BRANCH  68  91
ATOM     91  C   UNL A   1      44.287  28.060  34.867  1.00  0.00     0.023 A 
ATOM     92  C   UNL A   1      45.572  28.617  34.709  1.00  0.00     0.012 A 
ATOM     93  C   UNL A   1      44.139  26.860  35.593  1.00  0.00     0.148 A 
ATOM     94  C   UNL A   1      46.693  27.971  35.228  1.00  0.00     0.002 A 
ATOM     95  C   UNL A   1      45.256  26.249  36.150  1.00  0.00     0.091 A 
ATOM     96  F   UNL A   1      42.912  26.336  35.719  1.00  0.00    -0.205 F 
ATOM     97  C   UNL A   1      46.535  26.795  35.957  1.00  0.00     0.022 A 
BRANCH  95  98
ATOM     98  S   UNL A   1      45.137  24.785  37.185  1.00  0.00     0.127 S 
ATOM     99  O   UNL A   1      44.257  25.248  38.256  1.00  0.00    -0.237 OA
ATOM    100  O   UNL A   1      44.532  23.810  36.276  1.00  0.00    -0.237 OA
ATOM    101  O   UNL A   1      46.500  24.468  37.588  1.00  0.00    -0.744 OA
ENDBRANCH  95  98
ENDBRANCH  68  91
ENDBRANCH  42  43
ENDBRANCH  35  37
ENDBRANCH  34  35
ENDBRANCH  33  34
ENDBRANCH  32  33
ENDBRANCH  31  32
ENDBRANCH  30  31
ENDBRANCH   1  30
TORSDOF 24
ENDMDL
MODEL 2
REMARK VINA RESULT:      -9.3      1.793      2.774
REMARK SMILES CN1C(=O)C[C@@H](C(=O)OCCOCCOCCOC(=O)c2ccc(-c3c4nc(c(-c5cccc(S(=O)(=O)[O-])c5F)c5ccc([nH]5)c(-c5cccc(S(=O)(=O)[O-])c5F)c5nc(c(-c6cccc(S(=O)(=O)[O-])c6F)c6ccc3[nH]6)C=C5)C=C4)cc2)C12CC[NH+](CCSc1ccccc1)CC2
REMARK SMILES IDX 13 1 12 2 11 3 10 4 9 5 7 6 8 7 6 8 1 9 2 10 3 11 84 12 4 13
REMARK SMILES IDX 5 14 85 15 98 16 86 17 97 18 87 19 88 21 89 22 90 23 91 24
REMARK SMILES IDX 92 25 96 26 93 27 95 28 94 29 14 30 15 31 16 32 17 33 18 34
REMARK SMILES IDX 19 35 20 36 21 37 22 38 83 39 23 40 82 41 24 42 25 43 26 44
REMARK SMILES IDX 76 45 27 46 81 47 75 48 77 49 28 50 80 51 74 52 73 53 29 55
REMARK SMILES IDX 61 56 41 57 60 58 42 59 45 60 59 61 78 62 43 63 44 64 58 66
REMARK SMILES IDX 79 67 46 68 30 69 31 70 39 71 32 72 34 73 40 74 33 75 35 76
REMARK SMILES IDX 36 77 37 78 38 79 62 80 63 81 71 82 64 83 66 84 72 85 65 86
REMARK SMILES IDX 67 87 68 88 69 89 70 90 47 91 48 92 56 93 49 94 51 95 57 96
REMARK SMILES IDX 50 97 52 98 53 99 54 100 55 101
REMARK H PARENT 87 20 77 54 45 65
REMARK Flexibility Score: inf
ROOT
ATOM      1  C   UNL A   1      31.956  28.523  26.536  1.00  0.00     0.188 C 
ENDROOT
BRANCH   1   2
ATOM      2  O   UNL A   1      31.128  27.378  26.666  1.00  0.00    -0.376 OA
BRANCH   2   3
ATOM      3  C   UNL A   1      30.721  26.662  25.507  1.00  0.00     0.202 C 
BRANCH   3   4
ATOM      4  C   UNL A   1      30.441  25.162  25.639  1.00  0.00     0.261 C 
BRANCH   4   5
ATOM      5  O   UNL A   1      31.498  24.282  25.173  1.00  0.00    -0.463 OA
BRANCH   5   6
ATOM      6  C   UNL A   1      32.569  24.269  25.986  1.00  0.00     0.311 C 
ATOM      7  O   UNL A   1      32.485  24.144  27.211  1.00  0.00    -0.252 OA
BRANCH   6   8
ATOM      8  C   UNL A   1      33.946  24.417  25.394  1.00  0.00     0.134 C 
ATOM      9  C   UNL A   1      35.579  23.204  22.184  1.00  0.00     0.147 C 
ATOM     10  N   UNL A   1      34.780  23.769  23.264  1.00  0.00    -0.339 N 
ATOM     11  C   UNL A   1      34.152  24.993  23.057  1.00  0.00     0.223 C 
ATOM     12  C   UNL A   1      34.969  23.454  24.699  1.00  0.00     0.067 C 
ATOM     13  O   UNL A   1      33.985  25.547  21.993  1.00  0.00    -0.275 OA
ATOM     14  C   UNL A   1      33.815  25.587  24.392  1.00  0.00     0.118 C 
ATOM     15  C   UNL A   1      34.976  21.915  24.946  1.00  0.00     0.091 C 
ATOM     16  C   UNL A   1      36.329  24.026  25.144  1.00  0.00     0.091 C 
ATOM     17  C   UNL A   1      36.133  21.285  25.797  1.00  0.00     0.264 C 
ATOM     18  C   UNL A   1      36.709  23.482  26.505  1.00  0.00     0.264 C 
ATOM     19  N   UNL A   1      37.178  22.155  26.299  1.00  0.00    -0.334 N 
ATOM     20  H   UNL A   1      37.360  21.720  27.203  1.00  0.00     0.348 HD
BRANCH  19  21
ATOM     21  C   UNL A   1      38.588  21.989  25.918  1.00  0.00     0.273 C 
BRANCH  21  22
ATOM     22  C   UNL A   1      39.785  22.358  26.871  1.00  0.00     0.136 C 
BRANCH  22  23
ATOM     23  S   UNL A   1      41.149  23.536  26.369  1.00  0.00    -0.120 SA
BRANCH  23  24
ATOM     24  C   UNL A   1      40.642  25.202  26.801  1.00  0.00     0.007 A 
ATOM     25  C   UNL A   1      39.817  25.524  27.887  1.00  0.00     0.015 A 
ATOM     26  C   UNL A   1      41.094  26.252  25.981  1.00  0.00     0.015 A 
ATOM     27  C   UNL A   1      39.558  26.871  28.208  1.00  0.00     0.001 A 
ATOM     28  C   UNL A   1      40.881  27.591  26.330  1.00  0.00     0.001 A 
ATOM     29  C   UNL A   1      40.124  27.901  27.455  1.00  0.00     0.000 A 
ENDBRANCH  23  24
ENDBRANCH  22  23
ENDBRANCH  21  22
ENDBRANCH  19  21
ENDBRANCH   6   8
ENDBRANCH   5   6
ENDBRANCH   4   5
ENDBRANCH   3   4
ENDBRANCH   2   3
ENDBRANCH   1   2
BRANCH   1  30
ATOM     30  C   UNL A   1      31.569  29.612  25.528  1.00  0.00     0.188 C 
BRANCH  30  31
ATOM     31  O   UNL A   1      31.780  30.928  26.009  1.00  0.00    -0.376 OA
BRANCH  31  32
ATOM     32  C   UNL A   1      32.632  31.086  27.134  1.00  0.00     0.202 C 
BRANCH  32  33
ATOM     33  C   UNL A   1      32.680  32.535  27.627  1.00  0.00     0.261 C 
BRANCH  33  34
ATOM     34  O   UNL A   1      33.939  32.901  28.227  1.00  0.00    -0.460 OA
BRANCH  34  35
ATOM     35  C   UNL A   1      33.859  33.730  29.295  1.00  0.00     0.338 C 
ATOM     36  O   UNL A   1      32.965  34.528  29.528  1.00  0.00    -0.246 OA
BRANCH  35  37
ATOM     37  C   UNL A   1      34.915  33.364  30.263  1.00  0.00     0.060 A 
ATOM     38  C   UNL A   1      36.124  34.067  30.219  1.00  0.00     0.016 A 
ATOM     39  C   UNL A   1      34.747  32.327  31.175  1.00  0.00     0.016 A 
ATOM     40  C   UNL A   1      37.190  33.709  31.043  1.00  0.00     0.010 A 
ATOM     41  C   UNL A   1      35.817  31.968  32.006  1.00  0.00     0.010 A 
ATOM     42  C   UNL A   1      37.060  32.632  31.922  1.00  0.00    -0.014 A 
BRANCH  42  43
ATOM     43  C   UNL A   1      38.253  32.096  32.633  1.00  0.00     0.031 A 
ATOM     44  C   UNL A   1      38.480  32.501  34.068  1.00  0.00     0.074 A 
ATOM     45  C   UNL A   1      39.112  31.243  32.042  1.00  0.00     0.049 A 
ATOM     46  N   UNL A   1      39.526  32.314  34.829  1.00  0.00    -0.248 NA
ATOM     47  C   UNL A   1      37.377  33.218  34.730  1.00  0.00     0.031 C 
ATOM     48  C   UNL A   1      38.986  30.713  30.684  1.00  0.00     0.029 A 
ATOM     49  N   UNL A   1      40.283  30.691  32.507  1.00  0.00    -0.354 N 
ATOM     50  C   UNL A   1      39.232  32.935  36.038  1.00  0.00     0.074 A 
ATOM     51  C   UNL A   1      37.910  33.508  35.908  1.00  0.00     0.031 C 
ATOM     52  C   UNL A   1      40.050  29.934  30.418  1.00  0.00     0.029 A 
ATOM     53  C   UNL A   1      40.959  29.956  31.561  1.00  0.00     0.049 A 
ATOM     54  H   UNL A   1      40.606  30.812  33.429  1.00  0.00     0.167 HD
ATOM     55  C   UNL A   1      39.984  33.011  37.162  1.00  0.00     0.034 A 
ATOM     56  C   UNL A   1      42.191  29.405  31.595  1.00  0.00     0.034 A 
ATOM     57  C   UNL A   1      41.278  32.401  37.311  1.00  0.00     0.049 A 
ATOM     58  C   UNL A   1      43.031  29.548  32.841  1.00  0.00     0.074 A 
ATOM     59  C   UNL A   1      42.122  32.431  38.407  1.00  0.00     0.029 A 
ATOM     60  N   UNL A   1      41.908  31.636  36.343  1.00  0.00    -0.354 N 
ATOM     61  N   UNL A   1      42.731  30.122  33.981  1.00  0.00    -0.248 NA
ATOM     62  C   UNL A   1      44.374  28.949  32.810  1.00  0.00     0.031 C 
ATOM     63  C   UNL A   1      43.268  31.692  38.099  1.00  0.00     0.029 A 
ATOM     64  C   UNL A   1      43.125  31.181  36.819  1.00  0.00     0.049 A 
ATOM     65  H   UNL A   1      41.544  31.445  35.448  1.00  0.00     0.167 HD
ATOM     66  C   UNL A   1      43.830  29.917  34.812  1.00  0.00     0.074 A 
ATOM     67  C   UNL A   1      44.790  29.144  34.053  1.00  0.00     0.031 C 
ATOM     68  C   UNL A   1      44.038  30.350  36.080  1.00  0.00     0.034 A 
BRANCH  55  69
ATOM     69  C   UNL A   1      39.415  33.762  38.336  1.00  0.00     0.023 A 
ATOM     70  C   UNL A   1      39.706  35.132  38.493  1.00  0.00     0.012 A 
ATOM     71  C   UNL A   1      38.543  33.129  39.245  1.00  0.00     0.148 A 
ATOM     72  C   UNL A   1      39.158  35.856  39.552  1.00  0.00     0.002 A 
ATOM     73  C   UNL A   1      37.966  33.868  40.271  1.00  0.00     0.091 A 
ATOM     74  F   UNL A   1      38.295  31.822  39.087  1.00  0.00    -0.205 F 
ATOM     75  C   UNL A   1      38.281  35.227  40.432  1.00  0.00     0.022 A 
BRANCH  73  76
ATOM     76  S   UNL A   1      36.767  33.174  41.413  1.00  0.00     0.127 S 
ATOM     77  O   UNL A   1      36.064  34.373  41.868  1.00  0.00    -0.237 OA
ATOM     78  O   UNL A   1      35.982  32.302  40.540  1.00  0.00    -0.237 OA
ATOM     79  O   UNL A   1      37.537  32.480  42.436  1.00  0.00    -0.744 OA
ENDBRANCH  73  76
ENDBRANCH  55  69
BRANCH  56  80
ATOM     80  C   UNL A   1      42.733  28.676  30.410  1.00  0.00     0.023 A 
ATOM     81  C   UNL A   1      42.670  27.269  30.367  1.00  0.00     0.012 A 
ATOM     82  C   UNL A   1      43.346  29.364  29.345  1.00  0.00     0.148 A 
ATOM     83  C   UNL A   1      43.250  26.561  29.312  1.00  0.00     0.002 A 
ATOM     84  C   UNL A   1      43.863  28.656  28.266  1.00  0.00     0.091 A 
ATOM     85  F   UNL A   1      43.423  30.701  29.411  1.00  0.00    -0.205 F 
ATOM     86  C   UNL A   1      43.837  27.254  28.258  1.00  0.00     0.022 A 
BRANCH  84  87
ATOM     87  S   UNL A   1      44.514  29.480  26.809  1.00  0.00     0.127 S 
ATOM     88  O   UNL A   1      44.783  28.352  25.921  1.00  0.00    -0.237 OA
ATOM     89  O   UNL A   1      43.387  30.325  26.409  1.00  0.00    -0.237 OA
ATOM     90  O   UNL A   1      45.679  30.222  27.273  1.00  0.00    -0.744 OA
ENDBRANCH  84  87
ENDBRANCH  56  80
BRANCH  68  91
ATOM     91  C   UNL A   1      45.323  29.945  36.757  1.00  0.00     0.023 A 
ATOM     92  C   UNL A   1      46.453  30.784  36.684  1.00  0.00     0.012 A 
ATOM     93  C   UNL A   1      45.391  28.760  37.516  1.00  0.00     0.148 A 
ATOM     94  C   UNL A   1      47.642  30.429  37.321  1.00  0.00     0.002 A 
ATOM     95  C   UNL A   1      46.564  28.438  38.189  1.00  0.00     0.091 A 
ATOM     96  F   UNL A   1      44.312  27.965  37.561  1.00  0.00    -0.205 F 
ATOM     97  C   UNL A   1      47.694  29.264  38.082  1.00  0.00     0.022 A 
BRANCH  95  98
ATOM     98  S   UNL A   1      46.693  27.008  39.270  1.00  0.00     0.127 S 
ATOM     99  O   UNL A   1      48.065  27.129  39.760  1.00  0.00    -0.237 OA
ATOM    100  O   UNL A   1      45.661  27.281  40.271  1.00  0.00    -0.237 OA
ATOM    101  O   UNL A   1      46.428  25.847  38.431  1.00  0.00    -0.744 OA
ENDBRANCH  95  98
ENDBRANCH  68  91
ENDBRANCH  42  43
ENDBRANCH  35  37
ENDBRANCH  34  35
ENDBRANCH  33  34
ENDBRANCH  32  33
ENDBRANCH  31  32
ENDBRANCH  30  31
ENDBRANCH   1  30
TORSDOF 24
ENDMDL
MODEL 3
REMARK VINA RESULT:      -8.9      7.090     16.035
REMARK SMILES CN1C(=O)C[C@@H](C(=O)OCCOCCOCCOC(=O)c2ccc(-c3c4nc(c(-c5cccc(S(=O)(=O)[O-])c5F)c5ccc([nH]5)c(-c5cccc(S(=O)(=O)[O-])c5F)c5nc(c(-c6cccc(S(=O)(=O)[O-])c6F)c6ccc3[nH]6)C=C5)C=C4)cc2)C12CC[NH+](CCSc1ccccc1)CC2
REMARK SMILES IDX 13 1 12 2 11 3 10 4 9 5 7 6 8 7 6 8 1 9 2 10 3 11 84 12 4 13
REMARK SMILES IDX 5 14 85 15 98 16 86 17 97 18 87 19 88 21 89 22 90 23 91 24
REMARK SMILES IDX 92 25 96 26 93 27 95 28 94 29 14 30 15 31 16 32 17 33 18 34
REMARK SMILES IDX 19 35 20 36 21 37 22 38 83 39 23 40 82 41 24 42 25 43 26 44
REMARK SMILES IDX 76 45 27 46 81 47 75 48 77 49 28 50 80 51 74 52 73 53 29 55
REMARK SMILES IDX 61 56 41 57 60 58 42 59 45 60 59 61 78 62 43 63 44 64 58 66
REMARK SMILES IDX 79 67 46 68 30 69 31 70 39 71 32 72 34 73 40 74 33 75 35 76
REMARK SMILES IDX 36 77 37 78 38 79 62 80 63 81 71 82 64 83 66 84 72 85 65 86
REMARK SMILES IDX 67 87 68 88 69 89 70 90 47 91 48 92 56 93 49 94 51 95 57 96
REMARK SMILES IDX 50 97 52 98 53 99 54 100 55 101
REMARK H PARENT 87 20 77 54 45 65
REMARK Flexibility Score: inf
ROOT
ATOM      1  C   UNL A   1      50.040  21.186  37.502  1.00  0.00     0.188 C 
ENDROOT
BRANCH   1   2
ATOM      2  O   UNL A   1      49.054  20.359  38.100  1.00  0.00    -0.376 OA
BRANCH   2   3
ATOM      3  C   UNL A   1      49.437  19.149  38.741  1.00  0.00     0.202 C 
BRANCH   3   4
ATOM      4  C   UNL A   1      48.522  18.580  39.828  1.00  0.00     0.261 C 
BRANCH   4   5
ATOM      5  O   UNL A   1      47.871  19.561  40.678  1.00  0.00    -0.463 OA
BRANCH   5   6
ATOM      6  C   UNL A   1      46.540  19.614  40.498  1.00  0.00     0.311 C 
ATOM      7  O   UNL A   1      46.000  20.350  39.668  1.00  0.00    -0.252 OA
BRANCH   6   8
ATOM      8  C   UNL A   1      45.646  18.745  41.344  1.00  0.00     0.134 C 
ATOM      9  C   UNL A   1      46.108  15.401  43.089  1.00  0.00     0.147 C 
ATOM     10  N   UNL A   1      46.133  16.755  42.549  1.00  0.00    -0.339 N 
ATOM     11  C   UNL A   1      46.535  17.795  43.379  1.00  0.00     0.223 C 
ATOM     12  C   UNL A   1      45.314  17.214  41.403  1.00  0.00     0.067 C 
ATOM     13  O   UNL A   1      47.104  17.691  44.444  1.00  0.00    -0.275 OA
ATOM     14  C   UNL A   1      46.037  19.086  42.800  1.00  0.00     0.118 C 
ATOM     15  C   UNL A   1      45.477  16.271  40.174  1.00  0.00     0.091 C 
ATOM     16  C   UNL A   1      43.834  17.205  41.834  1.00  0.00     0.091 C 
ATOM     17  C   UNL A   1      44.193  15.737  39.447  1.00  0.00     0.264 C 
ATOM     18  C   UNL A   1      42.934  17.375  40.628  1.00  0.00     0.264 C 
ATOM     19  N   UNL A   1      42.894  16.115  39.967  1.00  0.00    -0.334 N 
ATOM     20  H   UNL A   1      42.370  16.211  39.097  1.00  0.00     0.348 HD
BRANCH  19  21
ATOM     21  C   UNL A   1      41.926  15.126  40.460  1.00  0.00     0.273 C 
BRANCH  21  22
ATOM     22  C   UNL A   1      42.295  13.618  40.720  1.00  0.00     0.136 C 
BRANCH  22  23
ATOM     23  S   UNL A   1      41.217  12.476  41.738  1.00  0.00    -0.120 SA
BRANCH  23  24
ATOM     24  C   UNL A   1      42.194  11.852  43.108  1.00  0.00     0.007 A 
ATOM     25  C   UNL A   1      42.229  10.511  43.511  1.00  0.00     0.015 A 
ATOM     26  C   UNL A   1      42.965  12.780  43.833  1.00  0.00     0.015 A 
ATOM     27  C   UNL A   1      43.106  10.098  44.533  1.00  0.00     0.001 A 
ATOM     28  C   UNL A   1      43.875  12.363  44.810  1.00  0.00     0.001 A 
ATOM     29  C   UNL A   1      43.957  11.017  45.151  1.00  0.00     0.000 A 
ENDBRANCH  23  24
ENDBRANCH  22  23
ENDBRANCH  21  22
ENDBRANCH  19  21
ENDBRANCH   6   8
ENDBRANCH   5   6
ENDBRANCH   4   5
ENDBRANCH   3   4
ENDBRANCH   2   3
ENDBRANCH   1   2
BRANCH   1  30
ATOM     30  C   UNL A   1      50.191  21.181  35.975  1.00  0.00     0.188 C 
BRANCH  30  31
ATOM     31  O   UNL A   1      49.006  20.815  35.291  1.00  0.00    -0.376 OA
BRANCH  31  32
ATOM     32  C   UNL A   1      48.207  21.860  34.759  1.00  0.00     0.202 C 
BRANCH  32  33
ATOM     33  C   UNL A   1      48.959  23.193  34.696  1.00  0.00     0.261 C 
BRANCH  33  34
ATOM     34  O   UNL A   1      48.309  24.260  35.415  1.00  0.00    -0.460 OA
BRANCH  34  35
ATOM     35  C   UNL A   1      48.574  25.512  34.971  1.00  0.00     0.338 C 
ATOM     36  O   UNL A   1      49.677  25.984  34.752  1.00  0.00    -0.246 OA
BRANCH  35  37
ATOM     37  C   UNL A   1      47.303  26.156  34.573  1.00  0.00     0.060 A 
ATOM     38  C   UNL A   1      46.107  25.608  35.051  1.00  0.00     0.016 A 
ATOM     39  C   UNL A   1      47.273  27.252  33.717  1.00  0.00     0.016 A 
ATOM     40  C   UNL A   1      44.874  26.113  34.639  1.00  0.00     0.010 A 
ATOM     41  C   UNL A   1      46.034  27.763  33.305  1.00  0.00     0.010 A 
ATOM     42  C   UNL A   1      44.825  27.175  33.733  1.00  0.00    -0.014 A 
BRANCH  42  43
ATOM     43  C   UNL A   1      43.531  27.569  33.111  1.00  0.00     0.031 A 
ATOM     44  C   UNL A   1      43.234  27.102  31.707  1.00  0.00     0.074 A 
ATOM     45  C   UNL A   1      42.615  28.302  33.772  1.00  0.00     0.049 A 
ATOM     46  N   UNL A   1      42.273  27.461  30.898  1.00  0.00    -0.248 NA
ATOM     47  C   UNL A   1      44.152  26.099  31.141  1.00  0.00     0.031 C 
ATOM     48  C   UNL A   1      42.734  28.769  35.154  1.00  0.00     0.029 A 
ATOM     49  N   UNL A   1      41.404  28.805  33.354  1.00  0.00    -0.354 N 
ATOM     50  C   UNL A   1      42.498  26.771  29.711  1.00  0.00     0.074 A 
ATOM     51  C   UNL A   1      43.691  25.975  29.906  1.00  0.00     0.031 C 
ATOM     52  C   UNL A   1      41.654  29.511  35.460  1.00  0.00     0.029 A 
ATOM     53  C   UNL A   1      40.797  29.620  34.283  1.00  0.00     0.049 A 
ATOM     54  H   UNL A   1      41.011  28.602  32.475  1.00  0.00     0.167 HD
ATOM     55  C   UNL A   1      41.772  26.783  28.568  1.00  0.00     0.034 A 
ATOM     56  C   UNL A   1      39.702  30.403  34.178  1.00  0.00     0.034 A 
ATOM     57  C   UNL A   1      40.560  27.535  28.388  1.00  0.00     0.049 A 
ATOM     58  C   UNL A   1      38.940  30.439  32.876  1.00  0.00     0.074 A 
ATOM     59  C   UNL A   1      39.760  27.620  27.263  1.00  0.00     0.029 A 
ATOM     60  N   UNL A   1      39.961  28.316  29.364  1.00  0.00    -0.354 N 
ATOM     61  N   UNL A   1      39.156  29.767  31.771  1.00  0.00    -0.248 NA
ATOM     62  C   UNL A   1      37.771  31.329  32.815  1.00  0.00     0.031 C 
ATOM     63  C   UNL A   1      38.681  28.462  27.554  1.00  0.00     0.029 A 
ATOM     64  C   UNL A   1      38.798  28.879  28.870  1.00  0.00     0.049 A 
ATOM     65  H   UNL A   1      40.313  28.450  30.274  1.00  0.00     0.167 HD
ATOM     66  C   UNL A   1      38.128  30.124  30.901  1.00  0.00     0.074 A 
ATOM     67  C   UNL A   1      37.276  31.049  31.617  1.00  0.00     0.031 C 
ATOM     68  C   UNL A   1      37.920  29.740  29.618  1.00  0.00     0.034 A 
BRANCH  55  69
ATOM     69  C   UNL A   1      42.257  25.936  27.422  1.00  0.00     0.023 A 
ATOM     70  C   UNL A   1      43.125  26.493  26.462  1.00  0.00     0.012 A 
ATOM     71  C   UNL A   1      41.907  24.573  27.332  1.00  0.00     0.148 A 
ATOM     72  C   UNL A   1      43.616  25.715  25.414  1.00  0.00     0.002 A 
ATOM     73  C   UNL A   1      42.437  23.794  26.311  1.00  0.00     0.091 A 
ATOM     74  F   UNL A   1      41.067  24.069  28.246  1.00  0.00    -0.205 F 
ATOM     75  C   UNL A   1      43.281  24.366  25.345  1.00  0.00     0.022 A 
BRANCH  73  76
ATOM     76  S   UNL A   1      42.129  22.030  26.175  1.00  0.00     0.127 S 
ATOM     77  O   UNL A   1      43.103  21.638  25.156  1.00  0.00    -0.237 OA
ATOM     78  O   UNL A   1      42.438  21.560  27.525  1.00  0.00    -0.237 OA
ATOM     79  O   UNL A   1      40.733  21.892  25.785  1.00  0.00    -0.744 OA
ENDBRANCH  73  76
ENDBRANCH  55  69
BRANCH  56  80
ATOM     80  C   UNL A   1      39.252  31.241  35.330  1.00  0.00     0.023 A 
ATOM     81  C   UNL A   1      38.368  30.701  36.283  1.00  0.00     0.012 A 
ATOM     82  C   UNL A   1      39.663  32.581  35.462  1.00  0.00     0.148 A 
ATOM     83  C   UNL A   1      37.864  31.493  37.318  1.00  0.00     0.002 A 
ATOM     84  C   UNL A   1      39.208  33.345  36.531  1.00  0.00     0.091 A 
ATOM     85  F   UNL A   1      40.484  33.092  34.532  1.00  0.00    -0.205 F 
ATOM     86  C   UNL A   1      38.291  32.811  37.447  1.00  0.00     0.022 A 
BRANCH  84  87
ATOM     87  S   UNL A   1      39.817  35.006  36.842  1.00  0.00     0.127 S 
ATOM     88  O   UNL A   1      39.199  35.315  38.129  1.00  0.00    -0.237 OA
ATOM     89  O   UNL A   1      41.265  34.796  36.888  1.00  0.00    -0.237 OA
ATOM     90  O   UNL A   1      39.366  35.802  35.708  1.00  0.00    -0.744 OA
ENDBRANCH  84  87
ENDBRANCH  56  80
BRANCH  68  91
ATOM     91  C   UNL A   1      36.691  30.264  28.919  1.00  0.00     0.023 A 
ATOM     92  C   UNL A   1      35.736  29.366  28.402  1.00  0.00     0.012 A 
ATOM     93  C   UNL A   1      36.455  31.651  28.829  1.00  0.00     0.148 A 
ATOM     94  C   UNL A   1      34.586  29.840  27.771  1.00  0.00     0.002 A 
ATOM     95  C   UNL A   1      35.283  32.115  28.242  1.00  0.00     0.091 A 
ATOM     96  F   UNL A   1      37.382  32.491  29.311  1.00  0.00    -0.205 F 
ATOM     97  C   UNL A   1      34.354  31.212  27.700  1.00  0.00     0.022 A 
BRANCH  95  98
ATOM     98  S   UNL A   1      34.855  33.859  28.193  1.00  0.00     0.127 S 
ATOM     99  O   UNL A   1      35.821  34.375  27.225  1.00  0.00    -0.237 OA
ATOM    100  O   UNL A   1      33.472  33.826  27.716  1.00  0.00    -0.237 OA
ATOM    101  O   UNL A   1      35.012  34.349  29.556  1.00  0.00    -0.744 OA
ENDBRANCH  95  98
ENDBRANCH  68  91
ENDBRANCH  42  43
ENDBRANCH  35  37
ENDBRANCH  34  35
ENDBRANCH  33  34
ENDBRANCH  32  33
ENDBRANCH  31  32
ENDBRANCH  30  31
ENDBRANCH   1  30
TORSDOF 24
ENDMDL
