MODEL 1
REMARK VINA RESULT:     -10.6      0.000      0.000
REMARK SMILES Cc1nc2sc3c(c2c2nc(CCC(=O)OCCOCCOCCOC(=O)c4ccc(-c5c6nc(c(-c7cccc(S(=O)(=O)[O-])c7F)c7ccc([nH]7)c(-c7cccc(S(=O)(=O)[O-])c7F)c7nc(c(-c8cccc(S(=O)(=O)[O-])c8F)c8ccc5[nH]8)C=C7)C=C6)cc4)nn12)[C@@H](C)CCC3
REMARK SMILES IDX 21 1 20 2 19 3 18 4 17 5 16 6 14 7 15 8 13 9 12 10 11 11
REMARK SMILES IDX 1 12 2 13 3 14 92 15 4 16 9 17 91 18 5 19 8 20 10 21 6 22
REMARK SMILES IDX 7 23 97 24 93 25 96 26 94 27 95 28 22 29 23 30 24 31 25 32
REMARK SMILES IDX 26 33 27 34 28 35 29 36 90 37 30 38 89 39 31 40 32 41 33 42
REMARK SMILES IDX 83 43 34 44 88 45 82 46 84 47 35 48 87 49 81 50 80 51 36 53
REMARK SMILES IDX 68 54 48 55 67 56 49 57 52 58 66 59 85 60 50 61 51 62 65 64
REMARK SMILES IDX 86 65 53 66 37 67 38 68 46 69 39 70 41 71 47 72 40 73 42 74
REMARK SMILES IDX 43 75 44 76 45 77 69 78 70 79 78 80 71 81 73 82 79 83 72 84
REMARK SMILES IDX 74 85 75 86 76 87 77 88 54 89 55 90 63 91 56 92 58 93 64 94
REMARK SMILES IDX 57 95 59 96 60 97 61 98 62 99
REMARK H PARENT 84 52 52 63
REMARK Flexibility Score: inf
ROOT
ATOM      1  C   UNL A   1      43.925  20.875  25.204  1.00  0.00     0.188 C 
ENDROOT
BRANCH   1   2
ATOM      2  C   UNL A   1      43.268  19.689  25.869  1.00  0.00     0.188 C 
BRANCH   2   3
ATOM      3  O   UNL A   1      41.966  19.394  25.379  1.00  0.00    -0.376 OA
BRANCH   3   4
ATOM      4  C   UNL A   1      40.913  19.613  26.316  1.00  0.00     0.202 C 
BRANCH   4   5
ATOM      5  C   UNL A   1      39.472  19.599  25.751  1.00  0.00     0.261 C 
BRANCH   5   6
ATOM      6  O   UNL A   1      38.888  20.925  25.594  1.00  0.00    -0.463 OA
BRANCH   6   7
ATOM      7  C   UNL A   1      37.665  20.983  25.010  1.00  0.00     0.306 C 
ATOM      8  O   UNL A   1      36.876  20.041  24.999  1.00  0.00    -0.252 OA
BRANCH   7   9
ATOM      9  C   UNL A   1      37.324  22.293  24.311  1.00  0.00     0.131 C 
BRANCH   9  10
ATOM     10  C   UNL A   1      36.998  23.567  25.092  1.00  0.00     0.091 C 
BRANCH  10  11
ATOM     11  C   UNL A   1      35.563  23.771  25.432  1.00  0.00     0.152 A 
ATOM     12  C   UNL A   1      32.838  22.155  28.107  1.00  0.00     0.090 C 
ATOM     13  C   UNL A   1      32.606  23.301  27.175  1.00  0.00     0.131 A 
ATOM     14  N   UNL A   1      31.452  23.917  27.088  1.00  0.00    -0.222 NA
ATOM     15  N   UNL A   1      33.713  23.652  26.390  1.00  0.00    -0.199 N 
ATOM     16  C   UNL A   1      31.383  24.935  26.165  1.00  0.00     0.129 A 
ATOM     17  C   UNL A   1      33.668  24.675  25.487  1.00  0.00     0.168 A 
ATOM     18  N   UNL A   1      34.916  23.030  26.353  1.00  0.00    -0.150 NA
ATOM     19  S   UNL A   1      29.934  25.801  25.883  1.00  0.00    -0.120 S 
ATOM     20  C   UNL A   1      32.388  25.399  25.327  1.00  0.00     0.060 A 
ATOM     21  N   UNL A   1      34.823  24.785  24.883  1.00  0.00    -0.211 NA
ATOM     22  C   UNL A   1      30.654  26.751  24.661  1.00  0.00     0.011 A 
ATOM     23  C   UNL A   1      31.986  26.440  24.442  1.00  0.00    -0.018 A 
ATOM     24  C   UNL A   1      29.874  27.771  23.886  1.00  0.00     0.047 C 
ATOM     25  C   UNL A   1      32.795  27.158  23.392  1.00  0.00     0.018 C 
ATOM     26  C   UNL A   1      30.822  28.766  23.204  1.00  0.00     0.006 C 
ATOM     27  C   UNL A   1      33.595  26.202  22.526  1.00  0.00     0.013 C 
ATOM     28  C   UNL A   1      31.933  28.031  22.458  1.00  0.00     0.008 C 
ENDBRANCH  10  11
ENDBRANCH   9  10
ENDBRANCH   7   9
ENDBRANCH   6   7
ENDBRANCH   5   6
ENDBRANCH   4   5
ENDBRANCH   3   4
ENDBRANCH   2   3
ENDBRANCH   1   2
BRANCH   1  29
ATOM     29  O   UNL A   1      43.769  22.081  25.978  1.00  0.00    -0.376 OA
BRANCH  29  30
ATOM     30  C   UNL A   1      42.525  22.768  25.850  1.00  0.00     0.202 C 
BRANCH  30  31
ATOM     31  C   UNL A   1      42.240  23.858  26.882  1.00  0.00     0.261 C 
BRANCH  31  32
ATOM     32  O   UNL A   1      41.039  24.522  26.574  1.00  0.00    -0.460 OA
BRANCH  32  33
ATOM     33  C   UNL A   1      41.246  25.753  26.040  1.00  0.00     0.338 C 
ATOM     34  O   UNL A   1      41.821  26.039  25.017  1.00  0.00    -0.246 OA
BRANCH  33  35
ATOM     35  C   UNL A   1      40.604  26.717  26.938  1.00  0.00     0.060 A 
ATOM     36  C   UNL A   1      40.539  28.037  26.496  1.00  0.00     0.016 A 
ATOM     37  C   UNL A   1      40.310  26.333  28.253  1.00  0.00     0.016 A 
ATOM     38  C   UNL A   1      40.531  29.012  27.455  1.00  0.00     0.010 A 
ATOM     39  C   UNL A   1      40.328  27.300  29.209  1.00  0.00     0.010 A 
ATOM     40  C   UNL A   1      40.578  28.599  28.788  1.00  0.00    -0.014 A 
BRANCH  40  41
ATOM     41  C   UNL A   1      40.905  29.576  29.786  1.00  0.00     0.031 A 
ATOM     42  C   UNL A   1      39.698  30.265  30.257  1.00  0.00     0.074 A 
ATOM     43  C   UNL A   1      42.173  29.710  30.215  1.00  0.00     0.049 A 
ATOM     44  N   UNL A   1      39.288  31.434  29.897  1.00  0.00    -0.248 NA
ATOM     45  C   UNL A   1      38.686  29.457  30.956  1.00  0.00     0.031 C 
ATOM     46  C   UNL A   1      43.324  28.839  29.944  1.00  0.00     0.029 A 
ATOM     47  N   UNL A   1      42.674  30.601  31.102  1.00  0.00    -0.354 N 
ATOM     48  C   UNL A   1      38.103  31.606  30.601  1.00  0.00     0.074 A 
ATOM     49  C   UNL A   1      37.643  30.287  30.924  1.00  0.00     0.031 C 
ATOM     50  C   UNL A   1      44.299  29.099  30.847  1.00  0.00     0.029 A 
ATOM     51  C   UNL A   1      43.895  30.233  31.659  1.00  0.00     0.049 A 
ATOM     52  H   UNL A   1      42.213  31.440  31.336  1.00  0.00     0.167 HD
ATOM     53  C   UNL A   1      37.846  32.798  31.201  1.00  0.00     0.034 A 
ATOM     54  C   UNL A   1      44.457  30.785  32.763  1.00  0.00     0.034 A 
ATOM     55  C   UNL A   1      38.667  33.841  30.623  1.00  0.00     0.049 A 
ATOM     56  C   UNL A   1      43.806  32.106  32.952  1.00  0.00     0.074 A 
ATOM     57  C   UNL A   1      38.843  34.353  29.353  1.00  0.00     0.029 A 
ATOM     58  N   UNL A   1      39.777  34.208  31.347  1.00  0.00    -0.354 N 
ATOM     59  N   UNL A   1      43.937  33.100  32.118  1.00  0.00    -0.248 NA
ATOM     60  C   UNL A   1      42.645  32.170  33.825  1.00  0.00     0.031 C 
ATOM     61  C   UNL A   1      40.232  34.659  29.260  1.00  0.00     0.029 A 
ATOM     62  C   UNL A   1      40.831  34.392  30.494  1.00  0.00     0.049 A 
ATOM     63  H   UNL A   1      39.808  34.321  32.324  1.00  0.00     0.167 HD
ATOM     64  C   UNL A   1      42.662  33.647  32.033  1.00  0.00     0.074 A 
ATOM     65  C   UNL A   1      41.946  33.117  33.194  1.00  0.00     0.031 C 
ATOM     66  C   UNL A   1      42.221  34.218  30.873  1.00  0.00     0.034 A 
BRANCH  53  67
ATOM     67  C   UNL A   1      37.229  32.940  32.584  1.00  0.00     0.023 A 
ATOM     68  C   UNL A   1      36.155  33.851  32.694  1.00  0.00     0.012 A 
ATOM     69  C   UNL A   1      37.775  32.463  33.802  1.00  0.00     0.148 A 
ATOM     70  C   UNL A   1      35.712  34.324  33.934  1.00  0.00     0.002 A 
ATOM     71  C   UNL A   1      37.288  32.881  35.034  1.00  0.00     0.091 A 
ATOM     72  F   UNL A   1      38.850  31.680  33.814  1.00  0.00    -0.205 F 
ATOM     73  C   UNL A   1      36.279  33.840  35.105  1.00  0.00     0.022 A 
BRANCH  71  74
ATOM     74  S   UNL A   1      37.957  32.248  36.582  1.00  0.00     0.127 S 
ATOM     75  O   UNL A   1      37.035  32.825  37.555  1.00  0.00    -0.237 OA
ATOM     76  O   UNL A   1      37.834  30.805  36.386  1.00  0.00    -0.237 OA
ATOM     77  O   UNL A   1      39.333  32.725  36.651  1.00  0.00    -0.744 OA
ENDBRANCH  71  74
ENDBRANCH  53  67
BRANCH  54  78
ATOM     78  C   UNL A   1      45.252  30.154  33.849  1.00  0.00     0.023 A 
ATOM     79  C   UNL A   1      46.341  30.861  34.402  1.00  0.00     0.012 A 
ATOM     80  C   UNL A   1      44.771  29.026  34.549  1.00  0.00     0.148 A 
ATOM     81  C   UNL A   1      46.899  30.488  35.632  1.00  0.00     0.002 A 
ATOM     82  C   UNL A   1      45.327  28.660  35.773  1.00  0.00     0.091 A 
ATOM     83  F   UNL A   1      43.710  28.368  34.066  1.00  0.00    -0.205 F 
ATOM     84  C   UNL A   1      46.383  29.397  36.324  1.00  0.00     0.022 A 
BRANCH  82  85
ATOM     85  S   UNL A   1      44.686  27.295  36.755  1.00  0.00     0.127 S 
ATOM     86  O   UNL A   1      45.849  26.936  37.567  1.00  0.00    -0.237 OA
ATOM     87  O   UNL A   1      43.600  27.937  37.490  1.00  0.00    -0.237 OA
ATOM     88  O   UNL A   1      44.280  26.272  35.800  1.00  0.00    -0.744 OA
ENDBRANCH  82  85
ENDBRANCH  54  78
BRANCH  66  89
ATOM     89  C   UNL A   1      43.233  34.489  29.782  1.00  0.00     0.023 A 
ATOM     90  C   UNL A   1      44.062  35.632  29.780  1.00  0.00     0.012 A 
ATOM     91  C   UNL A   1      43.504  33.453  28.872  1.00  0.00     0.148 A 
ATOM     92  C   UNL A   1      45.137  35.735  28.891  1.00  0.00     0.002 A 
ATOM     93  C   UNL A   1      44.607  33.533  28.033  1.00  0.00     0.091 A 
ATOM     94  F   UNL A   1      42.703  32.377  28.886  1.00  0.00    -0.205 F 
ATOM     95  C   UNL A   1      45.423  34.676  28.032  1.00  0.00     0.022 A 
BRANCH  93  96
ATOM     96  S   UNL A   1      45.121  32.141  27.023  1.00  0.00     0.127 S 
ATOM     97  O   UNL A   1      46.309  32.670  26.354  1.00  0.00    -0.237 OA
ATOM     98  O   UNL A   1      45.391  31.112  28.028  1.00  0.00    -0.237 OA
ATOM     99  O   UNL A   1      43.995  31.839  26.148  1.00  0.00    -0.744 OA
ENDBRANCH  93  96
ENDBRANCH  66  89
ENDBRANCH  40  41
ENDBRANCH  33  35
ENDBRANCH  32  33
ENDBRANCH  31  32
ENDBRANCH  30  31
ENDBRANCH  29  30
ENDBRANCH   1  29
TORSDOF 22
ENDMDL
MODEL 2
REMARK VINA RESULT:      -9.9      4.433     12.657
REMARK SMILES Cc1nc2sc3c(c2c2nc(CCC(=O)OCCOCCOCCOC(=O)c4ccc(-c5c6nc(c(-c7cccc(S(=O)(=O)[O-])c7F)c7ccc([nH]7)c(-c7cccc(S(=O)(=O)[O-])c7F)c7nc(c(-c8cccc(S(=O)(=O)[O-])c8F)c8ccc5[nH]8)C=C7)C=C6)cc4)nn12)[C@@H](C)CCC3
REMARK SMILES IDX 21 1 20 2 19 3 18 4 17 5 16 6 14 7 15 8 13 9 12 10 11 11
REMARK SMILES IDX 1 12 2 13 3 14 92 15 4 16 9 17 91 18 5 19 8 20 10 21 6 22
REMARK SMILES IDX 7 23 97 24 93 25 96 26 94 27 95 28 22 29 23 30 24 31 25 32
REMARK SMILES IDX 26 33 27 34 28 35 29 36 90 37 30 38 89 39 31 40 32 41 33 42
REMARK SMILES IDX 83 43 34 44 88 45 82 46 84 47 35 48 87 49 81 50 80 51 36 53
REMARK SMILES IDX 68 54 48 55 67 56 49 57 52 58 66 59 85 60 50 61 51 62 65 64
REMARK SMILES IDX 86 65 53 66 37 67 38 68 46 69 39 70 41 71 47 72 40 73 42 74
REMARK SMILES IDX 43 75 44 76 45 77 69 78 70 79 78 80 71 81 73 82 79 83 72 84
REMARK SMILES IDX 74 85 75 86 76 87 77 88 54 89 55 90 63 91 56 92 58 93 64 94
REMARK SMILES IDX 57 95 59 96 60 97 61 98 62 99
REMARK H PARENT 84 52 52 63
REMARK Flexibility Score: inf
ROOT
ATOM      1  C   UNL A   1      33.459  34.790  32.806  1.00  0.00     0.188 C 
ENDROOT
BRANCH   1   2
ATOM      2  C   UNL A   1      34.459  35.834  33.244  1.00  0.00     0.188 C 
BRANCH   2   3
ATOM      3  O   UNL A   1      35.815  35.415  33.154  1.00  0.00    -0.376 OA
BRANCH   3   4
ATOM      4  C   UNL A   1      36.064  34.095  33.635  1.00  0.00     0.202 C 
BRANCH   4   5
ATOM      5  C   UNL A   1      36.237  33.939  35.165  1.00  0.00     0.261 C 
BRANCH   5   6
ATOM      6  O   UNL A   1      37.238  32.952  35.548  1.00  0.00    -0.463 OA
BRANCH   6   7
ATOM      7  C   UNL A   1      37.557  32.891  36.865  1.00  0.00     0.306 C 
ATOM      8  O   UNL A   1      37.194  31.981  37.606  1.00  0.00    -0.252 OA
BRANCH   7   9
ATOM      9  C   UNL A   1      38.373  34.058  37.405  1.00  0.00     0.131 C 
BRANCH   9  10
ATOM     10  C   UNL A   1      39.719  33.852  38.102  1.00  0.00     0.091 C 
BRANCH  10  11
ATOM     11  C   UNL A   1      40.729  34.926  37.895  1.00  0.00     0.152 A 
ATOM     12  C   UNL A   1      42.394  37.976  40.158  1.00  0.00     0.090 C 
ATOM     13  C   UNL A   1      42.776  37.582  38.766  1.00  0.00     0.131 A 
ATOM     14  N   UNL A   1      43.698  38.214  38.082  1.00  0.00    -0.222 NA
ATOM     15  N   UNL A   1      42.057  36.497  38.245  1.00  0.00    -0.199 N 
ATOM     16  C   UNL A   1      43.919  37.753  36.804  1.00  0.00     0.129 A 
ATOM     17  C   UNL A   1      42.281  36.014  36.988  1.00  0.00     0.168 A 
ATOM     18  N   UNL A   1      41.038  35.834  38.842  1.00  0.00    -0.150 NA
ATOM     19  S   UNL A   1      45.046  38.503  35.757  1.00  0.00    -0.120 S 
ATOM     20  C   UNL A   1      43.297  36.694  36.157  1.00  0.00     0.060 A 
ATOM     21  N   UNL A   1      41.473  35.013  36.748  1.00  0.00    -0.211 NA
ATOM     22  C   UNL A   1      44.680  37.434  34.479  1.00  0.00     0.011 A 
ATOM     23  C   UNL A   1      43.714  36.499  34.809  1.00  0.00    -0.018 A 
ATOM     24  C   UNL A   1      45.322  37.560  33.129  1.00  0.00     0.047 C 
ATOM     25  C   UNL A   1      43.242  35.474  33.810  1.00  0.00     0.018 C 
ATOM     26  C   UNL A   1      45.178  36.252  32.341  1.00  0.00     0.006 C 
ATOM     27  C   UNL A   1      41.728  35.363  33.767  1.00  0.00     0.013 C 
ATOM     28  C   UNL A   1      43.734  35.757  32.376  1.00  0.00     0.008 C 
ENDBRANCH  10  11
ENDBRANCH   9  10
ENDBRANCH   7   9
ENDBRANCH   6   7
ENDBRANCH   5   6
ENDBRANCH   4   5
ENDBRANCH   3   4
ENDBRANCH   2   3
ENDBRANCH   1   2
BRANCH   1  29
ATOM     29  O   UNL A   1      32.459  35.339  31.925  1.00  0.00    -0.376 OA
BRANCH  29  30
ATOM     30  C   UNL A   1      32.909  36.282  30.954  1.00  0.00     0.202 C 
BRANCH  30  31
ATOM     31  C   UNL A   1      32.919  35.809  29.501  1.00  0.00     0.261 C 
BRANCH  31  32
ATOM     32  O   UNL A   1      32.531  34.459  29.422  1.00  0.00    -0.460 OA
BRANCH  32  33
ATOM     33  C   UNL A   1      33.395  33.710  28.690  1.00  0.00     0.338 C 
ATOM     34  O   UNL A   1      33.204  33.173  27.625  1.00  0.00    -0.246 OA
BRANCH  33  35
ATOM     35  C   UNL A   1      34.661  33.686  29.426  1.00  0.00     0.060 A 
ATOM     36  C   UNL A   1      35.677  34.514  28.952  1.00  0.00     0.016 A 
ATOM     37  C   UNL A   1      34.870  32.692  30.392  1.00  0.00     0.016 A 
ATOM     38  C   UNL A   1      36.963  34.108  29.179  1.00  0.00     0.010 A 
ATOM     39  C   UNL A   1      36.147  32.272  30.596  1.00  0.00     0.010 A 
ATOM     40  C   UNL A   1      37.144  32.910  29.871  1.00  0.00    -0.014 A 
BRANCH  40  41
ATOM     41  C   UNL A   1      38.441  32.296  29.831  1.00  0.00     0.031 A 
ATOM     42  C   UNL A   1      38.339  30.892  29.413  1.00  0.00     0.074 A 
ATOM     43  C   UNL A   1      39.544  33.020  30.090  1.00  0.00     0.049 A 
ATOM     44  N   UNL A   1      38.371  29.855  30.180  1.00  0.00    -0.248 NA
ATOM     45  C   UNL A   1      37.845  30.625  28.053  1.00  0.00     0.031 C 
ATOM     46  C   UNL A   1      39.664  34.476  30.238  1.00  0.00     0.029 A 
ATOM     47  N   UNL A   1      40.831  32.605  30.150  1.00  0.00    -0.354 N 
ATOM     48  C   UNL A   1      38.210  28.787  29.308  1.00  0.00     0.074 A 
ATOM     49  C   UNL A   1      37.569  29.324  28.144  1.00  0.00     0.031 C 
ATOM     50  C   UNL A   1      40.966  34.829  30.112  1.00  0.00     0.029 A 
ATOM     51  C   UNL A   1      41.769  33.624  30.012  1.00  0.00     0.049 A 
ATOM     52  H   UNL A   1      41.083  31.662  30.279  1.00  0.00     0.167 HD
ATOM     53  C   UNL A   1      38.987  27.680  29.452  1.00  0.00     0.034 A 
ATOM     54  C   UNL A   1      43.088  33.450  29.745  1.00  0.00     0.034 A 
ATOM     55  C   UNL A   1      39.552  27.631  30.784  1.00  0.00     0.049 A 
ATOM     56  C   UNL A   1      43.410  32.047  30.107  1.00  0.00     0.074 A 
ATOM     57  C   UNL A   1      39.034  27.613  32.063  1.00  0.00     0.029 A 
ATOM     58  N   UNL A   1      40.862  28.034  30.900  1.00  0.00    -0.354 N 
ATOM     59  N   UNL A   1      43.371  31.590  31.328  1.00  0.00    -0.248 NA
ATOM     60  C   UNL A   1      43.329  31.042  29.060  1.00  0.00     0.031 C 
ATOM     61  C   UNL A   1      39.937  28.391  32.845  1.00  0.00     0.029 A 
ATOM     62  C   UNL A   1      41.002  28.789  32.032  1.00  0.00     0.049 A 
ATOM     63  H   UNL A   1      41.584  27.814  30.269  1.00  0.00     0.167 HD
ATOM     64  C   UNL A   1      42.795  30.332  31.206  1.00  0.00     0.074 A 
ATOM     65  C   UNL A   1      42.909  30.001  29.784  1.00  0.00     0.031 C 
ATOM     66  C   UNL A   1      42.008  29.821  32.199  1.00  0.00     0.034 A 
BRANCH  53  67
ATOM     67  C   UNL A   1      39.606  26.917  28.291  1.00  0.00     0.023 A 
ATOM     68  C   UNL A   1      39.283  25.545  28.208  1.00  0.00     0.012 A 
ATOM     69  C   UNL A   1      40.659  27.366  27.455  1.00  0.00     0.148 A 
ATOM     70  C   UNL A   1      40.018  24.660  27.411  1.00  0.00     0.002 A 
ATOM     71  C   UNL A   1      41.342  26.498  26.612  1.00  0.00     0.091 A 
ATOM     72  F   UNL A   1      41.109  28.616  27.526  1.00  0.00    -0.205 F 
ATOM     73  C   UNL A   1      41.049  25.136  26.613  1.00  0.00     0.022 A 
BRANCH  71  74
ATOM     74  S   UNL A   1      42.656  27.075  25.523  1.00  0.00     0.127 S 
ATOM     75  O   UNL A   1      42.876  25.900  24.686  1.00  0.00    -0.237 OA
ATOM     76  O   UNL A   1      42.010  28.204  24.856  1.00  0.00    -0.237 OA
ATOM     77  O   UNL A   1      43.765  27.451  26.393  1.00  0.00    -0.744 OA
ENDBRANCH  71  74
ENDBRANCH  53  67
BRANCH  54  78
ATOM     78  C   UNL A   1      44.009  34.263  28.909  1.00  0.00     0.023 A 
ATOM     79  C   UNL A   1      43.472  35.242  28.047  1.00  0.00     0.012 A 
ATOM     80  C   UNL A   1      45.396  34.305  29.175  1.00  0.00     0.148 A 
ATOM     81  C   UNL A   1      44.274  36.256  27.510  1.00  0.00     0.002 A 
ATOM     82  C   UNL A   1      46.190  35.317  28.640  1.00  0.00     0.091 A 
ATOM     83  F   UNL A   1      45.919  33.414  30.026  1.00  0.00    -0.205 F 
ATOM     84  C   UNL A   1      45.630  36.302  27.817  1.00  0.00     0.022 A 
BRANCH  82  85
ATOM     85  S   UNL A   1      47.941  35.477  29.029  1.00  0.00     0.127 S 
ATOM     86  O   UNL A   1      48.550  34.579  28.048  1.00  0.00    -0.237 OA
ATOM     87  O   UNL A   1      48.173  36.898  28.785  1.00  0.00    -0.237 OA
ATOM     88  O   UNL A   1      48.084  35.044  30.412  1.00  0.00    -0.744 OA
ENDBRANCH  82  85
ENDBRANCH  54  78
BRANCH  66  89
ATOM     89  C   UNL A   1      42.004  30.527  33.537  1.00  0.00     0.023 A 
ATOM     90  C   UNL A   1      40.972  31.406  33.932  1.00  0.00     0.012 A 
ATOM     91  C   UNL A   1      42.943  30.111  34.496  1.00  0.00     0.148 A 
ATOM     92  C   UNL A   1      40.880  31.856  35.253  1.00  0.00     0.002 A 
ATOM     93  C   UNL A   1      42.814  30.513  35.819  1.00  0.00     0.091 A 
ATOM     94  F   UNL A   1      43.920  29.280  34.102  1.00  0.00    -0.205 F 
ATOM     95  C   UNL A   1      41.789  31.392  36.202  1.00  0.00     0.022 A 
BRANCH  93  96
ATOM     96  S   UNL A   1      43.851  29.826  37.114  1.00  0.00     0.127 S 
ATOM     97  O   UNL A   1      43.454  28.419  37.109  1.00  0.00    -0.237 OA
ATOM     98  O   UNL A   1      45.198  30.085  36.603  1.00  0.00    -0.237 OA
ATOM     99  O   UNL A   1      43.522  30.563  38.328  1.00  0.00    -0.744 OA
ENDBRANCH  93  96
ENDBRANCH  66  89
ENDBRANCH  40  41
ENDBRANCH  33  35
ENDBRANCH  32  33
ENDBRANCH  31  32
ENDBRANCH  30  31
ENDBRANCH  29  30
ENDBRANCH   1  29
TORSDOF 22
ENDMDL
MODEL 3
REMARK VINA RESULT:      -9.5      1.821      2.268
REMARK SMILES Cc1nc2sc3c(c2c2nc(CCC(=O)OCCOCCOCCOC(=O)c4ccc(-c5c6nc(c(-c7cccc(S(=O)(=O)[O-])c7F)c7ccc([nH]7)c(-c7cccc(S(=O)(=O)[O-])c7F)c7nc(c(-c8cccc(S(=O)(=O)[O-])c8F)c8ccc5[nH]8)C=C7)C=C6)cc4)nn12)[C@@H](C)CCC3
REMARK SMILES IDX 21 1 20 2 19 3 18 4 17 5 16 6 14 7 15 8 13 9 12 10 11 11
REMARK SMILES IDX 1 12 2 13 3 14 92 15 4 16 9 17 91 18 5 19 8 20 10 21 6 22
REMARK SMILES IDX 7 23 97 24 93 25 96 26 94 27 95 28 22 29 23 30 24 31 25 32
REMARK SMILES IDX 26 33 27 34 28 35 29 36 90 37 30 38 89 39 31 40 32 41 33 42
REMARK SMILES IDX 83 43 34 44 88 45 82 46 84 47 35 48 87 49 81 50 80 51 36 53
REMARK SMILES IDX 68 54 48 55 67 56 49 57 52 58 66 59 85 60 50 61 51 62 65 64
REMARK SMILES IDX 86 65 53 66 37 67 38 68 46 69 39 70 41 71 47 72 40 73 42 74
REMARK SMILES IDX 43 75 44 76 45 77 69 78 70 79 78 80 71 81 73 82 79 83 72 84
REMARK SMILES IDX 74 85 75 86 76 87 77 88 54 89 55 90 63 91 56 92 58 93 64 94
REMARK SMILES IDX 57 95 59 96 60 97 61 98 62 99
REMARK H PARENT 84 52 52 63
REMARK Flexibility Score: inf
ROOT
ATOM      1  C   UNL A   1      44.283  21.200  24.931  1.00  0.00     0.188 C 
ENDROOT
BRANCH   1   2
ATOM      2  C   UNL A   1      43.554  20.166  25.757  1.00  0.00     0.188 C 
BRANCH   2   3
ATOM      3  O   UNL A   1      42.192  19.984  25.391  1.00  0.00    -0.376 OA
BRANCH   3   4
ATOM      4  C   UNL A   1      41.251  20.318  26.409  1.00  0.00     0.202 C 
BRANCH   4   5
ATOM      5  C   UNL A   1      39.773  20.448  25.968  1.00  0.00     0.261 C 
BRANCH   5   6
ATOM      6  O   UNL A   1      39.256  21.809  26.031  1.00  0.00    -0.463 OA
BRANCH   6   7
ATOM      7  C   UNL A   1      38.091  22.045  25.378  1.00  0.00     0.306 C 
ATOM      8  O   UNL A   1      37.533  21.212  24.668  1.00  0.00    -0.252 OA
BRANCH   7   9
ATOM      9  C   UNL A   1      37.515  23.447  25.534  1.00  0.00     0.131 C 
BRANCH   9  10
ATOM     10  C   UNL A   1      36.156  23.695  26.190  1.00  0.00     0.091 C 
BRANCH  10  11
ATOM     11  C   UNL A   1      35.140  24.378  25.341  1.00  0.00     0.152 A 
ATOM     12  C   UNL A   1      33.085  23.543  21.838  1.00  0.00     0.090 C 
ATOM     13  C   UNL A   1      32.900  24.735  22.723  1.00  0.00     0.131 A 
ATOM     14  N   UNL A   1      32.049  25.693  22.448  1.00  0.00    -0.222 NA
ATOM     15  N   UNL A   1      33.720  24.754  23.860  1.00  0.00    -0.199 N 
ATOM     16  C   UNL A   1      32.011  26.738  23.342  1.00  0.00     0.129 A 
ATOM     17  C   UNL A   1      33.677  25.772  24.769  1.00  0.00     0.168 A 
ATOM     18  N   UNL A   1      34.679  23.855  24.188  1.00  0.00    -0.150 NA
ATOM     19  S   UNL A   1      30.999  28.097  23.100  1.00  0.00    -0.120 S 
ATOM     20  C   UNL A   1      32.750  26.894  24.507  1.00  0.00     0.060 A 
ATOM     21  N   UNL A   1      34.547  25.552  25.722  1.00  0.00    -0.211 NA
ATOM     22  C   UNL A   1      31.566  28.862  24.516  1.00  0.00     0.011 A 
ATOM     23  C   UNL A   1      32.517  28.119  25.194  1.00  0.00    -0.018 A 
ATOM     24  C   UNL A   1      31.098  30.228  24.922  1.00  0.00     0.047 C 
ATOM     25  C   UNL A   1      33.152  28.631  26.463  1.00  0.00     0.018 C 
ATOM     26  C   UNL A   1      31.392  30.477  26.406  1.00  0.00     0.006 C 
ATOM     27  C   UNL A   1      34.662  28.470  26.458  1.00  0.00     0.013 C 
ATOM     28  C   UNL A   1      32.837  30.114  26.740  1.00  0.00     0.008 C 
ENDBRANCH  10  11
ENDBRANCH   9  10
ENDBRANCH   7   9
ENDBRANCH   6   7
ENDBRANCH   5   6
ENDBRANCH   4   5
ENDBRANCH   3   4
ENDBRANCH   2   3
ENDBRANCH   1   2
BRANCH   1  29
ATOM     29  O   UNL A   1      44.140  22.525  25.480  1.00  0.00    -0.376 OA
BRANCH  29  30
ATOM     30  C   UNL A   1      42.976  23.255  25.097  1.00  0.00     0.202 C 
BRANCH  30  31
ATOM     31  C   UNL A   1      42.124  23.822  26.232  1.00  0.00     0.261 C 
BRANCH  31  32
ATOM     32  O   UNL A   1      41.371  24.921  25.778  1.00  0.00    -0.460 OA
BRANCH  32  33
ATOM     33  C   UNL A   1      42.020  26.102  25.942  1.00  0.00     0.338 C 
ATOM     34  O   UNL A   1      43.008  26.499  25.373  1.00  0.00    -0.246 OA
BRANCH  33  35
ATOM     35  C   UNL A   1      41.272  26.859  26.949  1.00  0.00     0.060 A 
ATOM     36  C   UNL A   1      40.749  28.087  26.549  1.00  0.00     0.016 A 
ATOM     37  C   UNL A   1      41.316  26.443  28.287  1.00  0.00     0.016 A 
ATOM     38  C   UNL A   1      40.604  29.043  27.516  1.00  0.00     0.010 A 
ATOM     39  C   UNL A   1      41.198  27.399  29.246  1.00  0.00     0.010 A 
ATOM     40  C   UNL A   1      40.981  28.701  28.816  1.00  0.00    -0.014 A 
BRANCH  40  41
ATOM     41  C   UNL A   1      41.159  29.760  29.768  1.00  0.00     0.031 A 
ATOM     42  C   UNL A   1      39.862  30.301  30.193  1.00  0.00     0.074 A 
ATOM     43  C   UNL A   1      42.389  30.085  30.201  1.00  0.00     0.049 A 
ATOM     44  N   UNL A   1      39.304  31.385  29.772  1.00  0.00    -0.248 NA
ATOM     45  C   UNL A   1      38.957  29.397  30.922  1.00  0.00     0.031 C 
ATOM     46  C   UNL A   1      43.651  29.365  29.984  1.00  0.00     0.029 A 
ATOM     47  N   UNL A   1      42.752  31.077  31.048  1.00  0.00    -0.354 N 
ATOM     48  C   UNL A   1      38.095  31.428  30.455  1.00  0.00     0.074 A 
ATOM     49  C   UNL A   1      37.813  30.076  30.839  1.00  0.00     0.031 C 
ATOM     50  C   UNL A   1      44.569  29.798  30.882  1.00  0.00     0.029 A 
ATOM     51  C   UNL A   1      44.003  30.904  31.633  1.00  0.00     0.049 A 
ATOM     52  H   UNL A   1      42.179  31.855  31.236  1.00  0.00     0.167 HD
ATOM     53  C   UNL A   1      37.670  32.602  30.994  1.00  0.00     0.034 A 
ATOM     54  C   UNL A   1      44.468  31.579  32.714  1.00  0.00     0.034 A 
ATOM     55  C   UNL A   1      38.353  33.717  30.373  1.00  0.00     0.049 A 
ATOM     56  C   UNL A   1      43.641  32.807  32.832  1.00  0.00     0.074 A 
ATOM     57  C   UNL A   1      38.478  34.187  29.081  1.00  0.00     0.029 A 
ATOM     58  N   UNL A   1      39.392  34.266  31.088  1.00  0.00    -0.354 N 
ATOM     59  N   UNL A   1      43.650  33.769  31.952  1.00  0.00    -0.248 NA
ATOM     60  C   UNL A   1      42.469  32.754  33.690  1.00  0.00     0.031 C 
ATOM     61  C   UNL A   1      39.814  34.674  28.986  1.00  0.00     0.029 A 
ATOM     62  C   UNL A   1      40.424  34.549  30.237  1.00  0.00     0.049 A 
ATOM     63  H   UNL A   1      39.392  34.428  32.059  1.00  0.00     0.167 HD
ATOM     64  C   UNL A   1      42.315  34.134  31.828  1.00  0.00     0.074 A 
ATOM     65  C   UNL A   1      41.658  33.567  33.007  1.00  0.00     0.031 C 
ATOM     66  C   UNL A   1      41.819  34.584  30.637  1.00  0.00     0.034 A 
BRANCH  53  67
ATOM     67  C   UNL A   1      37.019  32.725  32.363  1.00  0.00     0.023 A 
ATOM     68  C   UNL A   1      35.767  33.378  32.397  1.00  0.00     0.012 A 
ATOM     69  C   UNL A   1      37.640  32.492  33.615  1.00  0.00     0.148 A 
ATOM     70  C   UNL A   1      35.213  33.848  33.592  1.00  0.00     0.002 A 
ATOM     71  C   UNL A   1      37.055  32.898  34.807  1.00  0.00     0.091 A 
ATOM     72  F   UNL A   1      38.863  31.974  33.690  1.00  0.00    -0.205 F 
ATOM     73  C   UNL A   1      35.856  33.609  34.799  1.00  0.00     0.022 A 
BRANCH  71  74
ATOM     74  S   UNL A   1      37.827  32.572  36.402  1.00  0.00     0.127 S 
ATOM     75  O   UNL A   1      36.863  33.168  37.320  1.00  0.00    -0.237 OA
ATOM     76  O   UNL A   1      37.874  31.110  36.411  1.00  0.00    -0.237 OA
ATOM     77  O   UNL A   1      39.137  33.210  36.354  1.00  0.00    -0.744 OA
ENDBRANCH  71  74
ENDBRANCH  53  67
BRANCH  54  78
ATOM     78  C   UNL A   1      45.323  31.114  33.837  1.00  0.00     0.023 A 
ATOM     79  C   UNL A   1      44.729  30.415  34.910  1.00  0.00     0.012 A 
ATOM     80  C   UNL A   1      46.730  31.071  33.717  1.00  0.00     0.148 A 
ATOM     81  C   UNL A   1      45.502  29.661  35.801  1.00  0.00     0.002 A 
ATOM     82  C   UNL A   1      47.494  30.318  34.606  1.00  0.00     0.091 A 
ATOM     83  F   UNL A   1      47.311  31.689  32.682  1.00  0.00    -0.205 F 
ATOM     84  C   UNL A   1      46.883  29.600  35.641  1.00  0.00     0.022 A 
BRANCH  82  85
ATOM     85  S   UNL A   1      49.279  30.146  34.438  1.00  0.00     0.127 S 
ATOM     86  O   UNL A   1      49.626  29.413  35.655  1.00  0.00    -0.237 OA
ATOM     87  O   UNL A   1      49.391  29.373  33.204  1.00  0.00    -0.237 OA
ATOM     88  O   UNL A   1      49.807  31.503  34.381  1.00  0.00    -0.744 OA
ENDBRANCH  82  85
ENDBRANCH  54  78
BRANCH  66  89
ATOM     89  C   UNL A   1      42.803  34.938  29.544  1.00  0.00     0.023 A 
ATOM     90  C   UNL A   1      43.411  36.208  29.448  1.00  0.00     0.012 A 
ATOM     91  C   UNL A   1      43.288  33.892  28.740  1.00  0.00     0.148 A 
ATOM     92  C   UNL A   1      44.480  36.426  28.573  1.00  0.00     0.002 A 
ATOM     93  C   UNL A   1      44.386  34.097  27.916  1.00  0.00     0.091 A 
ATOM     94  F   UNL A   1      42.694  32.693  28.840  1.00  0.00    -0.205 F 
ATOM     95  C   UNL A   1      44.982  35.365  27.822  1.00  0.00     0.022 A 
BRANCH  93  96
ATOM     96  S   UNL A   1      45.177  32.738  27.050  1.00  0.00     0.127 S 
ATOM     97  O   UNL A   1      44.081  32.212  26.239  1.00  0.00    -0.237 OA
ATOM     98  O   UNL A   1      46.226  33.422  26.292  1.00  0.00    -0.237 OA
ATOM     99  O   UNL A   1      45.678  31.838  28.081  1.00  0.00    -0.744 OA
ENDBRANCH  93  96
ENDBRANCH  66  89
ENDBRANCH  40  41
ENDBRANCH  33  35
ENDBRANCH  32  33
ENDBRANCH  31  32
ENDBRANCH  30  31
ENDBRANCH  29  30
ENDBRANCH   1  29
TORSDOF 22
ENDMDL
