MODEL 1
REMARK VINA RESULT:      -9.8      0.000      0.000
REMARK SMILES CC(C)[C@H](NC(=O)CCNC(=O)c1ccoc1)C(=O)OCCOCCOCCOC(=O)c1ccc(-c2c3nc(c(-c4cccc(S(=O)(=O)[O-])c4F)c4ccc([nH]4)c(-c4cccc(S(=O)(=O)[O-])c4F)c4nc(c(-c5cccc(S(=O)(=O)[O-])c5F)c5ccc2[nH]5)C=C4)C=C3)cc1
REMARK SMILES IDX 24 1 23 2 22 3 21 4 20 5 18 6 19 7 4 8 2 9 1 10 3 11 5 12
REMARK SMILES IDX 6 13 7 15 8 16 9 17 10 18 11 19 12 21 13 22 14 23 17 24
REMARK SMILES IDX 15 25 16 26 25 27 26 28 27 29 28 30 29 31 30 32 31 33 32 34
REMARK SMILES IDX 33 35 94 36 34 37 93 38 35 39 36 40 37 41 87 42 38 43 92 44
REMARK SMILES IDX 86 45 88 46 39 47 91 48 85 49 84 50 40 52 72 53 52 54 71 55
REMARK SMILES IDX 53 56 56 57 70 58 89 59 54 60 55 61 69 63 90 64 57 65 41 66
REMARK SMILES IDX 42 67 50 68 43 69 45 70 51 71 44 72 46 73 47 74 48 75 49 76
REMARK SMILES IDX 73 77 74 78 82 79 75 80 77 81 83 82 76 83 78 84 79 85 80 86
REMARK SMILES IDX 81 87 58 88 59 89 67 90 60 91 62 92 68 93 61 94 63 95 64 96
REMARK SMILES IDX 65 97 66 98
REMARK H PARENT 5 14 10 20 88 51 56 62
REMARK Flexibility Score: inf
ROOT
ATOM      1  C   UNL A   1      33.247  27.442  26.408  1.00  0.00     0.188 C 
ENDROOT
BRANCH   1   2
ATOM      2  O   UNL A   1      32.789  26.990  25.133  1.00  0.00    -0.376 OA
BRANCH   2   3
ATOM      3  C   UNL A   1      33.103  27.580  23.869  1.00  0.00     0.202 C 
BRANCH   3   4
ATOM      4  C   UNL A   1      33.314  26.477  22.664  1.00  0.00     0.261 C 
BRANCH   4   5
ATOM      5  O   UNL A   1      34.377  25.443  22.896  1.00  0.00    -0.462 OA
BRANCH   5   6
ATOM      6  C   UNL A   1      34.398  24.365  23.752  1.00  0.00     0.328 C 
ATOM      7  O   UNL A   1      35.445  23.915  24.214  1.00  0.00    -0.250 OA
BRANCH   6   8
ATOM      8  C   UNL A   1      32.899  23.721  24.195  1.00  0.00     0.194 C 
BRANCH   8   9
ATOM      9  C   UNL A   1      31.958  23.418  22.989  1.00  0.00     0.017 C 
ATOM     10  C   UNL A   1      31.878  21.901  22.652  1.00  0.00     0.010 C 
ATOM     11  C   UNL A   1      30.544  23.929  23.237  1.00  0.00     0.010 C 
ENDBRANCH   8   9
BRANCH   8  12
ATOM     12  N   UNL A   1      31.982  24.092  25.311  1.00  0.00    -0.342 N 
ATOM     13  C   UNL A   1      31.911  23.523  26.546  1.00  0.00     0.222 C 
ATOM     14  H   UNL A   1      31.357  24.832  25.134  1.00  0.00     0.164 HD
ATOM     15  O   UNL A   1      31.539  24.124  27.543  1.00  0.00    -0.275 OA
BRANCH  13  16
ATOM     16  C   UNL A   1      32.064  22.065  26.477  1.00  0.00     0.121 C 
BRANCH  16  17
ATOM     17  C   UNL A   1      33.506  21.835  26.998  1.00  0.00     0.126 C 
BRANCH  17  18
ATOM     18  N   UNL A   1      34.617  21.179  26.096  1.00  0.00    -0.351 N 
ATOM     19  C   UNL A   1      35.045  20.224  25.163  1.00  0.00     0.254 C 
ATOM     20  H   UNL A   1      35.425  21.712  26.281  1.00  0.00     0.163 HD
ATOM     21  O   UNL A   1      36.245  20.355  24.893  1.00  0.00    -0.269 OA
BRANCH  19  22
ATOM     22  C   UNL A   1      34.359  19.057  24.554  1.00  0.00     0.077 A 
ATOM     23  C   UNL A   1      34.819  17.722  24.257  1.00  0.00     0.056 A 
ATOM     24  C   UNL A   1      32.979  18.918  24.438  1.00  0.00     0.208 A 
ATOM     25  C   UNL A   1      33.755  16.993  23.776  1.00  0.00     0.195 A 
ATOM     26  O   UNL A   1      32.623  17.724  23.887  1.00  0.00    -0.472 OA
ENDBRANCH  19  22
ENDBRANCH  17  18
ENDBRANCH  16  17
ENDBRANCH  13  16
ENDBRANCH   8  12
ENDBRANCH   6   8
ENDBRANCH   5   6
ENDBRANCH   4   5
ENDBRANCH   3   4
ENDBRANCH   2   3
ENDBRANCH   1   2
BRANCH   1  27
ATOM     27  C   UNL A   1      33.642  28.937  26.440  1.00  0.00     0.188 C 
BRANCH  27  28
ATOM     28  O   UNL A   1      32.753  29.775  27.178  1.00  0.00    -0.376 OA
BRANCH  28  29
ATOM     29  C   UNL A   1      31.823  30.544  26.441  1.00  0.00     0.202 C 
BRANCH  29  30
ATOM     30  C   UNL A   1      31.735  32.033  26.803  1.00  0.00     0.261 C 
BRANCH  30  31
ATOM     31  O   UNL A   1      32.976  32.745  26.739  1.00  0.00    -0.460 OA
BRANCH  31  32
ATOM     32  C   UNL A   1      33.316  33.479  27.824  1.00  0.00     0.338 C 
ATOM     33  O   UNL A   1      32.646  34.371  28.339  1.00  0.00    -0.246 OA
BRANCH  32  34
ATOM     34  C   UNL A   1      34.569  32.916  28.381  1.00  0.00     0.060 A 
ATOM     35  C   UNL A   1      34.515  31.749  29.158  1.00  0.00     0.016 A 
ATOM     36  C   UNL A   1      35.806  33.508  28.101  1.00  0.00     0.016 A 
ATOM     37  C   UNL A   1      35.694  31.189  29.671  1.00  0.00     0.010 A 
ATOM     38  C   UNL A   1      36.978  32.949  28.612  1.00  0.00     0.010 A 
ATOM     39  C   UNL A   1      36.930  31.802  29.421  1.00  0.00    -0.014 A 
BRANCH  39  40
ATOM     40  C   UNL A   1      38.171  31.394  30.129  1.00  0.00     0.031 A 
ATOM     41  C   UNL A   1      39.021  30.325  29.500  1.00  0.00     0.074 A 
ATOM     42  C   UNL A   1      38.472  31.860  31.355  1.00  0.00     0.049 A 
ATOM     43  N   UNL A   1      40.035  29.668  29.997  1.00  0.00    -0.248 NA
ATOM     44  C   UNL A   1      38.663  29.933  28.126  1.00  0.00     0.031 C 
ATOM     45  C   UNL A   1      37.731  32.889  32.079  1.00  0.00     0.029 A 
ATOM     46  N   UNL A   1      39.463  31.479  32.230  1.00  0.00    -0.354 N 
ATOM     47  C   UNL A   1      40.413  28.761  29.015  1.00  0.00     0.074 A 
ATOM     48  C   UNL A   1      39.520  28.950  27.894  1.00  0.00     0.031 C 
ATOM     49  C   UNL A   1      38.262  33.024  33.309  1.00  0.00     0.029 A 
ATOM     50  C   UNL A   1      39.358  32.069  33.469  1.00  0.00     0.049 A 
ATOM     51  H   UNL A   1      40.179  30.845  31.993  1.00  0.00     0.167 HD
ATOM     52  C   UNL A   1      41.419  27.855  29.039  1.00  0.00     0.034 A 
ATOM     53  C   UNL A   1      40.040  31.835  34.610  1.00  0.00     0.034 A 
ATOM     54  C   UNL A   1      42.315  27.671  30.145  1.00  0.00     0.049 A 
ATOM     55  C   UNL A   1      41.131  30.790  34.625  1.00  0.00     0.074 A 
ATOM     56  C   UNL A   1      43.405  26.824  30.237  1.00  0.00     0.029 A 
ATOM     57  N   UNL A   1      42.213  28.327  31.362  1.00  0.00    -0.354 N 
ATOM     58  N   UNL A   1      41.570  30.038  33.644  1.00  0.00    -0.248 NA
ATOM     59  C   UNL A   1      41.831  30.574  35.902  1.00  0.00     0.031 C 
ATOM     60  C   UNL A   1      43.943  26.945  31.522  1.00  0.00     0.029 A 
ATOM     61  C   UNL A   1      43.203  27.885  32.220  1.00  0.00     0.049 A 
ATOM     62  H   UNL A   1      41.536  29.007  31.582  1.00  0.00     0.167 HD
ATOM     63  C   UNL A   1      42.612  29.282  34.178  1.00  0.00     0.074 A 
ATOM     64  C   UNL A   1      42.754  29.684  35.560  1.00  0.00     0.031 C 
ATOM     65  C   UNL A   1      43.368  28.327  33.581  1.00  0.00     0.034 A 
BRANCH  52  66
ATOM     66  C   UNL A   1      41.614  27.004  27.814  1.00  0.00     0.023 A 
ATOM     67  C   UNL A   1      42.222  27.559  26.671  1.00  0.00     0.012 A 
ATOM     68  C   UNL A   1      41.239  25.647  27.810  1.00  0.00     0.148 A 
ATOM     69  C   UNL A   1      42.429  26.785  25.531  1.00  0.00     0.002 A 
ATOM     70  C   UNL A   1      41.484  24.870  26.684  1.00  0.00     0.091 A 
ATOM     71  F   UNL A   1      40.637  25.146  28.899  1.00  0.00    -0.205 F 
ATOM     72  C   UNL A   1      42.070  25.440  25.541  1.00  0.00     0.022 A 
BRANCH  70  73
ATOM     73  S   UNL A   1      41.123  23.112  26.623  1.00  0.00     0.127 S 
ATOM     74  O   UNL A   1      41.927  22.685  25.479  1.00  0.00    -0.237 OA
ATOM     75  O   UNL A   1      41.617  22.651  27.921  1.00  0.00    -0.237 OA
ATOM     76  O   UNL A   1      39.681  23.004  26.449  1.00  0.00    -0.744 OA
ENDBRANCH  70  73
ENDBRANCH  52  66
BRANCH  53  77
ATOM     77  C   UNL A   1      39.723  32.608  35.846  1.00  0.00     0.023 A 
ATOM     78  C   UNL A   1      40.408  33.812  36.104  1.00  0.00     0.012 A 
ATOM     79  C   UNL A   1      38.758  32.158  36.769  1.00  0.00     0.148 A 
ATOM     80  C   UNL A   1      40.158  34.538  37.270  1.00  0.00     0.002 A 
ATOM     81  C   UNL A   1      38.477  32.913  37.903  1.00  0.00     0.091 A 
ATOM     82  F   UNL A   1      38.136  30.996  36.522  1.00  0.00    -0.205 F 
ATOM     83  C   UNL A   1      39.187  34.095  38.163  1.00  0.00     0.022 A 
BRANCH  81  84
ATOM     84  S   UNL A   1      37.170  32.474  39.055  1.00  0.00     0.127 S 
ATOM     85  O   UNL A   1      37.466  31.070  39.324  1.00  0.00    -0.237 OA
ATOM     86  O   UNL A   1      37.431  33.382  40.171  1.00  0.00    -0.237 OA
ATOM     87  O   UNL A   1      35.921  32.733  38.349  1.00  0.00    -0.744 OA
ENDBRANCH  81  84
ENDBRANCH  53  77
BRANCH  65  88
ATOM     88  C   UNL A   1      44.435  27.650  34.405  1.00  0.00     0.023 A 
ATOM     89  C   UNL A   1      45.657  28.309  34.638  1.00  0.00     0.012 A 
ATOM     90  C   UNL A   1      44.188  26.409  35.030  1.00  0.00     0.148 A 
ATOM     91  C   UNL A   1      46.628  27.737  35.461  1.00  0.00     0.002 A 
ATOM     92  C   UNL A   1      45.141  25.867  35.885  1.00  0.00     0.091 A 
ATOM     93  F   UNL A   1      43.024  25.791  34.785  1.00  0.00    -0.205 F 
ATOM     94  C   UNL A   1      46.365  26.523  36.094  1.00  0.00     0.022 A 
BRANCH  92  95
ATOM     95  S   UNL A   1      44.855  24.358  36.818  1.00  0.00     0.127 S 
ATOM     96  O   UNL A   1      46.206  23.808  36.916  1.00  0.00    -0.237 OA
ATOM     97  O   UNL A   1      44.314  24.870  38.078  1.00  0.00    -0.237 OA
ATOM     98  O   UNL A   1      43.918  23.568  36.032  1.00  0.00    -0.744 OA
ENDBRANCH  92  95
ENDBRANCH  65  88
ENDBRANCH  39  40
ENDBRANCH  32  34
ENDBRANCH  31  32
ENDBRANCH  30  31
ENDBRANCH  29  30
ENDBRANCH  28  29
ENDBRANCH  27  28
ENDBRANCH   1  27
TORSDOF 26
ENDMDL
MODEL 2
REMARK VINA RESULT:      -9.2      1.695      7.613
REMARK SMILES CC(C)[C@H](NC(=O)CCNC(=O)c1ccoc1)C(=O)OCCOCCOCCOC(=O)c1ccc(-c2c3nc(c(-c4cccc(S(=O)(=O)[O-])c4F)c4ccc([nH]4)c(-c4cccc(S(=O)(=O)[O-])c4F)c4nc(c(-c5cccc(S(=O)(=O)[O-])c5F)c5ccc2[nH]5)C=C4)C=C3)cc1
REMARK SMILES IDX 24 1 23 2 22 3 21 4 20 5 18 6 19 7 4 8 2 9 1 10 3 11 5 12
REMARK SMILES IDX 6 13 7 15 8 16 9 17 10 18 11 19 12 21 13 22 14 23 17 24
REMARK SMILES IDX 15 25 16 26 25 27 26 28 27 29 28 30 29 31 30 32 31 33 32 34
REMARK SMILES IDX 33 35 94 36 34 37 93 38 35 39 36 40 37 41 87 42 38 43 92 44
REMARK SMILES IDX 86 45 88 46 39 47 91 48 85 49 84 50 40 52 72 53 52 54 71 55
REMARK SMILES IDX 53 56 56 57 70 58 89 59 54 60 55 61 69 63 90 64 57 65 41 66
REMARK SMILES IDX 42 67 50 68 43 69 45 70 51 71 44 72 46 73 47 74 48 75 49 76
REMARK SMILES IDX 73 77 74 78 82 79 75 80 77 81 83 82 76 83 78 84 79 85 80 86
REMARK SMILES IDX 81 87 58 88 59 89 67 90 60 91 62 92 68 93 61 94 63 95 64 96
REMARK SMILES IDX 65 97 66 98
REMARK H PARENT 5 14 10 20 88 51 56 62
REMARK Flexibility Score: inf
ROOT
ATOM      1  C   UNL A   1      32.147  27.439  26.576  1.00  0.00     0.188 C 
ENDROOT
BRANCH   1   2
ATOM      2  O   UNL A   1      31.384  26.259  26.833  1.00  0.00    -0.376 OA
BRANCH   2   3
ATOM      3  C   UNL A   1      30.209  25.846  26.129  1.00  0.00     0.202 C 
BRANCH   3   4
ATOM      4  C   UNL A   1      30.520  25.258  24.622  1.00  0.00     0.261 C 
BRANCH   4   5
ATOM      5  O   UNL A   1      31.043  23.853  24.558  1.00  0.00    -0.462 OA
BRANCH   5   6
ATOM      6  C   UNL A   1      32.183  23.302  25.096  1.00  0.00     0.328 C 
ATOM      7  O   UNL A   1      32.163  22.263  25.754  1.00  0.00    -0.250 OA
BRANCH   6   8
ATOM      8  C   UNL A   1      33.639  24.091  24.753  1.00  0.00     0.194 C 
BRANCH   8   9
ATOM      9  C   UNL A   1      34.045  24.045  23.248  1.00  0.00     0.017 C 
ATOM     10  C   UNL A   1      33.458  22.812  22.502  1.00  0.00     0.010 C 
ATOM     11  C   UNL A   1      33.608  25.304  22.509  1.00  0.00     0.010 C 
ENDBRANCH   8   9
BRANCH   8  12
ATOM     12  N   UNL A   1      34.931  24.099  25.497  1.00  0.00    -0.342 N 
ATOM     13  C   UNL A   1      35.671  23.022  25.879  1.00  0.00     0.222 C 
ATOM     14  H   UNL A   1      35.289  24.983  25.740  1.00  0.00     0.164 HD
ATOM     15  O   UNL A   1      36.884  23.057  26.026  1.00  0.00    -0.275 OA
BRANCH  13  16
ATOM     16  C   UNL A   1      34.820  21.922  26.349  1.00  0.00     0.121 C 
BRANCH  16  17
ATOM     17  C   UNL A   1      35.183  20.759  25.391  1.00  0.00     0.126 C 
BRANCH  17  18
ATOM     18  N   UNL A   1      34.076  19.949  24.616  1.00  0.00    -0.351 N 
ATOM     19  C   UNL A   1      33.373  18.767  24.348  1.00  0.00     0.254 C 
ATOM     20  H   UNL A   1      33.670  20.613  24.011  1.00  0.00     0.163 HD
ATOM     21  O   UNL A   1      32.514  18.935  23.474  1.00  0.00    -0.269 OA
BRANCH  19  22
ATOM     22  C   UNL A   1      33.552  17.376  24.833  1.00  0.00     0.077 A 
ATOM     23  C   UNL A   1      32.597  16.343  25.157  1.00  0.00     0.056 A 
ATOM     24  C   UNL A   1      34.741  16.656  24.762  1.00  0.00     0.208 A 
ATOM     25  C   UNL A   1      33.289  15.196  25.476  1.00  0.00     0.195 A 
ATOM     26  O   UNL A   1      34.606  15.384  25.233  1.00  0.00    -0.472 OA
ENDBRANCH  19  22
ENDBRANCH  17  18
ENDBRANCH  16  17
ENDBRANCH  13  16
ENDBRANCH   8  12
ENDBRANCH   6   8
ENDBRANCH   5   6
ENDBRANCH   4   5
ENDBRANCH   3   4
ENDBRANCH   2   3
ENDBRANCH   1   2
BRANCH   1  27
ATOM     27  C   UNL A   1      31.295  28.725  26.461  1.00  0.00     0.188 C 
BRANCH  27  28
ATOM     28  O   UNL A   1      32.037  29.942  26.539  1.00  0.00    -0.376 OA
BRANCH  28  29
ATOM     29  C   UNL A   1      31.413  31.114  26.053  1.00  0.00     0.202 C 
BRANCH  29  30
ATOM     30  C   UNL A   1      31.634  32.391  26.875  1.00  0.00     0.261 C 
BRANCH  30  31
ATOM     31  O   UNL A   1      32.948  32.954  26.778  1.00  0.00    -0.460 OA
BRANCH  31  32
ATOM     32  C   UNL A   1      33.426  33.583  27.876  1.00  0.00     0.338 C 
ATOM     33  O   UNL A   1      32.932  34.563  28.427  1.00  0.00    -0.246 OA
BRANCH  32  34
ATOM     34  C   UNL A   1      34.567  32.789  28.395  1.00  0.00     0.060 A 
ATOM     35  C   UNL A   1      34.419  31.407  28.576  1.00  0.00     0.016 A 
ATOM     36  C   UNL A   1      35.799  33.398  28.660  1.00  0.00     0.016 A 
ATOM     37  C   UNL A   1      35.495  30.637  29.041  1.00  0.00     0.010 A 
ATOM     38  C   UNL A   1      36.870  32.631  29.122  1.00  0.00     0.010 A 
ATOM     39  C   UNL A   1      36.719  31.252  29.341  1.00  0.00    -0.014 A 
BRANCH  39  40
ATOM     40  C   UNL A   1      37.807  30.536  30.056  1.00  0.00     0.031 A 
ATOM     41  C   UNL A   1      38.151  30.988  31.449  1.00  0.00     0.074 A 
ATOM     42  C   UNL A   1      38.558  29.599  29.448  1.00  0.00     0.049 A 
ATOM     43  N   UNL A   1      39.166  30.660  32.204  1.00  0.00    -0.248 NA
ATOM     44  C   UNL A   1      37.229  31.958  32.065  1.00  0.00     0.031 C 
ATOM     45  C   UNL A   1      38.337  29.076  28.102  1.00  0.00     0.029 A 
ATOM     46  N   UNL A   1      39.698  28.960  29.876  1.00  0.00    -0.354 N 
ATOM     47  C   UNL A   1      39.028  31.408  33.366  1.00  0.00     0.074 A 
ATOM     48  C   UNL A   1      37.832  32.208  33.217  1.00  0.00     0.031 C 
ATOM     49  C   UNL A   1      39.339  28.231  27.793  1.00  0.00     0.029 A 
ATOM     50  C   UNL A   1      40.287  28.181  28.906  1.00  0.00     0.049 A 
ATOM     51  H   UNL A   1      40.059  29.051  30.788  1.00  0.00     0.167 HD
ATOM     52  C   UNL A   1      39.820  31.425  34.464  1.00  0.00     0.034 A 
ATOM     53  C   UNL A   1      41.473  27.536  28.903  1.00  0.00     0.034 A 
ATOM     54  C   UNL A   1      41.001  30.626  34.620  1.00  0.00     0.049 A 
ATOM     55  C   UNL A   1      42.360  27.602  30.124  1.00  0.00     0.074 A 
ATOM     56  C   UNL A   1      41.832  30.525  35.721  1.00  0.00     0.029 A 
ATOM     57  N   UNL A   1      41.535  29.805  33.639  1.00  0.00    -0.354 N 
ATOM     58  N   UNL A   1      42.147  28.202  31.271  1.00  0.00    -0.248 NA
ATOM     59  C   UNL A   1      43.644  26.886  30.056  1.00  0.00     0.031 C 
ATOM     60  C   UNL A   1      42.887  29.667  35.395  1.00  0.00     0.029 A 
ATOM     61  C   UNL A   1      42.699  29.215  34.099  1.00  0.00     0.049 A 
ATOM     62  H   UNL A   1      41.144  29.663  32.747  1.00  0.00     0.167 HD
ATOM     63  C   UNL A   1      43.255  27.915  32.065  1.00  0.00     0.074 A 
ATOM     64  C   UNL A   1      44.125  27.068  31.280  1.00  0.00     0.031 C 
ATOM     65  C   UNL A   1      43.534  28.333  33.325  1.00  0.00     0.034 A 
BRANCH  52  66
ATOM     66  C   UNL A   1      39.416  32.329  35.596  1.00  0.00     0.023 A 
ATOM     67  C   UNL A   1      38.589  31.832  36.623  1.00  0.00     0.012 A 
ATOM     68  C   UNL A   1      39.891  33.653  35.667  1.00  0.00     0.148 A 
ATOM     69  C   UNL A   1      38.217  32.647  37.690  1.00  0.00     0.002 A 
ATOM     70  C   UNL A   1      39.548  34.448  36.755  1.00  0.00     0.091 A 
ATOM     71  F   UNL A   1      40.654  34.114  34.666  1.00  0.00    -0.205 F 
ATOM     72  C   UNL A   1      38.703  33.949  37.761  1.00  0.00     0.022 A 
BRANCH  70  73
ATOM     73  S   UNL A   1      40.180  36.114  36.974  1.00  0.00     0.127 S 
ATOM     74  O   UNL A   1      41.610  35.866  37.151  1.00  0.00    -0.237 OA
ATOM     75  O   UNL A   1      39.823  36.748  35.705  1.00  0.00    -0.237 OA
ATOM     76  O   UNL A   1      39.491  36.656  38.137  1.00  0.00    -0.744 OA
ENDBRANCH  70  73
ENDBRANCH  52  66
BRANCH  53  77
ATOM     77  C   UNL A   1      41.902  26.758  27.705  1.00  0.00     0.023 A 
ATOM     78  C   UNL A   1      42.547  27.421  26.643  1.00  0.00     0.012 A 
ATOM     79  C   UNL A   1      41.669  25.371  27.605  1.00  0.00     0.148 A 
ATOM     80  C   UNL A   1      42.928  26.725  25.494  1.00  0.00     0.002 A 
ATOM     81  C   UNL A   1      42.096  24.675  26.480  1.00  0.00     0.091 A 
ATOM     82  F   UNL A   1      41.028  24.761  28.613  1.00  0.00    -0.205 F 
ATOM     83  C   UNL A   1      42.712  25.352  25.416  1.00  0.00     0.022 A 
BRANCH  81  84
ATOM     84  S   UNL A   1      41.955  22.889  26.339  1.00  0.00     0.127 S 
ATOM     85  O   UNL A   1      40.506  22.701  26.346  1.00  0.00    -0.237 OA
ATOM     86  O   UNL A   1      42.601  22.633  25.053  1.00  0.00    -0.237 OA
ATOM     87  O   UNL A   1      42.667  22.346  27.489  1.00  0.00    -0.744 OA
ENDBRANCH  81  84
ENDBRANCH  53  77
BRANCH  65  88
ATOM     88  C   UNL A   1      44.827  27.875  33.954  1.00  0.00     0.023 A 
ATOM     89  C   UNL A   1      45.967  28.698  33.877  1.00  0.00     0.012 A 
ATOM     90  C   UNL A   1      44.885  26.682  34.703  1.00  0.00     0.148 A 
ATOM     91  C   UNL A   1      47.152  28.332  34.516  1.00  0.00     0.002 A 
ATOM     92  C   UNL A   1      46.054  26.347  35.376  1.00  0.00     0.091 A 
ATOM     93  F   UNL A   1      43.793  25.905  34.754  1.00  0.00    -0.205 F 
ATOM     94  C   UNL A   1      47.192  27.164  35.276  1.00  0.00     0.022 A 
BRANCH  92  95
ATOM     95  S   UNL A   1      46.173  24.914  36.455  1.00  0.00     0.127 S 
ATOM     96  O   UNL A   1      45.866  23.821  35.533  1.00  0.00    -0.237 OA
ATOM     97  O   UNL A   1      47.569  24.969  36.891  1.00  0.00    -0.237 OA
ATOM     98  O   UNL A   1      45.197  25.126  37.516  1.00  0.00    -0.744 OA
ENDBRANCH  92  95
ENDBRANCH  65  88
ENDBRANCH  39  40
ENDBRANCH  32  34
ENDBRANCH  31  32
ENDBRANCH  30  31
ENDBRANCH  29  30
ENDBRANCH  28  29
ENDBRANCH  27  28
ENDBRANCH   1  27
TORSDOF 26
ENDMDL
MODEL 3
REMARK VINA RESULT:      -9.2      2.054      8.348
REMARK SMILES CC(C)[C@H](NC(=O)CCNC(=O)c1ccoc1)C(=O)OCCOCCOCCOC(=O)c1ccc(-c2c3nc(c(-c4cccc(S(=O)(=O)[O-])c4F)c4ccc([nH]4)c(-c4cccc(S(=O)(=O)[O-])c4F)c4nc(c(-c5cccc(S(=O)(=O)[O-])c5F)c5ccc2[nH]5)C=C4)C=C3)cc1
REMARK SMILES IDX 24 1 23 2 22 3 21 4 20 5 18 6 19 7 4 8 2 9 1 10 3 11 5 12
REMARK SMILES IDX 6 13 7 15 8 16 9 17 10 18 11 19 12 21 13 22 14 23 17 24
REMARK SMILES IDX 15 25 16 26 25 27 26 28 27 29 28 30 29 31 30 32 31 33 32 34
REMARK SMILES IDX 33 35 94 36 34 37 93 38 35 39 36 40 37 41 87 42 38 43 92 44
REMARK SMILES IDX 86 45 88 46 39 47 91 48 85 49 84 50 40 52 72 53 52 54 71 55
REMARK SMILES IDX 53 56 56 57 70 58 89 59 54 60 55 61 69 63 90 64 57 65 41 66
REMARK SMILES IDX 42 67 50 68 43 69 45 70 51 71 44 72 46 73 47 74 48 75 49 76
REMARK SMILES IDX 73 77 74 78 82 79 75 80 77 81 83 82 76 83 78 84 79 85 80 86
REMARK SMILES IDX 81 87 58 88 59 89 67 90 60 91 62 92 68 93 61 94 63 95 64 96
REMARK SMILES IDX 65 97 66 98
REMARK H PARENT 5 14 10 20 88 51 56 62
REMARK Flexibility Score: inf
ROOT
ATOM      1  C   UNL A   1      32.096  26.243  26.491  1.00  0.00     0.188 C 
ENDROOT
BRANCH   1   2
ATOM      2  O   UNL A   1      31.290  25.142  26.911  1.00  0.00    -0.376 OA
BRANCH   2   3
ATOM      3  C   UNL A   1      30.632  24.205  26.053  1.00  0.00     0.202 C 
BRANCH   3   4
ATOM      4  C   UNL A   1      31.358  22.727  26.015  1.00  0.00     0.261 C 
BRANCH   4   5
ATOM      5  O   UNL A   1      32.738  22.656  26.599  1.00  0.00    -0.462 OA
BRANCH   5   6
ATOM      6  C   UNL A   1      33.967  22.834  26.006  1.00  0.00     0.328 C 
ATOM      7  O   UNL A   1      34.879  23.447  26.557  1.00  0.00    -0.250 OA
BRANCH   6   8
ATOM      8  C   UNL A   1      34.189  22.107  24.495  1.00  0.00     0.194 C 
BRANCH   8   9
ATOM      9  C   UNL A   1      35.684  21.884  24.113  1.00  0.00     0.017 C 
ATOM     10  C   UNL A   1      36.519  23.197  24.145  1.00  0.00     0.010 C 
ATOM     11  C   UNL A   1      36.354  20.869  25.032  1.00  0.00     0.010 C 
ENDBRANCH   8   9
BRANCH   8  12
ATOM     12  N   UNL A   1      33.495  22.349  23.198  1.00  0.00    -0.342 N 
ATOM     13  C   UNL A   1      33.416  23.520  22.508  1.00  0.00     0.222 C 
ATOM     14  H   UNL A   1      33.043  21.573  22.794  1.00  0.00     0.164 HD
ATOM     15  O   UNL A   1      33.291  23.580  21.294  1.00  0.00    -0.275 OA
BRANCH  13  16
ATOM     16  C   UNL A   1      33.222  24.664  23.409  1.00  0.00     0.121 C 
BRANCH  16  17
ATOM     17  C   UNL A   1      32.234  25.566  22.627  1.00  0.00     0.126 C 
BRANCH  17  18
ATOM     18  N   UNL A   1      32.335  27.138  22.673  1.00  0.00    -0.351 N 
ATOM     19  C   UNL A   1      31.750  28.411  22.704  1.00  0.00     0.254 C 
ATOM     20  H   UNL A   1      33.304  27.317  22.689  1.00  0.00     0.163 HD
ATOM     21  O   UNL A   1      32.606  29.305  22.734  1.00  0.00    -0.269 OA
BRANCH  19  22
ATOM     22  C   UNL A   1      30.339  28.857  22.596  1.00  0.00     0.077 A 
ATOM     23  C   UNL A   1      29.707  29.846  21.755  1.00  0.00     0.056 A 
ATOM     24  C   UNL A   1      29.243  28.150  23.081  1.00  0.00     0.208 A 
ATOM     25  C   UNL A   1      28.351  29.807  21.984  1.00  0.00     0.195 A 
ATOM     26  O   UNL A   1      28.061  28.766  22.798  1.00  0.00    -0.472 OA
ENDBRANCH  19  22
ENDBRANCH  17  18
ENDBRANCH  16  17
ENDBRANCH  13  16
ENDBRANCH   8  12
ENDBRANCH   6   8
ENDBRANCH   5   6
ENDBRANCH   4   5
ENDBRANCH   3   4
ENDBRANCH   2   3
ENDBRANCH   1   2
BRANCH   1  27
ATOM     27  C   UNL A   1      31.292  27.528  26.182  1.00  0.00     0.188 C 
BRANCH  27  28
ATOM     28  O   UNL A   1      31.820  28.718  26.768  1.00  0.00    -0.376 OA
BRANCH  28  29
ATOM     29  C   UNL A   1      31.680  29.919  26.035  1.00  0.00     0.202 C 
BRANCH  29  30
ATOM     30  C   UNL A   1      31.897  31.222  26.819  1.00  0.00     0.261 C 
BRANCH  30  31
ATOM     31  O   UNL A   1      33.138  31.887  26.554  1.00  0.00    -0.460 OA
BRANCH  31  32
ATOM     32  C   UNL A   1      33.649  32.646  27.550  1.00  0.00     0.338 C 
ATOM     33  O   UNL A   1      33.172  33.689  27.991  1.00  0.00    -0.246 OA
BRANCH  32  34
ATOM     34  C   UNL A   1      34.805  31.918  28.130  1.00  0.00     0.060 A 
ATOM     35  C   UNL A   1      34.728  30.529  28.303  1.00  0.00     0.016 A 
ATOM     36  C   UNL A   1      35.984  32.596  28.459  1.00  0.00     0.016 A 
ATOM     37  C   UNL A   1      35.822  29.822  28.825  1.00  0.00     0.010 A 
ATOM     38  C   UNL A   1      37.071  31.892  28.978  1.00  0.00     0.010 A 
ATOM     39  C   UNL A   1      36.990  30.506  29.189  1.00  0.00    -0.014 A 
BRANCH  39  40
ATOM     40  C   UNL A   1      38.079  29.852  29.961  1.00  0.00     0.031 A 
ATOM     41  C   UNL A   1      38.340  30.339  31.360  1.00  0.00     0.074 A 
ATOM     42  C   UNL A   1      38.898  28.945  29.400  1.00  0.00     0.049 A 
ATOM     43  N   UNL A   1      39.335  30.070  32.162  1.00  0.00    -0.248 NA
ATOM     44  C   UNL A   1      37.347  31.272  31.921  1.00  0.00     0.031 C 
ATOM     45  C   UNL A   1      38.761  28.393  28.054  1.00  0.00     0.029 A 
ATOM     46  N   UNL A   1      40.048  28.366  29.886  1.00  0.00    -0.354 N 
ATOM     47  C   UNL A   1      39.112  30.826  33.306  1.00  0.00     0.074 A 
ATOM     48  C   UNL A   1      37.887  31.566  33.094  1.00  0.00     0.031 C 
ATOM     49  C   UNL A   1      39.814  27.593  27.802  1.00  0.00     0.029 A 
ATOM     50  C   UNL A   1      40.715  27.603  28.954  1.00  0.00     0.049 A 
ATOM     51  H   UNL A   1      40.364  28.487  30.811  1.00  0.00     0.167 HD
ATOM     52  C   UNL A   1      39.853  30.896  34.436  1.00  0.00     0.034 A 
ATOM     53  C   UNL A   1      41.929  27.016  29.012  1.00  0.00     0.034 A 
ATOM     54  C   UNL A   1      41.064  30.156  34.655  1.00  0.00     0.049 A 
ATOM     55  C   UNL A   1      42.757  27.140  30.269  1.00  0.00     0.074 A 
ATOM     56  C   UNL A   1      41.850  30.110  35.793  1.00  0.00     0.029 A 
ATOM     57  N   UNL A   1      41.678  29.349  33.711  1.00  0.00    -0.354 N 
ATOM     58  N   UNL A   1      42.467  27.745  31.396  1.00  0.00    -0.248 NA
ATOM     59  C   UNL A   1      44.076  26.486  30.267  1.00  0.00     0.031 C 
ATOM     60  C   UNL A   1      42.957  29.299  35.525  1.00  0.00     0.029 A 
ATOM     61  C   UNL A   1      42.847  28.821  34.229  1.00  0.00     0.049 A 
ATOM     62  H   UNL A   1      41.333  29.176  32.805  1.00  0.00     0.167 HD
ATOM     63  C   UNL A   1      43.551  27.522  32.241  1.00  0.00     0.074 A 
ATOM     64  C   UNL A   1      44.494  26.707  31.507  1.00  0.00     0.031 C 
ATOM     65  C   UNL A   1      43.756  27.970  33.506  1.00  0.00     0.034 A 
BRANCH  52  66
ATOM     66  C   UNL A   1      39.358  31.795  35.536  1.00  0.00     0.023 A 
ATOM     67  C   UNL A   1      38.430  31.301  36.474  1.00  0.00     0.012 A 
ATOM     68  C   UNL A   1      39.846  33.109  35.668  1.00  0.00     0.148 A 
ATOM     69  C   UNL A   1      37.971  32.111  37.511  1.00  0.00     0.002 A 
ATOM     70  C   UNL A   1      39.414  33.898  36.728  1.00  0.00     0.091 A 
ATOM     71  F   UNL A   1      40.708  33.568  34.749  1.00  0.00    -0.205 F 
ATOM     72  C   UNL A   1      38.470  33.404  37.644  1.00  0.00     0.022 A 
BRANCH  70  73
ATOM     73  S   UNL A   1      40.049  35.551  37.026  1.00  0.00     0.127 S 
ATOM     74  O   UNL A   1      39.410  35.888  38.297  1.00  0.00    -0.237 OA
ATOM     75  O   UNL A   1      41.490  35.317  37.112  1.00  0.00    -0.237 OA
ATOM     76  O   UNL A   1      39.632  36.354  35.885  1.00  0.00    -0.744 OA
ENDBRANCH  70  73
ENDBRANCH  52  66
BRANCH  53  77
ATOM     77  C   UNL A   1      42.445  26.243  27.845  1.00  0.00     0.023 A 
ATOM     78  C   UNL A   1      43.328  26.864  26.940  1.00  0.00     0.012 A 
ATOM     79  C   UNL A   1      42.065  24.905  27.622  1.00  0.00     0.148 A 
ATOM     80  C   UNL A   1      43.799  26.177  25.820  1.00  0.00     0.002 A 
ATOM     81  C   UNL A   1      42.578  24.210  26.532  1.00  0.00     0.091 A 
ATOM     82  F   UNL A   1      41.202  24.339  28.479  1.00  0.00    -0.205 F 
ATOM     83  C   UNL A   1      43.433  24.848  25.621  1.00  0.00     0.022 A 
BRANCH  81  84
ATOM     84  S   UNL A   1      42.245  22.466  26.257  1.00  0.00     0.127 S 
ATOM     85  O   UNL A   1      40.788  22.452  26.148  1.00  0.00    -0.237 OA
ATOM     86  O   UNL A   1      42.956  22.215  25.004  1.00  0.00    -0.237 OA
ATOM     87  O   UNL A   1      42.799  21.771  27.412  1.00  0.00    -0.744 OA
ENDBRANCH  81  84
ENDBRANCH  53  77
BRANCH  65  88
ATOM     88  C   UNL A   1      45.040  27.583  34.196  1.00  0.00     0.023 A 
ATOM     89  C   UNL A   1      46.142  28.458  34.155  1.00  0.00     0.012 A 
ATOM     90  C   UNL A   1      45.121  26.404  34.966  1.00  0.00     0.148 A 
ATOM     91  C   UNL A   1      47.314  28.158  34.850  1.00  0.00     0.002 A 
ATOM     92  C   UNL A   1      46.275  26.134  35.693  1.00  0.00     0.091 A 
ATOM     93  F   UNL A   1      44.067  25.577  34.981  1.00  0.00    -0.205 F 
ATOM     94  C   UNL A   1      47.376  27.004  35.628  1.00  0.00     0.022 A 
BRANCH  92  95
ATOM     95  S   UNL A   1      46.414  24.724  36.798  1.00  0.00     0.127 S 
ATOM     96  O   UNL A   1      45.030  24.552  37.237  1.00  0.00    -0.237 OA
ATOM     97  O   UNL A   1      46.904  23.675  35.902  1.00  0.00    -0.237 OA
ATOM     98  O   UNL A   1      47.353  25.117  37.839  1.00  0.00    -0.744 OA
ENDBRANCH  92  95
ENDBRANCH  65  88
ENDBRANCH  39  40
ENDBRANCH  32  34
ENDBRANCH  31  32
ENDBRANCH  30  31
ENDBRANCH  29  30
ENDBRANCH  28  29
ENDBRANCH  27  28
ENDBRANCH   1  27
TORSDOF 26
ENDMDL
