MODEL 1
REMARK VINA RESULT:     -10.1      0.000      0.000
REMARK SMILES [NH3+][C@@]1(C(=O)OCCOCCOCCOC(=O)c2ccc(-c3c4nc(c(-c5cccc(S(=O)(=O)[O-])c5F)c5ccc([nH]5)c(-c5cccc(S(=O)(=O)[O-])c5F)c5nc(c(-c6cccc(S(=O)(=O)[O-])c6F)c6ccc3[nH]6)C=C5)C=C4)cc2)CCC[C@H](Oc2ccc([N+](=O)[O-])c(F)c2)C1
REMARK SMILES IDX 9 1 8 2 7 3 6 4 5 5 3 6 4 7 2 8 80 9 95 10 81 11 83 12 82 13
REMARK SMILES IDX 1 14 84 18 85 19 86 20 94 21 87 22 92 23 88 24 93 25 89 26
REMARK SMILES IDX 90 27 91 28 10 29 11 30 12 31 13 32 14 33 15 34 16 35 17 36
REMARK SMILES IDX 18 37 79 38 19 39 78 40 20 41 21 42 22 43 72 44 23 45 77 46
REMARK SMILES IDX 71 47 73 48 24 49 76 50 70 51 69 52 25 54 57 55 37 56 56 57
REMARK SMILES IDX 38 58 41 59 55 60 74 61 39 62 40 63 54 65 75 66 42 67 26 68
REMARK SMILES IDX 27 69 35 70 28 71 30 72 36 73 29 74 31 75 32 76 33 77 34 78
REMARK SMILES IDX 58 79 59 80 67 81 60 82 62 83 68 84 61 85 63 86 64 87 65 88
REMARK SMILES IDX 66 89 43 90 44 91 52 92 45 93 47 94 53 95 46 96 48 97 49 98
REMARK SMILES IDX 50 99 51 100
REMARK H PARENT 1 15 1 16 1 17 73 53 41 64
REMARK Flexibility Score: inf
ROOT
ATOM      1  C   UNL A   1      34.841  32.261  29.019  1.00  0.00     0.188 C 
ENDROOT
BRANCH   1   2
ATOM      2  O   UNL A   1      35.180  31.013  28.430  1.00  0.00    -0.376 OA
BRANCH   2   3
ATOM      3  C   UNL A   1      34.498  30.582  27.266  1.00  0.00     0.202 C 
BRANCH   3   4
ATOM      4  C   UNL A   1      33.015  30.190  27.371  1.00  0.00     0.261 C 
BRANCH   4   5
ATOM      5  O   UNL A   1      32.451  29.439  26.271  1.00  0.00    -0.459 OA
BRANCH   5   6
ATOM      6  C   UNL A   1      31.808  28.289  26.625  1.00  0.00     0.368 C 
ATOM      7  O   UNL A   1      31.480  28.038  27.780  1.00  0.00    -0.245 OA
BRANCH   6   8
ATOM      8  C   UNL A   1      31.616  27.277  25.436  1.00  0.00     0.196 C 
ATOM      9  C   UNL A   1      32.724  27.319  24.358  1.00  0.00     0.081 C 
ATOM     10  C   UNL A   1      30.261  27.656  24.812  1.00  0.00     0.126 C 
ATOM     11  C   UNL A   1      32.360  26.704  23.003  1.00  0.00     0.011 C 
ATOM     12  C   UNL A   1      29.937  26.953  23.501  1.00  0.00     0.180 C 
ATOM     13  C   UNL A   1      31.042  27.249  22.488  1.00  0.00     0.046 C 
BRANCH   8  14
ATOM     14  N   UNL A   1      31.549  25.887  25.964  1.00  0.00    -0.343 N 
ATOM     15  H   UNL A   1      31.182  25.267  25.242  1.00  0.00     0.345 HD
ATOM     16  H   UNL A   1      30.936  25.862  26.779  1.00  0.00     0.345 HD
ATOM     17  H   UNL A   1      32.484  25.580  26.232  1.00  0.00     0.345 HD
ENDBRANCH   8  14
BRANCH  12  18
ATOM     18  O   UNL A   1      28.694  27.513  23.078  1.00  0.00    -0.490 OA
BRANCH  18  19
ATOM     19  C   UNL A   1      28.641  28.830  22.747  1.00  0.00     0.123 A 
ATOM     20  C   UNL A   1      29.409  29.461  21.769  1.00  0.00     0.054 A 
ATOM     21  C   UNL A   1      27.741  29.573  23.512  1.00  0.00     0.093 A 
ATOM     22  C   UNL A   1      29.296  30.839  21.575  1.00  0.00     0.093 A 
ATOM     23  C   UNL A   1      27.615  30.944  23.315  1.00  0.00     0.204 A 
ATOM     24  C   UNL A   1      28.396  31.579  22.353  1.00  0.00     0.305 A 
ATOM     25  F   UNL A   1      26.737  31.606  24.079  1.00  0.00    -0.199 F 
BRANCH  24  26
ATOM     26  N   UNL A   1      28.285  33.017  22.138  1.00  0.00     0.065 N 
ATOM     27  O   UNL A   1      28.747  33.758  23.019  1.00  0.00    -0.258 OA
ATOM     28  O   UNL A   1      27.780  33.425  21.084  1.00  0.00    -0.258 OA
ENDBRANCH  24  26
ENDBRANCH  18  19
ENDBRANCH  12  18
ENDBRANCH   6   8
ENDBRANCH   5   6
ENDBRANCH   4   5
ENDBRANCH   3   4
ENDBRANCH   2   3
ENDBRANCH   1   2
BRANCH   1  29
ATOM     29  C   UNL A   1      35.396  33.564  28.412  1.00  0.00     0.188 C 
BRANCH  29  30
ATOM     30  O   UNL A   1      34.395  34.412  27.886  1.00  0.00    -0.376 OA
BRANCH  30  31
ATOM     31  C   UNL A   1      33.169  34.446  28.581  1.00  0.00     0.202 C 
BRANCH  31  32
ATOM     32  C   UNL A   1      33.077  35.491  29.701  1.00  0.00     0.261 C 
BRANCH  32  33
ATOM     33  O   UNL A   1      32.636  35.011  30.986  1.00  0.00    -0.460 OA
BRANCH  33  34
ATOM     34  C   UNL A   1      33.376  35.358  32.062  1.00  0.00     0.338 C 
ATOM     35  O   UNL A   1      33.041  36.133  32.950  1.00  0.00    -0.246 OA
BRANCH  34  36
ATOM     36  C   UNL A   1      34.582  34.497  32.121  1.00  0.00     0.060 A 
ATOM     37  C   UNL A   1      34.459  33.195  32.625  1.00  0.00     0.016 A 
ATOM     38  C   UNL A   1      35.830  34.967  31.707  1.00  0.00     0.016 A 
ATOM     39  C   UNL A   1      35.586  32.375  32.747  1.00  0.00     0.010 A 
ATOM     40  C   UNL A   1      36.962  34.148  31.844  1.00  0.00     0.010 A 
ATOM     41  C   UNL A   1      36.854  32.857  32.393  1.00  0.00    -0.014 A 
BRANCH  41  42
ATOM     42  C   UNL A   1      38.072  32.063  32.720  1.00  0.00     0.031 A 
ATOM     43  C   UNL A   1      38.826  32.356  33.993  1.00  0.00     0.074 A 
ATOM     44  C   UNL A   1      38.508  31.079  31.909  1.00  0.00     0.049 A 
ATOM     45  N   UNL A   1      39.908  31.792  34.468  1.00  0.00    -0.248 NA
ATOM     46  C   UNL A   1      38.289  33.431  34.843  1.00  0.00     0.031 C 
ATOM     47  C   UNL A   1      37.883  30.683  30.650  1.00  0.00     0.029 A 
ATOM     48  N   UNL A   1      39.600  30.250  32.019  1.00  0.00    -0.354 N 
ATOM     49  C   UNL A   1      40.198  32.458  35.653  1.00  0.00     0.074 A 
ATOM     50  C   UNL A   1      39.183  33.477  35.819  1.00  0.00     0.031 C 
ATOM     51  C   UNL A   1      38.615  29.704  30.090  1.00  0.00     0.029 A 
ATOM     52  C   UNL A   1      39.773  29.420  30.936  1.00  0.00     0.049 A 
ATOM     53  H   UNL A   1      40.200  30.250  32.799  1.00  0.00     0.167 HD
ATOM     54  C   UNL A   1      41.207  32.240  36.533  1.00  0.00     0.034 A 
ATOM     55  C   UNL A   1      40.760  28.548  30.647  1.00  0.00     0.034 A 
ATOM     56  C   UNL A   1      42.218  31.225  36.380  1.00  0.00     0.049 A 
ATOM     57  C   UNL A   1      41.887  28.342  31.628  1.00  0.00     0.074 A 
ATOM     58  C   UNL A   1      43.249  30.903  37.245  1.00  0.00     0.029 A 
ATOM     59  N   UNL A   1      42.343  30.385  35.285  1.00  0.00    -0.354 N 
ATOM     60  N   UNL A   1      42.078  28.896  32.801  1.00  0.00    -0.248 NA
ATOM     61  C   UNL A   1      42.918  27.358  31.259  1.00  0.00     0.031 C 
ATOM     62  C   UNL A   1      44.020  29.895  36.655  1.00  0.00     0.029 A 
ATOM     63  C   UNL A   1      43.442  29.556  35.444  1.00  0.00     0.049 A 
ATOM     64  H   UNL A   1      41.737  30.377  34.509  1.00  0.00     0.167 HD
ATOM     65  C   UNL A   1      43.227  28.305  33.322  1.00  0.00     0.074 A 
ATOM     66  C   UNL A   1      43.669  27.328  32.350  1.00  0.00     0.031 C 
ATOM     67  C   UNL A   1      43.863  28.558  34.494  1.00  0.00     0.034 A 
BRANCH  54  68
ATOM     68  C   UNL A   1      41.265  33.116  37.759  1.00  0.00     0.023 A 
ATOM     69  C   UNL A   1      40.525  32.768  38.907  1.00  0.00     0.012 A 
ATOM     70  C   UNL A   1      42.099  34.252  37.792  1.00  0.00     0.148 A 
ATOM     71  C   UNL A   1      40.584  33.556  40.056  1.00  0.00     0.002 A 
ATOM     72  C   UNL A   1      42.190  35.004  38.958  1.00  0.00     0.091 A 
ATOM     73  F   UNL A   1      42.781  34.578  36.685  1.00  0.00    -0.205 F 
ATOM     74  C   UNL A   1      41.423  34.666  40.085  1.00  0.00     0.022 A 
BRANCH  72  75
ATOM     75  S   UNL A   1      43.302  36.405  39.123  1.00  0.00     0.127 S 
ATOM     76  O   UNL A   1      43.327  36.593  40.573  1.00  0.00    -0.237 OA
ATOM     77  O   UNL A   1      44.544  35.879  38.556  1.00  0.00    -0.237 OA
ATOM     78  O   UNL A   1      42.699  37.491  38.364  1.00  0.00    -0.744 OA
ENDBRANCH  72  75
ENDBRANCH  54  68
BRANCH  55  79
ATOM     79  C   UNL A   1      40.729  27.777  29.369  1.00  0.00     0.023 A 
ATOM     80  C   UNL A   1      39.833  26.699  29.225  1.00  0.00     0.012 A 
ATOM     81  C   UNL A   1      41.590  28.101  28.304  1.00  0.00     0.148 A 
ATOM     82  C   UNL A   1      39.822  25.936  28.055  1.00  0.00     0.002 A 
ATOM     83  C   UNL A   1      41.531  27.376  27.121  1.00  0.00     0.091 A 
ATOM     84  F   UNL A   1      42.450  29.117  28.469  1.00  0.00    -0.205 F 
ATOM     85  C   UNL A   1      40.662  26.282  27.000  1.00  0.00     0.022 A 
BRANCH  83  86
ATOM     86  S   UNL A   1      42.487  27.823  25.666  1.00  0.00     0.127 S 
ATOM     87  O   UNL A   1      42.160  26.734  24.749  1.00  0.00    -0.237 OA
ATOM     88  O   UNL A   1      41.910  29.120  25.316  1.00  0.00    -0.237 OA
ATOM     89  O   UNL A   1      43.874  27.879  26.108  1.00  0.00    -0.744 OA
ENDBRANCH  83  86
ENDBRANCH  55  79
BRANCH  67  90
ATOM     90  C   UNL A   1      45.091  27.738  34.814  1.00  0.00     0.023 A 
ATOM     91  C   UNL A   1      46.373  28.221  34.482  1.00  0.00     0.012 A 
ATOM     92  C   UNL A   1      44.977  26.497  35.474  1.00  0.00     0.148 A 
ATOM     93  C   UNL A   1      47.512  27.460  34.747  1.00  0.00     0.002 A 
ATOM     94  C   UNL A   1      46.121  25.769  35.785  1.00  0.00     0.091 A 
ATOM     95  F   UNL A   1      43.752  26.040  35.773  1.00  0.00    -0.205 F 
ATOM     96  C   UNL A   1      47.388  26.240  35.405  1.00  0.00     0.022 A 
BRANCH  94  97
ATOM     97  S   UNL A   1      46.062  24.236  36.719  1.00  0.00     0.127 S 
ATOM     98  O   UNL A   1      45.507  24.684  37.994  1.00  0.00    -0.237 OA
ATOM     99  O   UNL A   1      45.154  23.416  35.914  1.00  0.00    -0.237 OA
ATOM    100  O   UNL A   1      47.432  23.744  36.768  1.00  0.00    -0.744 OA
ENDBRANCH  94  97
ENDBRANCH  67  90
ENDBRANCH  41  42
ENDBRANCH  34  36
ENDBRANCH  33  34
ENDBRANCH  32  33
ENDBRANCH  31  32
ENDBRANCH  30  31
ENDBRANCH  29  30
ENDBRANCH   1  29
TORSDOF 24
ENDMDL
MODEL 2
REMARK VINA RESULT:      -9.9      4.868      9.829
REMARK SMILES [NH3+][C@@]1(C(=O)OCCOCCOCCOC(=O)c2ccc(-c3c4nc(c(-c5cccc(S(=O)(=O)[O-])c5F)c5ccc([nH]5)c(-c5cccc(S(=O)(=O)[O-])c5F)c5nc(c(-c6cccc(S(=O)(=O)[O-])c6F)c6ccc3[nH]6)C=C5)C=C4)cc2)CCC[C@H](Oc2ccc([N+](=O)[O-])c(F)c2)C1
REMARK SMILES IDX 9 1 8 2 7 3 6 4 5 5 3 6 4 7 2 8 80 9 95 10 81 11 83 12 82 13
REMARK SMILES IDX 1 14 84 18 85 19 86 20 94 21 87 22 92 23 88 24 93 25 89 26
REMARK SMILES IDX 90 27 91 28 10 29 11 30 12 31 13 32 14 33 15 34 16 35 17 36
REMARK SMILES IDX 18 37 79 38 19 39 78 40 20 41 21 42 22 43 72 44 23 45 77 46
REMARK SMILES IDX 71 47 73 48 24 49 76 50 70 51 69 52 25 54 57 55 37 56 56 57
REMARK SMILES IDX 38 58 41 59 55 60 74 61 39 62 40 63 54 65 75 66 42 67 26 68
REMARK SMILES IDX 27 69 35 70 28 71 30 72 36 73 29 74 31 75 32 76 33 77 34 78
REMARK SMILES IDX 58 79 59 80 67 81 60 82 62 83 68 84 61 85 63 86 64 87 65 88
REMARK SMILES IDX 66 89 43 90 44 91 52 92 45 93 47 94 53 95 46 96 48 97 49 98
REMARK SMILES IDX 50 99 51 100
REMARK H PARENT 1 15 1 16 1 17 73 53 41 64
REMARK Flexibility Score: inf
ROOT
ATOM      1  C   UNL A   1      34.440  26.575  25.230  1.00  0.00     0.188 C 
ENDROOT
BRANCH   1   2
ATOM      2  O   UNL A   1      33.931  27.096  26.451  1.00  0.00    -0.376 OA
BRANCH   2   3
ATOM      3  C   UNL A   1      34.275  28.412  26.845  1.00  0.00     0.202 C 
BRANCH   3   4
ATOM      4  C   UNL A   1      33.206  29.516  26.777  1.00  0.00     0.261 C 
BRANCH   4   5
ATOM      5  O   UNL A   1      32.934  30.092  25.479  1.00  0.00    -0.459 OA
BRANCH   5   6
ATOM      6  C   UNL A   1      31.613  30.159  25.143  1.00  0.00     0.368 C 
ATOM      7  O   UNL A   1      30.846  30.991  25.616  1.00  0.00    -0.245 OA
BRANCH   6   8
ATOM      8  C   UNL A   1      31.146  29.014  24.171  1.00  0.00     0.196 C 
ATOM      9  C   UNL A   1      29.911  29.357  23.303  1.00  0.00     0.081 C 
ATOM     10  C   UNL A   1      30.826  27.823  25.091  1.00  0.00     0.126 C 
ATOM     11  C   UNL A   1      29.167  28.162  22.700  1.00  0.00     0.011 C 
ATOM     12  C   UNL A   1      30.148  26.644  24.407  1.00  0.00     0.180 C 
ATOM     13  C   UNL A   1      28.851  27.121  23.756  1.00  0.00     0.046 C 
BRANCH   8  14
ATOM     14  N   UNL A   1      32.258  28.647  23.252  1.00  0.00    -0.343 N 
ATOM     15  H   UNL A   1      31.923  27.970  22.567  1.00  0.00     0.345 HD
ATOM     16  H   UNL A   1      33.023  28.240  23.789  1.00  0.00     0.345 HD
ATOM     17  H   UNL A   1      32.589  29.483  22.769  1.00  0.00     0.345 HD
ENDBRANCH   8  14
BRANCH  12  18
ATOM     18  O   UNL A   1      29.881  25.711  25.454  1.00  0.00    -0.490 OA
BRANCH  18  19
ATOM     19  C   UNL A   1      30.501  24.502  25.436  1.00  0.00     0.123 A 
ATOM     20  C   UNL A   1      30.935  23.786  26.551  1.00  0.00     0.054 A 
ATOM     21  C   UNL A   1      30.724  23.997  24.154  1.00  0.00     0.093 A 
ATOM     22  C   UNL A   1      31.617  22.579  26.383  1.00  0.00     0.093 A 
ATOM     23  C   UNL A   1      31.391  22.789  23.981  1.00  0.00     0.204 A 
ATOM     24  C   UNL A   1      31.844  22.083  25.092  1.00  0.00     0.305 A 
ATOM     25  F   UNL A   1      31.579  22.354  22.729  1.00  0.00    -0.199 F 
BRANCH  24  26
ATOM     26  N   UNL A   1      32.553  20.820  24.932  1.00  0.00     0.065 N 
ATOM     27  O   UNL A   1      31.877  19.780  24.983  1.00  0.00    -0.258 OA
ATOM     28  O   UNL A   1      33.771  20.843  24.715  1.00  0.00    -0.258 OA
ENDBRANCH  24  26
ENDBRANCH  18  19
ENDBRANCH  12  18
ENDBRANCH   6   8
ENDBRANCH   5   6
ENDBRANCH   4   5
ENDBRANCH   3   4
ENDBRANCH   2   3
ENDBRANCH   1   2
BRANCH   1  29
ATOM     29  C   UNL A   1      33.919  25.222  24.706  1.00  0.00     0.188 C 
BRANCH  29  30
ATOM     30  O   UNL A   1      34.478  24.108  25.370  1.00  0.00    -0.376 OA
BRANCH  30  31
ATOM     31  C   UNL A   1      35.863  24.158  25.631  1.00  0.00     0.202 C 
BRANCH  31  32
ATOM     32  C   UNL A   1      36.709  23.119  24.884  1.00  0.00     0.261 C 
BRANCH  32  33
ATOM     33  O   UNL A   1      38.139  23.281  24.968  1.00  0.00    -0.460 OA
BRANCH  33  34
ATOM     34  C   UNL A   1      38.725  22.990  26.151  1.00  0.00     0.338 C 
ATOM     35  O   UNL A   1      38.866  21.872  26.631  1.00  0.00    -0.246 OA
BRANCH  34  36
ATOM     36  C   UNL A   1      39.365  24.214  26.690  1.00  0.00     0.060 A 
ATOM     37  C   UNL A   1      39.198  24.522  28.047  1.00  0.00     0.016 A 
ATOM     38  C   UNL A   1      40.104  25.068  25.869  1.00  0.00     0.016 A 
ATOM     39  C   UNL A   1      39.742  25.698  28.577  1.00  0.00     0.010 A 
ATOM     40  C   UNL A   1      40.635  26.254  26.398  1.00  0.00     0.010 A 
ATOM     41  C   UNL A   1      40.432  26.594  27.749  1.00  0.00    -0.014 A 
BRANCH  41  42
ATOM     42  C   UNL A   1      40.823  27.936  28.265  1.00  0.00     0.031 A 
ATOM     43  C   UNL A   1      42.284  28.296  28.360  1.00  0.00     0.074 A 
ATOM     44  C   UNL A   1      39.898  28.841  28.640  1.00  0.00     0.049 A 
ATOM     45  N   UNL A   1      42.844  29.402  28.781  1.00  0.00    -0.248 NA
ATOM     46  C   UNL A   1      43.243  27.270  27.919  1.00  0.00     0.031 C 
ATOM     47  C   UNL A   1      38.452  28.636  28.605  1.00  0.00     0.029 A 
ATOM     48  N   UNL A   1      40.045  30.111  29.149  1.00  0.00    -0.354 N 
ATOM     49  C   UNL A   1      44.216  29.197  28.686  1.00  0.00     0.074 A 
ATOM     50  C   UNL A   1      44.404  27.856  28.175  1.00  0.00     0.031 C 
ATOM     51  C   UNL A   1      37.845  29.731  29.095  1.00  0.00     0.029 A 
ATOM     52  C   UNL A   1      38.856  30.705  29.503  1.00  0.00     0.049 A 
ATOM     53  H   UNL A   1      40.919  30.552  29.250  1.00  0.00     0.167 HD
ATOM     54  C   UNL A   1      45.231  30.047  28.983  1.00  0.00     0.034 A 
ATOM     55  C   UNL A   1      38.610  31.886  30.105  1.00  0.00     0.034 A 
ATOM     56  C   UNL A   1      45.054  31.385  29.485  1.00  0.00     0.049 A 
ATOM     57  C   UNL A   1      39.757  32.803  30.451  1.00  0.00     0.074 A 
ATOM     58  C   UNL A   1      46.023  32.331  29.768  1.00  0.00     0.029 A 
ATOM     59  N   UNL A   1      43.834  31.962  29.802  1.00  0.00    -0.354 N 
ATOM     60  N   UNL A   1      41.041  32.641  30.241  1.00  0.00    -0.248 NA
ATOM     61  C   UNL A   1      39.414  34.086  31.085  1.00  0.00     0.031 C 
ATOM     62  C   UNL A   1      45.394  33.464  30.294  1.00  0.00     0.029 A 
ATOM     63  C   UNL A   1      44.027  33.243  30.293  1.00  0.00     0.049 A 
ATOM     64  H   UNL A   1      42.959  31.525  29.693  1.00  0.00     0.167 HD
ATOM     65  C   UNL A   1      41.653  33.812  30.684  1.00  0.00     0.074 A 
ATOM     66  C   UNL A   1      40.594  34.685  31.144  1.00  0.00     0.031 C 
ATOM     67  C   UNL A   1      42.972  34.128  30.717  1.00  0.00     0.034 A 
BRANCH  54  68
ATOM     68  C   UNL A   1      46.639  29.555  28.761  1.00  0.00     0.023 A 
ATOM     69  C   UNL A   1      47.299  29.837  27.547  1.00  0.00     0.012 A 
ATOM     70  C   UNL A   1      47.329  28.865  29.778  1.00  0.00     0.148 A 
ATOM     71  C   UNL A   1      48.608  29.408  27.335  1.00  0.00     0.002 A 
ATOM     72  C   UNL A   1      48.650  28.484  29.576  1.00  0.00     0.091 A 
ATOM     73  F   UNL A   1      46.680  28.590  30.918  1.00  0.00    -0.205 F 
ATOM     74  C   UNL A   1      49.286  28.742  28.351  1.00  0.00     0.022 A 
BRANCH  72  75
ATOM     75  S   UNL A   1      49.636  27.693  30.852  1.00  0.00     0.127 S 
ATOM     76  O   UNL A   1      48.976  26.393  30.973  1.00  0.00    -0.237 OA
ATOM     77  O   UNL A   1      50.961  27.648  30.232  1.00  0.00    -0.237 OA
ATOM     78  O   UNL A   1      49.542  28.551  32.025  1.00  0.00    -0.744 OA
ENDBRANCH  72  75
ENDBRANCH  54  68
BRANCH  55  79
ATOM     79  C   UNL A   1      37.207  32.293  30.411  1.00  0.00     0.023 A 
ATOM     80  C   UNL A   1      36.652  31.996  31.671  1.00  0.00     0.012 A 
ATOM     81  C   UNL A   1      36.420  32.963  29.455  1.00  0.00     0.148 A 
ATOM     82  C   UNL A   1      35.326  32.327  31.960  1.00  0.00     0.002 A 
ATOM     83  C   UNL A   1      35.122  33.344  29.771  1.00  0.00     0.091 A 
ATOM     84  F   UNL A   1      36.961  33.219  28.255  1.00  0.00    -0.205 F 
ATOM     85  C   UNL A   1      34.566  33.010  31.015  1.00  0.00     0.022 A 
BRANCH  83  86
ATOM     86  S   UNL A   1      34.110  34.332  28.664  1.00  0.00     0.127 S 
ATOM     87  O   UNL A   1      34.063  33.491  27.471  1.00  0.00    -0.237 OA
ATOM     88  O   UNL A   1      32.853  34.420  29.406  1.00  0.00    -0.237 OA
ATOM     89  O   UNL A   1      34.811  35.599  28.513  1.00  0.00    -0.744 OA
ENDBRANCH  83  86
ENDBRANCH  55  79
BRANCH  67  90
ATOM     90  C   UNL A   1      43.351  35.496  31.236  1.00  0.00     0.023 A 
ATOM     91  C   UNL A   1      43.532  35.705  32.619  1.00  0.00     0.012 A 
ATOM     92  C   UNL A   1      43.557  36.571  30.348  1.00  0.00     0.148 A 
ATOM     93  C   UNL A   1      43.852  36.970  33.112  1.00  0.00     0.002 A 
ATOM     94  C   UNL A   1      43.931  37.817  30.843  1.00  0.00     0.091 A 
ATOM     95  F   UNL A   1      43.368  36.365  29.036  1.00  0.00    -0.205 F 
ATOM     96  C   UNL A   1      44.061  38.023  32.225  1.00  0.00     0.022 A 
BRANCH  94  97
ATOM     97  S   UNL A   1      44.317  39.202  29.766  1.00  0.00     0.127 S 
ATOM     98  O   UNL A   1      44.702  40.231  30.730  1.00  0.00    -0.237 OA
ATOM     99  O   UNL A   1      45.423  38.675  28.963  1.00  0.00    -0.237 OA
ATOM    100  O   UNL A   1      43.101  39.473  29.011  1.00  0.00    -0.744 OA
ENDBRANCH  94  97
ENDBRANCH  67  90
ENDBRANCH  41  42
ENDBRANCH  34  36
ENDBRANCH  33  34
ENDBRANCH  32  33
ENDBRANCH  31  32
ENDBRANCH  30  31
ENDBRANCH  29  30
ENDBRANCH   1  29
TORSDOF 24
ENDMDL
MODEL 3
REMARK VINA RESULT:      -9.8      2.874      8.137
REMARK SMILES [NH3+][C@@]1(C(=O)OCCOCCOCCOC(=O)c2ccc(-c3c4nc(c(-c5cccc(S(=O)(=O)[O-])c5F)c5ccc([nH]5)c(-c5cccc(S(=O)(=O)[O-])c5F)c5nc(c(-c6cccc(S(=O)(=O)[O-])c6F)c6ccc3[nH]6)C=C5)C=C4)cc2)CCC[C@H](Oc2ccc([N+](=O)[O-])c(F)c2)C1
REMARK SMILES IDX 9 1 8 2 7 3 6 4 5 5 3 6 4 7 2 8 80 9 95 10 81 11 83 12 82 13
REMARK SMILES IDX 1 14 84 18 85 19 86 20 94 21 87 22 92 23 88 24 93 25 89 26
REMARK SMILES IDX 90 27 91 28 10 29 11 30 12 31 13 32 14 33 15 34 16 35 17 36
REMARK SMILES IDX 18 37 79 38 19 39 78 40 20 41 21 42 22 43 72 44 23 45 77 46
REMARK SMILES IDX 71 47 73 48 24 49 76 50 70 51 69 52 25 54 57 55 37 56 56 57
REMARK SMILES IDX 38 58 41 59 55 60 74 61 39 62 40 63 54 65 75 66 42 67 26 68
REMARK SMILES IDX 27 69 35 70 28 71 30 72 36 73 29 74 31 75 32 76 33 77 34 78
REMARK SMILES IDX 58 79 59 80 67 81 60 82 62 83 68 84 61 85 63 86 64 87 65 88
REMARK SMILES IDX 66 89 43 90 44 91 52 92 45 93 47 94 53 95 46 96 48 97 49 98
REMARK SMILES IDX 50 99 51 100
REMARK H PARENT 1 15 1 16 1 17 73 53 41 64
REMARK Flexibility Score: inf
ROOT
ATOM      1  C   UNL A   1      32.394  27.839  26.805  1.00  0.00     0.188 C 
ENDROOT
BRANCH   1   2
ATOM      2  O   UNL A   1      31.342  26.959  27.175  1.00  0.00    -0.376 OA
BRANCH   2   3
ATOM      3  C   UNL A   1      30.396  26.552  26.203  1.00  0.00     0.202 C 
BRANCH   3   4
ATOM      4  C   UNL A   1      30.417  25.100  25.701  1.00  0.00     0.261 C 
BRANCH   4   5
ATOM      5  O   UNL A   1      30.954  24.099  26.597  1.00  0.00    -0.459 OA
BRANCH   5   6
ATOM      6  C   UNL A   1      31.240  22.898  26.016  1.00  0.00     0.368 C 
ATOM      7  O   UNL A   1      30.414  21.998  25.904  1.00  0.00    -0.245 OA
BRANCH   6   8
ATOM      8  C   UNL A   1      32.747  22.740  25.595  1.00  0.00     0.196 C 
ATOM      9  C   UNL A   1      33.774  23.173  26.668  1.00  0.00     0.081 C 
ATOM     10  C   UNL A   1      32.899  23.617  24.339  1.00  0.00     0.126 C 
ATOM     11  C   UNL A   1      35.189  23.461  26.159  1.00  0.00     0.011 C 
ATOM     12  C   UNL A   1      34.329  23.802  23.852  1.00  0.00     0.180 C 
ATOM     13  C   UNL A   1      35.167  24.409  24.975  1.00  0.00     0.046 C 
BRANCH   8  14
ATOM     14  N   UNL A   1      33.027  21.320  25.246  1.00  0.00    -0.343 N 
ATOM     15  H   UNL A   1      33.991  21.232  24.925  1.00  0.00     0.345 HD
ATOM     16  H   UNL A   1      32.392  21.020  24.506  1.00  0.00     0.345 HD
ATOM     17  H   UNL A   1      32.889  20.735  26.070  1.00  0.00     0.345 HD
ENDBRANCH   8  14
BRANCH  12  18
ATOM     18  O   UNL A   1      34.230  24.700  22.746  1.00  0.00    -0.490 OA
BRANCH  18  19
ATOM     19  C   UNL A   1      33.244  25.635  22.741  1.00  0.00     0.123 A 
ATOM     20  C   UNL A   1      31.927  25.436  22.328  1.00  0.00     0.054 A 
ATOM     21  C   UNL A   1      33.655  26.898  23.169  1.00  0.00     0.093 A 
ATOM     22  C   UNL A   1      31.030  26.505  22.316  1.00  0.00     0.093 A 
ATOM     23  C   UNL A   1      32.763  27.964  23.172  1.00  0.00     0.204 A 
ATOM     24  C   UNL A   1      31.454  27.772  22.740  1.00  0.00     0.305 A 
ATOM     25  F   UNL A   1      33.213  29.153  23.592  1.00  0.00    -0.199 F 
BRANCH  24  26
ATOM     26  N   UNL A   1      30.506  28.879  22.726  1.00  0.00     0.065 N 
ATOM     27  O   UNL A   1      30.034  29.207  21.626  1.00  0.00    -0.258 OA
ATOM     28  O   UNL A   1      30.189  29.407  23.800  1.00  0.00    -0.258 OA
ENDBRANCH  24  26
ENDBRANCH  18  19
ENDBRANCH  12  18
ENDBRANCH   6   8
ENDBRANCH   5   6
ENDBRANCH   4   5
ENDBRANCH   3   4
ENDBRANCH   2   3
ENDBRANCH   1   2
BRANCH   1  29
ATOM     29  C   UNL A   1      32.315  29.326  27.202  1.00  0.00     0.188 C 
BRANCH  29  30
ATOM     30  O   UNL A   1      33.545  29.854  27.655  1.00  0.00    -0.376 OA
BRANCH  30  31
ATOM     31  C   UNL A   1      33.849  31.174  27.263  1.00  0.00     0.202 C 
BRANCH  31  32
ATOM     32  C   UNL A   1      32.782  32.222  27.608  1.00  0.00     0.261 C 
BRANCH  32  33
ATOM     33  O   UNL A   1      33.118  33.593  27.317  1.00  0.00    -0.460 OA
BRANCH  33  34
ATOM     34  C   UNL A   1      33.281  34.426  28.369  1.00  0.00     0.338 C 
ATOM     35  O   UNL A   1      32.525  35.333  28.696  1.00  0.00    -0.246 OA
BRANCH  34  36
ATOM     36  C   UNL A   1      34.412  33.945  29.199  1.00  0.00     0.060 A 
ATOM     37  C   UNL A   1      35.722  34.202  28.771  1.00  0.00     0.016 A 
ATOM     38  C   UNL A   1      34.193  33.227  30.377  1.00  0.00     0.016 A 
ATOM     39  C   UNL A   1      36.812  33.714  29.500  1.00  0.00     0.010 A 
ATOM     40  C   UNL A   1      35.288  32.726  31.099  1.00  0.00     0.010 A 
ATOM     41  C   UNL A   1      36.605  32.939  30.650  1.00  0.00    -0.014 A 
BRANCH  41  42
ATOM     42  C   UNL A   1      37.754  32.248  31.301  1.00  0.00     0.031 A 
ATOM     43  C   UNL A   1      38.503  31.183  30.540  1.00  0.00     0.074 A 
ATOM     44  C   UNL A   1      38.146  32.562  32.551  1.00  0.00     0.049 A 
ATOM     45  N   UNL A   1      39.526  30.457  30.915  1.00  0.00    -0.248 NA
ATOM     46  C   UNL A   1      38.035  30.900  29.173  1.00  0.00     0.031 C 
ATOM     47  C   UNL A   1      37.519  33.567  33.406  1.00  0.00     0.029 A 
ATOM     48  N   UNL A   1      39.156  32.042  33.327  1.00  0.00    -0.354 N 
ATOM     49  C   UNL A   1      39.807  29.612  29.846  1.00  0.00     0.074 A 
ATOM     50  C   UNL A   1      38.839  29.910  28.812  1.00  0.00     0.031 C 
ATOM     51  C   UNL A   1      38.142  33.575  34.597  1.00  0.00     0.029 A 
ATOM     52  C   UNL A   1      39.195  32.560  34.600  1.00  0.00     0.049 A 
ATOM     53  H   UNL A   1      39.791  31.365  33.001  1.00  0.00     0.167 HD
ATOM     54  C   UNL A   1      40.785  28.681  29.727  1.00  0.00     0.034 A 
ATOM     55  C   UNL A   1      39.972  32.239  35.655  1.00  0.00     0.034 A 
ATOM     56  C   UNL A   1      41.757  28.382  30.746  1.00  0.00     0.049 A 
ATOM     57  C   UNL A   1      41.036  31.180  35.505  1.00  0.00     0.074 A 
ATOM     58  C   UNL A   1      42.812  27.488  30.692  1.00  0.00     0.029 A 
ATOM     59  N   UNL A   1      41.783  28.948  32.011  1.00  0.00    -0.354 N 
ATOM     60  N   UNL A   1      41.365  30.478  34.449  1.00  0.00    -0.248 NA
ATOM     61  C   UNL A   1      41.863  30.898  36.690  1.00  0.00     0.031 C 
ATOM     62  C   UNL A   1      43.451  27.483  31.937  1.00  0.00     0.029 A 
ATOM     63  C   UNL A   1      42.824  28.410  32.752  1.00  0.00     0.049 A 
ATOM     64  H   UNL A   1      41.154  29.632  32.336  1.00  0.00     0.167 HD
ATOM     65  C   UNL A   1      42.455  29.699  34.830  1.00  0.00     0.074 A 
ATOM     66  C   UNL A   1      42.748  30.040  36.206  1.00  0.00     0.031 C 
ATOM     67  C   UNL A   1      43.140  28.776  34.109  1.00  0.00     0.034 A 
BRANCH  54  68
ATOM     68  C   UNL A   1      40.863  27.915  28.429  1.00  0.00     0.023 A 
ATOM     69  C   UNL A   1      41.535  28.474  27.323  1.00  0.00     0.012 A 
ATOM     70  C   UNL A   1      40.323  26.617  28.326  1.00  0.00     0.148 A 
ATOM     71  C   UNL A   1      41.634  27.770  26.123  1.00  0.00     0.002 A 
ATOM     72  C   UNL A   1      40.469  25.904  27.143  1.00  0.00     0.091 A 
ATOM     73  F   UNL A   1      39.672  26.110  29.383  1.00  0.00    -0.205 F 
ATOM     74  C   UNL A   1      41.112  26.483  26.037  1.00  0.00     0.022 A 
BRANCH  72  75
ATOM     75  S   UNL A   1      39.902  24.209  26.957  1.00  0.00     0.127 S 
ATOM     76  O   UNL A   1      40.613  23.791  25.748  1.00  0.00    -0.237 OA
ATOM     77  O   UNL A   1      40.383  23.588  28.191  1.00  0.00    -0.237 OA
ATOM     78  O   UNL A   1      38.453  24.279  26.836  1.00  0.00    -0.744 OA
ENDBRANCH  72  75
ENDBRANCH  54  68
BRANCH  55  79
ATOM     79  C   UNL A   1      39.792  32.942  36.960  1.00  0.00     0.023 A 
ATOM     80  C   UNL A   1      40.586  34.065  37.264  1.00  0.00     0.012 A 
ATOM     81  C   UNL A   1      38.846  32.494  37.902  1.00  0.00     0.148 A 
ATOM     82  C   UNL A   1      40.465  34.708  38.499  1.00  0.00     0.002 A 
ATOM     83  C   UNL A   1      38.689  33.174  39.102  1.00  0.00     0.091 A 
ATOM     84  F   UNL A   1      38.116  31.410  37.601  1.00  0.00    -0.205 F 
ATOM     85  C   UNL A   1      39.510  34.269  39.412  1.00  0.00     0.022 A 
BRANCH  83  86
ATOM     86  S   UNL A   1      37.404  32.757  40.287  1.00  0.00     0.127 S 
ATOM     87  O   UNL A   1      36.214  32.735  39.440  1.00  0.00    -0.237 OA
ATOM     88  O   UNL A   1      37.848  31.447  40.761  1.00  0.00    -0.237 OA
ATOM     89  O   UNL A   1      37.440  33.808  41.294  1.00  0.00    -0.744 OA
ENDBRANCH  83  86
ENDBRANCH  55  79
BRANCH  67  90
ATOM     90  C   UNL A   1      44.308  28.090  34.781  1.00  0.00     0.023 A 
ATOM     91  C   UNL A   1      45.588  28.680  34.753  1.00  0.00     0.012 A 
ATOM     92  C   UNL A   1      44.130  26.871  35.467  1.00  0.00     0.148 A 
ATOM     93  C   UNL A   1      46.680  28.042  35.343  1.00  0.00     0.002 A 
ATOM     94  C   UNL A   1      45.212  26.269  36.102  1.00  0.00     0.091 A 
ATOM     95  F   UNL A   1      42.911  26.312  35.475  1.00  0.00    -0.205 F 
ATOM     96  C   UNL A   1      46.491  26.843  36.025  1.00  0.00     0.022 A 
BRANCH  94  97
ATOM     97  S   UNL A   1      45.041  24.776  37.085  1.00  0.00     0.127 S 
ATOM     98  O   UNL A   1      44.572  23.814  36.090  1.00  0.00    -0.237 OA
ATOM     99  O   UNL A   1      46.410  24.551  37.552  1.00  0.00    -0.237 OA
ATOM    100  O   UNL A   1      44.090  25.099  38.142  1.00  0.00    -0.744 OA
ENDBRANCH  94  97
ENDBRANCH  67  90
ENDBRANCH  41  42
ENDBRANCH  34  36
ENDBRANCH  33  34
ENDBRANCH  32  33
ENDBRANCH  31  32
ENDBRANCH  30  31
ENDBRANCH  29  30
ENDBRANCH   1  29
TORSDOF 24
ENDMDL
