MODEL 1
REMARK VINA RESULT:      -8.2      0.000      0.000
REMARK SMILES CC[C@@H](C)C[C@@H](C)NC(=O)NC1(CC(=O)OCCOCCOCCOC(=O)c2ccc(-c3c4nc(c(-c5cccc(S(=O)(=O)[O-])c5F)c5ccc([nH]5)c(-c5cccc(S(=O)(=O)[O-])c5F)c5nc(c(-c6cccc(S(=O)(=O)[O-])c6F)c6ccc3[nH]6)C=C5)C=C4)cc2)CCC1
REMARK SMILES IDX 19 1 18 2 17 3 16 4 14 5 15 6 13 7 12 8 91 9 93 10 92 11
REMARK SMILES IDX 11 12 8 13 9 14 10 16 6 18 7 19 5 20 3 21 4 22 2 23 1 24
REMARK SMILES IDX 20 25 21 26 22 27 23 28 24 29 25 30 26 31 27 32 28 33 29 34
REMARK SMILES IDX 90 35 30 36 89 37 31 38 32 39 33 40 83 41 34 42 88 43 82 44
REMARK SMILES IDX 84 45 35 46 87 47 81 48 80 49 36 51 68 52 48 53 67 54 49 55
REMARK SMILES IDX 52 56 66 57 85 58 50 59 51 60 65 62 86 63 53 64 37 65 38 66
REMARK SMILES IDX 46 67 39 68 41 69 47 70 40 71 42 72 43 73 44 74 45 75 69 76
REMARK SMILES IDX 70 77 78 78 71 79 73 80 79 81 72 82 74 83 75 84 76 85 77 86
REMARK SMILES IDX 54 87 55 88 63 89 56 90 58 91 64 92 57 93 59 94 60 95 61 96
REMARK SMILES IDX 62 97
REMARK H PARENT 8 15 11 17 84 50 52 61
REMARK Flexibility Score: inf
ROOT
ATOM      1  O   UNL A   1      34.617  31.634  27.810  1.00  0.00    -0.376 OA
ENDROOT
BRANCH   1   2
ATOM      2  C   UNL A   1      35.648  30.677  27.647  1.00  0.00     0.202 C 
BRANCH   2   3
ATOM      3  C   UNL A   1      35.120  29.257  27.421  1.00  0.00     0.261 C 
BRANCH   3   4
ATOM      4  O   UNL A   1      34.196  29.191  26.321  1.00  0.00    -0.463 OA
BRANCH   4   5
ATOM      5  C   UNL A   1      33.038  28.543  26.561  1.00  0.00     0.308 C 
ATOM      6  O   UNL A   1      32.581  28.336  27.680  1.00  0.00    -0.252 OA
BRANCH   5   7
ATOM      7  C   UNL A   1      32.274  28.152  25.328  1.00  0.00     0.151 C 
BRANCH   7   8
ATOM      8  C   UNL A   1      32.124  26.682  24.839  1.00  0.00     0.052 C 
ATOM      9  C   UNL A   1      33.551  26.102  24.786  1.00  0.00     0.029 C 
ATOM     10  C   UNL A   1      31.962  26.230  23.348  1.00  0.00     0.029 C 
ATOM     11  C   UNL A   1      33.475  26.035  23.258  1.00  0.00     0.005 C 
BRANCH   8  12
ATOM     12  N   UNL A   1      31.246  25.936  25.807  1.00  0.00    -0.332 N 
ATOM     13  N   UNL A   1      31.020  23.589  25.320  1.00  0.00    -0.336 N 
ATOM     14  C   UNL A   1      30.742  24.706  25.989  1.00  0.00     0.315 C 
ATOM     15  H   UNL A   1      30.219  23.067  25.084  1.00  0.00     0.165 HD
ATOM     16  O   UNL A   1      29.888  24.590  26.874  1.00  0.00    -0.249 OA
ATOM     17  H   UNL A   1      30.950  26.536  26.530  1.00  0.00     0.165 HD
BRANCH  13  18
ATOM     18  C   UNL A   1      32.268  22.974  24.860  1.00  0.00     0.081 C 
ATOM     19  C   UNL A   1      32.099  22.539  23.401  1.00  0.00     0.031 C 
BRANCH  18  20
ATOM     20  C   UNL A   1      32.622  21.766  25.764  1.00  0.00     0.028 C 
BRANCH  20  21
ATOM     21  C   UNL A   1      34.126  21.536  26.093  1.00  0.00    -0.013 C 
ATOM     22  C   UNL A   1      34.853  22.883  25.986  1.00  0.00     0.008 C 
BRANCH  21  23
ATOM     23  C   UNL A   1      34.763  20.508  25.144  1.00  0.00    -0.000 C 
ATOM     24  C   UNL A   1      33.885  19.386  24.626  1.00  0.00     0.004 C 
ENDBRANCH  21  23
ENDBRANCH  20  21
ENDBRANCH  18  20
ENDBRANCH  13  18
ENDBRANCH   8  12
ENDBRANCH   7   8
ENDBRANCH   5   7
ENDBRANCH   4   5
ENDBRANCH   3   4
ENDBRANCH   2   3
ENDBRANCH   1   2
BRANCH   1  25
ATOM     25  C   UNL A   1      34.931  33.027  27.774  1.00  0.00     0.188 C 
BRANCH  25  26
ATOM     26  C   UNL A   1      34.927  33.897  29.042  1.00  0.00     0.188 C 
BRANCH  26  27
ATOM     27  O   UNL A   1      34.221  35.121  28.877  1.00  0.00    -0.376 OA
BRANCH  27  28
ATOM     28  C   UNL A   1      32.862  35.068  29.288  1.00  0.00     0.202 C 
BRANCH  28  29
ATOM     29  C   UNL A   1      32.551  36.128  30.349  1.00  0.00     0.261 C 
BRANCH  29  30
ATOM     30  O   UNL A   1      33.549  36.243  31.382  1.00  0.00    -0.460 OA
BRANCH  30  31
ATOM     31  C   UNL A   1      33.500  35.324  32.367  1.00  0.00     0.338 C 
ATOM     32  O   UNL A   1      32.522  35.046  33.051  1.00  0.00    -0.246 OA
BRANCH  31  33
ATOM     33  C   UNL A   1      34.776  34.583  32.401  1.00  0.00     0.060 A 
ATOM     34  C   UNL A   1      34.763  33.260  32.845  1.00  0.00     0.016 A 
ATOM     35  C   UNL A   1      35.986  35.191  32.073  1.00  0.00     0.016 A 
ATOM     36  C   UNL A   1      35.953  32.549  33.022  1.00  0.00     0.010 A 
ATOM     37  C   UNL A   1      37.183  34.477  32.242  1.00  0.00     0.010 A 
ATOM     38  C   UNL A   1      37.181  33.164  32.753  1.00  0.00    -0.014 A 
BRANCH  38  39
ATOM     39  C   UNL A   1      38.461  32.503  33.132  1.00  0.00     0.031 A 
ATOM     40  C   UNL A   1      39.030  31.438  32.232  1.00  0.00     0.074 A 
ATOM     41  C   UNL A   1      39.114  32.823  34.265  1.00  0.00     0.049 A 
ATOM     42  N   UNL A   1      40.036  30.627  32.434  1.00  0.00    -0.248 NA
ATOM     43  C   UNL A   1      38.368  31.262  30.929  1.00  0.00     0.031 C 
ATOM     44  C   UNL A   1      38.709  33.860  35.211  1.00  0.00     0.029 A 
ATOM     45  N   UNL A   1      40.246  32.279  34.828  1.00  0.00    -0.354 N 
ATOM     46  C   UNL A   1      40.090  29.804  31.315  1.00  0.00     0.074 A 
ATOM     47  C   UNL A   1      39.019  30.220  30.434  1.00  0.00     0.031 C 
ATOM     48  C   UNL A   1      39.560  33.857  36.252  1.00  0.00     0.029 A 
ATOM     49  C   UNL A   1      40.538  32.786  36.072  1.00  0.00     0.049 A 
ATOM     50  H   UNL A   1      40.793  31.592  34.382  1.00  0.00     0.167 HD
ATOM     51  C   UNL A   1      40.953  28.795  31.040  1.00  0.00     0.034 A 
ATOM     52  C   UNL A   1      41.458  32.405  36.982  1.00  0.00     0.034 A 
ATOM     53  C   UNL A   1      42.048  28.407  31.888  1.00  0.00     0.049 A 
ATOM     54  C   UNL A   1      42.391  31.263  36.669  1.00  0.00     0.074 A 
ATOM     55  C   UNL A   1      43.002  27.429  31.668  1.00  0.00     0.029 A 
ATOM     56  N   UNL A   1      42.332  28.971  33.122  1.00  0.00    -0.354 N 
ATOM     57  N   UNL A   1      42.477  30.540  35.579  1.00  0.00    -0.248 NA
ATOM     58  C   UNL A   1      43.367  30.895  37.708  1.00  0.00     0.031 C 
ATOM     59  C   UNL A   1      43.848  27.383  32.782  1.00  0.00     0.029 A 
ATOM     60  C   UNL A   1      43.438  28.353  33.684  1.00  0.00     0.049 A 
ATOM     61  H   UNL A   1      41.824  29.704  33.539  1.00  0.00     0.167 HD
ATOM     62  C   UNL A   1      43.531  29.654  35.787  1.00  0.00     0.074 A 
ATOM     63  C   UNL A   1      44.067  29.945  37.100  1.00  0.00     0.031 C 
ATOM     64  C   UNL A   1      43.999  28.678  34.971  1.00  0.00     0.034 A 
BRANCH  51  65
ATOM     65  C   UNL A   1      40.743  28.035  29.755  1.00  0.00     0.023 A 
ATOM     66  C   UNL A   1      39.650  27.154  29.627  1.00  0.00     0.012 A 
ATOM     67  C   UNL A   1      41.616  28.218  28.665  1.00  0.00     0.148 A 
ATOM     68  C   UNL A   1      39.453  26.436  28.448  1.00  0.00     0.002 A 
ATOM     69  C   UNL A   1      41.387  27.533  27.477  1.00  0.00     0.091 A 
ATOM     70  F   UNL A   1      42.663  29.042  28.812  1.00  0.00    -0.205 F 
ATOM     71  C   UNL A   1      40.315  26.632  27.371  1.00  0.00     0.022 A 
BRANCH  69  72
ATOM     72  S   UNL A   1      42.397  27.780  26.013  1.00  0.00     0.127 S 
ATOM     73  O   UNL A   1      42.200  29.205  25.753  1.00  0.00    -0.237 OA
ATOM     74  O   UNL A   1      43.734  27.428  26.495  1.00  0.00    -0.237 OA
ATOM     75  O   UNL A   1      41.864  26.877  25.003  1.00  0.00    -0.744 OA
ENDBRANCH  69  72
ENDBRANCH  51  65
BRANCH  52  76
ATOM     76  C   UNL A   1      41.544  33.120  38.288  1.00  0.00     0.023 A 
ATOM     77  C   UNL A   1      40.842  32.622  39.403  1.00  0.00     0.012 A 
ATOM     78  C   UNL A   1      42.343  34.271  38.437  1.00  0.00     0.148 A 
ATOM     79  C   UNL A   1      40.919  33.269  40.637  1.00  0.00     0.002 A 
ATOM     80  C   UNL A   1      42.460  34.877  39.682  1.00  0.00     0.091 A 
ATOM     81  F   UNL A   1      42.984  34.743  37.359  1.00  0.00    -0.205 F 
ATOM     82  C   UNL A   1      41.737  34.386  40.781  1.00  0.00     0.022 A 
BRANCH  80  83
ATOM     83  S   UNL A   1      43.585  36.243  39.992  1.00  0.00     0.127 S 
ATOM     84  O   UNL A   1      43.262  37.152  38.894  1.00  0.00    -0.237 OA
ATOM     85  O   UNL A   1      43.149  36.695  41.314  1.00  0.00    -0.237 OA
ATOM     86  O   UNL A   1      44.922  35.669  39.961  1.00  0.00    -0.744 OA
ENDBRANCH  80  83
ENDBRANCH  52  76
BRANCH  64  87
ATOM     87  C   UNL A   1      45.174  27.861  35.449  1.00  0.00     0.023 A 
ATOM     88  C   UNL A   1      46.486  28.276  35.145  1.00  0.00     0.012 A 
ATOM     89  C   UNL A   1      44.982  26.728  36.264  1.00  0.00     0.148 A 
ATOM     90  C   UNL A   1      47.585  27.559  35.618  1.00  0.00     0.002 A 
ATOM     91  C   UNL A   1      46.082  26.046  36.772  1.00  0.00     0.091 A 
ATOM     92  F   UNL A   1      43.727  26.336  36.529  1.00  0.00    -0.205 F 
ATOM     93  C   UNL A   1      47.385  26.452  36.440  1.00  0.00     0.022 A 
BRANCH  91  94
ATOM     94  S   UNL A   1      45.920  24.668  37.913  1.00  0.00     0.127 S 
ATOM     95  O   UNL A   1      45.156  25.271  39.004  1.00  0.00    -0.237 OA
ATOM     96  O   UNL A   1      45.177  23.689  37.118  1.00  0.00    -0.237 OA
ATOM     97  O   UNL A   1      47.278  24.263  38.250  1.00  0.00    -0.744 OA
ENDBRANCH  91  94
ENDBRANCH  64  87
ENDBRANCH  38  39
ENDBRANCH  31  33
ENDBRANCH  30  31
ENDBRANCH  29  30
ENDBRANCH  28  29
ENDBRANCH  27  28
ENDBRANCH  26  27
ENDBRANCH  25  26
ENDBRANCH   1  25
TORSDOF 26
ENDMDL
MODEL 2
REMARK VINA RESULT:      -7.6      1.879      2.154
REMARK SMILES CC[C@@H](C)C[C@@H](C)NC(=O)NC1(CC(=O)OCCOCCOCCOC(=O)c2ccc(-c3c4nc(c(-c5cccc(S(=O)(=O)[O-])c5F)c5ccc([nH]5)c(-c5cccc(S(=O)(=O)[O-])c5F)c5nc(c(-c6cccc(S(=O)(=O)[O-])c6F)c6ccc3[nH]6)C=C5)C=C4)cc2)CCC1
REMARK SMILES IDX 19 1 18 2 17 3 16 4 14 5 15 6 13 7 12 8 91 9 93 10 92 11
REMARK SMILES IDX 11 12 8 13 9 14 10 16 6 18 7 19 5 20 3 21 4 22 2 23 1 24
REMARK SMILES IDX 20 25 21 26 22 27 23 28 24 29 25 30 26 31 27 32 28 33 29 34
REMARK SMILES IDX 90 35 30 36 89 37 31 38 32 39 33 40 83 41 34 42 88 43 82 44
REMARK SMILES IDX 84 45 35 46 87 47 81 48 80 49 36 51 68 52 48 53 67 54 49 55
REMARK SMILES IDX 52 56 66 57 85 58 50 59 51 60 65 62 86 63 53 64 37 65 38 66
REMARK SMILES IDX 46 67 39 68 41 69 47 70 40 71 42 72 43 73 44 74 45 75 69 76
REMARK SMILES IDX 70 77 78 78 71 79 73 80 79 81 72 82 74 83 75 84 76 85 77 86
REMARK SMILES IDX 54 87 55 88 63 89 56 90 58 91 64 92 57 93 59 94 60 95 61 96
REMARK SMILES IDX 62 97
REMARK H PARENT 8 15 11 17 84 50 52 61
REMARK Flexibility Score: inf
ROOT
ATOM      1  O   UNL A   1      34.825  31.432  27.845  1.00  0.00    -0.376 OA
ENDROOT
BRANCH   1   2
ATOM      2  C   UNL A   1      35.747  30.380  27.627  1.00  0.00     0.202 C 
BRANCH   2   3
ATOM      3  C   UNL A   1      35.070  29.038  27.334  1.00  0.00     0.261 C 
BRANCH   3   4
ATOM      4  O   UNL A   1      34.161  29.122  26.223  1.00  0.00    -0.463 OA
BRANCH   4   5
ATOM      5  C   UNL A   1      32.913  28.662  26.446  1.00  0.00     0.308 C 
ATOM      6  O   UNL A   1      32.406  28.547  27.557  1.00  0.00    -0.252 OA
BRANCH   5   7
ATOM      7  C   UNL A   1      32.124  28.369  25.202  1.00  0.00     0.151 C 
BRANCH   7   8
ATOM      8  C   UNL A   1      31.815  26.929  24.697  1.00  0.00     0.052 C 
ATOM      9  C   UNL A   1      33.173  26.206  24.616  1.00  0.00     0.029 C 
ATOM     10  C   UNL A   1      31.586  26.517  23.203  1.00  0.00     0.029 C 
ATOM     11  C   UNL A   1      33.070  26.168  23.088  1.00  0.00     0.005 C 
BRANCH   8  12
ATOM     12  N   UNL A   1      30.878  26.265  25.669  1.00  0.00    -0.332 N 
ATOM     13  N   UNL A   1      30.398  23.962  25.153  1.00  0.00    -0.336 N 
ATOM     14  C   UNL A   1      30.250  25.092  25.843  1.00  0.00     0.315 C 
ATOM     15  H   UNL A   1      29.543  23.531  24.925  1.00  0.00     0.165 HD
ATOM     16  O   UNL A   1      29.403  25.053  26.741  1.00  0.00    -0.249 OA
ATOM     17  H   UNL A   1      30.658  26.881  26.406  1.00  0.00     0.165 HD
BRANCH  13  18
ATOM     18  C   UNL A   1      31.567  23.227  24.664  1.00  0.00     0.081 C 
ATOM     19  C   UNL A   1      31.351  22.877  23.188  1.00  0.00     0.031 C 
BRANCH  18  20
ATOM     20  C   UNL A   1      31.776  21.948  25.515  1.00  0.00     0.028 C 
BRANCH  20  21
ATOM     21  C   UNL A   1      33.243  21.505  25.789  1.00  0.00    -0.013 C 
ATOM     22  C   UNL A   1      34.145  22.742  25.694  1.00  0.00     0.008 C 
BRANCH  21  23
ATOM     23  C   UNL A   1      33.706  20.428  24.793  1.00  0.00    -0.000 C 
ATOM     24  C   UNL A   1      32.660  19.478  24.243  1.00  0.00     0.004 C 
ENDBRANCH  21  23
ENDBRANCH  20  21
ENDBRANCH  18  20
ENDBRANCH  13  18
ENDBRANCH   8  12
ENDBRANCH   7   8
ENDBRANCH   5   7
ENDBRANCH   4   5
ENDBRANCH   3   4
ENDBRANCH   2   3
ENDBRANCH   1   2
BRANCH   1  25
ATOM     25  C   UNL A   1      35.294  32.779  27.929  1.00  0.00     0.188 C 
BRANCH  25  26
ATOM     26  C   UNL A   1      35.277  33.567  29.250  1.00  0.00     0.188 C 
BRANCH  26  27
ATOM     27  O   UNL A   1      34.650  34.840  29.133  1.00  0.00    -0.376 OA
BRANCH  27  28
ATOM     28  C   UNL A   1      33.243  34.814  29.329  1.00  0.00     0.202 C 
BRANCH  28  29
ATOM     29  C   UNL A   1      32.812  35.769  30.447  1.00  0.00     0.261 C 
BRANCH  29  30
ATOM     30  O   UNL A   1      33.749  35.867  31.537  1.00  0.00    -0.460 OA
BRANCH  30  31
ATOM     31  C   UNL A   1      33.704  34.881  32.455  1.00  0.00     0.338 C 
ATOM     32  O   UNL A   1      32.696  34.433  32.989  1.00  0.00    -0.246 OA
BRANCH  31  33
ATOM     33  C   UNL A   1      35.054  34.306  32.614  1.00  0.00     0.060 A 
ATOM     34  C   UNL A   1      35.170  33.017  33.134  1.00  0.00     0.016 A 
ATOM     35  C   UNL A   1      36.202  35.043  32.328  1.00  0.00     0.016 A 
ATOM     36  C   UNL A   1      36.421  32.469  33.428  1.00  0.00     0.010 A 
ATOM     37  C   UNL A   1      37.461  34.493  32.615  1.00  0.00     0.010 A 
ATOM     38  C   UNL A   1      37.582  33.217  33.202  1.00  0.00    -0.014 A 
BRANCH  38  39
ATOM     39  C   UNL A   1      38.902  32.740  33.700  1.00  0.00     0.031 A 
ATOM     40  C   UNL A   1      39.721  31.818  32.836  1.00  0.00     0.074 A 
ATOM     41  C   UNL A   1      39.375  33.102  34.908  1.00  0.00     0.049 A 
ATOM     42  N   UNL A   1      40.815  31.160  33.123  1.00  0.00    -0.248 NA
ATOM     43  C   UNL A   1      39.235  31.606  31.463  1.00  0.00     0.031 C 
ATOM     44  C   UNL A   1      38.717  34.019  35.835  1.00  0.00     0.029 A 
ATOM     45  N   UNL A   1      40.512  32.708  35.575  1.00  0.00    -0.354 N 
ATOM     46  C   UNL A   1      41.114  30.408  31.993  1.00  0.00     0.074 A 
ATOM     47  C   UNL A   1      40.089  30.699  31.012  1.00  0.00     0.031 C 
ATOM     48  C   UNL A   1      39.443  34.095  36.963  1.00  0.00     0.029 A 
ATOM     49  C   UNL A   1      40.590  33.194  36.859  1.00  0.00     0.049 A 
ATOM     50  H   UNL A   1      41.203  32.134  35.172  1.00  0.00     0.167 HD
ATOM     51  C   UNL A   1      42.147  29.556  31.784  1.00  0.00     0.034 A 
ATOM     52  C   UNL A   1      41.457  32.914  37.854  1.00  0.00     0.034 A 
ATOM     53  C   UNL A   1      43.193  29.299  32.736  1.00  0.00     0.049 A 
ATOM     54  C   UNL A   1      42.584  31.942  37.612  1.00  0.00     0.074 A 
ATOM     55  C   UNL A   1      44.306  28.488  32.593  1.00  0.00     0.029 A 
ATOM     56  N   UNL A   1      43.256  29.840  34.011  1.00  0.00    -0.354 N 
ATOM     57  N   UNL A   1      42.896  31.294  36.516  1.00  0.00    -0.248 NA
ATOM     58  C   UNL A   1      43.491  31.677  38.740  1.00  0.00     0.031 C 
ATOM     59  C   UNL A   1      45.027  28.517  33.793  1.00  0.00     0.029 A 
ATOM     60  C   UNL A   1      44.379  29.370  34.672  1.00  0.00     0.049 A 
ATOM     61  H   UNL A   1      42.599  30.467  34.392  1.00  0.00     0.167 HD
ATOM     62  C   UNL A   1      44.047  30.569  36.812  1.00  0.00     0.074 A 
ATOM     63  C   UNL A   1      44.390  30.875  38.185  1.00  0.00     0.031 C 
ATOM     64  C   UNL A   1      44.745  29.714  36.023  1.00  0.00     0.034 A 
BRANCH  51  65
ATOM     65  C   UNL A   1      42.194  28.835  30.461  1.00  0.00     0.023 A 
ATOM     66  C   UNL A   1      41.377  27.707  30.243  1.00  0.00     0.012 A 
ATOM     67  C   UNL A   1      43.028  29.296  29.424  1.00  0.00     0.148 A 
ATOM     68  C   UNL A   1      41.421  27.024  29.028  1.00  0.00     0.002 A 
ATOM     69  C   UNL A   1      43.033  28.637  28.200  1.00  0.00     0.091 A 
ATOM     70  F   UNL A   1      43.815  30.356  29.657  1.00  0.00    -0.205 F 
ATOM     71  C   UNL A   1      42.242  27.494  28.005  1.00  0.00     0.022 A 
BRANCH  69  72
ATOM     72  S   UNL A   1      43.998  29.215  26.800  1.00  0.00     0.127 S 
ATOM     73  O   UNL A   1      43.525  30.591  26.661  1.00  0.00    -0.237 OA
ATOM     74  O   UNL A   1      45.370  29.089  27.295  1.00  0.00    -0.237 OA
ATOM     75  O   UNL A   1      43.673  28.323  25.696  1.00  0.00    -0.744 OA
ENDBRANCH  69  72
ENDBRANCH  51  65
BRANCH  52  76
ATOM     76  C   UNL A   1      41.294  33.570  39.183  1.00  0.00     0.023 A 
ATOM     77  C   UNL A   1      40.573  32.916  40.200  1.00  0.00     0.012 A 
ATOM     78  C   UNL A   1      41.875  34.826  39.452  1.00  0.00     0.148 A 
ATOM     79  C   UNL A   1      40.418  33.507  41.455  1.00  0.00     0.002 A 
ATOM     80  C   UNL A   1      41.765  35.383  40.720  1.00  0.00     0.091 A 
ATOM     81  F   UNL A   1      42.537  35.444  38.463  1.00  0.00    -0.205 F 
ATOM     82  C   UNL A   1      41.025  34.732  41.719  1.00  0.00     0.022 A 
BRANCH  80  83
ATOM     83  S   UNL A   1      42.616  36.894  41.191  1.00  0.00     0.127 S 
ATOM     84  O   UNL A   1      44.010  36.549  40.922  1.00  0.00    -0.237 OA
ATOM     85  O   UNL A   1      42.032  37.866  40.264  1.00  0.00    -0.237 OA
ATOM     86  O   UNL A   1      42.281  37.117  42.590  1.00  0.00    -0.744 OA
ENDBRANCH  80  83
ENDBRANCH  52  76
BRANCH  64  87
ATOM     87  C   UNL A   1      45.975  29.063  36.603  1.00  0.00     0.023 A 
ATOM     88  C   UNL A   1      45.873  27.804  37.229  1.00  0.00     0.012 A 
ATOM     89  C   UNL A   1      47.244  29.660  36.462  1.00  0.00     0.148 A 
ATOM     90  C   UNL A   1      47.008  27.166  37.730  1.00  0.00     0.002 A 
ATOM     91  C   UNL A   1      48.376  28.997  36.921  1.00  0.00     0.091 A 
ATOM     92  F   UNL A   1      47.321  30.867  35.881  1.00  0.00    -0.205 F 
ATOM     93  C   UNL A   1      48.259  27.755  37.566  1.00  0.00     0.022 A 
BRANCH  91  94
ATOM     94  S   UNL A   1      50.037  29.636  36.669  1.00  0.00     0.127 S 
ATOM     95  O   UNL A   1      50.089  29.769  35.214  1.00  0.00    -0.237 OA
ATOM     96  O   UNL A   1      49.996  30.906  37.396  1.00  0.00    -0.237 OA
ATOM     97  O   UNL A   1      50.939  28.645  37.240  1.00  0.00    -0.744 OA
ENDBRANCH  91  94
ENDBRANCH  64  87
ENDBRANCH  38  39
ENDBRANCH  31  33
ENDBRANCH  30  31
ENDBRANCH  29  30
ENDBRANCH  28  29
ENDBRANCH  27  28
ENDBRANCH  26  27
ENDBRANCH  25  26
ENDBRANCH   1  25
TORSDOF 26
ENDMDL
MODEL 3
REMARK VINA RESULT:      -7.5      6.648     11.476
REMARK SMILES CC[C@@H](C)C[C@@H](C)NC(=O)NC1(CC(=O)OCCOCCOCCOC(=O)c2ccc(-c3c4nc(c(-c5cccc(S(=O)(=O)[O-])c5F)c5ccc([nH]5)c(-c5cccc(S(=O)(=O)[O-])c5F)c5nc(c(-c6cccc(S(=O)(=O)[O-])c6F)c6ccc3[nH]6)C=C5)C=C4)cc2)CCC1
REMARK SMILES IDX 19 1 18 2 17 3 16 4 14 5 15 6 13 7 12 8 91 9 93 10 92 11
REMARK SMILES IDX 11 12 8 13 9 14 10 16 6 18 7 19 5 20 3 21 4 22 2 23 1 24
REMARK SMILES IDX 20 25 21 26 22 27 23 28 24 29 25 30 26 31 27 32 28 33 29 34
REMARK SMILES IDX 90 35 30 36 89 37 31 38 32 39 33 40 83 41 34 42 88 43 82 44
REMARK SMILES IDX 84 45 35 46 87 47 81 48 80 49 36 51 68 52 48 53 67 54 49 55
REMARK SMILES IDX 52 56 66 57 85 58 50 59 51 60 65 62 86 63 53 64 37 65 38 66
REMARK SMILES IDX 46 67 39 68 41 69 47 70 40 71 42 72 43 73 44 74 45 75 69 76
REMARK SMILES IDX 70 77 78 78 71 79 73 80 79 81 72 82 74 83 75 84 76 85 77 86
REMARK SMILES IDX 54 87 55 88 63 89 56 90 58 91 64 92 57 93 59 94 60 95 61 96
REMARK SMILES IDX 62 97
REMARK H PARENT 8 15 11 17 84 50 52 61
REMARK Flexibility Score: inf
ROOT
ATOM      1  O   UNL A   1      38.100  22.518  24.986  1.00  0.00    -0.376 OA
ENDROOT
BRANCH   1   2
ATOM      2  C   UNL A   1      36.917  21.866  24.561  1.00  0.00     0.202 C 
BRANCH   2   3
ATOM      3  C   UNL A   1      35.911  21.648  25.695  1.00  0.00     0.261 C 
BRANCH   3   4
ATOM      4  O   UNL A   1      34.958  22.720  25.788  1.00  0.00    -0.463 OA
BRANCH   4   5
ATOM      5  C   UNL A   1      33.829  22.449  26.473  1.00  0.00     0.308 C 
ATOM      6  O   UNL A   1      33.452  21.319  26.764  1.00  0.00    -0.252 OA
BRANCH   5   7
ATOM      7  C   UNL A   1      33.080  23.661  26.948  1.00  0.00     0.151 C 
BRANCH   7   8
ATOM      8  C   UNL A   1      31.619  23.991  26.525  1.00  0.00     0.052 C 
ATOM      9  C   UNL A   1      30.727  22.943  27.220  1.00  0.00     0.029 C 
ATOM     10  C   UNL A   1      30.943  23.567  25.177  1.00  0.00     0.029 C 
ATOM     11  C   UNL A   1      30.392  22.317  25.863  1.00  0.00     0.005 C 
BRANCH   8  12
ATOM     12  N   UNL A   1      31.291  25.392  26.964  1.00  0.00    -0.332 N 
ATOM     13  N   UNL A   1      31.911  27.090  25.373  1.00  0.00    -0.336 N 
ATOM     14  C   UNL A   1      31.449  26.657  26.544  1.00  0.00     0.315 C 
ATOM     15  H   UNL A   1      32.554  27.831  25.458  1.00  0.00     0.165 HD
ATOM     16  O   UNL A   1      31.156  27.542  27.354  1.00  0.00    -0.249 OA
ATOM     17  H   UNL A   1      30.812  25.377  27.825  1.00  0.00     0.165 HD
BRANCH  13  18
ATOM     18  C   UNL A   1      31.663  26.695  23.984  1.00  0.00     0.081 C 
ATOM     19  C   UNL A   1      30.201  26.257  23.846  1.00  0.00     0.031 C 
BRANCH  18  20
ATOM     20  C   UNL A   1      32.628  25.550  23.584  1.00  0.00     0.028 C 
BRANCH  20  21
ATOM     21  C   UNL A   1      33.579  25.806  22.378  1.00  0.00    -0.013 C 
ATOM     22  C   UNL A   1      33.639  27.318  22.126  1.00  0.00     0.008 C 
BRANCH  21  23
ATOM     23  C   UNL A   1      33.102  25.071  21.114  1.00  0.00    -0.000 C 
ATOM     24  C   UNL A   1      32.038  25.741  20.266  1.00  0.00     0.004 C 
ENDBRANCH  21  23
ENDBRANCH  20  21
ENDBRANCH  18  20
ENDBRANCH  13  18
ENDBRANCH   8  12
ENDBRANCH   7   8
ENDBRANCH   5   7
ENDBRANCH   4   5
ENDBRANCH   3   4
ENDBRANCH   2   3
ENDBRANCH   1   2
BRANCH   1  25
ATOM     25  C   UNL A   1      38.843  21.991  26.086  1.00  0.00     0.188 C 
BRANCH  25  26
ATOM     26  C   UNL A   1      39.543  20.623  26.017  1.00  0.00     0.188 C 
BRANCH  26  27
ATOM     27  O   UNL A   1      40.289  20.318  27.190  1.00  0.00    -0.376 OA
BRANCH  27  28
ATOM     28  C   UNL A   1      41.533  19.679  26.936  1.00  0.00     0.202 C 
BRANCH  28  29
ATOM     29  C   UNL A   1      42.336  20.418  25.861  1.00  0.00     0.261 C 
BRANCH  29  30
ATOM     30  O   UNL A   1      42.911  19.561  24.856  1.00  0.00    -0.460 OA
BRANCH  30  31
ATOM     31  C   UNL A   1      44.255  19.580  24.750  1.00  0.00     0.338 C 
ATOM     32  O   UNL A   1      44.971  18.634  24.442  1.00  0.00    -0.246 OA
BRANCH  31  33
ATOM     33  C   UNL A   1      44.734  20.967  24.912  1.00  0.00     0.060 A 
ATOM     34  C   UNL A   1      45.244  21.352  26.152  1.00  0.00     0.016 A 
ATOM     35  C   UNL A   1      44.620  21.905  23.888  1.00  0.00     0.016 A 
ATOM     36  C   UNL A   1      45.591  22.682  26.405  1.00  0.00     0.010 A 
ATOM     37  C   UNL A   1      44.975  23.240  24.136  1.00  0.00     0.010 A 
ATOM     38  C   UNL A   1      45.427  23.649  25.407  1.00  0.00    -0.014 A 
BRANCH  38  39
ATOM     39  C   UNL A   1      45.590  25.097  25.718  1.00  0.00     0.031 A 
ATOM     40  C   UNL A   1      46.970  25.699  25.700  1.00  0.00     0.074 A 
ATOM     41  C   UNL A   1      44.537  25.876  26.027  1.00  0.00     0.049 A 
ATOM     42  N   UNL A   1      47.367  26.885  26.084  1.00  0.00    -0.248 NA
ATOM     43  C   UNL A   1      48.050  24.843  25.182  1.00  0.00     0.031 C 
ATOM     44  C   UNL A   1      43.141  25.445  26.044  1.00  0.00     0.029 A 
ATOM     45  N   UNL A   1      44.487  27.194  26.422  1.00  0.00    -0.354 N 
ATOM     46  C   UNL A   1      48.746  26.898  25.915  1.00  0.00     0.074 A 
ATOM     47  C   UNL A   1      49.117  25.602  25.386  1.00  0.00     0.031 C 
ATOM     48  C   UNL A   1      42.374  26.468  26.459  1.00  0.00     0.029 A 
ATOM     49  C   UNL A   1      43.228  27.610  26.785  1.00  0.00     0.049 A 
ATOM     50  H   UNL A   1      45.277  27.781  26.442  1.00  0.00     0.167 HD
ATOM     51  C   UNL A   1      49.628  27.895  26.173  1.00  0.00     0.034 A 
ATOM     52  C   UNL A   1      42.812  28.759  27.356  1.00  0.00     0.034 A 
ATOM     53  C   UNL A   1      49.261  29.199  26.655  1.00  0.00     0.049 A 
ATOM     54  C   UNL A   1      43.812  29.846  27.661  1.00  0.00     0.074 A 
ATOM     55  C   UNL A   1      50.081  30.288  26.899  1.00  0.00     0.029 A 
ATOM     56  N   UNL A   1      47.971  29.592  26.975  1.00  0.00    -0.354 N 
ATOM     57  N   UNL A   1      45.102  29.872  27.430  1.00  0.00    -0.248 NA
ATOM     58  C   UNL A   1      43.293  31.072  28.289  1.00  0.00     0.031 C 
ATOM     59  C   UNL A   1      49.289  31.331  27.392  1.00  0.00     0.029 A 
ATOM     60  C   UNL A   1      47.972  30.902  27.427  1.00  0.00     0.049 A 
ATOM     61  H   UNL A   1      47.170  29.025  26.891  1.00  0.00     0.167 HD
ATOM     62  C   UNL A   1      45.544  31.121  27.856  1.00  0.00     0.074 A 
ATOM     63  C   UNL A   1      44.379  31.833  28.340  1.00  0.00     0.031 C 
ATOM     64  C   UNL A   1      46.803  31.625  27.863  1.00  0.00     0.034 A 
BRANCH  51  65
ATOM     65  C   UNL A   1      51.088  27.607  25.934  1.00  0.00     0.023 A 
ATOM     66  C   UNL A   1      51.925  27.262  27.015  1.00  0.00     0.012 A 
ATOM     67  C   UNL A   1      51.622  27.651  24.631  1.00  0.00     0.148 A 
ATOM     68  C   UNL A   1      53.280  27.006  26.807  1.00  0.00     0.002 A 
ATOM     69  C   UNL A   1      52.964  27.351  24.427  1.00  0.00     0.091 A 
ATOM     70  F   UNL A   1      50.817  28.004  23.619  1.00  0.00    -0.205 F 
ATOM     71  C   UNL A   1      53.797  27.042  25.514  1.00  0.00     0.022 A 
BRANCH  69  72
ATOM     72  S   UNL A   1      53.700  27.296  22.789  1.00  0.00     0.127 S 
ATOM     73  O   UNL A   1      55.063  26.862  23.090  1.00  0.00    -0.237 OA
ATOM     74  O   UNL A   1      52.876  26.293  22.112  1.00  0.00    -0.237 OA
ATOM     75  O   UNL A   1      53.572  28.642  22.249  1.00  0.00    -0.744 OA
ENDBRANCH  69  72
ENDBRANCH  51  65
BRANCH  52  76
ATOM     76  C   UNL A   1      41.368  28.944  27.679  1.00  0.00     0.023 A 
ATOM     77  C   UNL A   1      40.453  29.223  26.646  1.00  0.00     0.012 A 
ATOM     78  C   UNL A   1      40.894  28.814  29.000  1.00  0.00     0.148 A 
ATOM     79  C   UNL A   1      39.096  29.388  26.924  1.00  0.00     0.002 A 
ATOM     80  C   UNL A   1      39.534  28.923  29.262  1.00  0.00     0.091 A 
ATOM     81  F   UNL A   1      41.785  28.572  29.972  1.00  0.00    -0.205 F 
ATOM     82  C   UNL A   1      38.634  29.224  28.228  1.00  0.00     0.022 A 
BRANCH  80  83
ATOM     83  S   UNL A   1      38.833  28.605  30.886  1.00  0.00     0.127 S 
ATOM     84  O   UNL A   1      39.508  29.609  31.705  1.00  0.00    -0.237 OA
ATOM     85  O   UNL A   1      37.410  28.857  30.651  1.00  0.00    -0.237 OA
ATOM     86  O   UNL A   1      39.158  27.220  31.193  1.00  0.00    -0.744 OA
ENDBRANCH  80  83
ENDBRANCH  52  76
BRANCH  64  87
ATOM     87  C   UNL A   1      46.999  33.028  28.378  1.00  0.00     0.023 A 
ATOM     88  C   UNL A   1      46.897  34.121  27.494  1.00  0.00     0.012 A 
ATOM     89  C   UNL A   1      47.208  33.272  29.751  1.00  0.00     0.148 A 
ATOM     90  C   UNL A   1      47.029  35.429  27.962  1.00  0.00     0.002 A 
ATOM     91  C   UNL A   1      47.291  34.579  30.218  1.00  0.00     0.091 A 
ATOM     92  F   UNL A   1      47.322  32.220  30.576  1.00  0.00    -0.205 F 
ATOM     93  C   UNL A   1      47.214  35.659  29.323  1.00  0.00     0.022 A 
BRANCH  91  94
ATOM     94  S   UNL A   1      47.435  34.971  31.965  1.00  0.00     0.127 S 
ATOM     95  O   UNL A   1      47.854  36.372  31.923  1.00  0.00    -0.237 OA
ATOM     96  O   UNL A   1      46.069  34.758  32.446  1.00  0.00    -0.237 OA
ATOM     97  O   UNL A   1      48.415  34.041  32.506  1.00  0.00    -0.744 OA
ENDBRANCH  91  94
ENDBRANCH  64  87
ENDBRANCH  38  39
ENDBRANCH  31  33
ENDBRANCH  30  31
ENDBRANCH  29  30
ENDBRANCH  28  29
ENDBRANCH  27  28
ENDBRANCH  26  27
ENDBRANCH  25  26
ENDBRANCH   1  25
TORSDOF 26
ENDMDL
