MODEL 1
REMARK VINA RESULT:      -9.9      0.000      0.000
REMARK SMILES O=C(OCCOCCOCCOC(=O)[C@]1(CCc2ccccc2)C[C@H]2CC[C@@H]1O2)c1ccc(-c2c3nc(c(-c4cccc(S(=O)(=O)[O-])c4F)c4ccc([nH]4)c(-c4cccc(S(=O)(=O)[O-])c4F)c4nc(c(-c5cccc(S(=O)(=O)[O-])c5F)c5ccc2[nH]5)C=C4)C=C3)cc1
REMARK SMILES IDX 7 1 6 2 5 3 4 4 3 5 2 6 1 7 30 8 31 9 92 10 32 11 91 12
REMARK SMILES IDX 33 13 34 14 35 15 85 16 36 17 90 18 84 19 86 20 37 21 89 22
REMARK SMILES IDX 83 23 82 24 38 26 70 27 50 28 69 29 51 30 54 31 68 32 87 33
REMARK SMILES IDX 52 34 53 35 67 37 88 38 55 39 39 40 40 41 48 42 41 43 43 44
REMARK SMILES IDX 49 45 42 46 44 47 45 48 46 49 47 50 71 51 72 52 80 53 73 54
REMARK SMILES IDX 75 55 81 56 74 57 76 58 77 59 78 60 79 61 56 62 57 63 65 64
REMARK SMILES IDX 58 65 60 66 66 67 59 68 61 69 62 70 63 71 64 72 8 73 9 74
REMARK SMILES IDX 10 75 11 76 12 77 13 78 14 79 15 80 24 81 28 82 25 83 27 84
REMARK SMILES IDX 29 85 26 86 16 87 17 88 18 89 19 90 23 91 20 92 22 93 21 94
REMARK H PARENT 86 25 54 36
REMARK Flexibility Score: inf
ROOT
ATOM      1  C   UNL A   1      34.061  31.987  28.005  1.00  0.00     0.188 C 
ENDROOT
BRANCH   1   2
ATOM      2  O   UNL A   1      34.775  33.147  27.618  1.00  0.00    -0.376 OA
BRANCH   2   3
ATOM      3  C   UNL A   1      34.054  34.365  27.632  1.00  0.00     0.202 C 
BRANCH   3   4
ATOM      4  C   UNL A   1      32.691  34.363  28.348  1.00  0.00     0.261 C 
BRANCH   4   5
ATOM      5  O   UNL A   1      32.569  35.125  29.566  1.00  0.00    -0.460 OA
BRANCH   5   6
ATOM      6  C   UNL A   1      33.265  35.080  30.731  1.00  0.00     0.338 C 
ATOM      7  O   UNL A   1      32.984  35.909  31.597  1.00  0.00    -0.246 OA
BRANCH   6   8
ATOM      8  C   UNL A   1      34.449  34.193  30.976  1.00  0.00     0.060 A 
ATOM      9  C   UNL A   1      34.415  33.001  31.694  1.00  0.00     0.016 A 
ATOM     10  C   UNL A   1      35.689  34.592  30.430  1.00  0.00     0.016 A 
ATOM     11  C   UNL A   1      35.543  32.198  31.832  1.00  0.00     0.010 A 
ATOM     12  C   UNL A   1      36.846  33.823  30.615  1.00  0.00     0.010 A 
ATOM     13  C   UNL A   1      36.770  32.630  31.342  1.00  0.00    -0.014 A 
BRANCH  13  14
ATOM     14  C   UNL A   1      37.971  31.960  31.873  1.00  0.00     0.031 A 
ATOM     15  C   UNL A   1      38.488  32.440  33.191  1.00  0.00     0.074 A 
ATOM     16  C   UNL A   1      38.476  30.859  31.294  1.00  0.00     0.049 A 
ATOM     17  N   UNL A   1      39.445  31.946  33.924  1.00  0.00    -0.248 NA
ATOM     18  C   UNL A   1      37.777  33.576  33.805  1.00  0.00     0.031 C 
ATOM     19  C   UNL A   1      37.899  30.200  30.134  1.00  0.00     0.029 A 
ATOM     20  N   UNL A   1      39.580  30.104  31.583  1.00  0.00    -0.354 N 
ATOM     21  C   UNL A   1      39.429  32.685  35.096  1.00  0.00     0.074 A 
ATOM     22  C   UNL A   1      38.385  33.676  34.975  1.00  0.00     0.031 C 
ATOM     23  C   UNL A   1      38.715  29.219  29.719  1.00  0.00     0.029 A 
ATOM     24  C   UNL A   1      39.858  29.164  30.615  1.00  0.00     0.049 A 
ATOM     25  H   UNL A   1      40.119  30.220  32.398  1.00  0.00     0.167 HD
ATOM     26  C   UNL A   1      40.212  32.529  36.185  1.00  0.00     0.034 A 
ATOM     27  C   UNL A   1      40.933  28.368  30.471  1.00  0.00     0.034 A 
ATOM     28  C   UNL A   1      41.283  31.578  36.243  1.00  0.00     0.049 A 
ATOM     29  C   UNL A   1      41.922  28.351  31.602  1.00  0.00     0.074 A 
ATOM     30  C   UNL A   1      42.204  31.374  37.249  1.00  0.00     0.029 A 
ATOM     31  N   UNL A   1      41.594  30.690  35.220  1.00  0.00    -0.354 N 
ATOM     32  N   UNL A   1      41.882  29.028  32.727  1.00  0.00    -0.248 NA
ATOM     33  C   UNL A   1      43.055  27.430  31.490  1.00  0.00     0.031 C 
ATOM     34  C   UNL A   1      43.103  30.393  36.814  1.00  0.00     0.029 A 
ATOM     35  C   UNL A   1      42.715  29.954  35.554  1.00  0.00     0.049 A 
ATOM     36  H   UNL A   1      41.089  30.597  34.380  1.00  0.00     0.167 HD
ATOM     37  C   UNL A   1      42.949  28.573  33.485  1.00  0.00     0.074 A 
ATOM     38  C   UNL A   1      43.622  27.567  32.682  1.00  0.00     0.031 C 
ATOM     39  C   UNL A   1      43.333  28.943  34.732  1.00  0.00     0.034 A 
BRANCH  26  40
ATOM     40  C   UNL A   1      39.948  33.455  37.336  1.00  0.00     0.023 A 
ATOM     41  C   UNL A   1      40.652  34.675  37.436  1.00  0.00     0.012 A 
ATOM     42  C   UNL A   1      39.057  33.083  38.358  1.00  0.00     0.148 A 
ATOM     43  C   UNL A   1      40.498  35.490  38.557  1.00  0.00     0.002 A 
ATOM     44  C   UNL A   1      38.885  33.916  39.456  1.00  0.00     0.091 A 
ATOM     45  F   UNL A   1      38.430  31.903  38.258  1.00  0.00    -0.205 F 
ATOM     46  C   UNL A   1      39.613  35.113  39.564  1.00  0.00     0.022 A 
BRANCH  44  47
ATOM     47  S   UNL A   1      37.748  33.536  40.791  1.00  0.00     0.127 S 
ATOM     48  O   UNL A   1      38.482  32.501  41.517  1.00  0.00    -0.237 OA
ATOM     49  O   UNL A   1      37.652  34.819  41.483  1.00  0.00    -0.237 OA
ATOM     50  O   UNL A   1      36.514  33.089  40.154  1.00  0.00    -0.744 OA
ENDBRANCH  44  47
ENDBRANCH  26  40
BRANCH  27  51
ATOM     51  C   UNL A   1      41.094  27.528  29.250  1.00  0.00     0.023 A 
ATOM     52  C   UNL A   1      40.526  26.243  29.190  1.00  0.00     0.012 A 
ATOM     53  C   UNL A   1      41.793  28.021  28.125  1.00  0.00     0.148 A 
ATOM     54  C   UNL A   1      40.677  25.451  28.049  1.00  0.00     0.002 A 
ATOM     55  C   UNL A   1      41.909  27.241  26.979  1.00  0.00     0.091 A 
ATOM     56  F   UNL A   1      42.328  29.247  28.198  1.00  0.00    -0.205 F 
ATOM     57  C   UNL A   1      41.363  25.949  26.944  1.00  0.00     0.022 A 
BRANCH  55  58
ATOM     58  S   UNL A   1      42.714  27.824  25.480  1.00  0.00     0.127 S 
ATOM     59  O   UNL A   1      44.047  28.165  25.967  1.00  0.00    -0.237 OA
ATOM     60  O   UNL A   1      42.655  26.637  24.624  1.00  0.00    -0.237 OA
ATOM     61  O   UNL A   1      41.918  28.948  25.004  1.00  0.00    -0.744 OA
ENDBRANCH  55  58
ENDBRANCH  27  51
BRANCH  39  62
ATOM     62  C   UNL A   1      44.518  28.230  35.316  1.00  0.00     0.023 A 
ATOM     63  C   UNL A   1      45.818  28.694  35.045  1.00  0.00     0.012 A 
ATOM     64  C   UNL A   1      44.326  27.157  36.206  1.00  0.00     0.148 A 
ATOM     65  C   UNL A   1      46.919  28.078  35.636  1.00  0.00     0.002 A 
ATOM     66  C   UNL A   1      45.423  26.586  36.833  1.00  0.00     0.091 A 
ATOM     67  F   UNL A   1      43.076  26.723  36.427  1.00  0.00    -0.205 F 
ATOM     68  C   UNL A   1      46.721  27.036  36.540  1.00  0.00     0.022 A 
BRANCH  66  69
ATOM     69  S   UNL A   1      45.248  25.321  38.094  1.00  0.00     0.127 S 
ATOM     70  O   UNL A   1      44.636  24.231  37.338  1.00  0.00    -0.237 OA
ATOM     71  O   UNL A   1      46.638  25.085  38.489  1.00  0.00    -0.237 OA
ATOM     72  O   UNL A   1      44.417  25.904  39.138  1.00  0.00    -0.744 OA
ENDBRANCH  66  69
ENDBRANCH  39  62
ENDBRANCH  13  14
ENDBRANCH   6   8
ENDBRANCH   5   6
ENDBRANCH   4   5
ENDBRANCH   3   4
ENDBRANCH   2   3
ENDBRANCH   1   2
BRANCH   1  73
ATOM     73  C   UNL A   1      34.267  30.707  27.197  1.00  0.00     0.188 C 
BRANCH  73  74
ATOM     74  O   UNL A   1      33.190  30.112  26.502  1.00  0.00    -0.376 OA
BRANCH  74  75
ATOM     75  C   UNL A   1      32.065  29.685  27.250  1.00  0.00     0.202 C 
BRANCH  75  76
ATOM     76  C   UNL A   1      31.406  28.318  26.995  1.00  0.00     0.261 C 
BRANCH  76  77
ATOM     77  O   UNL A   1      31.911  27.542  25.894  1.00  0.00    -0.463 OA
BRANCH  77  78
ATOM     78  C   UNL A   1      31.160  26.430  25.614  1.00  0.00     0.314 C 
ATOM     79  O   UNL A   1      30.453  25.877  26.452  1.00  0.00    -0.252 OA
BRANCH  78  80
ATOM     80  C   UNL A   1      31.289  25.954  24.150  1.00  0.00     0.097 C 
ATOM     81  C   UNL A   1      31.138  24.411  24.080  1.00  0.00     0.053 C 
ATOM     82  C   UNL A   1      32.785  26.082  23.798  1.00  0.00     0.136 C 
ATOM     83  C   UNL A   1      32.598  23.930  23.994  1.00  0.00     0.120 C 
ATOM     84  C   UNL A   1      33.172  25.572  22.399  1.00  0.00     0.036 C 
ATOM     85  O   UNL A   1      33.323  25.016  24.621  1.00  0.00    -0.374 OA
ATOM     86  C   UNL A   1      33.087  24.055  22.559  1.00  0.00     0.035 C 
BRANCH  80  87
ATOM     87  C   UNL A   1      30.374  26.724  23.167  1.00  0.00     0.026 C 
BRANCH  87  88
ATOM     88  C   UNL A   1      30.725  28.186  22.840  1.00  0.00     0.037 C 
BRANCH  88  89
ATOM     89  C   UNL A   1      29.638  29.185  23.141  1.00  0.00    -0.048 A 
ATOM     90  C   UNL A   1      28.303  28.917  22.796  1.00  0.00     0.004 A 
ATOM     91  C   UNL A   1      29.945  30.416  23.729  1.00  0.00     0.004 A 
ATOM     92  C   UNL A   1      27.314  29.886  22.984  1.00  0.00     0.000 A 
ATOM     93  C   UNL A   1      28.966  31.399  23.877  1.00  0.00     0.000 A 
ATOM     94  C   UNL A   1      27.651  31.136  23.500  1.00  0.00     0.000 A 
ENDBRANCH  88  89
ENDBRANCH  87  88
ENDBRANCH  80  87
ENDBRANCH  78  80
ENDBRANCH  77  78
ENDBRANCH  76  77
ENDBRANCH  75  76
ENDBRANCH  74  75
ENDBRANCH  73  74
ENDBRANCH   1  73
TORSDOF 23
ENDMDL
MODEL 2
REMARK VINA RESULT:      -9.5      1.364      8.212
REMARK SMILES O=C(OCCOCCOCCOC(=O)[C@]1(CCc2ccccc2)C[C@H]2CC[C@@H]1O2)c1ccc(-c2c3nc(c(-c4cccc(S(=O)(=O)[O-])c4F)c4ccc([nH]4)c(-c4cccc(S(=O)(=O)[O-])c4F)c4nc(c(-c5cccc(S(=O)(=O)[O-])c5F)c5ccc2[nH]5)C=C4)C=C3)cc1
REMARK SMILES IDX 7 1 6 2 5 3 4 4 3 5 2 6 1 7 30 8 31 9 92 10 32 11 91 12
REMARK SMILES IDX 33 13 34 14 35 15 85 16 36 17 90 18 84 19 86 20 37 21 89 22
REMARK SMILES IDX 83 23 82 24 38 26 70 27 50 28 69 29 51 30 54 31 68 32 87 33
REMARK SMILES IDX 52 34 53 35 67 37 88 38 55 39 39 40 40 41 48 42 41 43 43 44
REMARK SMILES IDX 49 45 42 46 44 47 45 48 46 49 47 50 71 51 72 52 80 53 73 54
REMARK SMILES IDX 75 55 81 56 74 57 76 58 77 59 78 60 79 61 56 62 57 63 65 64
REMARK SMILES IDX 58 65 60 66 66 67 59 68 61 69 62 70 63 71 64 72 8 73 9 74
REMARK SMILES IDX 10 75 11 76 12 77 13 78 14 79 15 80 24 81 28 82 25 83 27 84
REMARK SMILES IDX 29 85 26 86 16 87 17 88 18 89 19 90 23 91 20 92 22 93 21 94
REMARK H PARENT 86 25 54 36
REMARK Flexibility Score: inf
ROOT
ATOM      1  C   UNL A   1      34.542  32.887  28.466  1.00  0.00     0.188 C 
ENDROOT
BRANCH   1   2
ATOM      2  O   UNL A   1      34.917  34.045  27.744  1.00  0.00    -0.376 OA
BRANCH   2   3
ATOM      3  C   UNL A   1      34.194  35.228  28.029  1.00  0.00     0.202 C 
BRANCH   3   4
ATOM      4  C   UNL A   1      32.953  35.090  28.929  1.00  0.00     0.261 C 
BRANCH   4   5
ATOM      5  O   UNL A   1      32.963  35.770  30.200  1.00  0.00    -0.460 OA
BRANCH   5   6
ATOM      6  C   UNL A   1      33.351  35.364  31.436  1.00  0.00     0.338 C 
ATOM      7  O   UNL A   1      32.786  35.867  32.408  1.00  0.00    -0.246 OA
BRANCH   6   8
ATOM      8  C   UNL A   1      34.520  34.463  31.703  1.00  0.00     0.060 A 
ATOM      9  C   UNL A   1      34.458  33.267  32.415  1.00  0.00     0.016 A 
ATOM     10  C   UNL A   1      35.776  34.850  31.185  1.00  0.00     0.016 A 
ATOM     11  C   UNL A   1      35.573  32.452  32.574  1.00  0.00     0.010 A 
ATOM     12  C   UNL A   1      36.920  34.067  31.392  1.00  0.00     0.010 A 
ATOM     13  C   UNL A   1      36.815  32.872  32.112  1.00  0.00    -0.014 A 
BRANCH  13  14
ATOM     14  C   UNL A   1      37.997  32.186  32.666  1.00  0.00     0.031 A 
ATOM     15  C   UNL A   1      38.550  31.044  31.875  1.00  0.00     0.074 A 
ATOM     16  C   UNL A   1      38.653  32.666  33.735  1.00  0.00     0.049 A 
ATOM     17  N   UNL A   1      39.639  30.359  32.078  1.00  0.00    -0.248 NA
ATOM     18  C   UNL A   1      37.824  30.681  30.644  1.00  0.00     0.031 C 
ATOM     19  C   UNL A   1      38.308  33.896  34.428  1.00  0.00     0.029 A 
ATOM     20  N   UNL A   1      39.729  32.189  34.432  1.00  0.00    -0.354 N 
ATOM     21  C   UNL A   1      39.748  29.511  30.989  1.00  0.00     0.074 A 
ATOM     22  C   UNL A   1      38.608  29.746  30.134  1.00  0.00     0.031 C 
ATOM     23  C   UNL A   1      39.062  34.020  35.531  1.00  0.00     0.029 A 
ATOM     24  C   UNL A   1      39.969  32.886  35.595  1.00  0.00     0.049 A 
ATOM     25  H   UNL A   1      40.275  31.427  34.132  1.00  0.00     0.167 HD
ATOM     26  C   UNL A   1      40.733  28.627  30.723  1.00  0.00     0.034 A 
ATOM     27  C   UNL A   1      40.819  32.614  36.602  1.00  0.00     0.034 A 
ATOM     28  C   UNL A   1      41.816  28.372  31.628  1.00  0.00     0.049 A 
ATOM     29  C   UNL A   1      41.785  31.484  36.389  1.00  0.00     0.074 A 
ATOM     30  C   UNL A   1      42.831  27.444  31.521  1.00  0.00     0.029 A 
ATOM     31  N   UNL A   1      41.995  29.035  32.835  1.00  0.00    -0.354 N 
ATOM     32  N   UNL A   1      41.908  30.706  35.337  1.00  0.00    -0.248 NA
ATOM     33  C   UNL A   1      42.766  31.230  37.447  1.00  0.00     0.031 C 
ATOM     34  C   UNL A   1      43.599  27.515  32.689  1.00  0.00     0.029 A 
ATOM     35  C   UNL A   1      43.088  28.517  33.504  1.00  0.00     0.049 A 
ATOM     36  H   UNL A   1      41.427  29.768  33.167  1.00  0.00     0.167 HD
ATOM     37  C   UNL A   1      43.015  29.909  35.578  1.00  0.00     0.074 A 
ATOM     38  C   UNL A   1      43.522  30.295  36.884  1.00  0.00     0.031 C 
ATOM     39  C   UNL A   1      43.570  28.954  34.791  1.00  0.00     0.034 A 
BRANCH  26  40
ATOM     40  C   UNL A   1      40.613  27.859  29.439  1.00  0.00     0.023 A 
ATOM     41  C   UNL A   1      39.706  26.781  29.343  1.00  0.00     0.012 A 
ATOM     42  C   UNL A   1      41.452  28.158  28.350  1.00  0.00     0.148 A 
ATOM     43  C   UNL A   1      39.666  25.991  28.194  1.00  0.00     0.002 A 
ATOM     44  C   UNL A   1      41.383  27.386  27.198  1.00  0.00     0.091 A 
ATOM     45  F   UNL A   1      42.331  29.161  28.481  1.00  0.00    -0.205 F 
ATOM     46  C   UNL A   1      40.500  26.295  27.122  1.00  0.00     0.022 A 
BRANCH  44  47
ATOM     47  S   UNL A   1      42.393  27.714  25.751  1.00  0.00     0.127 S 
ATOM     48  O   UNL A   1      41.918  29.037  25.354  1.00  0.00    -0.237 OA
ATOM     49  O   UNL A   1      43.743  27.689  26.311  1.00  0.00    -0.237 OA
ATOM     50  O   UNL A   1      42.102  26.641  24.806  1.00  0.00    -0.744 OA
ENDBRANCH  44  47
ENDBRANCH  26  40
BRANCH  27  51
ATOM     51  C   UNL A   1      40.802  33.433  37.848  1.00  0.00     0.023 A 
ATOM     52  C   UNL A   1      41.675  34.525  37.993  1.00  0.00     0.012 A 
ATOM     53  C   UNL A   1      39.890  33.143  38.887  1.00  0.00     0.148 A 
ATOM     54  C   UNL A   1      41.665  35.294  39.160  1.00  0.00     0.002 A 
ATOM     55  C   UNL A   1      39.860  33.933  40.032  1.00  0.00     0.091 A 
ATOM     56  F   UNL A   1      39.064  32.098  38.733  1.00  0.00    -0.205 F 
ATOM     57  C   UNL A   1      40.758  35.002  40.176  1.00  0.00     0.022 A 
BRANCH  55  58
ATOM     58  S   UNL A   1      38.679  33.678  41.364  1.00  0.00     0.127 S 
ATOM     59  O   UNL A   1      39.010  34.774  42.272  1.00  0.00    -0.237 OA
ATOM     60  O   UNL A   1      37.400  33.821  40.665  1.00  0.00    -0.237 OA
ATOM     61  O   UNL A   1      38.936  32.341  41.881  1.00  0.00    -0.744 OA
ENDBRANCH  55  58
ENDBRANCH  27  51
BRANCH  39  62
ATOM     62  C   UNL A   1      44.810  28.285  35.310  1.00  0.00     0.023 A 
ATOM     63  C   UNL A   1      46.070  28.865  35.076  1.00  0.00     0.012 A 
ATOM     64  C   UNL A   1      44.706  27.130  36.109  1.00  0.00     0.148 A 
ATOM     65  C   UNL A   1      47.218  28.286  35.611  1.00  0.00     0.002 A 
ATOM     66  C   UNL A   1      45.847  26.593  36.683  1.00  0.00     0.091 A 
ATOM     67  F   UNL A   1      43.493  26.588  36.295  1.00  0.00    -0.205 F 
ATOM     68  C   UNL A   1      47.106  27.162  36.426  1.00  0.00     0.022 A 
BRANCH  66  69
ATOM     69  S   UNL A   1      45.778  25.218  37.834  1.00  0.00     0.127 S 
ATOM     70  O   UNL A   1      44.993  24.241  37.084  1.00  0.00    -0.237 OA
ATOM     71  O   UNL A   1      47.193  24.875  37.991  1.00  0.00    -0.237 OA
ATOM     72  O   UNL A   1      45.147  25.735  39.042  1.00  0.00    -0.744 OA
ENDBRANCH  66  69
ENDBRANCH  39  62
ENDBRANCH  13  14
ENDBRANCH   6   8
ENDBRANCH   5   6
ENDBRANCH   4   5
ENDBRANCH   3   4
ENDBRANCH   2   3
ENDBRANCH   1   2
BRANCH   1  73
ATOM     73  C   UNL A   1      34.430  31.566  27.709  1.00  0.00     0.188 C 
BRANCH  73  74
ATOM     74  O   UNL A   1      35.132  30.420  28.148  1.00  0.00    -0.376 OA
BRANCH  74  75
ATOM     75  C   UNL A   1      35.162  29.287  27.297  1.00  0.00     0.202 C 
BRANCH  75  76
ATOM     76  C   UNL A   1      33.895  28.795  26.575  1.00  0.00     0.261 C 
BRANCH  76  77
ATOM     77  O   UNL A   1      33.968  27.516  25.920  1.00  0.00    -0.463 OA
BRANCH  77  78
ATOM     78  C   UNL A   1      33.711  27.571  24.575  1.00  0.00     0.314 C 
ATOM     79  O   UNL A   1      34.170  28.446  23.846  1.00  0.00    -0.252 OA
BRANCH  78  80
ATOM     80  C   UNL A   1      32.799  26.428  24.076  1.00  0.00     0.097 C 
ATOM     81  C   UNL A   1      31.842  26.958  22.975  1.00  0.00     0.053 C 
ATOM     82  C   UNL A   1      31.778  26.184  25.207  1.00  0.00     0.136 C 
ATOM     83  C   UNL A   1      30.531  27.192  23.747  1.00  0.00     0.120 C 
ATOM     84  C   UNL A   1      30.696  25.135  24.892  1.00  0.00     0.036 C 
ATOM     85  O   UNL A   1      30.998  27.401  25.102  1.00  0.00    -0.374 OA
ATOM     86  C   UNL A   1      29.794  25.871  23.903  1.00  0.00     0.035 C 
BRANCH  80  87
ATOM     87  C   UNL A   1      33.573  25.149  23.680  1.00  0.00     0.026 C 
BRANCH  87  88
ATOM     88  C   UNL A   1      34.720  24.680  24.593  1.00  0.00     0.037 C 
BRANCH  88  89
ATOM     89  C   UNL A   1      34.436  23.426  25.380  1.00  0.00    -0.048 A 
ATOM     90  C   UNL A   1      34.596  22.161  24.792  1.00  0.00     0.004 A 
ATOM     91  C   UNL A   1      33.965  23.502  26.694  1.00  0.00     0.004 A 
ATOM     92  C   UNL A   1      34.237  21.005  25.490  1.00  0.00     0.000 A 
ATOM     93  C   UNL A   1      33.566  22.352  27.375  1.00  0.00     0.000 A 
ATOM     94  C   UNL A   1      33.697  21.103  26.771  1.00  0.00     0.000 A 
ENDBRANCH  88  89
ENDBRANCH  87  88
ENDBRANCH  80  87
ENDBRANCH  78  80
ENDBRANCH  77  78
ENDBRANCH  76  77
ENDBRANCH  75  76
ENDBRANCH  74  75
ENDBRANCH  73  74
ENDBRANCH   1  73
TORSDOF 23
ENDMDL
MODEL 3
REMARK VINA RESULT:      -8.8      6.316     10.756
REMARK SMILES O=C(OCCOCCOCCOC(=O)[C@]1(CCc2ccccc2)C[C@H]2CC[C@@H]1O2)c1ccc(-c2c3nc(c(-c4cccc(S(=O)(=O)[O-])c4F)c4ccc([nH]4)c(-c4cccc(S(=O)(=O)[O-])c4F)c4nc(c(-c5cccc(S(=O)(=O)[O-])c5F)c5ccc2[nH]5)C=C4)C=C3)cc1
REMARK SMILES IDX 7 1 6 2 5 3 4 4 3 5 2 6 1 7 30 8 31 9 92 10 32 11 91 12
REMARK SMILES IDX 33 13 34 14 35 15 85 16 36 17 90 18 84 19 86 20 37 21 89 22
REMARK SMILES IDX 83 23 82 24 38 26 70 27 50 28 69 29 51 30 54 31 68 32 87 33
REMARK SMILES IDX 52 34 53 35 67 37 88 38 55 39 39 40 40 41 48 42 41 43 43 44
REMARK SMILES IDX 49 45 42 46 44 47 45 48 46 49 47 50 71 51 72 52 80 53 73 54
REMARK SMILES IDX 75 55 81 56 74 57 76 58 77 59 78 60 79 61 56 62 57 63 65 64
REMARK SMILES IDX 58 65 60 66 66 67 59 68 61 69 62 70 63 71 64 72 8 73 9 74
REMARK SMILES IDX 10 75 11 76 12 77 13 78 14 79 15 80 24 81 28 82 25 83 27 84
REMARK SMILES IDX 29 85 26 86 16 87 17 88 18 89 19 90 23 91 20 92 22 93 21 94
REMARK H PARENT 86 25 54 36
REMARK Flexibility Score: inf
ROOT
ATOM      1  C   UNL A   1      32.483  29.473  26.830  1.00  0.00     0.188 C 
ENDROOT
BRANCH   1   2
ATOM      2  O   UNL A   1      33.723  30.150  26.741  1.00  0.00    -0.376 OA
BRANCH   2   3
ATOM      3  C   UNL A   1      33.968  31.146  27.717  1.00  0.00     0.202 C 
BRANCH   3   4
ATOM      4  C   UNL A   1      35.425  31.611  27.892  1.00  0.00     0.261 C 
BRANCH   4   5
ATOM      5  O   UNL A   1      36.301  30.796  28.696  1.00  0.00    -0.460 OA
BRANCH   5   6
ATOM      6  C   UNL A   1      36.700  30.906  29.990  1.00  0.00     0.338 C 
ATOM      7  O   UNL A   1      36.004  30.367  30.851  1.00  0.00    -0.246 OA
BRANCH   6   8
ATOM      8  C   UNL A   1      37.839  31.764  30.454  1.00  0.00     0.060 A 
ATOM      9  C   UNL A   1      39.021  31.284  31.011  1.00  0.00     0.016 A 
ATOM     10  C   UNL A   1      37.707  33.163  30.306  1.00  0.00     0.016 A 
ATOM     11  C   UNL A   1      40.061  32.136  31.366  1.00  0.00     0.010 A 
ATOM     12  C   UNL A   1      38.723  34.036  30.717  1.00  0.00     0.010 A 
ATOM     13  C   UNL A   1      39.897  33.513  31.272  1.00  0.00    -0.014 A 
BRANCH  13  14
ATOM     14  C   UNL A   1      40.841  34.349  32.037  1.00  0.00     0.031 A 
ATOM     15  C   UNL A   1      42.009  34.909  31.290  1.00  0.00     0.074 A 
ATOM     16  C   UNL A   1      40.578  34.736  33.295  1.00  0.00     0.049 A 
ATOM     17  N   UNL A   1      42.908  35.760  31.694  1.00  0.00    -0.248 NA
ATOM     18  C   UNL A   1      42.131  34.523  29.871  1.00  0.00     0.031 C 
ATOM     19  C   UNL A   1      39.357  34.416  34.017  1.00  0.00     0.029 A 
ATOM     20  N   UNL A   1      41.306  35.467  34.193  1.00  0.00    -0.354 N 
ATOM     21  C   UNL A   1      43.679  36.038  30.578  1.00  0.00     0.074 A 
ATOM     22  C   UNL A   1      43.162  35.253  29.481  1.00  0.00     0.031 C 
ATOM     23  C   UNL A   1      39.465  34.826  35.290  1.00  0.00     0.029 A 
ATOM     24  C   UNL A   1      40.757  35.471  35.456  1.00  0.00     0.049 A 
ATOM     25  H   UNL A   1      42.138  35.940  33.961  1.00  0.00     0.167 HD
ATOM     26  C   UNL A   1      44.719  36.894  30.482  1.00  0.00     0.034 A 
ATOM     27  C   UNL A   1      41.263  35.932  36.614  1.00  0.00     0.034 A 
ATOM     28  C   UNL A   1      45.247  37.607  31.608  1.00  0.00     0.049 A 
ATOM     29  C   UNL A   1      42.543  36.713  36.533  1.00  0.00     0.074 A 
ATOM     30  C   UNL A   1      46.346  38.438  31.667  1.00  0.00     0.029 A 
ATOM     31  N   UNL A   1      44.721  37.535  32.892  1.00  0.00    -0.354 N 
ATOM     32  N   UNL A   1      43.251  37.005  35.465  1.00  0.00    -0.248 NA
ATOM     33  C   UNL A   1      43.062  37.286  37.778  1.00  0.00     0.031 C 
ATOM     34  C   UNL A   1      46.513  38.833  33.000  1.00  0.00     0.029 A 
ATOM     35  C   UNL A   1      45.491  38.283  33.763  1.00  0.00     0.049 A 
ATOM     36  H   UNL A   1      43.917  37.027  33.146  1.00  0.00     0.167 HD
ATOM     37  C   UNL A   1      44.266  37.844  35.897  1.00  0.00     0.074 A 
ATOM     38  C   UNL A   1      44.083  38.005  37.329  1.00  0.00     0.031 C 
ATOM     39  C   UNL A   1      45.252  38.435  35.177  1.00  0.00     0.034 A 
BRANCH  26  40
ATOM     40  C   UNL A   1      45.353  37.026  29.128  1.00  0.00     0.023 A 
ATOM     41  C   UNL A   1      46.208  36.011  28.647  1.00  0.00     0.012 A 
ATOM     42  C   UNL A   1      45.159  38.191  28.363  1.00  0.00     0.148 A 
ATOM     43  C   UNL A   1      46.890  36.174  27.441  1.00  0.00     0.002 A 
ATOM     44  C   UNL A   1      45.817  38.330  27.148  1.00  0.00     0.091 A 
ATOM     45  F   UNL A   1      44.373  39.155  28.859  1.00  0.00    -0.205 F 
ATOM     46  C   UNL A   1      46.692  37.330  26.690  1.00  0.00     0.022 A 
BRANCH  44  47
ATOM     47  S   UNL A   1      45.607  39.767  26.093  1.00  0.00     0.127 S 
ATOM     48  O   UNL A   1      46.164  40.829  26.928  1.00  0.00    -0.237 OA
ATOM     49  O   UNL A   1      46.418  39.412  24.930  1.00  0.00    -0.237 OA
ATOM     50  O   UNL A   1      44.175  39.870  25.833  1.00  0.00    -0.744 OA
ENDBRANCH  44  47
ENDBRANCH  26  40
BRANCH  27  51
ATOM     51  C   UNL A   1      40.549  35.690  37.901  1.00  0.00     0.023 A 
ATOM     52  C   UNL A   1      39.737  36.691  38.462  1.00  0.00     0.012 A 
ATOM     53  C   UNL A   1      40.656  34.445  38.560  1.00  0.00     0.148 A 
ATOM     54  C   UNL A   1      39.068  36.470  39.669  1.00  0.00     0.002 A 
ATOM     55  C   UNL A   1      39.960  34.219  39.743  1.00  0.00     0.091 A 
ATOM     56  F   UNL A   1      41.434  33.502  38.011  1.00  0.00    -0.205 F 
ATOM     57  C   UNL A   1      39.176  35.237  40.307  1.00  0.00     0.022 A 
BRANCH  55  58
ATOM     58  S   UNL A   1      39.979  32.638  40.600  1.00  0.00     0.127 S 
ATOM     59  O   UNL A   1      39.781  33.047  41.988  1.00  0.00    -0.237 OA
ATOM     60  O   UNL A   1      38.840  31.950  39.991  1.00  0.00    -0.237 OA
ATOM     61  O   UNL A   1      41.272  32.035  40.307  1.00  0.00    -0.744 OA
ENDBRANCH  55  58
ENDBRANCH  27  51
BRANCH  39  62
ATOM     62  C   UNL A   1      46.189  39.338  35.926  1.00  0.00     0.023 A 
ATOM     63  C   UNL A   1      47.413  38.837  36.405  1.00  0.00     0.012 A 
ATOM     64  C   UNL A   1      45.886  40.706  36.068  1.00  0.00     0.148 A 
ATOM     65  C   UNL A   1      48.316  39.684  37.043  1.00  0.00     0.002 A 
ATOM     66  C   UNL A   1      46.814  41.552  36.653  1.00  0.00     0.091 A 
ATOM     67  F   UNL A   1      44.701  41.149  35.621  1.00  0.00    -0.205 F 
ATOM     68  C   UNL A   1      48.024  41.043  37.153  1.00  0.00     0.022 A 
BRANCH  66  69
ATOM     69  S   UNL A   1      46.568  43.328  36.731  1.00  0.00     0.127 S 
ATOM     70  O   UNL A   1      45.416  43.430  37.624  1.00  0.00    -0.237 OA
ATOM     71  O   UNL A   1      47.831  43.790  37.309  1.00  0.00    -0.237 OA
ATOM     72  O   UNL A   1      46.338  43.764  35.360  1.00  0.00    -0.744 OA
ENDBRANCH  66  69
ENDBRANCH  39  62
ENDBRANCH  13  14
ENDBRANCH   6   8
ENDBRANCH   5   6
ENDBRANCH   4   5
ENDBRANCH   3   4
ENDBRANCH   2   3
ENDBRANCH   1   2
BRANCH   1  73
ATOM     73  C   UNL A   1      31.809  29.026  25.534  1.00  0.00     0.188 C 
BRANCH  73  74
ATOM     74  O   UNL A   1      31.260  27.729  25.416  1.00  0.00    -0.376 OA
BRANCH  74  75
ATOM     75  C   UNL A   1      30.965  27.242  24.118  1.00  0.00     0.202 C 
BRANCH  75  76
ATOM     76  C   UNL A   1      30.163  25.945  23.913  1.00  0.00     0.261 C 
BRANCH  76  77
ATOM     77  O   UNL A   1      30.908  24.755  23.601  1.00  0.00    -0.463 OA
BRANCH  77  78
ATOM     78  C   UNL A   1      31.334  24.066  24.706  1.00  0.00     0.314 C 
ATOM     79  O   UNL A   1      30.765  24.135  25.792  1.00  0.00    -0.252 OA
BRANCH  78  80
ATOM     80  C   UNL A   1      32.588  23.201  24.446  1.00  0.00     0.097 C 
ATOM     81  C   UNL A   1      33.490  23.186  25.708  1.00  0.00     0.053 C 
ATOM     82  C   UNL A   1      33.481  24.032  23.502  1.00  0.00     0.136 C 
ATOM     83  C   UNL A   1      34.572  24.226  25.367  1.00  0.00     0.120 C 
ATOM     84  C   UNL A   1      34.846  23.400  23.173  1.00  0.00     0.036 C 
ATOM     85  O   UNL A   1      33.894  25.080  24.414  1.00  0.00    -0.374 OA
ATOM     86  C   UNL A   1      35.625  23.587  24.474  1.00  0.00     0.035 C 
BRANCH  80  87
ATOM     87  C   UNL A   1      32.263  21.797  23.883  1.00  0.00     0.026 C 
BRANCH  87  88
ATOM     88  C   UNL A   1      32.248  20.608  24.860  1.00  0.00     0.037 C 
BRANCH  88  89
ATOM     89  C   UNL A   1      32.871  19.341  24.331  1.00  0.00    -0.048 A 
ATOM     90  C   UNL A   1      34.100  18.884  24.835  1.00  0.00     0.004 A 
ATOM     91  C   UNL A   1      32.260  18.624  23.299  1.00  0.00     0.004 A 
ATOM     92  C   UNL A   1      34.724  17.766  24.274  1.00  0.00     0.000 A 
ATOM     93  C   UNL A   1      32.903  17.535  22.710  1.00  0.00     0.000 A 
ATOM     94  C   UNL A   1      34.137  17.109  23.194  1.00  0.00     0.000 A 
ENDBRANCH  88  89
ENDBRANCH  87  88
ENDBRANCH  80  87
ENDBRANCH  78  80
ENDBRANCH  77  78
ENDBRANCH  76  77
ENDBRANCH  75  76
ENDBRANCH  74  75
ENDBRANCH  73  74
ENDBRANCH   1  73
TORSDOF 23
ENDMDL
