MODEL 1
REMARK VINA RESULT:     -10.5      0.000      0.000
REMARK SMILES CCC[C@H](CNC(=O)N1C[C@H]2CCC[N@H+]2C[C@@H]1C)C(=O)OCCOCCOCCOC(=O)c1ccc(-c2c3nc(c(-c4cccc(S(=O)(=O)[O-])c4F)c4ccc([nH]4)c(-c4cccc(S(=O)(=O)[O-])c4F)c4nc(c(-c5cccc(S(=O)(=O)[O-])c5F)c5ccc2[nH]5)C=C4)C=C3)cc1
REMARK SMILES IDX 25 1 24 2 23 3 22 4 21 5 19 6 20 7 4 8 3 9 2 10 1 11 5 12
REMARK SMILES IDX 6 13 7 14 8 16 9 17 10 18 17 19 11 20 16 21 18 22 12 23
REMARK SMILES IDX 15 24 13 25 14 26 26 28 27 29 28 30 29 31 30 32 31 33 32 34
REMARK SMILES IDX 33 35 34 36 95 37 35 38 94 39 36 40 37 41 38 42 88 43 39 44
REMARK SMILES IDX 93 45 87 46 89 47 40 48 92 49 86 50 85 51 41 53 73 54 53 55
REMARK SMILES IDX 72 56 54 57 57 58 71 59 90 60 55 61 56 62 70 64 91 65 58 66
REMARK SMILES IDX 42 67 43 68 51 69 44 70 46 71 52 72 45 73 47 74 48 75 49 76
REMARK SMILES IDX 50 77 74 78 75 79 83 80 76 81 78 82 84 83 77 84 79 85 80 86
REMARK SMILES IDX 81 87 82 88 59 89 60 90 68 91 61 92 63 93 69 94 62 95 64 96
REMARK SMILES IDX 65 97 66 98 67 99
REMARK H PARENT 6 15 15 27 89 52 57 63
REMARK Flexibility Score: inf
ROOT
ATOM      1  C   UNL A   1      38.220  22.614  25.845  1.00  0.00     0.188 C 
ENDROOT
BRANCH   1   2
ATOM      2  O   UNL A   1      37.101  23.384  25.422  1.00  0.00    -0.376 OA
BRANCH   2   3
ATOM      3  C   UNL A   1      36.859  23.458  24.023  1.00  0.00     0.202 C 
BRANCH   3   4
ATOM      4  C   UNL A   1      35.434  23.115  23.586  1.00  0.00     0.261 C 
BRANCH   4   5
ATOM      5  O   UNL A   1      34.561  24.264  23.551  1.00  0.00    -0.463 OA
BRANCH   5   6
ATOM      6  C   UNL A   1      33.592  24.227  22.598  1.00  0.00     0.310 C 
ATOM      7  O   UNL A   1      33.658  23.544  21.581  1.00  0.00    -0.252 OA
BRANCH   6   8
ATOM      8  C   UNL A   1      32.391  25.131  22.873  1.00  0.00     0.118 C 
BRANCH   8   9
ATOM      9  C   UNL A   1      32.995  26.359  23.585  1.00  0.00     0.017 C 
BRANCH   9  10
ATOM     10  C   UNL A   1      33.680  27.429  22.741  1.00  0.00    -0.002 C 
ATOM     11  C   UNL A   1      33.050  28.806  22.869  1.00  0.00     0.004 C 
ENDBRANCH   9  10
ENDBRANCH   8   9
BRANCH   8  12
ATOM     12  C   UNL A   1      31.210  24.456  23.595  1.00  0.00     0.133 C 
BRANCH  12  13
ATOM     13  N   UNL A   1      31.264  24.639  25.049  1.00  0.00    -0.337 N 
ATOM     14  C   UNL A   1      31.525  23.749  26.038  1.00  0.00     0.318 C 
ATOM     15  H   UNL A   1      31.081  25.556  25.358  1.00  0.00     0.165 HD
ATOM     16  O   UNL A   1      30.937  23.935  27.105  1.00  0.00    -0.249 OA
BRANCH  14  17
ATOM     17  N   UNL A   1      32.371  22.689  25.842  1.00  0.00    -0.311 N 
ATOM     18  C   UNL A   1      32.005  21.709  24.811  1.00  0.00     0.186 C 
ATOM     19  C   UNL A   1      33.609  22.417  26.591  1.00  0.00     0.139 C 
ATOM     20  C   UNL A   1      32.392  20.244  25.111  1.00  0.00     0.204 C 
ATOM     21  C   UNL A   1      34.453  21.274  25.961  1.00  0.00     0.287 C 
ATOM     22  C   UNL A   1      33.319  22.166  28.078  1.00  0.00     0.037 C 
ATOM     23  C   UNL A   1      32.360  19.380  23.847  1.00  0.00     0.073 C 
ATOM     24  N   UNL A   1      33.730  20.020  25.711  1.00  0.00    -0.329 N 
ATOM     25  C   UNL A   1      33.434  18.338  24.061  1.00  0.00     0.068 C 
ATOM     26  C   UNL A   1      34.484  19.117  24.830  1.00  0.00     0.262 C 
ATOM     27  H   UNL A   1      33.617  19.591  26.629  1.00  0.00     0.348 HD
ENDBRANCH  14  17
ENDBRANCH  12  13
ENDBRANCH   8  12
ENDBRANCH   6   8
ENDBRANCH   5   6
ENDBRANCH   4   5
ENDBRANCH   3   4
ENDBRANCH   2   3
ENDBRANCH   1   2
BRANCH   1  28
ATOM     28  C   UNL A   1      38.229  21.174  25.352  1.00  0.00     0.188 C 
BRANCH  28  29
ATOM     29  O   UNL A   1      39.418  20.416  25.611  1.00  0.00    -0.376 OA
BRANCH  29  30
ATOM     30  C   UNL A   1      40.307  21.047  26.545  1.00  0.00     0.202 C 
BRANCH  30  31
ATOM     31  C   UNL A   1      41.789  21.214  26.147  1.00  0.00     0.261 C 
BRANCH  31  32
ATOM     32  O   UNL A   1      42.017  22.382  25.348  1.00  0.00    -0.460 OA
BRANCH  32  33
ATOM     33  C   UNL A   1      43.007  23.191  25.759  1.00  0.00     0.338 C 
ATOM     34  O   UNL A   1      44.208  23.070  25.532  1.00  0.00    -0.246 OA
BRANCH  33  35
ATOM     35  C   UNL A   1      42.474  24.361  26.448  1.00  0.00     0.060 A 
ATOM     36  C   UNL A   1      43.172  25.574  26.358  1.00  0.00     0.016 A 
ATOM     37  C   UNL A   1      41.382  24.214  27.296  1.00  0.00     0.016 A 
ATOM     38  C   UNL A   1      42.800  26.646  27.162  1.00  0.00     0.010 A 
ATOM     39  C   UNL A   1      41.021  25.281  28.111  1.00  0.00     0.010 A 
ATOM     40  C   UNL A   1      41.752  26.484  28.072  1.00  0.00    -0.014 A 
BRANCH  40  41
ATOM     41  C   UNL A   1      41.474  27.521  29.084  1.00  0.00     0.031 A 
ATOM     42  C   UNL A   1      42.273  27.523  30.353  1.00  0.00     0.074 A 
ATOM     43  C   UNL A   1      40.475  28.394  28.884  1.00  0.00     0.049 A 
ATOM     44  N   UNL A   1      42.074  28.197  31.453  1.00  0.00    -0.248 NA
ATOM     45  C   UNL A   1      43.448  26.635  30.390  1.00  0.00     0.031 C 
ATOM     46  C   UNL A   1      39.668  28.482  27.668  1.00  0.00     0.029 A 
ATOM     47  N   UNL A   1      39.940  29.338  29.718  1.00  0.00    -0.354 N 
ATOM     48  C   UNL A   1      43.065  27.781  32.333  1.00  0.00     0.074 A 
ATOM     49  C   UNL A   1      43.874  26.806  31.635  1.00  0.00     0.031 C 
ATOM     50  C   UNL A   1      38.704  29.399  27.853  1.00  0.00     0.029 A 
ATOM     51  C   UNL A   1      38.804  29.922  29.213  1.00  0.00     0.049 A 
ATOM     52  H   UNL A   1      40.330  29.574  30.592  1.00  0.00     0.167 HD
ATOM     53  C   UNL A   1      43.274  28.181  33.609  1.00  0.00     0.034 A 
ATOM     54  C   UNL A   1      37.919  30.747  29.804  1.00  0.00     0.034 A 
ATOM     55  C   UNL A   1      42.470  29.172  34.273  1.00  0.00     0.049 A 
ATOM     56  C   UNL A   1      38.164  31.166  31.228  1.00  0.00     0.074 A 
ATOM     57  C   UNL A   1      42.610  29.684  35.549  1.00  0.00     0.029 A 
ATOM     58  N   UNL A   1      41.367  29.796  33.708  1.00  0.00    -0.354 N 
ATOM     59  N   UNL A   1      39.145  30.826  32.030  1.00  0.00    -0.248 NA
ATOM     60  C   UNL A   1      37.196  32.098  31.821  1.00  0.00     0.031 C 
ATOM     61  C   UNL A   1      41.576  30.604  35.763  1.00  0.00     0.029 A 
ATOM     62  C   UNL A   1      40.808  30.683  34.611  1.00  0.00     0.049 A 
ATOM     63  H   UNL A   1      41.030  29.633  32.797  1.00  0.00     0.167 HD
ATOM     64  C   UNL A   1      38.931  31.523  33.213  1.00  0.00     0.074 A 
ATOM     65  C   UNL A   1      37.735  32.320  33.012  1.00  0.00     0.031 C 
ATOM     66  C   UNL A   1      39.644  31.497  34.366  1.00  0.00     0.034 A 
BRANCH  53  67
ATOM     67  C   UNL A   1      44.415  27.550  34.364  1.00  0.00     0.023 A 
ATOM     68  C   UNL A   1      45.678  28.173  34.377  1.00  0.00     0.012 A 
ATOM     69  C   UNL A   1      44.226  26.359  35.093  1.00  0.00     0.148 A 
ATOM     70  C   UNL A   1      46.744  27.606  35.076  1.00  0.00     0.002 A 
ATOM     71  C   UNL A   1      45.282  25.820  35.820  1.00  0.00     0.091 A 
ATOM     72  F   UNL A   1      43.024  25.765  35.048  1.00  0.00    -0.205 F 
ATOM     73  C   UNL A   1      46.544  26.437  35.804  1.00  0.00     0.022 A 
BRANCH  71  74
ATOM     74  S   UNL A   1      45.102  24.355  36.845  1.00  0.00     0.127 S 
ATOM     75  O   UNL A   1      44.470  23.420  35.916  1.00  0.00    -0.237 OA
ATOM     76  O   UNL A   1      46.491  24.037  37.177  1.00  0.00    -0.237 OA
ATOM     77  O   UNL A   1      44.285  24.759  37.981  1.00  0.00    -0.744 OA
ENDBRANCH  71  74
ENDBRANCH  53  67
BRANCH  54  78
ATOM     78  C   UNL A   1      36.741  31.233  29.035  1.00  0.00     0.023 A 
ATOM     79  C   UNL A   1      36.620  32.605  28.750  1.00  0.00     0.012 A 
ATOM     80  C   UNL A   1      35.776  30.337  28.531  1.00  0.00     0.148 A 
ATOM     81  C   UNL A   1      35.549  33.080  27.991  1.00  0.00     0.002 A 
ATOM     82  C   UNL A   1      34.744  30.810  27.731  1.00  0.00     0.091 A 
ATOM     83  F   UNL A   1      35.902  29.035  28.829  1.00  0.00    -0.205 F 
ATOM     84  C   UNL A   1      34.620  32.183  27.470  1.00  0.00     0.022 A 
BRANCH  82  85
ATOM     85  S   UNL A   1      33.584  29.710  26.908  1.00  0.00     0.127 S 
ATOM     86  O   UNL A   1      32.934  29.059  28.043  1.00  0.00    -0.237 OA
ATOM     87  O   UNL A   1      32.741  30.653  26.174  1.00  0.00    -0.237 OA
ATOM     88  O   UNL A   1      34.395  28.846  26.062  1.00  0.00    -0.744 OA
ENDBRANCH  82  85
ENDBRANCH  54  78
BRANCH  66  89
ATOM     89  C   UNL A   1      39.166  32.376  35.492  1.00  0.00     0.023 A 
ATOM     90  C   UNL A   1      38.217  31.884  36.407  1.00  0.00     0.012 A 
ATOM     91  C   UNL A   1      39.712  33.661  35.680  1.00  0.00     0.148 A 
ATOM     92  C   UNL A   1      37.792  32.671  37.477  1.00  0.00     0.002 A 
ATOM     93  C   UNL A   1      39.320  34.420  36.775  1.00  0.00     0.091 A 
ATOM     94  F   UNL A   1      40.600  34.118  34.785  1.00  0.00    -0.205 F 
ATOM     95  C   UNL A   1      38.351  33.932  37.668  1.00  0.00     0.022 A 
BRANCH  93  96
ATOM     96  S   UNL A   1      40.057  36.015  37.150  1.00  0.00     0.127 S 
ATOM     97  O   UNL A   1      39.775  36.769  35.930  1.00  0.00    -0.237 OA
ATOM     98  O   UNL A   1      39.292  36.444  38.322  1.00  0.00    -0.237 OA
ATOM     99  O   UNL A   1      41.465  35.751  37.415  1.00  0.00    -0.744 OA
ENDBRANCH  93  96
ENDBRANCH  66  89
ENDBRANCH  40  41
ENDBRANCH  33  35
ENDBRANCH  32  33
ENDBRANCH  31  32
ENDBRANCH  30  31
ENDBRANCH  29  30
ENDBRANCH  28  29
ENDBRANCH   1  28
TORSDOF 25
ENDMDL
MODEL 2
REMARK VINA RESULT:      -9.1      2.238      4.062
REMARK SMILES CCC[C@H](CNC(=O)N1C[C@H]2CCC[N@H+]2C[C@@H]1C)C(=O)OCCOCCOCCOC(=O)c1ccc(-c2c3nc(c(-c4cccc(S(=O)(=O)[O-])c4F)c4ccc([nH]4)c(-c4cccc(S(=O)(=O)[O-])c4F)c4nc(c(-c5cccc(S(=O)(=O)[O-])c5F)c5ccc2[nH]5)C=C4)C=C3)cc1
REMARK SMILES IDX 25 1 24 2 23 3 22 4 21 5 19 6 20 7 4 8 3 9 2 10 1 11 5 12
REMARK SMILES IDX 6 13 7 14 8 16 9 17 10 18 17 19 11 20 16 21 18 22 12 23
REMARK SMILES IDX 15 24 13 25 14 26 26 28 27 29 28 30 29 31 30 32 31 33 32 34
REMARK SMILES IDX 33 35 34 36 95 37 35 38 94 39 36 40 37 41 38 42 88 43 39 44
REMARK SMILES IDX 93 45 87 46 89 47 40 48 92 49 86 50 85 51 41 53 73 54 53 55
REMARK SMILES IDX 72 56 54 57 57 58 71 59 90 60 55 61 56 62 70 64 91 65 58 66
REMARK SMILES IDX 42 67 43 68 51 69 44 70 46 71 52 72 45 73 47 74 48 75 49 76
REMARK SMILES IDX 50 77 74 78 75 79 83 80 76 81 78 82 84 83 77 84 79 85 80 86
REMARK SMILES IDX 81 87 82 88 59 89 60 90 68 91 61 92 63 93 69 94 62 95 64 96
REMARK SMILES IDX 65 97 66 98 67 99
REMARK H PARENT 6 15 15 27 89 52 57 63
REMARK Flexibility Score: inf
ROOT
ATOM      1  C   UNL A   1      38.968  23.258  26.502  1.00  0.00     0.188 C 
ENDROOT
BRANCH   1   2
ATOM      2  O   UNL A   1      37.720  23.925  26.356  1.00  0.00    -0.376 OA
BRANCH   2   3
ATOM      3  C   UNL A   1      36.932  23.585  25.222  1.00  0.00     0.202 C 
BRANCH   3   4
ATOM      4  C   UNL A   1      35.422  23.556  25.459  1.00  0.00     0.261 C 
BRANCH   4   5
ATOM      5  O   UNL A   1      34.682  24.320  24.483  1.00  0.00    -0.463 OA
BRANCH   5   6
ATOM      6  C   UNL A   1      34.104  23.591  23.493  1.00  0.00     0.310 C 
ATOM      7  O   UNL A   1      34.640  23.353  22.415  1.00  0.00    -0.252 OA
BRANCH   6   8
ATOM      8  C   UNL A   1      32.695  23.089  23.807  1.00  0.00     0.118 C 
BRANCH   8   9
ATOM      9  C   UNL A   1      32.663  21.661  23.224  1.00  0.00     0.017 C 
BRANCH   9  10
ATOM     10  C   UNL A   1      32.522  20.483  24.182  1.00  0.00    -0.002 C 
ATOM     11  C   UNL A   1      33.754  20.240  25.038  1.00  0.00     0.004 C 
ENDBRANCH   9  10
ENDBRANCH   8   9
BRANCH   8  12
ATOM     12  C   UNL A   1      31.550  24.018  23.362  1.00  0.00     0.133 C 
BRANCH  12  13
ATOM     13  N   UNL A   1      31.878  24.768  22.146  1.00  0.00    -0.337 N 
ATOM     14  C   UNL A   1      31.627  26.059  21.815  1.00  0.00     0.318 C 
ATOM     15  H   UNL A   1      32.358  24.252  21.458  1.00  0.00     0.165 HD
ATOM     16  O   UNL A   1      31.421  26.283  20.621  1.00  0.00    -0.249 OA
BRANCH  14  17
ATOM     17  N   UNL A   1      31.575  27.044  22.766  1.00  0.00    -0.311 N 
ATOM     18  C   UNL A   1      32.752  27.223  23.624  1.00  0.00     0.186 C 
ATOM     19  C   UNL A   1      30.430  27.931  23.034  1.00  0.00     0.139 C 
ATOM     20  C   UNL A   1      32.462  27.652  25.079  1.00  0.00     0.204 C 
ATOM     21  C   UNL A   1      30.783  29.089  24.008  1.00  0.00     0.287 C 
ATOM     22  C   UNL A   1      29.205  27.136  23.507  1.00  0.00     0.037 C 
ATOM     23  C   UNL A   1      33.713  28.211  25.765  1.00  0.00     0.073 C 
ATOM     24  N   UNL A   1      31.411  28.681  25.272  1.00  0.00    -0.329 N 
ATOM     25  C   UNL A   1      33.194  29.247  26.735  1.00  0.00     0.068 C 
ATOM     26  C   UNL A   1      32.008  29.820  25.984  1.00  0.00     0.262 C 
ATOM     27  H   UNL A   1      30.655  28.284  25.829  1.00  0.00     0.348 HD
ENDBRANCH  14  17
ENDBRANCH  12  13
ENDBRANCH   8  12
ENDBRANCH   6   8
ENDBRANCH   5   6
ENDBRANCH   4   5
ENDBRANCH   3   4
ENDBRANCH   2   3
ENDBRANCH   1   2
BRANCH   1  28
ATOM     28  C   UNL A   1      38.963  21.795  26.082  1.00  0.00     0.188 C 
BRANCH  28  29
ATOM     29  O   UNL A   1      40.234  21.131  26.063  1.00  0.00    -0.376 OA
BRANCH  29  30
ATOM     30  C   UNL A   1      41.288  21.894  26.668  1.00  0.00     0.202 C 
BRANCH  30  31
ATOM     31  C   UNL A   1      42.331  22.561  25.745  1.00  0.00     0.261 C 
BRANCH  31  32
ATOM     32  O   UNL A   1      42.236  23.992  25.749  1.00  0.00    -0.460 OA
BRANCH  32  33
ATOM     33  C   UNL A   1      43.400  24.657  25.835  1.00  0.00     0.338 C 
ATOM     34  O   UNL A   1      44.257  24.770  24.962  1.00  0.00    -0.246 OA
BRANCH  33  35
ATOM     35  C   UNL A   1      43.501  25.372  27.103  1.00  0.00     0.060 A 
ATOM     36  C   UNL A   1      42.482  25.212  28.052  1.00  0.00     0.016 A 
ATOM     37  C   UNL A   1      44.516  26.306  27.279  1.00  0.00     0.016 A 
ATOM     38  C   UNL A   1      42.451  26.029  29.176  1.00  0.00     0.010 A 
ATOM     39  C   UNL A   1      44.475  27.134  28.396  1.00  0.00     0.010 A 
ATOM     40  C   UNL A   1      43.423  27.021  29.325  1.00  0.00    -0.014 A 
BRANCH  40  41
ATOM     41  C   UNL A   1      43.296  28.039  30.385  1.00  0.00     0.031 A 
ATOM     42  C   UNL A   1      44.016  27.823  31.683  1.00  0.00     0.074 A 
ATOM     43  C   UNL A   1      42.491  29.097  30.199  1.00  0.00     0.049 A 
ATOM     44  N   UNL A   1      43.894  28.465  32.812  1.00  0.00    -0.248 NA
ATOM     45  C   UNL A   1      44.999  26.726  31.713  1.00  0.00     0.031 C 
ATOM     46  C   UNL A   1      41.778  29.400  28.959  1.00  0.00     0.029 A 
ATOM     47  N   UNL A   1      42.104  30.082  31.066  1.00  0.00    -0.354 N 
ATOM     48  C   UNL A   1      44.743  27.823  33.705  1.00  0.00     0.074 A 
ATOM     49  C   UNL A   1      45.386  26.747  32.982  1.00  0.00     0.031 C 
ATOM     50  C   UNL A   1      40.997  30.474  29.160  1.00  0.00     0.029 A 
ATOM     51  C   UNL A   1      41.126  30.898  30.552  1.00  0.00     0.049 A 
ATOM     52  H   UNL A   1      42.487  30.194  31.967  1.00  0.00     0.167 HD
ATOM     53  C   UNL A   1      44.960  28.109  35.010  1.00  0.00     0.034 A 
ATOM     54  C   UNL A   1      40.384  31.846  31.157  1.00  0.00     0.034 A 
ATOM     55  C   UNL A   1      44.325  29.201  35.699  1.00  0.00     0.049 A 
ATOM     56  C   UNL A   1      40.632  32.137  32.611  1.00  0.00     0.074 A 
ATOM     57  C   UNL A   1      44.496  29.611  37.008  1.00  0.00     0.029 A 
ATOM     58  N   UNL A   1      43.390  30.053  35.129  1.00  0.00    -0.354 N 
ATOM     59  N   UNL A   1      41.490  31.574  33.430  1.00  0.00    -0.248 NA
ATOM     60  C   UNL A   1      39.830  33.205  33.220  1.00  0.00     0.031 C 
ATOM     61  C   UNL A   1      43.646  30.700  37.236  1.00  0.00     0.029 A 
ATOM     62  C   UNL A   1      42.965  30.983  36.061  1.00  0.00     0.049 A 
ATOM     63  H   UNL A   1      43.074  30.005  34.198  1.00  0.00     0.167 HD
ATOM     64  C   UNL A   1      41.353  32.238  34.643  1.00  0.00     0.074 A 
ATOM     65  C   UNL A   1      40.341  33.259  34.443  1.00  0.00     0.031 C 
ATOM     66  C   UNL A   1      41.989  32.017  35.820  1.00  0.00     0.034 A 
BRANCH  53  67
ATOM     67  C   UNL A   1      45.921  27.234  35.770  1.00  0.00     0.023 A 
ATOM     68  C   UNL A   1      47.272  27.616  35.894  1.00  0.00     0.012 A 
ATOM     69  C   UNL A   1      45.479  26.050  36.393  1.00  0.00     0.148 A 
ATOM     70  C   UNL A   1      48.174  26.821  36.600  1.00  0.00     0.002 A 
ATOM     71  C   UNL A   1      46.376  25.282  37.129  1.00  0.00     0.091 A 
ATOM     72  F   UNL A   1      44.198  25.687  36.242  1.00  0.00    -0.205 F 
ATOM     73  C   UNL A   1      47.725  25.660  37.225  1.00  0.00     0.022 A 
BRANCH  71  74
ATOM     74  S   UNL A   1      45.876  23.807  38.026  1.00  0.00     0.127 S 
ATOM     75  O   UNL A   1      47.155  23.331  38.548  1.00  0.00    -0.237 OA
ATOM     76  O   UNL A   1      44.970  24.354  39.038  1.00  0.00    -0.237 OA
ATOM     77  O   UNL A   1      45.235  22.941  37.047  1.00  0.00    -0.744 OA
ENDBRANCH  71  74
ENDBRANCH  53  67
BRANCH  54  78
ATOM     78  C   UNL A   1      39.360  32.587  30.372  1.00  0.00     0.023 A 
ATOM     79  C   UNL A   1      39.658  33.873  29.886  1.00  0.00     0.012 A 
ATOM     80  C   UNL A   1      38.118  32.001  30.052  1.00  0.00     0.148 A 
ATOM     81  C   UNL A   1      38.732  34.571  29.109  1.00  0.00     0.002 A 
ATOM     82  C   UNL A   1      37.224  32.678  29.232  1.00  0.00     0.091 A 
ATOM     83  F   UNL A   1      37.848  30.781  30.539  1.00  0.00    -0.205 F 
ATOM     84  C   UNL A   1      37.522  33.969  28.771  1.00  0.00     0.022 A 
BRANCH  82  85
ATOM     85  S   UNL A   1      35.705  31.924  28.636  1.00  0.00     0.127 S 
ATOM     86  O   UNL A   1      36.188  30.642  28.129  1.00  0.00    -0.237 OA
ATOM     87  O   UNL A   1      34.907  31.841  29.859  1.00  0.00    -0.237 OA
ATOM     88  O   UNL A   1      35.177  32.842  27.637  1.00  0.00    -0.744 OA
ENDBRANCH  82  85
ENDBRANCH  54  78
BRANCH  66  89
ATOM     89  C   UNL A   1      41.631  32.913  36.976  1.00  0.00     0.023 A 
ATOM     90  C   UNL A   1      42.436  34.030  37.269  1.00  0.00     0.012 A 
ATOM     91  C   UNL A   1      40.458  32.686  37.723  1.00  0.00     0.148 A 
ATOM     92  C   UNL A   1      42.097  34.891  38.312  1.00  0.00     0.002 A 
ATOM     93  C   UNL A   1      40.101  33.575  38.728  1.00  0.00     0.091 A 
ATOM     94  F   UNL A   1      39.717  31.605  37.438  1.00  0.00    -0.205 F 
ATOM     95  C   UNL A   1      40.925  34.671  39.033  1.00  0.00     0.022 A 
BRANCH  93  96
ATOM     96  S   UNL A   1      38.563  33.420  39.643  1.00  0.00     0.127 S 
ATOM     97  O   UNL A   1      37.572  33.446  38.569  1.00  0.00    -0.237 OA
ATOM     98  O   UNL A   1      38.718  32.121  40.297  1.00  0.00    -0.237 OA
ATOM     99  O   UNL A   1      38.528  34.554  40.558  1.00  0.00    -0.744 OA
ENDBRANCH  93  96
ENDBRANCH  66  89
ENDBRANCH  40  41
ENDBRANCH  33  35
ENDBRANCH  32  33
ENDBRANCH  31  32
ENDBRANCH  30  31
ENDBRANCH  29  30
ENDBRANCH  28  29
ENDBRANCH   1  28
TORSDOF 25
ENDMDL
MODEL 3
REMARK VINA RESULT:      -9.0      4.449      8.810
REMARK SMILES CCC[C@H](CNC(=O)N1C[C@H]2CCC[N@H+]2C[C@@H]1C)C(=O)OCCOCCOCCOC(=O)c1ccc(-c2c3nc(c(-c4cccc(S(=O)(=O)[O-])c4F)c4ccc([nH]4)c(-c4cccc(S(=O)(=O)[O-])c4F)c4nc(c(-c5cccc(S(=O)(=O)[O-])c5F)c5ccc2[nH]5)C=C4)C=C3)cc1
REMARK SMILES IDX 25 1 24 2 23 3 22 4 21 5 19 6 20 7 4 8 3 9 2 10 1 11 5 12
REMARK SMILES IDX 6 13 7 14 8 16 9 17 10 18 17 19 11 20 16 21 18 22 12 23
REMARK SMILES IDX 15 24 13 25 14 26 26 28 27 29 28 30 29 31 30 32 31 33 32 34
REMARK SMILES IDX 33 35 34 36 95 37 35 38 94 39 36 40 37 41 38 42 88 43 39 44
REMARK SMILES IDX 93 45 87 46 89 47 40 48 92 49 86 50 85 51 41 53 73 54 53 55
REMARK SMILES IDX 72 56 54 57 57 58 71 59 90 60 55 61 56 62 70 64 91 65 58 66
REMARK SMILES IDX 42 67 43 68 51 69 44 70 46 71 52 72 45 73 47 74 48 75 49 76
REMARK SMILES IDX 50 77 74 78 75 79 83 80 76 81 78 82 84 83 77 84 79 85 80 86
REMARK SMILES IDX 81 87 82 88 59 89 60 90 68 91 61 92 63 93 69 94 62 95 64 96
REMARK SMILES IDX 65 97 66 98 67 99
REMARK H PARENT 6 15 15 27 89 52 57 63
REMARK Flexibility Score: inf
ROOT
ATOM      1  C   UNL A   1      37.688  22.121  25.870  1.00  0.00     0.188 C 
ENDROOT
BRANCH   1   2
ATOM      2  O   UNL A   1      36.833  23.235  26.099  1.00  0.00    -0.376 OA
BRANCH   2   3
ATOM      3  C   UNL A   1      35.902  23.558  25.074  1.00  0.00     0.202 C 
BRANCH   3   4
ATOM      4  C   UNL A   1      34.990  24.750  25.369  1.00  0.00     0.261 C 
BRANCH   4   5
ATOM      5  O   UNL A   1      33.793  24.760  24.562  1.00  0.00    -0.463 OA
BRANCH   5   6
ATOM      6  C   UNL A   1      32.628  24.866  25.252  1.00  0.00     0.310 C 
ATOM      7  O   UNL A   1      32.439  25.673  26.157  1.00  0.00    -0.252 OA
BRANCH   6   8
ATOM      8  C   UNL A   1      31.543  23.875  24.832  1.00  0.00     0.118 C 
BRANCH   8   9
ATOM      9  C   UNL A   1      32.210  22.493  24.989  1.00  0.00     0.017 C 
BRANCH   9  10
ATOM     10  C   UNL A   1      32.226  21.842  26.369  1.00  0.00    -0.002 C 
ATOM     11  C   UNL A   1      33.617  21.477  26.857  1.00  0.00     0.004 C 
ENDBRANCH   9  10
ENDBRANCH   8   9
BRANCH   8  12
ATOM     12  C   UNL A   1      30.896  24.150  23.461  1.00  0.00     0.133 C 
BRANCH  12  13
ATOM     13  N   UNL A   1      31.869  24.606  22.464  1.00  0.00    -0.337 N 
ATOM     14  C   UNL A   1      32.018  25.817  21.870  1.00  0.00     0.318 C 
ATOM     15  H   UNL A   1      32.519  23.925  22.178  1.00  0.00     0.165 HD
ATOM     16  O   UNL A   1      32.428  25.805  20.708  1.00  0.00    -0.249 OA
BRANCH  14  17
ATOM     17  N   UNL A   1      31.696  26.978  22.524  1.00  0.00    -0.311 N 
ATOM     18  C   UNL A   1      30.320  27.472  22.395  1.00  0.00     0.186 C 
ATOM     19  C   UNL A   1      32.614  27.804  23.326  1.00  0.00     0.139 C 
ATOM     20  C   UNL A   1      30.158  29.008  22.374  1.00  0.00     0.204 C 
ATOM     21  C   UNL A   1      31.879  28.917  24.124  1.00  0.00     0.287 C 
ATOM     22  C   UNL A   1      33.754  28.369  22.468  1.00  0.00     0.037 C 
ATOM     23  C   UNL A   1      28.713  29.429  22.656  1.00  0.00     0.073 C 
ATOM     24  N   UNL A   1      30.990  29.777  23.331  1.00  0.00    -0.329 N 
ATOM     25  C   UNL A   1      28.827  30.757  23.368  1.00  0.00     0.068 C 
ATOM     26  C   UNL A   1      30.094  30.574  24.182  1.00  0.00     0.262 C 
ATOM     27  H   UNL A   1      31.612  30.395  22.811  1.00  0.00     0.348 HD
ENDBRANCH  14  17
ENDBRANCH  12  13
ENDBRANCH   8  12
ENDBRANCH   6   8
ENDBRANCH   5   6
ENDBRANCH   4   5
ENDBRANCH   3   4
ENDBRANCH   2   3
ENDBRANCH   1   2
BRANCH   1  28
ATOM     28  C   UNL A   1      37.461  21.402  24.547  1.00  0.00     0.188 C 
BRANCH  28  29
ATOM     29  O   UNL A   1      37.875  20.031  24.486  1.00  0.00    -0.376 OA
BRANCH  29  30
ATOM     30  C   UNL A   1      38.450  19.551  25.710  1.00  0.00     0.202 C 
BRANCH  30  31
ATOM     31  C   UNL A   1      39.956  19.210  25.727  1.00  0.00     0.261 C 
BRANCH  31  32
ATOM     32  O   UNL A   1      40.780  20.334  25.393  1.00  0.00    -0.460 OA
BRANCH  32  33
ATOM     33  C   UNL A   1      41.861  20.521  26.168  1.00  0.00     0.338 C 
ATOM     34  O   UNL A   1      42.794  19.741  26.342  1.00  0.00    -0.246 OA
BRANCH  33  35
ATOM     35  C   UNL A   1      41.877  21.868  26.728  1.00  0.00     0.060 A 
ATOM     36  C   UNL A   1      41.952  22.962  25.854  1.00  0.00     0.016 A 
ATOM     37  C   UNL A   1      41.971  22.032  28.106  1.00  0.00     0.016 A 
ATOM     38  C   UNL A   1      42.170  24.237  26.362  1.00  0.00     0.010 A 
ATOM     39  C   UNL A   1      42.206  23.306  28.611  1.00  0.00     0.010 A 
ATOM     40  C   UNL A   1      42.343  24.403  27.739  1.00  0.00    -0.014 A 
BRANCH  40  41
ATOM     41  C   UNL A   1      42.788  25.698  28.286  1.00  0.00     0.031 A 
ATOM     42  C   UNL A   1      41.753  26.674  28.764  1.00  0.00     0.074 A 
ATOM     43  C   UNL A   1      44.094  26.008  28.283  1.00  0.00     0.049 A 
ATOM     44  N   UNL A   1      41.890  27.930  29.089  1.00  0.00    -0.248 NA
ATOM     45  C   UNL A   1      40.376  26.165  28.880  1.00  0.00     0.031 C 
ATOM     46  C   UNL A   1      45.168  25.109  27.864  1.00  0.00     0.029 A 
ATOM     47  N   UNL A   1      44.729  27.178  28.598  1.00  0.00    -0.354 N 
ATOM     48  C   UNL A   1      40.613  28.380  29.399  1.00  0.00     0.074 A 
ATOM     49  C   UNL A   1      39.715  27.258  29.237  1.00  0.00     0.031 C 
ATOM     50  C   UNL A   1      46.332  25.779  27.901  1.00  0.00     0.029 A 
ATOM     51  C   UNL A   1      46.071  27.159  28.301  1.00  0.00     0.049 A 
ATOM     52  H   UNL A   1      44.272  27.955  28.996  1.00  0.00     0.167 HD
ATOM     53  C   UNL A   1      40.232  29.621  29.783  1.00  0.00     0.034 A 
ATOM     54  C   UNL A   1      46.972  28.160  28.305  1.00  0.00     0.034 A 
ATOM     55  C   UNL A   1      41.150  30.714  29.961  1.00  0.00     0.049 A 
ATOM     56  C   UNL A   1      46.522  29.533  28.720  1.00  0.00     0.074 A 
ATOM     57  C   UNL A   1      40.886  32.003  30.383  1.00  0.00     0.029 A 
ATOM     58  N   UNL A   1      42.515  30.643  29.719  1.00  0.00    -0.354 N 
ATOM     59  N   UNL A   1      45.327  29.935  29.084  1.00  0.00    -0.248 NA
ATOM     60  C   UNL A   1      47.545  30.586  28.749  1.00  0.00     0.031 C 
ATOM     61  C   UNL A   1      42.090  32.719  30.375  1.00  0.00     0.029 A 
ATOM     62  C   UNL A   1      43.107  31.867  29.972  1.00  0.00     0.049 A 
ATOM     63  H   UNL A   1      42.993  29.838  29.412  1.00  0.00     0.167 HD
ATOM     64  C   UNL A   1      45.458  31.279  29.412  1.00  0.00     0.074 A 
ATOM     65  C   UNL A   1      46.856  31.616  29.222  1.00  0.00     0.031 C 
ATOM     66  C   UNL A   1      44.510  32.160  29.818  1.00  0.00     0.034 A 
BRANCH  53  67
ATOM     67  C   UNL A   1      38.767  29.857  30.038  1.00  0.00     0.023 A 
ATOM     68  C   UNL A   1      38.245  29.700  31.337  1.00  0.00     0.012 A 
ATOM     69  C   UNL A   1      37.912  30.271  28.997  1.00  0.00     0.148 A 
ATOM     70  C   UNL A   1      36.892  29.922  31.592  1.00  0.00     0.002 A 
ATOM     71  C   UNL A   1      36.571  30.528  29.265  1.00  0.00     0.091 A 
ATOM     72  F   UNL A   1      38.419  30.389  27.761  1.00  0.00    -0.205 F 
ATOM     73  C   UNL A   1      36.058  30.344  30.560  1.00  0.00     0.022 A 
BRANCH  71  74
ATOM     74  S   UNL A   1      35.436  31.143  28.016  1.00  0.00     0.127 S 
ATOM     75  O   UNL A   1      34.232  31.392  28.807  1.00  0.00    -0.237 OA
ATOM     76  O   UNL A   1      36.117  32.350  27.546  1.00  0.00    -0.237 OA
ATOM     77  O   UNL A   1      35.325  30.084  27.021  1.00  0.00    -0.744 OA
ENDBRANCH  71  74
ENDBRANCH  53  67
BRANCH  54  78
ATOM     78  C   UNL A   1      48.382  27.879  27.918  1.00  0.00     0.023 A 
ATOM     79  C   UNL A   1      49.298  27.460  28.900  1.00  0.00     0.012 A 
ATOM     80  C   UNL A   1      48.803  27.964  26.575  1.00  0.00     0.148 A 
ATOM     81  C   UNL A   1      50.613  27.147  28.556  1.00  0.00     0.002 A 
ATOM     82  C   UNL A   1      50.098  27.598  26.231  1.00  0.00     0.091 A 
ATOM     83  F   UNL A   1      47.918  28.381  25.658  1.00  0.00    -0.205 F 
ATOM     84  C   UNL A   1      51.009  27.202  27.222  1.00  0.00     0.022 A 
BRANCH  82  85
ATOM     85  S   UNL A   1      50.650  27.508  24.523  1.00  0.00     0.127 S 
ATOM     86  O   UNL A   1      50.715  28.921  24.156  1.00  0.00    -0.237 OA
ATOM     87  O   UNL A   1      51.948  26.847  24.659  1.00  0.00    -0.237 OA
ATOM     88  O   UNL A   1      49.645  26.718  23.826  1.00  0.00    -0.744 OA
ENDBRANCH  82  85
ENDBRANCH  54  78
BRANCH  66  89
ATOM     89  C   UNL A   1      44.959  33.568  30.110  1.00  0.00     0.023 A 
ATOM     90  C   UNL A   1      44.896  34.544  29.098  1.00  0.00     0.012 A 
ATOM     91  C   UNL A   1      45.373  33.935  31.405  1.00  0.00     0.148 A 
ATOM     92  C   UNL A   1      45.271  35.861  29.361  1.00  0.00     0.002 A 
ATOM     93  C   UNL A   1      45.699  35.258  31.673  1.00  0.00     0.091 A 
ATOM     94  F   UNL A   1      45.445  32.984  32.349  1.00  0.00    -0.205 F 
ATOM     95  C   UNL A   1      45.660  36.220  30.650  1.00  0.00     0.022 A 
BRANCH  93  96
ATOM     96  S   UNL A   1      46.120  35.827  33.324  1.00  0.00     0.127 S 
ATOM     97  O   UNL A   1      45.497  37.148  33.353  1.00  0.00    -0.237 OA
ATOM     98  O   UNL A   1      45.470  34.828  34.173  1.00  0.00    -0.237 OA
ATOM     99  O   UNL A   1      47.576  35.816  33.390  1.00  0.00    -0.744 OA
ENDBRANCH  93  96
ENDBRANCH  66  89
ENDBRANCH  40  41
ENDBRANCH  33  35
ENDBRANCH  32  33
ENDBRANCH  31  32
ENDBRANCH  30  31
ENDBRANCH  29  30
ENDBRANCH  28  29
ENDBRANCH   1  28
TORSDOF 25
ENDMDL
