MODEL 1
REMARK VINA RESULT:     -10.5      0.000      0.000
REMARK SMILES COCc1cc(-n2cnc(C(=O)OCCOCCOCCOC(=O)c3ccc(-c4c5nc(c(-c6cccc(S(=O)(=O)[O-])c6F)c6ccc([nH]6)c(-c6cccc(S(=O)(=O)[O-])c6F)c6nc(c(-c7cccc(S(=O)(=O)[O-])c7F)c7ccc4[nH]7)C=C6)C=C5)cc3)c2)nc(-c2cccnc2)n1
REMARK SMILES IDX 17 1 16 2 15 3 14 4 13 5 11 6 12 7 10 8 7 9 8 10 88 11 9 12
REMARK SMILES IDX 6 13 4 14 5 15 97 16 90 17 89 18 3 19 2 20 1 21 91 22 92 23
REMARK SMILES IDX 96 24 93 25 95 26 94 27 18 28 19 29 20 30 21 31 22 32 23 33
REMARK SMILES IDX 24 34 25 35 26 36 87 37 27 38 86 39 28 40 29 41 30 42 80 43
REMARK SMILES IDX 31 44 85 45 79 46 81 47 32 48 84 49 78 50 77 51 33 53 65 54
REMARK SMILES IDX 45 55 64 56 46 57 49 58 63 59 82 60 47 61 48 62 62 64 83 65
REMARK SMILES IDX 50 66 34 67 35 68 43 69 36 70 38 71 44 72 37 73 39 74 40 75
REMARK SMILES IDX 41 76 42 77 66 78 67 79 75 80 68 81 70 82 76 83 69 84 71 85
REMARK SMILES IDX 72 86 73 87 74 88 51 89 52 90 60 91 53 92 55 93 61 94 54 95
REMARK SMILES IDX 56 96 57 97 58 98 59 99
REMARK H PARENT 81 52 49 63
REMARK Flexibility Score: inf
ROOT
ATOM      1  C   UNL A   1      34.207  29.935  27.320  1.00  0.00     0.188 C 
ENDROOT
BRANCH   1   2
ATOM      2  O   UNL A   1      33.927  29.287  26.085  1.00  0.00    -0.376 OA
BRANCH   2   3
ATOM      3  C   UNL A   1      32.856  29.728  25.266  1.00  0.00     0.202 C 
BRANCH   3   4
ATOM      4  C   UNL A   1      31.872  28.724  24.631  1.00  0.00     0.261 C 
BRANCH   4   5
ATOM      5  O   UNL A   1      32.449  27.760  23.738  1.00  0.00    -0.458 OA
BRANCH   5   6
ATOM      6  C   UNL A   1      31.581  26.921  23.102  1.00  0.00     0.358 C 
ATOM      7  O   UNL A   1      30.803  27.259  22.216  1.00  0.00    -0.244 OA
BRANCH   6   8
ATOM      8  C   UNL A   1      31.778  25.530  23.511  1.00  0.00     0.166 A 
ATOM      9  N   UNL A   1      32.647  23.549  23.953  1.00  0.00    -0.289 N 
ATOM     10  C   UNL A   1      31.279  23.466  23.886  1.00  0.00     0.206 A 
ATOM     11  C   UNL A   1      32.974  24.862  23.691  1.00  0.00     0.130 A 
ATOM     12  N   UNL A   1      30.727  24.637  23.664  1.00  0.00    -0.229 NA
BRANCH   9  13
ATOM     13  C   UNL A   1      33.565  22.521  24.272  1.00  0.00     0.142 A 
ATOM     14  C   UNL A   1      34.142  20.271  24.614  1.00  0.00     0.072 A 
ATOM     15  C   UNL A   1      33.154  21.205  24.352  1.00  0.00     0.074 A 
ATOM     16  N   UNL A   1      35.414  20.636  24.907  1.00  0.00    -0.230 NA
ATOM     17  C   UNL A   1      35.695  21.949  24.876  1.00  0.00     0.163 A 
ATOM     18  N   UNL A   1      34.830  22.908  24.518  1.00  0.00    -0.210 NA
BRANCH  14  19
ATOM     19  C   UNL A   1      33.827  18.788  24.605  1.00  0.00     0.216 C 
BRANCH  19  20
ATOM     20  O   UNL A   1      32.794  18.428  23.686  1.00  0.00    -0.378 OA
ATOM     21  C   UNL A   1      33.068  17.268  22.914  1.00  0.00     0.195 C 
ENDBRANCH  19  20
ENDBRANCH  14  19
BRANCH  17  22
ATOM     22  C   UNL A   1      36.947  22.401  25.461  1.00  0.00     0.038 A 
ATOM     23  C   UNL A   1      38.014  21.509  25.662  1.00  0.00     0.015 A 
ATOM     24  C   UNL A   1      37.158  23.718  25.846  1.00  0.00     0.123 A 
ATOM     25  C   UNL A   1      39.208  21.951  26.223  1.00  0.00     0.021 A 
ATOM     26  N   UNL A   1      38.307  24.181  26.408  1.00  0.00    -0.264 NA
ATOM     27  C   UNL A   1      39.301  23.284  26.583  1.00  0.00     0.111 A 
ENDBRANCH  17  22
ENDBRANCH   9  13
ENDBRANCH   6   8
ENDBRANCH   5   6
ENDBRANCH   4   5
ENDBRANCH   3   4
ENDBRANCH   2   3
ENDBRANCH   1   2
BRANCH   1  28
ATOM     28  C   UNL A   1      33.819  31.418  27.546  1.00  0.00     0.188 C 
BRANCH  28  29
ATOM     29  O   UNL A   1      34.709  32.144  28.369  1.00  0.00    -0.376 OA
BRANCH  29  30
ATOM     30  C   UNL A   1      34.941  33.529  28.153  1.00  0.00     0.202 C 
BRANCH  30  31
ATOM     31  C   UNL A   1      34.563  34.614  29.164  1.00  0.00     0.261 C 
BRANCH  31  32
ATOM     32  O   UNL A   1      33.450  34.331  29.983  1.00  0.00    -0.460 OA
BRANCH  32  33
ATOM     33  C   UNL A   1      33.456  34.982  31.163  1.00  0.00     0.338 C 
ATOM     34  O   UNL A   1      32.798  35.968  31.455  1.00  0.00    -0.246 OA
BRANCH  33  35
ATOM     35  C   UNL A   1      34.440  34.353  32.046  1.00  0.00     0.060 A 
ATOM     36  C   UNL A   1      35.499  35.164  32.450  1.00  0.00     0.016 A 
ATOM     37  C   UNL A   1      34.475  32.954  32.154  1.00  0.00     0.016 A 
ATOM     38  C   UNL A   1      36.707  34.559  32.686  1.00  0.00     0.010 A 
ATOM     39  C   UNL A   1      35.687  32.350  32.385  1.00  0.00     0.010 A 
ATOM     40  C   UNL A   1      36.798  33.172  32.527  1.00  0.00    -0.014 A 
BRANCH  40  41
ATOM     41  C   UNL A   1      38.127  32.629  32.406  1.00  0.00     0.031 A 
ATOM     42  C   UNL A   1      38.918  32.677  33.642  1.00  0.00     0.074 A 
ATOM     43  C   UNL A   1      38.597  32.146  31.242  1.00  0.00     0.049 A 
ATOM     44  N   UNL A   1      39.888  33.483  33.915  1.00  0.00    -0.248 NA
ATOM     45  C   UNL A   1      38.474  31.837  34.757  1.00  0.00     0.031 C 
ATOM     46  C   UNL A   1      37.849  31.797  30.030  1.00  0.00     0.029 A 
ATOM     47  N   UNL A   1      39.863  31.750  30.957  1.00  0.00    -0.354 N 
ATOM     48  C   UNL A   1      40.332  33.093  35.170  1.00  0.00     0.074 A 
ATOM     49  C   UNL A   1      39.322  32.218  35.712  1.00  0.00     0.031 C 
ATOM     50  C   UNL A   1      38.629  31.016  29.249  1.00  0.00     0.029 A 
ATOM     51  C   UNL A   1      39.955  30.941  29.838  1.00  0.00     0.049 A 
ATOM     52  H   UNL A   1      40.644  32.015  31.496  1.00  0.00     0.167 HD
ATOM     53  C   UNL A   1      41.610  33.317  35.570  1.00  0.00     0.034 A 
ATOM     54  C   UNL A   1      41.026  30.187  29.500  1.00  0.00     0.034 A 
ATOM     55  C   UNL A   1      42.289  34.271  34.734  1.00  0.00     0.049 A 
ATOM     56  C   UNL A   1      42.212  30.771  30.172  1.00  0.00     0.074 A 
ATOM     57  C   UNL A   1      42.091  35.593  34.392  1.00  0.00     0.029 A 
ATOM     58  N   UNL A   1      43.178  33.772  33.813  1.00  0.00    -0.354 N 
ATOM     59  N   UNL A   1      42.703  31.944  29.879  1.00  0.00    -0.248 NA
ATOM     60  C   UNL A   1      42.616  30.235  31.463  1.00  0.00     0.031 C 
ATOM     61  C   UNL A   1      42.517  35.697  33.036  1.00  0.00     0.029 A 
ATOM     62  C   UNL A   1      42.967  34.437  32.634  1.00  0.00     0.049 A 
ATOM     63  H   UNL A   1      43.845  33.065  33.972  1.00  0.00     0.167 HD
ATOM     64  C   UNL A   1      43.102  32.475  31.099  1.00  0.00     0.074 A 
ATOM     65  C   UNL A   1      43.143  31.335  32.011  1.00  0.00     0.031 C 
ATOM     66  C   UNL A   1      43.081  33.824  31.326  1.00  0.00     0.034 A 
BRANCH  53  67
ATOM     67  C   UNL A   1      42.360  32.411  36.505  1.00  0.00     0.023 A 
ATOM     68  C   UNL A   1      43.015  33.003  37.604  1.00  0.00     0.012 A 
ATOM     69  C   UNL A   1      42.668  31.062  36.216  1.00  0.00     0.148 A 
ATOM     70  C   UNL A   1      43.949  32.292  38.363  1.00  0.00     0.002 A 
ATOM     71  C   UNL A   1      43.526  30.334  37.029  1.00  0.00     0.091 A 
ATOM     72  F   UNL A   1      42.246  30.507  35.075  1.00  0.00    -0.205 F 
ATOM     73  C   UNL A   1      44.194  30.952  38.086  1.00  0.00     0.022 A 
BRANCH  71  74
ATOM     74  S   UNL A   1      43.810  28.586  36.738  1.00  0.00     0.127 S 
ATOM     75  O   UNL A   1      44.571  28.211  37.926  1.00  0.00    -0.237 OA
ATOM     76  O   UNL A   1      42.446  28.061  36.683  1.00  0.00    -0.237 OA
ATOM     77  O   UNL A   1      44.519  28.525  35.466  1.00  0.00    -0.744 OA
ENDBRANCH  71  74
ENDBRANCH  53  67
BRANCH  54  78
ATOM     78  C   UNL A   1      41.032  28.846  28.878  1.00  0.00     0.023 A 
ATOM     79  C   UNL A   1      40.074  27.891  29.263  1.00  0.00     0.012 A 
ATOM     80  C   UNL A   1      41.815  28.585  27.729  1.00  0.00     0.148 A 
ATOM     81  C   UNL A   1      39.887  26.722  28.517  1.00  0.00     0.002 A 
ATOM     82  C   UNL A   1      41.636  27.416  26.998  1.00  0.00     0.091 A 
ATOM     83  F   UNL A   1      42.671  29.523  27.303  1.00  0.00    -0.205 F 
ATOM     84  C   UNL A   1      40.664  26.486  27.383  1.00  0.00     0.022 A 
BRANCH  82  85
ATOM     85  S   UNL A   1      42.595  27.053  25.521  1.00  0.00     0.127 S 
ATOM     86  O   UNL A   1      42.313  28.221  24.684  1.00  0.00    -0.237 OA
ATOM     87  O   UNL A   1      43.954  26.992  26.050  1.00  0.00    -0.237 OA
ATOM     88  O   UNL A   1      42.063  25.801  24.997  1.00  0.00    -0.744 OA
ENDBRANCH  82  85
ENDBRANCH  54  78
BRANCH  66  89
ATOM     89  C   UNL A   1      42.840  34.734  30.144  1.00  0.00     0.023 A 
ATOM     90  C   UNL A   1      41.559  34.865  29.565  1.00  0.00     0.012 A 
ATOM     91  C   UNL A   1      43.863  35.603  29.725  1.00  0.00     0.148 A 
ATOM     92  C   UNL A   1      41.309  35.817  28.574  1.00  0.00     0.002 A 
ATOM     93  C   UNL A   1      43.600  36.579  28.769  1.00  0.00     0.091 A 
ATOM     94  F   UNL A   1      45.071  35.483  30.297  1.00  0.00    -0.205 F 
ATOM     95  C   UNL A   1      42.327  36.681  28.184  1.00  0.00     0.022 A 
BRANCH  93  96
ATOM     96  S   UNL A   1      44.821  37.812  28.307  1.00  0.00     0.127 S 
ATOM     97  O   UNL A   1      44.650  38.819  29.352  1.00  0.00    -0.237 OA
ATOM     98  O   UNL A   1      46.073  37.056  28.384  1.00  0.00    -0.237 OA
ATOM     99  O   UNL A   1      44.468  38.241  26.959  1.00  0.00    -0.744 OA
ENDBRANCH  93  96
ENDBRANCH  66  89
ENDBRANCH  40  41
ENDBRANCH  33  35
ENDBRANCH  32  33
ENDBRANCH  31  32
ENDBRANCH  30  31
ENDBRANCH  29  30
ENDBRANCH  28  29
ENDBRANCH   1  28
TORSDOF 24
ENDMDL
MODEL 2
REMARK VINA RESULT:     -10.1      3.712      5.508
REMARK SMILES COCc1cc(-n2cnc(C(=O)OCCOCCOCCOC(=O)c3ccc(-c4c5nc(c(-c6cccc(S(=O)(=O)[O-])c6F)c6ccc([nH]6)c(-c6cccc(S(=O)(=O)[O-])c6F)c6nc(c(-c7cccc(S(=O)(=O)[O-])c7F)c7ccc4[nH]7)C=C6)C=C5)cc3)c2)nc(-c2cccnc2)n1
REMARK SMILES IDX 17 1 16 2 15 3 14 4 13 5 11 6 12 7 10 8 7 9 8 10 88 11 9 12
REMARK SMILES IDX 6 13 4 14 5 15 97 16 90 17 89 18 3 19 2 20 1 21 91 22 92 23
REMARK SMILES IDX 96 24 93 25 95 26 94 27 18 28 19 29 20 30 21 31 22 32 23 33
REMARK SMILES IDX 24 34 25 35 26 36 87 37 27 38 86 39 28 40 29 41 30 42 80 43
REMARK SMILES IDX 31 44 85 45 79 46 81 47 32 48 84 49 78 50 77 51 33 53 65 54
REMARK SMILES IDX 45 55 64 56 46 57 49 58 63 59 82 60 47 61 48 62 62 64 83 65
REMARK SMILES IDX 50 66 34 67 35 68 43 69 36 70 38 71 44 72 37 73 39 74 40 75
REMARK SMILES IDX 41 76 42 77 66 78 67 79 75 80 68 81 70 82 76 83 69 84 71 85
REMARK SMILES IDX 72 86 73 87 74 88 51 89 52 90 60 91 53 92 55 93 61 94 54 95
REMARK SMILES IDX 56 96 57 97 58 98 59 99
REMARK H PARENT 81 52 49 63
REMARK Flexibility Score: inf
ROOT
ATOM      1  C   UNL A   1      34.191  30.007  27.219  1.00  0.00     0.188 C 
ENDROOT
BRANCH   1   2
ATOM      2  O   UNL A   1      33.480  28.916  26.646  1.00  0.00    -0.376 OA
BRANCH   2   3
ATOM      3  C   UNL A   1      32.090  28.760  26.879  1.00  0.00     0.202 C 
BRANCH   3   4
ATOM      4  C   UNL A   1      31.347  27.478  26.447  1.00  0.00     0.261 C 
BRANCH   4   5
ATOM      5  O   UNL A   1      31.386  27.174  25.045  1.00  0.00    -0.458 OA
BRANCH   5   6
ATOM      6  C   UNL A   1      30.462  26.281  24.588  1.00  0.00     0.358 C 
ATOM      7  O   UNL A   1      29.287  26.547  24.353  1.00  0.00    -0.244 OA
BRANCH   6   8
ATOM      8  C   UNL A   1      31.069  24.984  24.283  1.00  0.00     0.166 A 
ATOM      9  N   UNL A   1      32.461  23.281  24.107  1.00  0.00    -0.289 N 
ATOM     10  C   UNL A   1      31.426  23.146  23.216  1.00  0.00     0.206 A 
ATOM     11  C   UNL A   1      32.250  24.467  24.776  1.00  0.00     0.130 A 
ATOM     12  N   UNL A   1      30.556  24.124  23.323  1.00  0.00    -0.229 NA
BRANCH   9  13
ATOM     13  C   UNL A   1      33.522  22.377  24.348  1.00  0.00     0.142 A 
ATOM     14  C   UNL A   1      35.798  21.841  24.566  1.00  0.00     0.072 A 
ATOM     15  C   UNL A   1      34.837  22.787  24.254  1.00  0.00     0.074 A 
ATOM     16  N   UNL A   1      35.474  20.549  24.820  1.00  0.00    -0.230 NA
ATOM     17  C   UNL A   1      34.169  20.234  24.814  1.00  0.00     0.163 A 
ATOM     18  N   UNL A   1      33.171  21.110  24.639  1.00  0.00    -0.210 NA
BRANCH  14  19
ATOM     19  C   UNL A   1      37.266  22.214  24.613  1.00  0.00     0.216 C 
BRANCH  19  20
ATOM     20  O   UNL A   1      37.879  21.967  25.880  1.00  0.00    -0.378 OA
ATOM     21  C   UNL A   1      39.185  21.412  25.807  1.00  0.00     0.195 C 
ENDBRANCH  19  20
ENDBRANCH  14  19
BRANCH  17  22
ATOM     22  C   UNL A   1      33.799  18.827  24.789  1.00  0.00     0.038 A 
ATOM     23  C   UNL A   1      34.740  17.838  24.456  1.00  0.00     0.015 A 
ATOM     24  C   UNL A   1      32.516  18.388  25.090  1.00  0.00     0.123 A 
ATOM     25  C   UNL A   1      34.375  16.496  24.435  1.00  0.00     0.021 A 
ATOM     26  N   UNL A   1      32.124  17.086  25.066  1.00  0.00    -0.264 NA
ATOM     27  C   UNL A   1      33.065  16.175  24.738  1.00  0.00     0.111 A 
ENDBRANCH  17  22
ENDBRANCH   9  13
ENDBRANCH   6   8
ENDBRANCH   5   6
ENDBRANCH   4   5
ENDBRANCH   3   4
ENDBRANCH   2   3
ENDBRANCH   1   2
BRANCH   1  28
ATOM     28  C   UNL A   1      33.451  31.294  27.660  1.00  0.00     0.188 C 
BRANCH  28  29
ATOM     29  O   UNL A   1      34.264  32.448  27.735  1.00  0.00    -0.376 OA
BRANCH  29  30
ATOM     30  C   UNL A   1      34.643  32.996  28.990  1.00  0.00     0.202 C 
BRANCH  30  31
ATOM     31  C   UNL A   1      35.265  32.169  30.118  1.00  0.00     0.261 C 
BRANCH  31  32
ATOM     32  O   UNL A   1      36.203  31.193  29.720  1.00  0.00    -0.460 OA
BRANCH  32  33
ATOM     33  C   UNL A   1      37.478  31.629  29.706  1.00  0.00     0.338 C 
ATOM     34  O   UNL A   1      37.956  32.460  28.950  1.00  0.00    -0.246 OA
BRANCH  33  35
ATOM     35  C   UNL A   1      38.242  30.893  30.715  1.00  0.00     0.060 A 
ATOM     36  C   UNL A   1      39.453  31.467  31.097  1.00  0.00     0.016 A 
ATOM     37  C   UNL A   1      37.924  29.551  30.978  1.00  0.00     0.016 A 
ATOM     38  C   UNL A   1      40.463  30.620  31.478  1.00  0.00     0.010 A 
ATOM     39  C   UNL A   1      38.938  28.705  31.352  1.00  0.00     0.010 A 
ATOM     40  C   UNL A   1      40.213  29.243  31.477  1.00  0.00    -0.014 A 
BRANCH  40  41
ATOM     41  C   UNL A   1      41.369  28.384  31.504  1.00  0.00     0.031 A 
ATOM     42  C   UNL A   1      42.009  28.268  32.820  1.00  0.00     0.074 A 
ATOM     43  C   UNL A   1      41.825  27.768  30.400  1.00  0.00     0.049 A 
ATOM     44  N   UNL A   1      43.115  28.814  33.199  1.00  0.00    -0.248 NA
ATOM     45  C   UNL A   1      41.252  27.596  33.879  1.00  0.00     0.031 C 
ATOM     46  C   UNL A   1      41.148  27.582  29.112  1.00  0.00     0.029 A 
ATOM     47  N   UNL A   1      42.975  27.062  30.256  1.00  0.00    -0.354 N 
ATOM     48  C   UNL A   1      43.310  28.361  34.495  1.00  0.00     0.074 A 
ATOM     49  C   UNL A   1      42.061  27.780  34.922  1.00  0.00     0.031 C 
ATOM     50  C   UNL A   1      41.787  26.610  28.422  1.00  0.00     0.029 A 
ATOM     51  C   UNL A   1      42.981  26.224  29.155  1.00  0.00     0.049 A 
ATOM     52  H   UNL A   1      43.735  27.139  30.879  1.00  0.00     0.167 HD
ATOM     53  C   UNL A   1      44.553  28.272  35.035  1.00  0.00     0.034 A 
ATOM     54  C   UNL A   1      43.860  25.219  28.937  1.00  0.00     0.034 A 
ATOM     55  C   UNL A   1      45.534  29.003  34.279  1.00  0.00     0.049 A 
ATOM     56  C   UNL A   1      45.075  25.508  29.737  1.00  0.00     0.074 A 
ATOM     57  C   UNL A   1      45.711  30.324  33.918  1.00  0.00     0.029 A 
ATOM     58  N   UNL A   1      46.364  28.274  33.462  1.00  0.00    -0.354 N 
ATOM     59  N   UNL A   1      45.872  26.514  29.500  1.00  0.00    -0.248 NA
ATOM     60  C   UNL A   1      45.190  24.924  31.065  1.00  0.00     0.031 C 
ATOM     61  C   UNL A   1      46.292  30.280  32.617  1.00  0.00     0.029 A 
ATOM     62  C   UNL A   1      46.453  28.938  32.268  1.00  0.00     0.049 A 
ATOM     63  H   UNL A   1      46.812  27.428  33.694  1.00  0.00     0.167 HD
ATOM     64  C   UNL A   1      46.257  26.963  30.757  1.00  0.00     0.074 A 
ATOM     65  C   UNL A   1      45.914  25.873  31.667  1.00  0.00     0.031 C 
ATOM     66  C   UNL A   1      46.550  28.280  30.981  1.00  0.00     0.034 A 
BRANCH  53  67
ATOM     67  C   UNL A   1      44.947  27.234  36.047  1.00  0.00     0.023 A 
ATOM     68  C   UNL A   1      45.498  27.684  37.264  1.00  0.00     0.012 A 
ATOM     69  C   UNL A   1      45.046  25.853  35.762  1.00  0.00     0.148 A 
ATOM     70  C   UNL A   1      46.138  26.804  38.142  1.00  0.00     0.002 A 
ATOM     71  C   UNL A   1      45.600  24.971  36.679  1.00  0.00     0.091 A 
ATOM     72  F   UNL A   1      44.735  25.396  34.544  1.00  0.00    -0.205 F 
ATOM     73  C   UNL A   1      46.175  25.444  37.858  1.00  0.00     0.022 A 
BRANCH  71  74
ATOM     74  S   UNL A   1      45.602  23.202  36.372  1.00  0.00     0.127 S 
ATOM     75  O   UNL A   1      46.726  23.065  35.452  1.00  0.00    -0.237 OA
ATOM     76  O   UNL A   1      45.827  22.661  37.713  1.00  0.00    -0.237 OA
ATOM     77  O   UNL A   1      44.280  22.912  35.831  1.00  0.00    -0.744 OA
ENDBRANCH  71  74
ENDBRANCH  53  67
BRANCH  54  78
ATOM     78  C   UNL A   1      43.596  23.902  28.319  1.00  0.00     0.023 A 
ATOM     79  C   UNL A   1      42.450  23.173  28.684  1.00  0.00     0.012 A 
ATOM     80  C   UNL A   1      44.333  23.473  27.191  1.00  0.00     0.148 A 
ATOM     81  C   UNL A   1      42.038  22.064  27.937  1.00  0.00     0.002 A 
ATOM     82  C   UNL A   1      43.928  22.362  26.459  1.00  0.00     0.091 A 
ATOM     83  F   UNL A   1      45.377  24.205  26.783  1.00  0.00    -0.205 F 
ATOM     84  C   UNL A   1      42.773  21.661  26.823  1.00  0.00     0.022 A 
BRANCH  82  85
ATOM     85  S   UNL A   1      44.823  21.792  25.006  1.00  0.00     0.127 S 
ATOM     86  O   UNL A   1      44.641  20.342  25.091  1.00  0.00    -0.237 OA
ATOM     87  O   UNL A   1      44.087  22.440  23.925  1.00  0.00    -0.237 OA
ATOM     88  O   UNL A   1      46.200  22.233  25.187  1.00  0.00    -0.744 OA
ENDBRANCH  82  85
ENDBRANCH  54  78
BRANCH  66  89
ATOM     89  C   UNL A   1      46.673  29.188  29.778  1.00  0.00     0.023 A 
ATOM     90  C   UNL A   1      47.879  29.285  29.051  1.00  0.00     0.012 A 
ATOM     91  C   UNL A   1      45.521  29.809  29.265  1.00  0.00     0.148 A 
ATOM     92  C   UNL A   1      47.945  30.006  27.856  1.00  0.00     0.002 A 
ATOM     93  C   UNL A   1      45.580  30.490  28.052  1.00  0.00     0.091 A 
ATOM     94  F   UNL A   1      44.377  29.693  29.954  1.00  0.00    -0.205 F 
ATOM     95  C   UNL A   1      46.792  30.599  27.351  1.00  0.00     0.022 A 
BRANCH  93  96
ATOM     96  S   UNL A   1      44.113  31.170  27.272  1.00  0.00     0.127 S 
ATOM     97  O   UNL A   1      43.241  30.002  27.185  1.00  0.00    -0.237 OA
ATOM     98  O   UNL A   1      43.684  32.182  28.240  1.00  0.00    -0.237 OA
ATOM     99  O   UNL A   1      44.555  31.719  25.996  1.00  0.00    -0.744 OA
ENDBRANCH  93  96
ENDBRANCH  66  89
ENDBRANCH  40  41
ENDBRANCH  33  35
ENDBRANCH  32  33
ENDBRANCH  31  32
ENDBRANCH  30  31
ENDBRANCH  29  30
ENDBRANCH  28  29
ENDBRANCH   1  28
TORSDOF 24
ENDMDL
MODEL 3
REMARK VINA RESULT:     -10.0      3.637      5.052
REMARK SMILES COCc1cc(-n2cnc(C(=O)OCCOCCOCCOC(=O)c3ccc(-c4c5nc(c(-c6cccc(S(=O)(=O)[O-])c6F)c6ccc([nH]6)c(-c6cccc(S(=O)(=O)[O-])c6F)c6nc(c(-c7cccc(S(=O)(=O)[O-])c7F)c7ccc4[nH]7)C=C6)C=C5)cc3)c2)nc(-c2cccnc2)n1
REMARK SMILES IDX 17 1 16 2 15 3 14 4 13 5 11 6 12 7 10 8 7 9 8 10 88 11 9 12
REMARK SMILES IDX 6 13 4 14 5 15 97 16 90 17 89 18 3 19 2 20 1 21 91 22 92 23
REMARK SMILES IDX 96 24 93 25 95 26 94 27 18 28 19 29 20 30 21 31 22 32 23 33
REMARK SMILES IDX 24 34 25 35 26 36 87 37 27 38 86 39 28 40 29 41 30 42 80 43
REMARK SMILES IDX 31 44 85 45 79 46 81 47 32 48 84 49 78 50 77 51 33 53 65 54
REMARK SMILES IDX 45 55 64 56 46 57 49 58 63 59 82 60 47 61 48 62 62 64 83 65
REMARK SMILES IDX 50 66 34 67 35 68 43 69 36 70 38 71 44 72 37 73 39 74 40 75
REMARK SMILES IDX 41 76 42 77 66 78 67 79 75 80 68 81 70 82 76 83 69 84 71 85
REMARK SMILES IDX 72 86 73 87 74 88 51 89 52 90 60 91 53 92 55 93 61 94 54 95
REMARK SMILES IDX 56 96 57 97 58 98 59 99
REMARK H PARENT 81 52 49 63
REMARK Flexibility Score: inf
ROOT
ATOM      1  C   UNL A   1      34.091  29.801  27.128  1.00  0.00     0.188 C 
ENDROOT
BRANCH   1   2
ATOM      2  O   UNL A   1      33.307  28.766  26.546  1.00  0.00    -0.376 OA
BRANCH   2   3
ATOM      3  C   UNL A   1      31.944  28.607  26.904  1.00  0.00     0.202 C 
BRANCH   3   4
ATOM      4  C   UNL A   1      31.123  27.402  26.400  1.00  0.00     0.261 C 
BRANCH   4   5
ATOM      5  O   UNL A   1      30.992  27.284  24.976  1.00  0.00    -0.458 OA
BRANCH   5   6
ATOM      6  C   UNL A   1      30.269  26.223  24.515  1.00  0.00     0.358 C 
ATOM      7  O   UNL A   1      29.047  26.209  24.394  1.00  0.00    -0.244 OA
BRANCH   6   8
ATOM      8  C   UNL A   1      31.135  25.138  24.054  1.00  0.00     0.166 A 
ATOM      9  N   UNL A   1      32.652  23.540  23.930  1.00  0.00    -0.289 N 
ATOM     10  C   UNL A   1      32.279  23.942  22.673  1.00  0.00     0.206 A 
ATOM     11  C   UNL A   1      31.941  24.317  24.819  1.00  0.00     0.130 A 
ATOM     12  N   UNL A   1      31.346  24.866  22.710  1.00  0.00    -0.229 NA
BRANCH   9  13
ATOM     13  C   UNL A   1      33.550  22.503  24.280  1.00  0.00     0.142 A 
ATOM     14  C   UNL A   1      34.084  20.253  24.684  1.00  0.00     0.072 A 
ATOM     15  C   UNL A   1      33.115  21.198  24.394  1.00  0.00     0.074 A 
ATOM     16  N   UNL A   1      35.362  20.603  24.971  1.00  0.00    -0.230 NA
ATOM     17  C   UNL A   1      35.667  21.909  24.904  1.00  0.00     0.163 A 
ATOM     18  N   UNL A   1      34.822  22.874  24.518  1.00  0.00    -0.210 NA
BRANCH  14  19
ATOM     19  C   UNL A   1      33.741  18.777  24.715  1.00  0.00     0.216 C 
BRANCH  19  20
ATOM     20  O   UNL A   1      34.805  17.933  24.268  1.00  0.00    -0.378 OA
ATOM     21  C   UNL A   1      34.662  16.565  24.622  1.00  0.00     0.195 C 
ENDBRANCH  19  20
ENDBRANCH  14  19
BRANCH  17  22
ATOM     22  C   UNL A   1      36.927  22.352  25.480  1.00  0.00     0.038 A 
ATOM     23  C   UNL A   1      37.078  23.661  25.968  1.00  0.00     0.015 A 
ATOM     24  C   UNL A   1      38.035  21.520  25.581  1.00  0.00     0.123 A 
ATOM     25  C   UNL A   1      38.288  24.075  26.516  1.00  0.00     0.021 A 
ATOM     26  N   UNL A   1      39.234  21.896  26.099  1.00  0.00    -0.264 NA
ATOM     27  C   UNL A   1      39.329  23.165  26.552  1.00  0.00     0.111 A 
ENDBRANCH  17  22
ENDBRANCH   9  13
ENDBRANCH   6   8
ENDBRANCH   5   6
ENDBRANCH   4   5
ENDBRANCH   3   4
ENDBRANCH   2   3
ENDBRANCH   1   2
BRANCH   1  28
ATOM     28  C   UNL A   1      33.437  31.122  27.605  1.00  0.00     0.188 C 
BRANCH  28  29
ATOM     29  O   UNL A   1      34.235  32.275  27.430  1.00  0.00    -0.376 OA
BRANCH  29  30
ATOM     30  C   UNL A   1      34.808  32.944  28.545  1.00  0.00     0.202 C 
BRANCH  30  31
ATOM     31  C   UNL A   1      35.457  32.214  29.723  1.00  0.00     0.261 C 
BRANCH  31  32
ATOM     32  O   UNL A   1      36.506  31.329  29.397  1.00  0.00    -0.460 OA
BRANCH  32  33
ATOM     33  C   UNL A   1      37.737  31.833  29.607  1.00  0.00     0.338 C 
ATOM     34  O   UNL A   1      38.236  32.797  29.046  1.00  0.00    -0.246 OA
BRANCH  33  35
ATOM     35  C   UNL A   1      38.433  30.996  30.586  1.00  0.00     0.060 A 
ATOM     36  C   UNL A   1      39.594  31.538  31.134  1.00  0.00     0.016 A 
ATOM     37  C   UNL A   1      38.127  29.627  30.664  1.00  0.00     0.016 A 
ATOM     38  C   UNL A   1      40.589  30.668  31.499  1.00  0.00     0.010 A 
ATOM     39  C   UNL A   1      39.127  28.758  31.024  1.00  0.00     0.010 A 
ATOM     40  C   UNL A   1      40.374  29.297  31.318  1.00  0.00    -0.014 A 
BRANCH  40  41
ATOM     41  C   UNL A   1      41.544  28.458  31.345  1.00  0.00     0.031 A 
ATOM     42  C   UNL A   1      42.187  28.353  32.660  1.00  0.00     0.074 A 
ATOM     43  C   UNL A   1      42.010  27.849  30.240  1.00  0.00     0.049 A 
ATOM     44  N   UNL A   1      43.284  28.918  33.038  1.00  0.00    -0.248 NA
ATOM     45  C   UNL A   1      41.443  27.668  33.719  1.00  0.00     0.031 C 
ATOM     46  C   UNL A   1      41.336  27.652  28.953  1.00  0.00     0.029 A 
ATOM     47  N   UNL A   1      43.171  27.163  30.096  1.00  0.00    -0.354 N 
ATOM     48  C   UNL A   1      43.487  28.469  34.334  1.00  0.00     0.074 A 
ATOM     49  C   UNL A   1      42.249  27.866  34.762  1.00  0.00     0.031 C 
ATOM     50  C   UNL A   1      41.991  26.691  28.262  1.00  0.00     0.029 A 
ATOM     51  C   UNL A   1      43.191  26.325  28.994  1.00  0.00     0.049 A 
ATOM     52  H   UNL A   1      43.930  27.253  30.718  1.00  0.00     0.167 HD
ATOM     53  C   UNL A   1      44.732  28.401  34.873  1.00  0.00     0.034 A 
ATOM     54  C   UNL A   1      44.087  25.335  28.776  1.00  0.00     0.034 A 
ATOM     55  C   UNL A   1      45.700  29.149  34.117  1.00  0.00     0.049 A 
ATOM     56  C   UNL A   1      45.297  25.645  29.575  1.00  0.00     0.074 A 
ATOM     57  C   UNL A   1      45.854  30.472  33.755  1.00  0.00     0.029 A 
ATOM     58  N   UNL A   1      46.542  28.433  33.299  1.00  0.00    -0.354 N 
ATOM     59  N   UNL A   1      46.077  26.664  29.337  1.00  0.00    -0.248 NA
ATOM     60  C   UNL A   1      45.424  25.064  30.903  1.00  0.00     0.031 C 
ATOM     61  C   UNL A   1      46.436  30.438  32.454  1.00  0.00     0.029 A 
ATOM     62  C   UNL A   1      46.619  29.098  32.104  1.00  0.00     0.049 A 
ATOM     63  H   UNL A   1      47.005  27.595  33.531  1.00  0.00     0.167 HD
ATOM     64  C   UNL A   1      46.456  27.120  30.594  1.00  0.00     0.074 A 
ATOM     65  C   UNL A   1      46.131  26.025  31.504  1.00  0.00     0.031 C 
ATOM     66  C   UNL A   1      46.726  28.442  30.817  1.00  0.00     0.034 A 
BRANCH  53  67
ATOM     67  C   UNL A   1      45.145  27.369  35.885  1.00  0.00     0.023 A 
ATOM     68  C   UNL A   1      45.827  27.818  37.034  1.00  0.00     0.012 A 
ATOM     69  C   UNL A   1      45.129  25.977  35.642  1.00  0.00     0.148 A 
ATOM     70  C   UNL A   1      46.483  26.924  37.886  1.00  0.00     0.002 A 
ATOM     71  C   UNL A   1      45.702  25.088  36.540  1.00  0.00     0.091 A 
ATOM     72  F   UNL A   1      44.684  25.505  34.473  1.00  0.00    -0.205 F 
ATOM     73  C   UNL A   1      46.407  25.557  37.649  1.00  0.00     0.022 A 
BRANCH  71  74
ATOM     74  S   UNL A   1      45.563  23.314  36.299  1.00  0.00     0.127 S 
ATOM     75  O   UNL A   1      45.579  22.829  37.674  1.00  0.00    -0.237 OA
ATOM     76  O   UNL A   1      44.274  23.201  35.615  1.00  0.00    -0.237 OA
ATOM     77  O   UNL A   1      46.706  22.956  35.469  1.00  0.00    -0.744 OA
ENDBRANCH  71  74
ENDBRANCH  53  67
BRANCH  54  78
ATOM     78  C   UNL A   1      43.845  24.014  28.159  1.00  0.00     0.023 A 
ATOM     79  C   UNL A   1      42.774  23.218  28.602  1.00  0.00     0.012 A 
ATOM     80  C   UNL A   1      44.509  23.641  26.966  1.00  0.00     0.148 A 
ATOM     81  C   UNL A   1      42.363  22.098  27.871  1.00  0.00     0.002 A 
ATOM     82  C   UNL A   1      44.107  22.519  26.251  1.00  0.00     0.091 A 
ATOM     83  F   UNL A   1      45.475  24.436  26.488  1.00  0.00    -0.205 F 
ATOM     84  C   UNL A   1      43.025  21.751  26.695  1.00  0.00     0.022 A 
BRANCH  82  85
ATOM     85  S   UNL A   1      44.909  22.019  24.720  1.00  0.00     0.127 S 
ATOM     86  O   UNL A   1      46.284  21.785  25.164  1.00  0.00    -0.237 OA
ATOM     87  O   UNL A   1      44.164  20.814  24.369  1.00  0.00    -0.237 OA
ATOM     88  O   UNL A   1      44.760  23.145  23.806  1.00  0.00    -0.744 OA
ENDBRANCH  82  85
ENDBRANCH  54  78
BRANCH  66  89
ATOM     89  C   UNL A   1      46.833  29.352  29.615  1.00  0.00     0.023 A 
ATOM     90  C   UNL A   1      48.047  29.498  28.909  1.00  0.00     0.012 A 
ATOM     91  C   UNL A   1      45.665  29.922  29.078  1.00  0.00     0.148 A 
ATOM     92  C   UNL A   1      48.104  30.219  27.714  1.00  0.00     0.002 A 
ATOM     93  C   UNL A   1      45.717  30.602  27.865  1.00  0.00     0.091 A 
ATOM     94  F   UNL A   1      44.514  29.759  29.746  1.00  0.00    -0.205 F 
ATOM     95  C   UNL A   1      46.937  30.762  27.186  1.00  0.00     0.022 A 
BRANCH  93  96
ATOM     96  S   UNL A   1      44.238  31.218  27.055  1.00  0.00     0.127 S 
ATOM     97  O   UNL A   1      43.520  29.984  26.746  1.00  0.00    -0.237 OA
ATOM     98  O   UNL A   1      43.624  32.035  28.105  1.00  0.00    -0.237 OA
ATOM     99  O   UNL A   1      44.698  31.981  25.902  1.00  0.00    -0.744 OA
ENDBRANCH  93  96
ENDBRANCH  66  89
ENDBRANCH  40  41
ENDBRANCH  33  35
ENDBRANCH  32  33
ENDBRANCH  31  32
ENDBRANCH  30  31
ENDBRANCH  29  30
ENDBRANCH  28  29
ENDBRANCH   1  28
TORSDOF 24
ENDMDL
