MODEL 1
REMARK VINA RESULT:      -9.4      0.000      0.000
REMARK SMILES COC(=O)[C@@H](CC(=O)OCCOCCOCCOC(=O)c1ccc(-c2c3nc(c(-c4cccc(S(=O)(=O)[O-])c4F)c4ccc([nH]4)c(-c4cccc(S(=O)(=O)[O-])c4F)c4nc(c(-c5cccc(S(=O)(=O)[O-])c5F)c5ccc2[nH]5)C=C4)C=C3)cc1)C1CCCCC1
REMARK SMILES IDX 13 1 12 2 11 3 10 4 9 5 7 6 8 7 6 8 5 9 3 10 4 11 2 12 1 13
REMARK SMILES IDX 84 14 85 15 89 16 86 17 88 18 87 19 14 20 15 21 16 22 17 23
REMARK SMILES IDX 18 24 19 25 20 26 21 27 22 28 83 29 23 30 82 31 24 32 25 33
REMARK SMILES IDX 26 34 76 35 27 36 81 37 75 38 77 39 28 40 80 41 74 42 73 43
REMARK SMILES IDX 29 45 61 46 41 47 60 48 42 49 45 50 59 51 78 52 43 53 44 54
REMARK SMILES IDX 58 56 79 57 46 58 30 59 31 60 39 61 32 62 34 63 40 64 33 65
REMARK SMILES IDX 35 66 36 67 37 68 38 69 62 70 63 71 71 72 64 73 66 74 72 75
REMARK SMILES IDX 65 76 67 77 68 78 69 79 70 80 47 81 48 82 56 83 49 84 51 85
REMARK SMILES IDX 57 86 50 87 52 88 53 89 54 90 55 91
REMARK H PARENT 77 44 45 55
REMARK Flexibility Score: inf
ROOT
ATOM      1  C   UNL A   1      33.811  26.844  25.314  1.00  0.00     0.188 C 
ENDROOT
BRANCH   1   2
ATOM      2  O   UNL A   1      33.857  26.840  23.892  1.00  0.00    -0.376 OA
BRANCH   2   3
ATOM      3  C   UNL A   1      33.179  25.804  23.190  1.00  0.00     0.202 C 
BRANCH   3   4
ATOM      4  C   UNL A   1      33.981  24.522  22.936  1.00  0.00     0.261 C 
BRANCH   4   5
ATOM      5  O   UNL A   1      34.123  23.796  24.167  1.00  0.00    -0.463 OA
BRANCH   5   6
ATOM      6  C   UNL A   1      35.349  23.335  24.499  1.00  0.00     0.306 C 
ATOM      7  O   UNL A   1      36.327  24.043  24.691  1.00  0.00    -0.252 OA
BRANCH   6   8
ATOM      8  C   UNL A   1      35.306  21.838  24.790  1.00  0.00     0.138 C 
BRANCH   8   9
ATOM      9  C   UNL A   1      33.961  21.118  25.062  1.00  0.00     0.113 C 
BRANCH   9  10
ATOM     10  C   UNL A   1      33.331  21.430  26.412  1.00  0.00     0.309 C 
ATOM     11  O   UNL A   1      33.932  21.313  27.475  1.00  0.00    -0.252 OA
BRANCH  10  12
ATOM     12  O   UNL A   1      32.073  21.910  26.289  1.00  0.00    -0.469 OA
ATOM     13  C   UNL A   1      31.785  23.081  27.053  1.00  0.00     0.282 C 
ENDBRANCH  10  12
ENDBRANCH   9  10
BRANCH   9  14
ATOM     14  C   UNL A   1      33.786  19.605  24.607  1.00  0.00     0.004 C 
ATOM     15  C   UNL A   1      35.056  18.733  24.675  1.00  0.00     0.004 C 
ATOM     16  C   UNL A   1      32.581  18.870  25.243  1.00  0.00     0.004 C 
ATOM     17  C   UNL A   1      34.844  17.279  24.241  1.00  0.00     0.000 C 
ATOM     18  C   UNL A   1      32.403  17.446  24.718  1.00  0.00     0.000 C 
ATOM     19  C   UNL A   1      33.662  16.627  24.943  1.00  0.00     0.000 C 
ENDBRANCH   9  14
ENDBRANCH   8   9
ENDBRANCH   6   8
ENDBRANCH   5   6
ENDBRANCH   4   5
ENDBRANCH   3   4
ENDBRANCH   2   3
ENDBRANCH   1   2
BRANCH   1  20
ATOM     20  C   UNL A   1      32.538  26.345  26.027  1.00  0.00     0.188 C 
BRANCH  20  21
ATOM     21  O   UNL A   1      31.448  27.237  26.194  1.00  0.00    -0.376 OA
BRANCH  21  22
ATOM     22  C   UNL A   1      31.514  28.446  25.448  1.00  0.00     0.202 C 
BRANCH  22  23
ATOM     23  C   UNL A   1      31.697  29.700  26.299  1.00  0.00     0.261 C 
BRANCH  23  24
ATOM     24  O   UNL A   1      33.089  29.931  26.599  1.00  0.00    -0.460 OA
BRANCH  24  25
ATOM     25  C   UNL A   1      33.339  31.191  27.022  1.00  0.00     0.338 C 
ATOM     26  O   UNL A   1      32.711  32.195  26.721  1.00  0.00    -0.246 OA
BRANCH  25  27
ATOM     27  C   UNL A   1      34.482  31.261  27.946  1.00  0.00     0.060 A 
ATOM     28  C   UNL A   1      35.348  32.359  27.954  1.00  0.00     0.016 A 
ATOM     29  C   UNL A   1      34.833  30.086  28.603  1.00  0.00     0.016 A 
ATOM     30  C   UNL A   1      36.618  32.241  28.524  1.00  0.00     0.010 A 
ATOM     31  C   UNL A   1      36.073  29.992  29.227  1.00  0.00     0.010 A 
ATOM     32  C   UNL A   1      36.995  31.049  29.155  1.00  0.00    -0.014 A 
BRANCH  32  33
ATOM     33  C   UNL A   1      38.337  30.844  29.757  1.00  0.00     0.031 A 
ATOM     34  C   UNL A   1      39.290  29.874  29.114  1.00  0.00     0.074 A 
ATOM     35  C   UNL A   1      38.624  31.407  30.944  1.00  0.00     0.049 A 
ATOM     36  N   UNL A   1      40.287  29.218  29.644  1.00  0.00    -0.248 NA
ATOM     37  C   UNL A   1      39.077  29.592  27.684  1.00  0.00     0.031 C 
ATOM     38  C   UNL A   1      37.804  32.407  31.629  1.00  0.00     0.029 A 
ATOM     39  N   UNL A   1      39.653  31.161  31.818  1.00  0.00    -0.354 N 
ATOM     40  C   UNL A   1      40.775  28.389  28.638  1.00  0.00     0.074 A 
ATOM     41  C   UNL A   1      39.984  28.650  27.455  1.00  0.00     0.031 C 
ATOM     42  C   UNL A   1      38.333  32.658  32.835  1.00  0.00     0.029 A 
ATOM     43  C   UNL A   1      39.467  31.766  33.041  1.00  0.00     0.049 A 
ATOM     44  H   UNL A   1      40.439  30.612  31.595  1.00  0.00     0.167 HD
ATOM     45  C   UNL A   1      41.782  27.485  28.714  1.00  0.00     0.034 A 
ATOM     46  C   UNL A   1      40.079  31.559  34.222  1.00  0.00     0.034 A 
ATOM     47  C   UNL A   1      42.562  27.270  29.905  1.00  0.00     0.049 A 
ATOM     48  C   UNL A   1      41.158  30.518  34.298  1.00  0.00     0.074 A 
ATOM     49  C   UNL A   1      43.601  26.381  30.111  1.00  0.00     0.029 A 
ATOM     50  N   UNL A   1      42.389  27.965  31.094  1.00  0.00    -0.354 N 
ATOM     51  N   UNL A   1      41.612  29.731  33.352  1.00  0.00    -0.248 NA
ATOM     52  C   UNL A   1      41.820  30.343  35.597  1.00  0.00     0.031 C 
ATOM     53  C   UNL A   1      44.046  26.529  31.429  1.00  0.00     0.029 A 
ATOM     54  C   UNL A   1      43.305  27.532  32.034  1.00  0.00     0.049 A 
ATOM     55  H   UNL A   1      41.711  28.663  31.246  1.00  0.00     0.167 HD
ATOM     56  C   UNL A   1      42.644  29.002  33.927  1.00  0.00     0.074 A 
ATOM     57  C   UNL A   1      42.749  29.444  35.304  1.00  0.00     0.031 C 
ATOM     58  C   UNL A   1      43.430  28.045  33.374  1.00  0.00     0.034 A 
BRANCH  45  59
ATOM     59  C   UNL A   1      42.103  26.664  27.490  1.00  0.00     0.023 A 
ATOM     60  C   UNL A   1      42.742  27.266  26.388  1.00  0.00     0.012 A 
ATOM     61  C   UNL A   1      41.838  25.279  27.457  1.00  0.00     0.148 A 
ATOM     62  C   UNL A   1      43.087  26.513  25.265  1.00  0.00     0.002 A 
ATOM     63  C   UNL A   1      42.220  24.526  26.350  1.00  0.00     0.091 A 
ATOM     64  F   UNL A   1      41.216  24.722  28.506  1.00  0.00    -0.205 F 
ATOM     65  C   UNL A   1      42.835  25.143  25.250  1.00  0.00     0.022 A 
BRANCH  63  66
ATOM     66  S   UNL A   1      42.005  22.743  26.262  1.00  0.00     0.127 S 
ATOM     67  O   UNL A   1      42.649  22.432  24.986  1.00  0.00    -0.237 OA
ATOM     68  O   UNL A   1      42.739  22.285  27.441  1.00  0.00    -0.237 OA
ATOM     69  O   UNL A   1      40.569  22.507  26.309  1.00  0.00    -0.744 OA
ENDBRANCH  63  66
ENDBRANCH  45  59
BRANCH  46  70
ATOM     70  C   UNL A   1      39.674  32.350  35.418  1.00  0.00     0.023 A 
ATOM     71  C   UNL A   1      38.874  31.743  36.403  1.00  0.00     0.012 A 
ATOM     72  C   UNL A   1      40.117  33.674  35.615  1.00  0.00     0.148 A 
ATOM     73  C   UNL A   1      38.501  32.445  37.550  1.00  0.00     0.002 A 
ATOM     74  C   UNL A   1      39.794  34.347  36.787  1.00  0.00     0.091 A 
ATOM     75  F   UNL A   1      40.866  34.244  34.658  1.00  0.00    -0.205 F 
ATOM     76  C   UNL A   1      38.972  33.741  37.749  1.00  0.00     0.022 A 
BRANCH  74  77
ATOM     77  S   UNL A   1      40.482  35.958  37.187  1.00  0.00     0.127 S 
ATOM     78  O   UNL A   1      41.915  35.716  37.043  1.00  0.00    -0.237 OA
ATOM     79  O   UNL A   1      39.894  36.808  36.152  1.00  0.00    -0.237 OA
ATOM     80  O   UNL A   1      40.017  36.255  38.535  1.00  0.00    -0.744 OA
ENDBRANCH  74  77
ENDBRANCH  46  70
BRANCH  58  81
ATOM     81  C   UNL A   1      44.528  27.476  34.227  1.00  0.00     0.023 A 
ATOM     82  C   UNL A   1      45.773  28.128  34.307  1.00  0.00     0.012 A 
ATOM     83  C   UNL A   1      44.286  26.333  35.013  1.00  0.00     0.148 A 
ATOM     84  C   UNL A   1      46.772  27.633  35.143  1.00  0.00     0.002 A 
ATOM     85  C   UNL A   1      45.268  25.875  35.880  1.00  0.00     0.091 A 
ATOM     86  F   UNL A   1      43.099  25.719  34.900  1.00  0.00    -0.205 F 
ATOM     87  C   UNL A   1      46.517  26.517  35.938  1.00  0.00     0.022 A 
BRANCH  85  88
ATOM     88  S   UNL A   1      44.992  24.508  37.009  1.00  0.00     0.127 S 
ATOM     89  O   UNL A   1      43.852  24.989  37.786  1.00  0.00    -0.237 OA
ATOM     90  O   UNL A   1      44.686  23.408  36.093  1.00  0.00    -0.237 OA
ATOM     91  O   UNL A   1      46.231  24.344  37.757  1.00  0.00    -0.744 OA
ENDBRANCH  85  88
ENDBRANCH  58  81
ENDBRANCH  32  33
ENDBRANCH  25  27
ENDBRANCH  24  25
ENDBRANCH  23  24
ENDBRANCH  22  23
ENDBRANCH  21  22
ENDBRANCH  20  21
ENDBRANCH   1  20
TORSDOF 24
ENDMDL
MODEL 2
REMARK VINA RESULT:      -9.0      2.249      3.524
REMARK SMILES COC(=O)[C@@H](CC(=O)OCCOCCOCCOC(=O)c1ccc(-c2c3nc(c(-c4cccc(S(=O)(=O)[O-])c4F)c4ccc([nH]4)c(-c4cccc(S(=O)(=O)[O-])c4F)c4nc(c(-c5cccc(S(=O)(=O)[O-])c5F)c5ccc2[nH]5)C=C4)C=C3)cc1)C1CCCCC1
REMARK SMILES IDX 13 1 12 2 11 3 10 4 9 5 7 6 8 7 6 8 5 9 3 10 4 11 2 12 1 13
REMARK SMILES IDX 84 14 85 15 89 16 86 17 88 18 87 19 14 20 15 21 16 22 17 23
REMARK SMILES IDX 18 24 19 25 20 26 21 27 22 28 83 29 23 30 82 31 24 32 25 33
REMARK SMILES IDX 26 34 76 35 27 36 81 37 75 38 77 39 28 40 80 41 74 42 73 43
REMARK SMILES IDX 29 45 61 46 41 47 60 48 42 49 45 50 59 51 78 52 43 53 44 54
REMARK SMILES IDX 58 56 79 57 46 58 30 59 31 60 39 61 32 62 34 63 40 64 33 65
REMARK SMILES IDX 35 66 36 67 37 68 38 69 62 70 63 71 71 72 64 73 66 74 72 75
REMARK SMILES IDX 65 76 67 77 68 78 69 79 70 80 47 81 48 82 56 83 49 84 51 85
REMARK SMILES IDX 57 86 50 87 52 88 53 89 54 90 55 91
REMARK H PARENT 77 44 45 55
REMARK Flexibility Score: inf
ROOT
ATOM      1  C   UNL A   1      31.990  27.052  26.431  1.00  0.00     0.188 C 
ENDROOT
BRANCH   1   2
ATOM      2  O   UNL A   1      30.947  26.120  26.693  1.00  0.00    -0.376 OA
BRANCH   2   3
ATOM      3  C   UNL A   1      30.521  25.258  25.644  1.00  0.00     0.202 C 
BRANCH   3   4
ATOM      4  C   UNL A   1      31.550  24.237  25.148  1.00  0.00     0.261 C 
BRANCH   4   5
ATOM      5  O   UNL A   1      31.742  24.400  23.734  1.00  0.00    -0.463 OA
BRANCH   5   6
ATOM      6  C   UNL A   1      32.311  23.386  23.045  1.00  0.00     0.306 C 
ATOM      7  O   UNL A   1      32.993  23.528  22.040  1.00  0.00    -0.252 OA
BRANCH   6   8
ATOM      8  C   UNL A   1      32.147  22.064  23.789  1.00  0.00     0.138 C 
BRANCH   8   9
ATOM      9  C   UNL A   1      33.351  21.109  23.987  1.00  0.00     0.113 C 
BRANCH   9  10
ATOM     10  C   UNL A   1      32.986  19.714  24.474  1.00  0.00     0.309 C 
ATOM     11  O   UNL A   1      32.068  19.496  25.259  1.00  0.00    -0.252 OA
BRANCH  10  12
ATOM     12  O   UNL A   1      33.741  18.755  23.891  1.00  0.00    -0.469 OA
ATOM     13  C   UNL A   1      33.039  17.577  23.497  1.00  0.00     0.282 C 
ENDBRANCH  10  12
ENDBRANCH   9  10
BRANCH   9  14
ATOM     14  C   UNL A   1      34.696  21.676  24.617  1.00  0.00     0.004 C 
ATOM     15  C   UNL A   1      35.670  22.345  23.626  1.00  0.00     0.004 C 
ATOM     16  C   UNL A   1      34.504  22.555  25.876  1.00  0.00     0.004 C 
ATOM     17  C   UNL A   1      36.949  22.890  24.273  1.00  0.00     0.000 C 
ATOM     18  C   UNL A   1      35.824  23.013  26.495  1.00  0.00     0.000 C 
ATOM     19  C   UNL A   1      36.661  23.772  25.480  1.00  0.00     0.000 C 
ENDBRANCH   9  14
ENDBRANCH   8   9
ENDBRANCH   6   8
ENDBRANCH   5   6
ENDBRANCH   4   5
ENDBRANCH   3   4
ENDBRANCH   2   3
ENDBRANCH   1   2
BRANCH   1  20
ATOM     20  C   UNL A   1      31.897  27.951  25.182  1.00  0.00     0.188 C 
BRANCH  20  21
ATOM     21  O   UNL A   1      31.189  29.177  25.266  1.00  0.00    -0.376 OA
BRANCH  21  22
ATOM     22  C   UNL A   1      31.858  30.235  25.944  1.00  0.00     0.202 C 
BRANCH  22  23
ATOM     23  C   UNL A   1      33.374  30.068  26.025  1.00  0.00     0.261 C 
BRANCH  23  24
ATOM     24  O   UNL A   1      33.815  29.950  27.392  1.00  0.00    -0.460 OA
BRANCH  24  25
ATOM     25  C   UNL A   1      34.887  30.725  27.673  1.00  0.00     0.338 C 
ATOM     26  O   UNL A   1      34.920  31.946  27.670  1.00  0.00    -0.246 OA
BRANCH  25  27
ATOM     27  C   UNL A   1      36.079  29.936  28.024  1.00  0.00     0.060 A 
ATOM     28  C   UNL A   1      36.226  29.358  29.288  1.00  0.00     0.016 A 
ATOM     29  C   UNL A   1      37.167  30.024  27.161  1.00  0.00     0.016 A 
ATOM     30  C   UNL A   1      37.492  28.972  29.735  1.00  0.00     0.010 A 
ATOM     31  C   UNL A   1      38.416  29.578  27.583  1.00  0.00     0.010 A 
ATOM     32  C   UNL A   1      38.601  29.090  28.888  1.00  0.00    -0.014 A 
BRANCH  32  33
ATOM     33  C   UNL A   1      39.978  28.725  29.305  1.00  0.00     0.031 A 
ATOM     34  C   UNL A   1      40.565  27.420  28.841  1.00  0.00     0.074 A 
ATOM     35  C   UNL A   1      40.622  29.488  30.206  1.00  0.00     0.049 A 
ATOM     36  N   UNL A   1      41.511  26.700  29.380  1.00  0.00    -0.248 NA
ATOM     37  C   UNL A   1      39.991  26.839  27.615  1.00  0.00     0.031 C 
ATOM     38  C   UNL A   1      40.179  30.800  30.679  1.00  0.00     0.029 A 
ATOM     39  N   UNL A   1      41.754  29.232  30.940  1.00  0.00    -0.354 N 
ATOM     40  C   UNL A   1      41.598  25.546  28.607  1.00  0.00     0.074 A 
ATOM     41  C   UNL A   1      40.630  25.677  27.540  1.00  0.00     0.031 C 
ATOM     42  C   UNL A   1      40.999  31.216  31.654  1.00  0.00     0.029 A 
ATOM     43  C   UNL A   1      41.960  30.159  31.937  1.00  0.00     0.049 A 
ATOM     44  H   UNL A   1      42.352  28.468  30.771  1.00  0.00     0.167 HD
ATOM     45  C   UNL A   1      42.408  24.474  28.792  1.00  0.00     0.034 A 
ATOM     46  C   UNL A   1      42.768  30.121  33.014  1.00  0.00     0.034 A 
ATOM     47  C   UNL A   1      43.377  24.390  29.853  1.00  0.00     0.049 A 
ATOM     48  C   UNL A   1      43.620  28.903  33.228  1.00  0.00     0.074 A 
ATOM     49  C   UNL A   1      44.248  23.357  30.151  1.00  0.00     0.029 A 
ATOM     50  N   UNL A   1      43.606  25.388  30.790  1.00  0.00    -0.354 N 
ATOM     51  N   UNL A   1      43.696  27.813  32.504  1.00  0.00    -0.248 NA
ATOM     52  C   UNL A   1      44.507  28.913  34.398  1.00  0.00     0.031 C 
ATOM     53  C   UNL A   1      44.993  23.727  31.276  1.00  0.00     0.029 A 
ATOM     54  C   UNL A   1      44.608  25.002  31.659  1.00  0.00     0.049 A 
ATOM     55  H   UNL A   1      43.123  26.246  30.829  1.00  0.00     0.167 HD
ATOM     56  C   UNL A   1      44.673  27.027  33.101  1.00  0.00     0.074 A 
ATOM     57  C   UNL A   1      45.161  27.770  34.246  1.00  0.00     0.031 C 
ATOM     58  C   UNL A   1      45.121  25.798  32.745  1.00  0.00     0.034 A 
BRANCH  45  59
ATOM     59  C   UNL A   1      42.289  23.312  27.836  1.00  0.00     0.023 A 
ATOM     60  C   UNL A   1      41.115  22.533  27.820  1.00  0.00     0.012 A 
ATOM     61  C   UNL A   1      43.310  23.035  26.903  1.00  0.00     0.148 A 
ATOM     62  C   UNL A   1      40.970  21.482  26.913  1.00  0.00     0.002 A 
ATOM     63  C   UNL A   1      43.142  22.011  25.975  1.00  0.00     0.091 A 
ATOM     64  F   UNL A   1      44.427  23.775  26.939  1.00  0.00    -0.205 F 
ATOM     65  C   UNL A   1      41.977  21.228  25.986  1.00  0.00     0.022 A 
BRANCH  63  66
ATOM     66  S   UNL A   1      44.349  21.649  24.693  1.00  0.00     0.127 S 
ATOM     67  O   UNL A   1      45.609  21.826  25.416  1.00  0.00    -0.237 OA
ATOM     68  O   UNL A   1      44.032  20.262  24.354  1.00  0.00    -0.237 OA
ATOM     69  O   UNL A   1      44.104  22.608  23.626  1.00  0.00    -0.744 OA
ENDBRANCH  63  66
ENDBRANCH  45  59
BRANCH  46  70
ATOM     70  C   UNL A   1      42.795  31.268  33.964  1.00  0.00     0.023 A 
ATOM     71  C   UNL A   1      43.664  32.345  33.713  1.00  0.00     0.012 A 
ATOM     72  C   UNL A   1      41.933  31.326  35.079  1.00  0.00     0.148 A 
ATOM     73  C   UNL A   1      43.694  33.449  34.566  1.00  0.00     0.002 A 
ATOM     74  C   UNL A   1      41.924  32.455  35.889  1.00  0.00     0.091 A 
ATOM     75  F   UNL A   1      41.122  30.284  35.312  1.00  0.00    -0.205 F 
ATOM     76  C   UNL A   1      42.815  33.511  35.645  1.00  0.00     0.022 A 
BRANCH  74  77
ATOM     77  S   UNL A   1      40.722  32.678  37.207  1.00  0.00     0.127 S 
ATOM     78  O   UNL A   1      41.422  32.099  38.351  1.00  0.00    -0.237 OA
ATOM     79  O   UNL A   1      40.575  34.133  37.245  1.00  0.00    -0.237 OA
ATOM     80  O   UNL A   1      39.527  31.971  36.765  1.00  0.00    -0.744 OA
ENDBRANCH  74  77
ENDBRANCH  46  70
BRANCH  58  81
ATOM     81  C   UNL A   1      46.252  25.217  33.545  1.00  0.00     0.023 A 
ATOM     82  C   UNL A   1      47.583  25.570  33.250  1.00  0.00     0.012 A 
ATOM     83  C   UNL A   1      45.979  24.383  34.646  1.00  0.00     0.148 A 
ATOM     84  C   UNL A   1      48.629  25.078  34.028  1.00  0.00     0.002 A 
ATOM     85  C   UNL A   1      47.021  23.937  35.446  1.00  0.00     0.091 A 
ATOM     86  F   UNL A   1      44.704  24.046  34.891  1.00  0.00    -0.205 F 
ATOM     87  C   UNL A   1      48.349  24.274  35.133  1.00  0.00     0.022 A 
BRANCH  85  88
ATOM     88  S   UNL A   1      46.745  22.982  36.941  1.00  0.00     0.127 S 
ATOM     89  O   UNL A   1      46.358  21.683  36.396  1.00  0.00    -0.237 OA
ATOM     90  O   UNL A   1      48.065  23.011  37.573  1.00  0.00    -0.237 OA
ATOM     91  O   UNL A   1      45.705  23.683  37.681  1.00  0.00    -0.744 OA
ENDBRANCH  85  88
ENDBRANCH  58  81
ENDBRANCH  32  33
ENDBRANCH  25  27
ENDBRANCH  24  25
ENDBRANCH  23  24
ENDBRANCH  22  23
ENDBRANCH  21  22
ENDBRANCH  20  21
ENDBRANCH   1  20
TORSDOF 24
ENDMDL
MODEL 3
REMARK VINA RESULT:      -8.9      2.761      3.831
REMARK SMILES COC(=O)[C@@H](CC(=O)OCCOCCOCCOC(=O)c1ccc(-c2c3nc(c(-c4cccc(S(=O)(=O)[O-])c4F)c4ccc([nH]4)c(-c4cccc(S(=O)(=O)[O-])c4F)c4nc(c(-c5cccc(S(=O)(=O)[O-])c5F)c5ccc2[nH]5)C=C4)C=C3)cc1)C1CCCCC1
REMARK SMILES IDX 13 1 12 2 11 3 10 4 9 5 7 6 8 7 6 8 5 9 3 10 4 11 2 12 1 13
REMARK SMILES IDX 84 14 85 15 89 16 86 17 88 18 87 19 14 20 15 21 16 22 17 23
REMARK SMILES IDX 18 24 19 25 20 26 21 27 22 28 83 29 23 30 82 31 24 32 25 33
REMARK SMILES IDX 26 34 76 35 27 36 81 37 75 38 77 39 28 40 80 41 74 42 73 43
REMARK SMILES IDX 29 45 61 46 41 47 60 48 42 49 45 50 59 51 78 52 43 53 44 54
REMARK SMILES IDX 58 56 79 57 46 58 30 59 31 60 39 61 32 62 34 63 40 64 33 65
REMARK SMILES IDX 35 66 36 67 37 68 38 69 62 70 63 71 71 72 64 73 66 74 72 75
REMARK SMILES IDX 65 76 67 77 68 78 69 79 70 80 47 81 48 82 56 83 49 84 51 85
REMARK SMILES IDX 57 86 50 87 52 88 53 89 54 90 55 91
REMARK H PARENT 77 44 45 55
REMARK Flexibility Score: inf
ROOT
ATOM      1  C   UNL A   1      32.030  27.101  26.503  1.00  0.00     0.188 C 
ENDROOT
BRANCH   1   2
ATOM      2  O   UNL A   1      30.980  26.160  26.694  1.00  0.00    -0.376 OA
BRANCH   2   3
ATOM      3  C   UNL A   1      30.815  25.119  25.737  1.00  0.00     0.202 C 
BRANCH   3   4
ATOM      4  C   UNL A   1      31.311  23.731  26.155  1.00  0.00     0.261 C 
BRANCH   4   5
ATOM      5  O   UNL A   1      32.154  23.852  27.311  1.00  0.00    -0.463 OA
BRANCH   5   6
ATOM      6  C   UNL A   1      33.263  23.083  27.377  1.00  0.00     0.306 C 
ATOM      7  O   UNL A   1      33.321  21.997  27.936  1.00  0.00    -0.252 OA
BRANCH   6   8
ATOM      8  C   UNL A   1      34.375  23.655  26.504  1.00  0.00     0.138 C 
BRANCH   8   9
ATOM      9  C   UNL A   1      35.116  22.766  25.474  1.00  0.00     0.113 C 
BRANCH   9  10
ATOM     10  C   UNL A   1      36.526  23.227  25.129  1.00  0.00     0.309 C 
ATOM     11  O   UNL A   1      37.159  22.791  24.173  1.00  0.00    -0.252 OA
BRANCH  10  12
ATOM     12  O   UNL A   1      36.957  24.208  25.953  1.00  0.00    -0.469 OA
ATOM     13  C   UNL A   1      38.221  23.977  26.573  1.00  0.00     0.282 C 
ENDBRANCH  10  12
ENDBRANCH   9  10
BRANCH   9  14
ATOM     14  C   UNL A   1      34.312  22.180  24.234  1.00  0.00     0.004 C 
ATOM     15  C   UNL A   1      33.402  20.972  24.536  1.00  0.00     0.004 C 
ATOM     16  C   UNL A   1      33.559  23.236  23.389  1.00  0.00     0.004 C 
ATOM     17  C   UNL A   1      32.635  20.443  23.319  1.00  0.00     0.000 C 
ATOM     18  C   UNL A   1      32.867  22.640  22.164  1.00  0.00     0.000 C 
ATOM     19  C   UNL A   1      31.897  21.545  22.572  1.00  0.00     0.000 C 
ENDBRANCH   9  14
ENDBRANCH   8   9
ENDBRANCH   6   8
ENDBRANCH   5   6
ENDBRANCH   4   5
ENDBRANCH   3   4
ENDBRANCH   2   3
ENDBRANCH   1   2
BRANCH   1  20
ATOM     20  C   UNL A   1      31.973  28.056  25.294  1.00  0.00     0.188 C 
BRANCH  20  21
ATOM     21  O   UNL A   1      31.162  29.217  25.370  1.00  0.00    -0.376 OA
BRANCH  21  22
ATOM     22  C   UNL A   1      31.705  30.306  26.107  1.00  0.00     0.202 C 
BRANCH  22  23
ATOM     23  C   UNL A   1      33.231  30.314  26.183  1.00  0.00     0.261 C 
BRANCH  23  24
ATOM     24  O   UNL A   1      33.694  29.845  27.465  1.00  0.00    -0.460 OA
BRANCH  24  25
ATOM     25  C   UNL A   1      34.618  30.659  28.026  1.00  0.00     0.338 C 
ATOM     26  O   UNL A   1      34.465  31.834  28.321  1.00  0.00    -0.246 OA
BRANCH  25  27
ATOM     27  C   UNL A   1      35.892  29.971  28.288  1.00  0.00     0.060 A 
ATOM     28  C   UNL A   1      36.189  29.437  29.546  1.00  0.00     0.016 A 
ATOM     29  C   UNL A   1      36.895  30.120  27.334  1.00  0.00     0.016 A 
ATOM     30  C   UNL A   1      37.514  29.159  29.889  1.00  0.00     0.010 A 
ATOM     31  C   UNL A   1      38.204  29.780  27.656  1.00  0.00     0.010 A 
ATOM     32  C   UNL A   1      38.535  29.340  28.949  1.00  0.00    -0.014 A 
BRANCH  32  33
ATOM     33  C   UNL A   1      39.967  29.091  29.253  1.00  0.00     0.031 A 
ATOM     34  C   UNL A   1      40.656  27.907  28.631  1.00  0.00     0.074 A 
ATOM     35  C   UNL A   1      40.584  29.832  30.190  1.00  0.00     0.049 A 
ATOM     36  N   UNL A   1      41.704  27.248  29.044  1.00  0.00    -0.248 NA
ATOM     37  C   UNL A   1      40.068  27.384  27.385  1.00  0.00     0.031 C 
ATOM     38  C   UNL A   1      40.038  31.037  30.815  1.00  0.00     0.029 A 
ATOM     39  N   UNL A   1      41.781  29.634  30.834  1.00  0.00    -0.354 N 
ATOM     40  C   UNL A   1      41.861  26.188  28.156  1.00  0.00     0.074 A 
ATOM     41  C   UNL A   1      40.818  26.312  27.160  1.00  0.00     0.031 C 
ATOM     42  C   UNL A   1      40.871  31.448  31.781  1.00  0.00     0.029 A 
ATOM     43  C   UNL A   1      41.953  30.480  31.906  1.00  0.00     0.049 A 
ATOM     44  H   UNL A   1      42.444  28.960  30.558  1.00  0.00     0.167 HD
ATOM     45  C   UNL A   1      42.788  25.199  28.189  1.00  0.00     0.034 A 
ATOM     46  C   UNL A   1      42.827  30.430  32.929  1.00  0.00     0.034 A 
ATOM     47  C   UNL A   1      43.826  25.122  29.184  1.00  0.00     0.049 A 
ATOM     48  C   UNL A   1      43.813  29.299  32.975  1.00  0.00     0.074 A 
ATOM     49  C   UNL A   1      44.817  24.168  29.329  1.00  0.00     0.029 A 
ATOM     50  N   UNL A   1      44.009  26.048  30.202  1.00  0.00    -0.354 N 
ATOM     51  N   UNL A   1      43.956  28.296  32.142  1.00  0.00    -0.248 NA
ATOM     52  C   UNL A   1      44.767  29.296  34.091  1.00  0.00     0.031 C 
ATOM     53  C   UNL A   1      45.589  24.511  30.444  1.00  0.00     0.029 A 
ATOM     54  C   UNL A   1      45.099  25.694  30.973  1.00  0.00     0.049 A 
ATOM     55  H   UNL A   1      43.443  26.840  30.352  1.00  0.00     0.167 HD
ATOM     56  C   UNL A   1      45.045  27.570  32.605  1.00  0.00     0.074 A 
ATOM     57  C   UNL A   1      45.526  28.251  33.791  1.00  0.00     0.031 C 
ATOM     58  C   UNL A   1      45.594  26.436  32.104  1.00  0.00     0.034 A 
BRANCH  45  59
ATOM     59  C   UNL A   1      42.730  24.125  27.130  1.00  0.00     0.023 A 
ATOM     60  C   UNL A   1      43.584  24.195  26.012  1.00  0.00     0.012 A 
ATOM     61  C   UNL A   1      41.880  23.008  27.277  1.00  0.00     0.148 A 
ATOM     62  C   UNL A   1      43.576  23.188  25.045  1.00  0.00     0.002 A 
ATOM     63  C   UNL A   1      41.905  21.989  26.330  1.00  0.00     0.091 A 
ATOM     64  F   UNL A   1      41.063  22.962  28.339  1.00  0.00    -0.205 F 
ATOM     65  C   UNL A   1      42.745  22.082  25.209  1.00  0.00     0.022 A 
BRANCH  63  66
ATOM     66  S   UNL A   1      40.926  20.489  26.485  1.00  0.00     0.127 S 
ATOM     67  O   UNL A   1      39.615  20.943  26.021  1.00  0.00    -0.237 OA
ATOM     68  O   UNL A   1      41.613  19.577  25.571  1.00  0.00    -0.237 OA
ATOM     69  O   UNL A   1      40.991  20.108  27.889  1.00  0.00    -0.744 OA
ENDBRANCH  63  66
ENDBRANCH  45  59
BRANCH  46  70
ATOM     70  C   UNL A   1      42.795  31.479  33.986  1.00  0.00     0.023 A 
ATOM     71  C   UNL A   1      43.669  32.578  33.889  1.00  0.00     0.012 A 
ATOM     72  C   UNL A   1      41.875  31.427  35.053  1.00  0.00     0.148 A 
ATOM     73  C   UNL A   1      43.645  33.593  34.845  1.00  0.00     0.002 A 
ATOM     74  C   UNL A   1      41.814  32.472  35.968  1.00  0.00     0.091 A 
ATOM     75  F   UNL A   1      41.060  30.365  35.141  1.00  0.00    -0.205 F 
ATOM     76  C   UNL A   1      42.710  33.548  35.876  1.00  0.00     0.022 A 
BRANCH  74  77
ATOM     77  S   UNL A   1      40.542  32.563  37.234  1.00  0.00     0.127 S 
ATOM     78  O   UNL A   1      39.620  31.513  36.808  1.00  0.00    -0.237 OA
ATOM     79  O   UNL A   1      41.298  32.263  38.450  1.00  0.00    -0.237 OA
ATOM     80  O   UNL A   1      40.030  33.925  37.172  1.00  0.00    -0.744 OA
ENDBRANCH  74  77
ENDBRANCH  46  70
BRANCH  58  81
ATOM     81  C   UNL A   1      46.829  25.910  32.782  1.00  0.00     0.023 A 
ATOM     82  C   UNL A   1      46.720  24.960  33.814  1.00  0.00     0.012 A 
ATOM     83  C   UNL A   1      48.102  26.305  32.328  1.00  0.00     0.148 A 
ATOM     84  C   UNL A   1      47.866  24.428  34.404  1.00  0.00     0.002 A 
ATOM     85  C   UNL A   1      49.238  25.735  32.885  1.00  0.00     0.091 A 
ATOM     86  F   UNL A   1      48.176  27.229  31.357  1.00  0.00    -0.205 F 
ATOM     87  C   UNL A   1      49.122  24.804  33.932  1.00  0.00     0.022 A 
BRANCH  85  88
ATOM     88  S   UNL A   1      50.888  26.086  32.274  1.00  0.00     0.127 S 
ATOM     89  O   UNL A   1      51.176  27.367  32.913  1.00  0.00    -0.237 OA
ATOM     90  O   UNL A   1      51.657  24.956  32.796  1.00  0.00    -0.237 OA
ATOM     91  O   UNL A   1      50.781  26.124  30.821  1.00  0.00    -0.744 OA
ENDBRANCH  85  88
ENDBRANCH  58  81
ENDBRANCH  32  33
ENDBRANCH  25  27
ENDBRANCH  24  25
ENDBRANCH  23  24
ENDBRANCH  22  23
ENDBRANCH  21  22
ENDBRANCH  20  21
ENDBRANCH   1  20
TORSDOF 24
ENDMDL
