MODEL 1
REMARK VINA RESULT:      -9.8      0.000      0.000
REMARK SMILES COc1ccc(/C=C(/Sc2nc(C)n[nH]2)C(=O)OCCOCCOCCOC(=O)c2ccc(-c3c4nc(c(-c5cccc(S(=O)(=O)[O-])c5F)c5ccc([nH]5)c(-c5cccc(S(=O)(=O)[O-])c5F)c5nc(c(-c6cccc(S(=O)(=O)[O-])c6F)c6ccc3[nH]6)C=C5)C=C4)cc2)cc1OC
REMARK SMILES IDX 23 1 22 2 21 3 20 4 19 5 18 6 16 7 17 8 8 9 7 10 6 11 3 12
REMARK SMILES IDX 4 13 94 14 5 15 93 16 2 17 1 18 95 19 96 20 9 21 10 22 11 23
REMARK SMILES IDX 15 24 12 25 14 26 13 28 24 29 25 30 26 31 27 32 28 33 29 34
REMARK SMILES IDX 30 35 31 36 92 37 32 38 91 39 33 40 34 41 35 42 85 43 36 44
REMARK SMILES IDX 90 45 84 46 86 47 37 48 89 49 83 50 82 51 38 53 70 54 50 55
REMARK SMILES IDX 69 56 51 57 54 58 68 59 87 60 52 61 53 62 67 64 88 65 55 66
REMARK SMILES IDX 39 67 40 68 48 69 41 70 43 71 49 72 42 73 44 74 45 75 46 76
REMARK SMILES IDX 47 77 71 78 72 79 80 80 73 81 75 82 81 83 74 84 76 85 77 86
REMARK SMILES IDX 78 87 79 88 56 89 57 90 65 91 58 92 60 93 66 94 59 95 61 96
REMARK SMILES IDX 62 97 63 98 64 99
REMARK H PARENT 15 27 86 52 54 63
REMARK Flexibility Score: inf
ROOT
ATOM      1  C   UNL A   1      31.616  28.567  26.603  1.00  0.00     0.188 C 
ENDROOT
BRANCH   1   2
ATOM      2  C   UNL A   1      32.135  27.182  27.045  1.00  0.00     0.188 C 
BRANCH   2   3
ATOM      3  O   UNL A   1      31.258  26.091  26.810  1.00  0.00    -0.376 OA
BRANCH   3   4
ATOM      4  C   UNL A   1      30.287  26.270  25.784  1.00  0.00     0.202 C 
BRANCH   4   5
ATOM      5  C   UNL A   1      30.626  25.594  24.454  1.00  0.00     0.261 C 
BRANCH   5   6
ATOM      6  O   UNL A   1      30.682  26.543  23.380  1.00  0.00    -0.459 OA
BRANCH   6   7
ATOM      7  C   UNL A   1      31.759  26.579  22.562  1.00  0.00     0.345 C 
ATOM      8  O   UNL A   1      31.810  26.209  21.403  1.00  0.00    -0.246 OA
BRANCH   7   9
ATOM      9  C   UNL A   1      32.878  27.215  23.323  1.00  0.00     0.101 C 
ATOM     10  C   UNL A   1      33.830  26.488  23.944  1.00  0.00     0.031 C 
BRANCH  10  11
ATOM     11  C   UNL A   1      34.041  25.023  24.124  1.00  0.00    -0.020 A 
ATOM     12  C   UNL A   1      34.654  22.305  24.714  1.00  0.00     0.160 A 
ATOM     13  C   UNL A   1      34.599  22.758  23.395  1.00  0.00     0.051 A 
ATOM     14  C   UNL A   1      34.375  23.198  25.751  1.00  0.00     0.161 A 
ATOM     15  C   UNL A   1      34.271  24.092  23.107  1.00  0.00     0.012 A 
ATOM     16  C   UNL A   1      34.091  24.541  25.445  1.00  0.00     0.058 A 
BRANCH  12  17
ATOM     17  O   UNL A   1      35.094  21.044  25.004  1.00  0.00    -0.493 OA
ATOM     18  C   UNL A   1      34.085  20.039  24.989  1.00  0.00     0.278 C 
ENDBRANCH  12  17
BRANCH  14  19
ATOM     19  O   UNL A   1      34.359  22.937  27.097  1.00  0.00    -0.493 OA
ATOM     20  C   UNL A   1      33.107  22.598  27.682  1.00  0.00     0.278 C 
ENDBRANCH  14  19
ENDBRANCH  10  11
BRANCH   9  21
ATOM     21  S   UNL A   1      32.849  28.959  23.148  1.00  0.00    -0.043 SA
BRANCH  21  22
ATOM     22  C   UNL A   1      31.219  29.352  22.776  1.00  0.00     0.188 A 
ATOM     23  N   UNL A   1      30.249  29.575  23.627  1.00  0.00    -0.206 NA
ATOM     24  N   UNL A   1      30.819  29.702  21.525  1.00  0.00    -0.254 N 
ATOM     25  C   UNL A   1      29.241  30.058  22.830  1.00  0.00     0.148 A 
ATOM     26  N   UNL A   1      29.547  30.142  21.527  1.00  0.00    -0.158 NA
ATOM     27  H   UNL A   1      31.385  29.643  20.722  1.00  0.00     0.192 HD
ATOM     28  C   UNL A   1      27.948  30.513  23.384  1.00  0.00     0.092 C 
ENDBRANCH  21  22
ENDBRANCH   9  21
ENDBRANCH   7   9
ENDBRANCH   6   7
ENDBRANCH   5   6
ENDBRANCH   4   5
ENDBRANCH   3   4
ENDBRANCH   2   3
ENDBRANCH   1   2
BRANCH   1  29
ATOM     29  O   UNL A   1      32.457  29.715  26.616  1.00  0.00    -0.376 OA
BRANCH  29  30
ATOM     30  C   UNL A   1      33.408  29.907  27.654  1.00  0.00     0.202 C 
BRANCH  30  31
ATOM     31  C   UNL A   1      34.748  30.554  27.325  1.00  0.00     0.261 C 
BRANCH  31  32
ATOM     32  O   UNL A   1      34.839  31.920  27.705  1.00  0.00    -0.460 OA
BRANCH  32  33
ATOM     33  C   UNL A   1      34.898  32.118  29.042  1.00  0.00     0.338 C 
ATOM     34  O   UNL A   1      34.075  32.687  29.737  1.00  0.00    -0.246 OA
BRANCH  33  35
ATOM     35  C   UNL A   1      36.162  31.583  29.565  1.00  0.00     0.060 A 
ATOM     36  C   UNL A   1      36.070  30.622  30.577  1.00  0.00     0.016 A 
ATOM     37  C   UNL A   1      37.378  32.195  29.236  1.00  0.00     0.016 A 
ATOM     38  C   UNL A   1      37.160  30.416  31.394  1.00  0.00     0.010 A 
ATOM     39  C   UNL A   1      38.466  31.994  30.059  1.00  0.00     0.010 A 
ATOM     40  C   UNL A   1      38.312  31.177  31.180  1.00  0.00    -0.014 A 
BRANCH  40  41
ATOM     41  C   UNL A   1      39.307  31.191  32.234  1.00  0.00     0.031 A 
ATOM     42  C   UNL A   1      39.135  32.202  33.296  1.00  0.00     0.074 A 
ATOM     43  C   UNL A   1      40.269  30.246  32.287  1.00  0.00     0.049 A 
ATOM     44  N   UNL A   1      39.965  33.125  33.656  1.00  0.00    -0.248 NA
ATOM     45  C   UNL A   1      37.848  32.227  34.003  1.00  0.00     0.031 C 
ATOM     46  C   UNL A   1      40.344  29.017  31.489  1.00  0.00     0.029 A 
ATOM     47  N   UNL A   1      41.288  30.107  33.179  1.00  0.00    -0.354 N 
ATOM     48  C   UNL A   1      39.391  33.717  34.775  1.00  0.00     0.074 A 
ATOM     49  C   UNL A   1      38.037  33.231  34.857  1.00  0.00     0.031 C 
ATOM     50  C   UNL A   1      41.177  28.150  32.103  1.00  0.00     0.029 A 
ATOM     51  C   UNL A   1      41.776  28.809  33.249  1.00  0.00     0.049 A 
ATOM     52  H   UNL A   1      41.643  30.851  33.719  1.00  0.00     0.167 HD
ATOM     53  C   UNL A   1      40.129  34.395  35.693  1.00  0.00     0.034 A 
ATOM     54  C   UNL A   1      42.532  28.285  34.242  1.00  0.00     0.034 A 
ATOM     55  C   UNL A   1      41.424  34.769  35.201  1.00  0.00     0.049 A 
ATOM     56  C   UNL A   1      43.134  29.405  35.000  1.00  0.00     0.074 A 
ATOM     57  C   UNL A   1      41.888  35.516  34.138  1.00  0.00     0.029 A 
ATOM     58  N   UNL A   1      42.509  34.080  35.681  1.00  0.00    -0.354 N 
ATOM     59  N   UNL A   1      44.063  30.194  34.536  1.00  0.00    -0.248 NA
ATOM     60  C   UNL A   1      42.445  29.883  36.188  1.00  0.00     0.031 C 
ATOM     61  C   UNL A   1      43.115  34.901  33.757  1.00  0.00     0.029 A 
ATOM     62  C   UNL A   1      43.330  33.822  34.616  1.00  0.00     0.049 A 
ATOM     63  H   UNL A   1      42.667  33.818  36.618  1.00  0.00     0.167 HD
ATOM     64  C   UNL A   1      43.787  31.432  35.102  1.00  0.00     0.074 A 
ATOM     65  C   UNL A   1      42.878  31.145  36.207  1.00  0.00     0.031 C 
ATOM     66  C   UNL A   1      44.082  32.596  34.448  1.00  0.00     0.034 A 
BRANCH  53  67
ATOM     67  C   UNL A   1      39.779  34.461  37.154  1.00  0.00     0.023 A 
ATOM     68  C   UNL A   1      39.245  33.307  37.763  1.00  0.00     0.012 A 
ATOM     69  C   UNL A   1      39.732  35.663  37.894  1.00  0.00     0.148 A 
ATOM     70  C   UNL A   1      38.687  33.351  39.045  1.00  0.00     0.002 A 
ATOM     71  C   UNL A   1      39.267  35.681  39.202  1.00  0.00     0.091 A 
ATOM     72  F   UNL A   1      40.014  36.828  37.297  1.00  0.00    -0.205 F 
ATOM     73  C   UNL A   1      38.717  34.534  39.775  1.00  0.00     0.022 A 
BRANCH  71  74
ATOM     74  S   UNL A   1      39.401  37.171  40.195  1.00  0.00     0.127 S 
ATOM     75  O   UNL A   1      38.517  38.086  39.483  1.00  0.00    -0.237 OA
ATOM     76  O   UNL A   1      38.909  36.721  41.498  1.00  0.00    -0.237 OA
ATOM     77  O   UNL A   1      40.824  37.493  40.183  1.00  0.00    -0.744 OA
ENDBRANCH  71  74
ENDBRANCH  53  67
BRANCH  54  78
ATOM     78  C   UNL A   1      42.594  26.885  34.720  1.00  0.00     0.023 A 
ATOM     79  C   UNL A   1      41.579  26.396  35.563  1.00  0.00     0.012 A 
ATOM     80  C   UNL A   1      43.511  25.959  34.173  1.00  0.00     0.148 A 
ATOM     81  C   UNL A   1      41.470  25.028  35.840  1.00  0.00     0.002 A 
ATOM     82  C   UNL A   1      43.414  24.603  34.471  1.00  0.00     0.091 A 
ATOM     83  F   UNL A   1      44.420  26.389  33.288  1.00  0.00    -0.205 F 
ATOM     84  C   UNL A   1      42.387  24.132  35.295  1.00  0.00     0.022 A 
BRANCH  82  85
ATOM     85  S   UNL A   1      44.577  23.402  33.806  1.00  0.00     0.127 S 
ATOM     86  O   UNL A   1      44.320  23.488  32.368  1.00  0.00    -0.237 OA
ATOM     87  O   UNL A   1      45.860  23.952  34.232  1.00  0.00    -0.237 OA
ATOM     88  O   UNL A   1      44.200  22.124  34.400  1.00  0.00    -0.744 OA
ENDBRANCH  82  85
ENDBRANCH  54  78
BRANCH  66  89
ATOM     89  C   UNL A   1      44.992  32.536  33.244  1.00  0.00     0.023 A 
ATOM     90  C   UNL A   1      46.394  32.622  33.371  1.00  0.00     0.012 A 
ATOM     91  C   UNL A   1      44.447  32.194  31.993  1.00  0.00     0.148 A 
ATOM     92  C   UNL A   1      47.230  32.403  32.274  1.00  0.00     0.002 A 
ATOM     93  C   UNL A   1      45.286  31.926  30.915  1.00  0.00     0.091 A 
ATOM     94  F   UNL A   1      43.112  32.105  31.880  1.00  0.00    -0.205 F 
ATOM     95  C   UNL A   1      46.677  32.041  31.050  1.00  0.00     0.022 A 
BRANCH  93  96
ATOM     96  S   UNL A   1      44.635  31.311  29.357  1.00  0.00     0.127 S 
ATOM     97  O   UNL A   1      43.884  32.462  28.860  1.00  0.00    -0.237 OA
ATOM     98  O   UNL A   1      45.851  31.003  28.599  1.00  0.00    -0.237 OA
ATOM     99  O   UNL A   1      43.842  30.136  29.700  1.00  0.00    -0.744 OA
ENDBRANCH  93  96
ENDBRANCH  66  89
ENDBRANCH  40  41
ENDBRANCH  33  35
ENDBRANCH  32  33
ENDBRANCH  31  32
ENDBRANCH  30  31
ENDBRANCH  29  30
ENDBRANCH   1  29
TORSDOF 25
ENDMDL
MODEL 2
REMARK VINA RESULT:      -9.5      3.724      8.450
REMARK SMILES COc1ccc(/C=C(/Sc2nc(C)n[nH]2)C(=O)OCCOCCOCCOC(=O)c2ccc(-c3c4nc(c(-c5cccc(S(=O)(=O)[O-])c5F)c5ccc([nH]5)c(-c5cccc(S(=O)(=O)[O-])c5F)c5nc(c(-c6cccc(S(=O)(=O)[O-])c6F)c6ccc3[nH]6)C=C5)C=C4)cc2)cc1OC
REMARK SMILES IDX 23 1 22 2 21 3 20 4 19 5 18 6 16 7 17 8 8 9 7 10 6 11 3 12
REMARK SMILES IDX 4 13 94 14 5 15 93 16 2 17 1 18 95 19 96 20 9 21 10 22 11 23
REMARK SMILES IDX 15 24 12 25 14 26 13 28 24 29 25 30 26 31 27 32 28 33 29 34
REMARK SMILES IDX 30 35 31 36 92 37 32 38 91 39 33 40 34 41 35 42 85 43 36 44
REMARK SMILES IDX 90 45 84 46 86 47 37 48 89 49 83 50 82 51 38 53 70 54 50 55
REMARK SMILES IDX 69 56 51 57 54 58 68 59 87 60 52 61 53 62 67 64 88 65 55 66
REMARK SMILES IDX 39 67 40 68 48 69 41 70 43 71 49 72 42 73 44 74 45 75 46 76
REMARK SMILES IDX 47 77 71 78 72 79 80 80 73 81 75 82 81 83 74 84 76 85 77 86
REMARK SMILES IDX 78 87 79 88 56 89 57 90 65 91 58 92 60 93 66 94 59 95 61 96
REMARK SMILES IDX 62 97 63 98 64 99
REMARK H PARENT 15 27 86 52 54 63
REMARK Flexibility Score: inf
ROOT
ATOM      1  C   UNL A   1      31.076  27.711  26.915  1.00  0.00     0.188 C 
ENDROOT
BRANCH   1   2
ATOM      2  C   UNL A   1      31.967  26.532  26.467  1.00  0.00     0.188 C 
BRANCH   2   3
ATOM      3  O   UNL A   1      31.352  25.252  26.488  1.00  0.00    -0.376 OA
BRANCH   3   4
ATOM      4  C   UNL A   1      32.220  24.138  26.665  1.00  0.00     0.202 C 
BRANCH   4   5
ATOM      5  C   UNL A   1      31.544  22.770  26.542  1.00  0.00     0.261 C 
BRANCH   5   6
ATOM      6  O   UNL A   1      32.043  22.036  25.416  1.00  0.00    -0.459 OA
BRANCH   6   7
ATOM      7  C   UNL A   1      33.360  21.739  25.330  1.00  0.00     0.345 C 
ATOM      8  O   UNL A   1      34.017  21.085  26.121  1.00  0.00    -0.246 OA
BRANCH   7   9
ATOM      9  C   UNL A   1      33.865  22.315  24.046  1.00  0.00     0.101 C 
ATOM     10  C   UNL A   1      35.183  22.467  23.795  1.00  0.00     0.031 C 
BRANCH  10  11
ATOM     11  C   UNL A   1      36.411  22.219  24.602  1.00  0.00    -0.020 A 
ATOM     12  C   UNL A   1      38.864  22.043  26.039  1.00  0.00     0.160 A 
ATOM     13  C   UNL A   1      38.380  20.956  25.310  1.00  0.00     0.051 A 
ATOM     14  C   UNL A   1      38.113  23.220  26.082  1.00  0.00     0.161 A 
ATOM     15  C   UNL A   1      37.158  21.038  24.624  1.00  0.00     0.012 A 
ATOM     16  C   UNL A   1      36.913  23.298  25.353  1.00  0.00     0.058 A 
BRANCH  12  17
ATOM     17  O   UNL A   1      40.109  22.011  26.604  1.00  0.00    -0.493 OA
ATOM     18  C   UNL A   1      40.573  20.713  26.956  1.00  0.00     0.278 C 
ENDBRANCH  12  17
BRANCH  14  19
ATOM     19  O   UNL A   1      38.411  24.378  26.755  1.00  0.00    -0.493 OA
ATOM     20  C   UNL A   1      39.518  25.138  26.288  1.00  0.00     0.278 C 
ENDBRANCH  14  19
ENDBRANCH  10  11
BRANCH   9  21
ATOM     21  S   UNL A   1      32.552  22.589  22.918  1.00  0.00    -0.043 SA
BRANCH  21  22
ATOM     22  C   UNL A   1      32.732  24.215  22.397  1.00  0.00     0.188 A 
ATOM     23  N   UNL A   1      32.949  25.265  23.150  1.00  0.00    -0.206 NA
ATOM     24  N   UNL A   1      32.897  24.550  21.089  1.00  0.00    -0.254 N 
ATOM     25  C   UNL A   1      33.234  26.250  22.237  1.00  0.00     0.148 A 
ATOM     26  N   UNL A   1      33.201  25.854  20.956  1.00  0.00    -0.158 NA
ATOM     27  H   UNL A   1      32.805  23.921  20.338  1.00  0.00     0.192 HD
ATOM     28  C   UNL A   1      33.614  27.618  22.648  1.00  0.00     0.092 C 
ENDBRANCH  21  22
ENDBRANCH   9  21
ENDBRANCH   7   9
ENDBRANCH   6   7
ENDBRANCH   5   6
ENDBRANCH   4   5
ENDBRANCH   3   4
ENDBRANCH   2   3
ENDBRANCH   1   2
BRANCH   1  29
ATOM     29  O   UNL A   1      31.619  28.832  27.604  1.00  0.00    -0.376 OA
BRANCH  29  30
ATOM     30  C   UNL A   1      32.052  29.982  26.892  1.00  0.00     0.202 C 
BRANCH  30  31
ATOM     31  C   UNL A   1      33.378  30.634  27.266  1.00  0.00     0.261 C 
BRANCH  31  32
ATOM     32  O   UNL A   1      33.501  31.982  26.835  1.00  0.00    -0.460 OA
BRANCH  32  33
ATOM     33  C   UNL A   1      33.302  32.895  27.813  1.00  0.00     0.338 C 
ATOM     34  O   UNL A   1      32.294  33.548  28.015  1.00  0.00    -0.246 OA
BRANCH  33  35
ATOM     35  C   UNL A   1      34.529  33.044  28.606  1.00  0.00     0.060 A 
ATOM     36  C   UNL A   1      35.532  33.859  28.069  1.00  0.00     0.016 A 
ATOM     37  C   UNL A   1      34.765  32.213  29.708  1.00  0.00     0.016 A 
ATOM     38  C   UNL A   1      36.826  33.694  28.513  1.00  0.00     0.010 A 
ATOM     39  C   UNL A   1      36.062  32.043  30.146  1.00  0.00     0.010 A 
ATOM     40  C   UNL A   1      37.085  32.719  29.479  1.00  0.00    -0.014 A 
BRANCH  40  41
ATOM     41  C   UNL A   1      38.467  32.334  29.684  1.00  0.00     0.031 A 
ATOM     42  C   UNL A   1      38.803  30.916  29.447  1.00  0.00     0.074 A 
ATOM     43  C   UNL A   1      39.406  33.261  29.966  1.00  0.00     0.049 A 
ATOM     44  N   UNL A   1      39.327  30.075  30.276  1.00  0.00    -0.248 NA
ATOM     45  C   UNL A   1      38.452  30.348  28.139  1.00  0.00     0.031 C 
ATOM     46  C   UNL A   1      39.255  34.719  29.901  1.00  0.00     0.029 A 
ATOM     47  N   UNL A   1      40.736  33.090  30.205  1.00  0.00    -0.354 N 
ATOM     48  C   UNL A   1      39.564  28.925  29.530  1.00  0.00     0.074 A 
ATOM     49  C   UNL A   1      38.880  29.095  28.274  1.00  0.00     0.031 C 
ATOM     50  C   UNL A   1      40.481  35.281  29.833  1.00  0.00     0.029 A 
ATOM     51  C   UNL A   1      41.482  34.238  29.974  1.00  0.00     0.049 A 
ATOM     52  H   UNL A   1      41.128  32.241  30.513  1.00  0.00     0.167 HD
ATOM     53  C   UNL A   1      40.489  28.002  29.900  1.00  0.00     0.034 A 
ATOM     54  C   UNL A   1      42.822  34.308  29.801  1.00  0.00     0.034 A 
ATOM     55  C   UNL A   1      40.880  28.123  31.276  1.00  0.00     0.049 A 
ATOM     56  C   UNL A   1      43.418  33.065  30.342  1.00  0.00     0.074 A 
ATOM     57  C   UNL A   1      40.221  28.084  32.486  1.00  0.00     0.029 A 
ATOM     58  N   UNL A   1      42.124  28.638  31.539  1.00  0.00    -0.354 N 
ATOM     59  N   UNL A   1      43.470  32.762  31.609  1.00  0.00    -0.248 NA
ATOM     60  C   UNL A   1      43.662  31.962  29.427  1.00  0.00     0.031 C 
ATOM     61  C   UNL A   1      40.933  28.984  33.330  1.00  0.00     0.029 A 
ATOM     62  C   UNL A   1      41.989  29.512  32.585  1.00  0.00     0.049 A 
ATOM     63  H   UNL A   1      42.959  28.419  31.063  1.00  0.00     0.167 HD
ATOM     64  C   UNL A   1      43.325  31.382  31.646  1.00  0.00     0.074 A 
ATOM     65  C   UNL A   1      43.589  30.939  30.282  1.00  0.00     0.031 C 
ATOM     66  C   UNL A   1      42.720  30.757  32.702  1.00  0.00     0.034 A 
BRANCH  53  67
ATOM     67  C   UNL A   1      41.265  27.166  28.920  1.00  0.00     0.023 A 
ATOM     68  C   UNL A   1      41.475  25.806  29.224  1.00  0.00     0.012 A 
ATOM     69  C   UNL A   1      41.992  27.706  27.835  1.00  0.00     0.148 A 
ATOM     70  C   UNL A   1      42.370  25.023  28.488  1.00  0.00     0.002 A 
ATOM     71  C   UNL A   1      42.803  26.901  27.047  1.00  0.00     0.091 A 
ATOM     72  F   UNL A   1      42.010  29.029  27.633  1.00  0.00    -0.205 F 
ATOM     73  C   UNL A   1      43.019  25.564  27.384  1.00  0.00     0.022 A 
BRANCH  71  74
ATOM     74  S   UNL A   1      43.560  27.555  25.556  1.00  0.00     0.127 S 
ATOM     75  O   UNL A   1      44.371  28.646  26.085  1.00  0.00    -0.237 OA
ATOM     76  O   UNL A   1      44.317  26.403  25.061  1.00  0.00    -0.237 OA
ATOM     77  O   UNL A   1      42.435  27.928  24.706  1.00  0.00    -0.744 OA
ENDBRANCH  71  74
ENDBRANCH  53  67
BRANCH  54  78
ATOM     78  C   UNL A   1      43.605  35.275  29.000  1.00  0.00     0.023 A 
ATOM     79  C   UNL A   1      43.258  35.502  27.655  1.00  0.00     0.012 A 
ATOM     80  C   UNL A   1      44.541  36.145  29.604  1.00  0.00     0.148 A 
ATOM     81  C   UNL A   1      43.811  36.571  26.940  1.00  0.00     0.002 A 
ATOM     82  C   UNL A   1      45.107  37.191  28.881  1.00  0.00     0.091 A 
ATOM     83  F   UNL A   1      44.808  36.010  30.910  1.00  0.00    -0.205 F 
ATOM     84  C   UNL A   1      44.735  37.415  27.552  1.00  0.00     0.022 A 
BRANCH  82  85
ATOM     85  S   UNL A   1      46.314  38.305  29.615  1.00  0.00     0.127 S 
ATOM     86  O   UNL A   1      45.544  38.929  30.692  1.00  0.00    -0.237 OA
ATOM     87  O   UNL A   1      47.351  37.380  30.062  1.00  0.00    -0.237 OA
ATOM     88  O   UNL A   1      46.694  39.226  28.549  1.00  0.00    -0.744 OA
ENDBRANCH  82  85
ENDBRANCH  54  78
BRANCH  66  89
ATOM     89  C   UNL A   1      42.487  31.544  33.970  1.00  0.00     0.023 A 
ATOM     90  C   UNL A   1      43.481  31.658  34.963  1.00  0.00     0.012 A 
ATOM     91  C   UNL A   1      41.332  32.341  34.077  1.00  0.00     0.148 A 
ATOM     92  C   UNL A   1      43.316  32.518  36.051  1.00  0.00     0.002 A 
ATOM     93  C   UNL A   1      41.195  33.235  35.135  1.00  0.00     0.091 A 
ATOM     94  F   UNL A   1      40.393  32.235  33.123  1.00  0.00    -0.205 F 
ATOM     95  C   UNL A   1      42.180  33.317  36.129  1.00  0.00     0.022 A 
BRANCH  93  96
ATOM     96  S   UNL A   1      39.823  34.393  35.205  1.00  0.00     0.127 S 
ATOM     97  O   UNL A   1      40.220  35.275  36.301  1.00  0.00    -0.237 OA
ATOM     98  O   UNL A   1      39.858  35.015  33.879  1.00  0.00    -0.237 OA
ATOM     99  O   UNL A   1      38.636  33.580  35.443  1.00  0.00    -0.744 OA
ENDBRANCH  93  96
ENDBRANCH  66  89
ENDBRANCH  40  41
ENDBRANCH  33  35
ENDBRANCH  32  33
ENDBRANCH  31  32
ENDBRANCH  30  31
ENDBRANCH  29  30
ENDBRANCH   1  29
TORSDOF 25
ENDMDL
MODEL 3
REMARK VINA RESULT:      -9.4      6.024      9.474
REMARK SMILES COc1ccc(/C=C(/Sc2nc(C)n[nH]2)C(=O)OCCOCCOCCOC(=O)c2ccc(-c3c4nc(c(-c5cccc(S(=O)(=O)[O-])c5F)c5ccc([nH]5)c(-c5cccc(S(=O)(=O)[O-])c5F)c5nc(c(-c6cccc(S(=O)(=O)[O-])c6F)c6ccc3[nH]6)C=C5)C=C4)cc2)cc1OC
REMARK SMILES IDX 23 1 22 2 21 3 20 4 19 5 18 6 16 7 17 8 8 9 7 10 6 11 3 12
REMARK SMILES IDX 4 13 94 14 5 15 93 16 2 17 1 18 95 19 96 20 9 21 10 22 11 23
REMARK SMILES IDX 15 24 12 25 14 26 13 28 24 29 25 30 26 31 27 32 28 33 29 34
REMARK SMILES IDX 30 35 31 36 92 37 32 38 91 39 33 40 34 41 35 42 85 43 36 44
REMARK SMILES IDX 90 45 84 46 86 47 37 48 89 49 83 50 82 51 38 53 70 54 50 55
REMARK SMILES IDX 69 56 51 57 54 58 68 59 87 60 52 61 53 62 67 64 88 65 55 66
REMARK SMILES IDX 39 67 40 68 48 69 41 70 43 71 49 72 42 73 44 74 45 75 46 76
REMARK SMILES IDX 47 77 71 78 72 79 80 80 73 81 75 82 81 83 74 84 76 85 77 86
REMARK SMILES IDX 78 87 79 88 56 89 57 90 65 91 58 92 60 93 66 94 59 95 61 96
REMARK SMILES IDX 62 97 63 98 64 99
REMARK H PARENT 15 27 86 52 54 63
REMARK Flexibility Score: inf
ROOT
ATOM      1  C   UNL A   1      45.220  28.295  26.788  1.00  0.00     0.188 C 
ENDROOT
BRANCH   1   2
ATOM      2  C   UNL A   1      46.686  28.520  26.360  1.00  0.00     0.188 C 
BRANCH   2   3
ATOM      3  O   UNL A   1      46.913  28.616  24.962  1.00  0.00    -0.376 OA
BRANCH   3   4
ATOM      4  C   UNL A   1      46.949  27.388  24.242  1.00  0.00     0.202 C 
BRANCH   4   5
ATOM      5  C   UNL A   1      47.413  26.178  25.057  1.00  0.00     0.261 C 
BRANCH   5   6
ATOM      6  O   UNL A   1      46.359  25.219  25.221  1.00  0.00    -0.459 OA
BRANCH   6   7
ATOM      7  C   UNL A   1      46.511  24.183  26.076  1.00  0.00     0.345 C 
ATOM      8  O   UNL A   1      47.450  23.985  26.827  1.00  0.00    -0.246 OA
BRANCH   7   9
ATOM      9  C   UNL A   1      45.281  23.339  25.980  1.00  0.00     0.101 C 
ATOM     10  C   UNL A   1      44.410  23.217  27.003  1.00  0.00     0.031 C 
BRANCH  10  11
ATOM     11  C   UNL A   1      44.394  23.742  28.399  1.00  0.00    -0.020 A 
ATOM     12  C   UNL A   1      44.695  24.790  31.030  1.00  0.00     0.160 A 
ATOM     13  C   UNL A   1      43.917  23.655  30.794  1.00  0.00     0.051 A 
ATOM     14  C   UNL A   1      45.307  25.430  29.950  1.00  0.00     0.161 A 
ATOM     15  C   UNL A   1      43.751  23.157  29.492  1.00  0.00     0.012 A 
ATOM     16  C   UNL A   1      45.163  24.891  28.659  1.00  0.00     0.058 A 
BRANCH  12  17
ATOM     17  O   UNL A   1      44.961  25.204  32.305  1.00  0.00    -0.493 OA
ATOM     18  C   UNL A   1      45.470  24.194  33.170  1.00  0.00     0.278 C 
ENDBRANCH  12  17
BRANCH  14  19
ATOM     19  O   UNL A   1      46.085  26.559  29.980  1.00  0.00    -0.493 OA
ATOM     20  C   UNL A   1      47.394  26.465  29.432  1.00  0.00     0.278 C 
ENDBRANCH  14  19
ENDBRANCH  10  11
BRANCH   9  21
ATOM     21  S   UNL A   1      45.079  22.702  24.359  1.00  0.00    -0.043 SA
BRANCH  21  22
ATOM     22  C   UNL A   1      45.371  21.016  24.493  1.00  0.00     0.188 A 
ATOM     23  N   UNL A   1      46.306  20.432  25.201  1.00  0.00    -0.206 NA
ATOM     24  N   UNL A   1      44.491  20.083  24.041  1.00  0.00    -0.254 N 
ATOM     25  C   UNL A   1      45.960  19.104  25.140  1.00  0.00     0.148 A 
ATOM     26  N   UNL A   1      44.854  18.846  24.425  1.00  0.00    -0.158 NA
ATOM     27  H   UNL A   1      43.693  20.286  23.502  1.00  0.00     0.192 HD
ATOM     28  C   UNL A   1      46.712  18.060  25.866  1.00  0.00     0.092 C 
ENDBRANCH  21  22
ENDBRANCH   9  21
ENDBRANCH   7   9
ENDBRANCH   6   7
ENDBRANCH   5   6
ENDBRANCH   4   5
ENDBRANCH   3   4
ENDBRANCH   2   3
ENDBRANCH   1   2
BRANCH   1  29
ATOM     29  O   UNL A   1      44.135  28.746  25.986  1.00  0.00    -0.376 OA
BRANCH  29  30
ATOM     30  C   UNL A   1      43.390  27.833  25.192  1.00  0.00     0.202 C 
BRANCH  30  31
ATOM     31  C   UNL A   1      43.136  26.425  25.717  1.00  0.00     0.261 C 
BRANCH  31  32
ATOM     32  O   UNL A   1      41.904  25.862  25.288  1.00  0.00    -0.460 OA
BRANCH  32  33
ATOM     33  C   UNL A   1      41.266  25.141  26.238  1.00  0.00     0.338 C 
ATOM     34  O   UNL A   1      41.030  23.946  26.219  1.00  0.00    -0.246 OA
BRANCH  33  35
ATOM     35  C   UNL A   1      40.827  26.030  27.321  1.00  0.00     0.060 A 
ATOM     36  C   UNL A   1      40.231  27.238  26.944  1.00  0.00     0.016 A 
ATOM     37  C   UNL A   1      41.219  25.781  28.643  1.00  0.00     0.016 A 
ATOM     38  C   UNL A   1      40.207  28.275  27.851  1.00  0.00     0.010 A 
ATOM     39  C   UNL A   1      41.201  26.822  29.548  1.00  0.00     0.010 A 
ATOM     40  C   UNL A   1      40.781  28.078  29.110  1.00  0.00    -0.014 A 
BRANCH  40  41
ATOM     41  C   UNL A   1      41.045  29.256  29.913  1.00  0.00     0.031 A 
ATOM     42  C   UNL A   1      39.870  29.954  30.473  1.00  0.00     0.074 A 
ATOM     43  C   UNL A   1      42.309  29.613  30.218  1.00  0.00     0.049 A 
ATOM     44  N   UNL A   1      39.521  31.186  30.297  1.00  0.00    -0.248 NA
ATOM     45  C   UNL A   1      38.932  29.160  31.278  1.00  0.00     0.031 C 
ATOM     46  C   UNL A   1      43.526  28.824  30.000  1.00  0.00     0.029 A 
ATOM     47  N   UNL A   1      42.750  30.684  30.936  1.00  0.00    -0.354 N 
ATOM     48  C   UNL A   1      38.431  31.380  31.139  1.00  0.00     0.074 A 
ATOM     49  C   UNL A   1      38.024  30.079  31.602  1.00  0.00     0.031 C 
ATOM     50  C   UNL A   1      44.505  29.306  30.795  1.00  0.00     0.029 A 
ATOM     51  C   UNL A   1      44.018  30.496  31.469  1.00  0.00     0.049 A 
ATOM     52  H   UNL A   1      42.223  31.506  31.063  1.00  0.00     0.167 HD
ATOM     53  C   UNL A   1      38.069  32.613  31.579  1.00  0.00     0.034 A 
ATOM     54  C   UNL A   1      44.583  31.205  32.474  1.00  0.00     0.034 A 
ATOM     55  C   UNL A   1      38.641  33.675  30.801  1.00  0.00     0.049 A 
ATOM     56  C   UNL A   1      43.842  32.481  32.606  1.00  0.00     0.074 A 
ATOM     57  C   UNL A   1      38.610  34.038  29.471  1.00  0.00     0.029 A 
ATOM     58  N   UNL A   1      39.660  34.399  31.367  1.00  0.00    -0.354 N 
ATOM     59  N   UNL A   1      43.878  33.448  31.733  1.00  0.00    -0.248 NA
ATOM     60  C   UNL A   1      42.758  32.552  33.573  1.00  0.00     0.031 C 
ATOM     61  C   UNL A   1      39.885  34.618  29.212  1.00  0.00     0.029 A 
ATOM     62  C   UNL A   1      40.614  34.581  30.402  1.00  0.00     0.049 A 
ATOM     63  H   UNL A   1      39.698  34.725  32.296  1.00  0.00     0.167 HD
ATOM     64  C   UNL A   1      42.603  33.998  31.767  1.00  0.00     0.074 A 
ATOM     65  C   UNL A   1      42.013  33.503  33.006  1.00  0.00     0.031 C 
ATOM     66  C   UNL A   1      42.040  34.560  30.655  1.00  0.00     0.034 A 
BRANCH  53  67
ATOM     67  C   UNL A   1      37.423  32.861  32.914  1.00  0.00     0.023 A 
ATOM     68  C   UNL A   1      36.264  33.663  32.955  1.00  0.00     0.012 A 
ATOM     69  C   UNL A   1      38.029  32.538  34.149  1.00  0.00     0.148 A 
ATOM     70  C   UNL A   1      35.739  34.126  34.166  1.00  0.00     0.002 A 
ATOM     71  C   UNL A   1      37.448  32.917  35.352  1.00  0.00     0.091 A 
ATOM     72  F   UNL A   1      39.243  31.973  34.172  1.00  0.00    -0.205 F 
ATOM     73  C   UNL A   1      36.318  33.735  35.368  1.00  0.00     0.022 A 
BRANCH  71  74
ATOM     74  S   UNL A   1      38.119  32.329  36.910  1.00  0.00     0.127 S 
ATOM     75  O   UNL A   1      39.543  32.596  36.744  1.00  0.00    -0.237 OA
ATOM     76  O   UNL A   1      37.437  33.183  37.884  1.00  0.00    -0.237 OA
ATOM     77  O   UNL A   1      37.719  30.927  36.977  1.00  0.00    -0.744 OA
ENDBRANCH  71  74
ENDBRANCH  53  67
BRANCH  54  78
ATOM     78  C   UNL A   1      45.579  30.763  33.475  1.00  0.00     0.023 A 
ATOM     79  C   UNL A   1      46.782  31.478  33.618  1.00  0.00     0.012 A 
ATOM     80  C   UNL A   1      45.263  29.788  34.449  1.00  0.00     0.148 A 
ATOM     81  C   UNL A   1      47.635  31.243  34.703  1.00  0.00     0.002 A 
ATOM     82  C   UNL A   1      46.126  29.540  35.512  1.00  0.00     0.091 A 
ATOM     83  F   UNL A   1      44.076  29.168  34.388  1.00  0.00    -0.205 F 
ATOM     84  C   UNL A   1      47.307  30.275  35.650  1.00  0.00     0.022 A 
BRANCH  82  85
ATOM     85  S   UNL A   1      45.761  28.293  36.757  1.00  0.00     0.127 S 
ATOM     86  O   UNL A   1      44.484  28.761  37.297  1.00  0.00    -0.237 OA
ATOM     87  O   UNL A   1      45.677  27.077  35.955  1.00  0.00    -0.237 OA
ATOM     88  O   UNL A   1      46.865  28.357  37.708  1.00  0.00    -0.744 OA
ENDBRANCH  82  85
ENDBRANCH  54  78
BRANCH  66  89
ATOM     89  C   UNL A   1      42.927  34.860  29.469  1.00  0.00     0.023 A 
ATOM     90  C   UNL A   1      43.474  36.143  29.261  1.00  0.00     0.012 A 
ATOM     91  C   UNL A   1      43.376  33.796  28.666  1.00  0.00     0.148 A 
ATOM     92  C   UNL A   1      44.420  36.367  28.257  1.00  0.00     0.002 A 
ATOM     93  C   UNL A   1      44.356  34.013  27.702  1.00  0.00     0.091 A 
ATOM     94  F   UNL A   1      42.858  32.575  28.875  1.00  0.00    -0.205 F 
ATOM     95  C   UNL A   1      44.872  35.299  27.488  1.00  0.00     0.022 A 
BRANCH  93  96
ATOM     96  S   UNL A   1      45.081  32.648  26.785  1.00  0.00     0.127 S 
ATOM     97  O   UNL A   1      43.985  32.250  25.905  1.00  0.00    -0.237 OA
ATOM     98  O   UNL A   1      46.212  33.283  26.103  1.00  0.00    -0.237 OA
ATOM     99  O   UNL A   1      45.476  31.668  27.790  1.00  0.00    -0.744 OA
ENDBRANCH  93  96
ENDBRANCH  66  89
ENDBRANCH  40  41
ENDBRANCH  33  35
ENDBRANCH  32  33
ENDBRANCH  31  32
ENDBRANCH  30  31
ENDBRANCH  29  30
ENDBRANCH   1  29
TORSDOF 25
ENDMDL
