MODEL 1
REMARK VINA RESULT:     -10.1      0.000      0.000
REMARK SMILES Cn1c(=O)c(=O)n(C)c2cc(S(=O)(=O)N3CCC[C@H]3C(=O)OCCOCCOCCOC(=O)c3ccc(-c4c5nc(c(-c6cccc(S(=O)(=O)[O-])c6F)c6ccc([nH]6)c(-c6cccc(S(=O)(=O)[O-])c6F)c6nc(c(-c7cccc(S(=O)(=O)[O-])c7F)c7ccc4[nH]7)C=C6)C=C5)cc3)ccc21
REMARK SMILES IDX 27 1 26 2 25 3 24 4 23 5 22 6 20 7 21 8 19 9 15 10 16 11
REMARK SMILES IDX 17 12 18 13 12 14 13 15 14 16 11 17 1 18 2 19 3 20 99 21
REMARK SMILES IDX 4 22 5 23 9 24 98 25 6 26 7 27 10 28 97 29 8 30 28 31 29 32
REMARK SMILES IDX 30 33 31 34 32 35 33 36 34 37 35 38 96 39 36 40 95 41 37 42
REMARK SMILES IDX 38 43 39 44 89 45 40 46 94 47 88 48 90 49 41 50 93 51 87 52
REMARK SMILES IDX 86 53 42 55 74 56 54 57 73 58 55 59 58 60 72 61 91 62 56 63
REMARK SMILES IDX 57 64 71 66 92 67 59 68 43 69 44 70 52 71 45 72 47 73 53 74
REMARK SMILES IDX 46 75 48 76 49 77 50 78 51 79 75 80 76 81 84 82 77 83 79 84
REMARK SMILES IDX 85 85 78 86 80 87 81 88 82 89 83 90 60 91 61 92 69 93 62 94
REMARK SMILES IDX 64 95 70 96 63 97 65 98 66 99 67 100 68 101
REMARK H PARENT 90 54 58 65
REMARK Flexibility Score: inf
ROOT
ATOM      1  C   UNL A   1      35.950  34.123  30.503  1.00  0.00     0.188 C 
ENDROOT
BRANCH   1   2
ATOM      2  C   UNL A   1      35.581  34.077  29.009  1.00  0.00     0.188 C 
BRANCH   2   3
ATOM      3  O   UNL A   1      36.293  33.087  28.281  1.00  0.00    -0.376 OA
BRANCH   3   4
ATOM      4  C   UNL A   1      35.610  31.858  28.105  1.00  0.00     0.202 C 
BRANCH   4   5
ATOM      5  C   UNL A   1      34.090  31.972  27.925  1.00  0.00     0.261 C 
BRANCH   5   6
ATOM      6  O   UNL A   1      33.364  30.743  27.735  1.00  0.00    -0.462 OA
BRANCH   6   7
ATOM      7  C   UNL A   1      32.303  30.769  26.894  1.00  0.00     0.324 C 
ATOM      8  O   UNL A   1      31.618  31.770  26.703  1.00  0.00    -0.250 OA
BRANCH   7   9
ATOM      9  C   UNL A   1      32.001  29.418  26.239  1.00  0.00     0.183 C 
ATOM     10  N   UNL A   1      32.506  29.186  24.853  1.00  0.00    -0.184 NA
ATOM     11  C   UNL A   1      33.849  28.599  24.958  1.00  0.00     0.103 C 
ATOM     12  C   UNL A   1      33.772  27.717  26.190  1.00  0.00     0.019 C 
ATOM     13  C   UNL A   1      32.694  28.333  27.076  1.00  0.00     0.034 C 
BRANCH  10  14
ATOM     14  S   UNL A   1      31.460  28.609  23.643  1.00  0.00     0.243 S 
ATOM     15  O   UNL A   1      32.198  28.612  22.396  1.00  0.00    -0.207 OA
ATOM     16  O   UNL A   1      30.189  29.286  23.774  1.00  0.00    -0.207 OA
BRANCH  14  17
ATOM     17  C   UNL A   1      31.169  26.896  24.055  1.00  0.00     0.084 A 
ATOM     18  C   UNL A   1      30.191  22.728  26.796  1.00  0.00     0.154 C 
ATOM     19  N   UNL A   1      30.878  22.968  25.535  1.00  0.00    -0.305 N 
ATOM     20  C   UNL A   1      31.584  21.903  24.983  1.00  0.00     0.316 A 
ATOM     21  C   UNL A   1      30.879  24.254  24.937  1.00  0.00     0.068 A 
ATOM     22  O   UNL A   1      31.643  20.787  25.494  1.00  0.00    -0.263 OA
ATOM     23  C   UNL A   1      32.329  22.152  23.666  1.00  0.00     0.316 A 
ATOM     24  C   UNL A   1      31.758  24.536  23.873  1.00  0.00     0.069 A 
ATOM     25  C   UNL A   1      30.034  25.270  25.409  1.00  0.00     0.030 A 
ATOM     26  O   UNL A   1      32.819  21.188  23.080  1.00  0.00    -0.263 OA
ATOM     27  N   UNL A   1      32.439  23.469  23.221  1.00  0.00    -0.305 N 
ATOM     28  C   UNL A   1      31.928  25.875  23.468  1.00  0.00     0.050 A 
ATOM     29  C   UNL A   1      30.151  26.577  24.944  1.00  0.00     0.024 A 
ATOM     30  C   UNL A   1      33.167  23.707  21.984  1.00  0.00     0.154 C 
ENDBRANCH  14  17
ENDBRANCH  10  14
ENDBRANCH   7   9
ENDBRANCH   6   7
ENDBRANCH   5   6
ENDBRANCH   4   5
ENDBRANCH   3   4
ENDBRANCH   2   3
ENDBRANCH   1   2
BRANCH   1  31
ATOM     31  O   UNL A   1      35.077  33.583  31.485  1.00  0.00    -0.376 OA
BRANCH  31  32
ATOM     32  C   UNL A   1      35.607  33.151  32.726  1.00  0.00     0.202 C 
BRANCH  32  33
ATOM     33  C   UNL A   1      36.144  31.720  32.844  1.00  0.00     0.261 C 
BRANCH  33  34
ATOM     34  O   UNL A   1      37.056  31.332  31.807  1.00  0.00    -0.460 OA
BRANCH  34  35
ATOM     35  C   UNL A   1      37.095  30.004  31.527  1.00  0.00     0.338 C 
ATOM     36  O   UNL A   1      36.258  29.352  30.924  1.00  0.00    -0.246 OA
BRANCH  35  37
ATOM     37  C   UNL A   1      38.417  29.476  31.923  1.00  0.00     0.060 A 
ATOM     38  C   UNL A   1      38.576  28.129  32.256  1.00  0.00     0.016 A 
ATOM     39  C   UNL A   1      39.513  30.348  31.951  1.00  0.00     0.016 A 
ATOM     40  C   UNL A   1      39.847  27.648  32.583  1.00  0.00     0.010 A 
ATOM     41  C   UNL A   1      40.777  29.872  32.304  1.00  0.00     0.010 A 
ATOM     42  C   UNL A   1      40.957  28.512  32.592  1.00  0.00    -0.014 A 
BRANCH  42  43
ATOM     43  C   UNL A   1      42.328  27.954  32.661  1.00  0.00     0.031 A 
ATOM     44  C   UNL A   1      43.119  27.598  31.442  1.00  0.00     0.074 A 
ATOM     45  C   UNL A   1      42.845  27.748  33.888  1.00  0.00     0.049 A 
ATOM     46  N   UNL A   1      44.350  27.162  31.370  1.00  0.00    -0.248 NA
ATOM     47  C   UNL A   1      42.453  27.745  30.141  1.00  0.00     0.031 C 
ATOM     48  C   UNL A   1      42.144  28.019  35.145  1.00  0.00     0.029 A 
ATOM     49  N   UNL A   1      44.065  27.262  34.281  1.00  0.00    -0.354 N 
ATOM     50  C   UNL A   1      44.617  26.987  30.019  1.00  0.00     0.074 A 
ATOM     51  C   UNL A   1      43.408  27.346  29.305  1.00  0.00     0.031 C 
ATOM     52  C   UNL A   1      42.948  27.705  36.170  1.00  0.00     0.029 A 
ATOM     53  C   UNL A   1      44.214  27.204  35.645  1.00  0.00     0.049 A 
ATOM     54  H   UNL A   1      44.765  26.983  33.648  1.00  0.00     0.167 HD
ATOM     55  C   UNL A   1      45.772  26.586  29.435  1.00  0.00     0.034 A 
ATOM     56  C   UNL A   1      45.258  26.807  36.397  1.00  0.00     0.034 A 
ATOM     57  C   UNL A   1      46.969  26.228  30.153  1.00  0.00     0.049 A 
ATOM     58  C   UNL A   1      46.524  26.374  35.725  1.00  0.00     0.074 A 
ATOM     59  C   UNL A   1      48.194  25.836  29.638  1.00  0.00     0.029 A 
ATOM     60  N   UNL A   1      47.096  26.212  31.534  1.00  0.00    -0.354 N 
ATOM     61  N   UNL A   1      46.793  26.313  34.443  1.00  0.00    -0.248 NA
ATOM     62  C   UNL A   1      47.643  25.989  36.595  1.00  0.00     0.031 C 
ATOM     63  C   UNL A   1      49.058  25.577  30.708  1.00  0.00     0.029 A 
ATOM     64  C   UNL A   1      48.377  25.822  31.889  1.00  0.00     0.049 A 
ATOM     65  H   UNL A   1      46.379  26.444  32.169  1.00  0.00     0.167 HD
ATOM     66  C   UNL A   1      48.119  25.917  34.352  1.00  0.00     0.074 A 
ATOM     67  C   UNL A   1      48.603  25.754  35.708  1.00  0.00     0.031 C 
ATOM     68  C   UNL A   1      48.863  25.704  33.240  1.00  0.00     0.034 A 
BRANCH  55  69
ATOM     69  C   UNL A   1      45.838  26.576  27.932  1.00  0.00     0.023 A 
ATOM     70  C   UNL A   1      46.090  27.787  27.256  1.00  0.00     0.012 A 
ATOM     71  C   UNL A   1      45.773  25.374  27.201  1.00  0.00     0.148 A 
ATOM     72  C   UNL A   1      46.270  27.804  25.874  1.00  0.00     0.002 A 
ATOM     73  C   UNL A   1      45.978  25.396  25.824  1.00  0.00     0.091 A 
ATOM     74  F   UNL A   1      45.520  24.237  27.862  1.00  0.00    -0.205 F 
ATOM     75  C   UNL A   1      46.224  26.610  25.161  1.00  0.00     0.022 A 
BRANCH  73  76
ATOM     76  S   UNL A   1      45.991  23.907  24.819  1.00  0.00     0.127 S 
ATOM     77  O   UNL A   1      46.993  24.243  23.808  1.00  0.00    -0.237 OA
ATOM     78  O   UNL A   1      46.412  22.888  25.781  1.00  0.00    -0.237 OA
ATOM     79  O   UNL A   1      44.634  23.748  24.317  1.00  0.00    -0.744 OA
ENDBRANCH  73  76
ENDBRANCH  55  69
BRANCH  56  80
ATOM     80  C   UNL A   1      45.153  26.916  37.874  1.00  0.00     0.023 A 
ATOM     81  C   UNL A   1      44.796  25.776  38.618  1.00  0.00     0.012 A 
ATOM     82  C   UNL A   1      45.519  28.098  38.544  1.00  0.00     0.148 A 
ATOM     83  C   UNL A   1      44.806  25.811  40.011  1.00  0.00     0.002 A 
ATOM     84  C   UNL A   1      45.563  28.114  39.933  1.00  0.00     0.091 A 
ATOM     85  F   UNL A   1      45.862  29.164  37.807  1.00  0.00    -0.205 F 
ATOM     86  C   UNL A   1      45.200  26.974  40.668  1.00  0.00     0.022 A 
BRANCH  84  87
ATOM     87  S   UNL A   1      46.156  29.527  40.868  1.00  0.00     0.127 S 
ATOM     88  O   UNL A   1      46.260  28.970  42.215  1.00  0.00    -0.237 OA
ATOM     89  O   UNL A   1      47.435  29.800  40.214  1.00  0.00    -0.237 OA
ATOM     90  O   UNL A   1      45.150  30.567  40.701  1.00  0.00    -0.744 OA
ENDBRANCH  84  87
ENDBRANCH  56  80
BRANCH  68  91
ATOM     91  C   UNL A   1      50.298  25.292  33.425  1.00  0.00     0.023 A 
ATOM     92  C   UNL A   1      51.268  26.268  33.725  1.00  0.00     0.012 A 
ATOM     93  C   UNL A   1      50.663  23.932  33.400  1.00  0.00     0.148 A 
ATOM     94  C   UNL A   1      52.586  25.896  33.984  1.00  0.00     0.002 A 
ATOM     95  C   UNL A   1      51.972  23.566  33.692  1.00  0.00     0.091 A 
ATOM     96  F   UNL A   1      49.723  23.025  33.097  1.00  0.00    -0.205 F 
ATOM     97  C   UNL A   1      52.936  24.547  33.979  1.00  0.00     0.022 A 
BRANCH  95  98
ATOM     98  S   UNL A   1      52.500  21.852  33.780  1.00  0.00     0.127 S 
ATOM     99  O   UNL A   1      53.939  21.994  33.997  1.00  0.00    -0.237 OA
ATOM    100  O   UNL A   1      51.754  21.357  34.937  1.00  0.00    -0.237 OA
ATOM    101  O   UNL A   1      52.120  21.246  32.510  1.00  0.00    -0.744 OA
ENDBRANCH  95  98
ENDBRANCH  68  91
ENDBRANCH  42  43
ENDBRANCH  35  37
ENDBRANCH  34  35
ENDBRANCH  33  34
ENDBRANCH  32  33
ENDBRANCH  31  32
ENDBRANCH   1  31
TORSDOF 22
ENDMDL
MODEL 2
REMARK VINA RESULT:     -10.1      3.784      9.076
REMARK SMILES Cn1c(=O)c(=O)n(C)c2cc(S(=O)(=O)N3CCC[C@H]3C(=O)OCCOCCOCCOC(=O)c3ccc(-c4c5nc(c(-c6cccc(S(=O)(=O)[O-])c6F)c6ccc([nH]6)c(-c6cccc(S(=O)(=O)[O-])c6F)c6nc(c(-c7cccc(S(=O)(=O)[O-])c7F)c7ccc4[nH]7)C=C6)C=C5)cc3)ccc21
REMARK SMILES IDX 27 1 26 2 25 3 24 4 23 5 22 6 20 7 21 8 19 9 15 10 16 11
REMARK SMILES IDX 17 12 18 13 12 14 13 15 14 16 11 17 1 18 2 19 3 20 99 21
REMARK SMILES IDX 4 22 5 23 9 24 98 25 6 26 7 27 10 28 97 29 8 30 28 31 29 32
REMARK SMILES IDX 30 33 31 34 32 35 33 36 34 37 35 38 96 39 36 40 95 41 37 42
REMARK SMILES IDX 38 43 39 44 89 45 40 46 94 47 88 48 90 49 41 50 93 51 87 52
REMARK SMILES IDX 86 53 42 55 74 56 54 57 73 58 55 59 58 60 72 61 91 62 56 63
REMARK SMILES IDX 57 64 71 66 92 67 59 68 43 69 44 70 52 71 45 72 47 73 53 74
REMARK SMILES IDX 46 75 48 76 49 77 50 78 51 79 75 80 76 81 84 82 77 83 79 84
REMARK SMILES IDX 85 85 78 86 80 87 81 88 82 89 83 90 60 91 61 92 69 93 62 94
REMARK SMILES IDX 64 95 70 96 63 97 65 98 66 99 67 100 68 101
REMARK H PARENT 90 54 58 65
REMARK Flexibility Score: inf
ROOT
ATOM      1  C   UNL A   1      34.459  30.959  27.566  1.00  0.00     0.188 C 
ENDROOT
BRANCH   1   2
ATOM      2  C   UNL A   1      33.182  30.487  26.848  1.00  0.00     0.188 C 
BRANCH   2   3
ATOM      3  O   UNL A   1      32.526  29.414  27.509  1.00  0.00    -0.376 OA
BRANCH   3   4
ATOM      4  C   UNL A   1      33.052  28.127  27.239  1.00  0.00     0.202 C 
BRANCH   4   5
ATOM      5  C   UNL A   1      32.027  26.984  27.248  1.00  0.00     0.261 C 
BRANCH   5   6
ATOM      6  O   UNL A   1      30.721  27.280  26.718  1.00  0.00    -0.462 OA
BRANCH   6   7
ATOM      7  C   UNL A   1      30.474  26.926  25.434  1.00  0.00     0.324 C 
ATOM      8  O   UNL A   1      29.542  26.201  25.101  1.00  0.00    -0.250 OA
BRANCH   7   9
ATOM      9  C   UNL A   1      31.501  27.471  24.436  1.00  0.00     0.183 C 
ATOM     10  N   UNL A   1      31.765  26.676  23.201  1.00  0.00    -0.184 NA
ATOM     11  C   UNL A   1      30.826  27.133  22.166  1.00  0.00     0.103 C 
ATOM     12  C   UNL A   1      30.686  28.621  22.425  1.00  0.00     0.019 C 
ATOM     13  C   UNL A   1      30.969  28.813  23.912  1.00  0.00     0.034 C 
BRANCH  10  14
ATOM     14  S   UNL A   1      33.359  26.301  22.744  1.00  0.00     0.243 S 
ATOM     15  O   UNL A   1      34.243  26.936  23.699  1.00  0.00    -0.207 OA
ATOM     16  O   UNL A   1      33.492  26.523  21.321  1.00  0.00    -0.207 OA
BRANCH  14  17
ATOM     17  C   UNL A   1      33.516  24.540  23.000  1.00  0.00     0.084 A 
ATOM     18  C   UNL A   1      32.297  19.737  24.129  1.00  0.00     0.154 C 
ATOM     19  N   UNL A   1      33.540  20.492  24.149  1.00  0.00    -0.305 N 
ATOM     20  C   UNL A   1      34.643  19.888  24.746  1.00  0.00     0.316 A 
ATOM     21  C   UNL A   1      33.599  21.816  23.642  1.00  0.00     0.068 A 
ATOM     22  O   UNL A   1      34.619  18.761  25.236  1.00  0.00    -0.263 OA
ATOM     23  C   UNL A   1      35.952  20.685  24.792  1.00  0.00     0.316 A 
ATOM     24  C   UNL A   1      34.722  22.624  23.907  1.00  0.00     0.069 A 
ATOM     25  C   UNL A   1      32.536  22.351  22.897  1.00  0.00     0.030 A 
ATOM     26  O   UNL A   1      36.974  20.112  25.163  1.00  0.00    -0.263 OA
ATOM     27  N   UNL A   1      35.903  22.034  24.440  1.00  0.00    -0.305 N 
ATOM     28  C   UNL A   1      34.651  24.002  23.620  1.00  0.00     0.050 A 
ATOM     29  C   UNL A   1      32.511  23.698  22.545  1.00  0.00     0.024 A 
ATOM     30  C   UNL A   1      37.141  22.796  24.507  1.00  0.00     0.154 C 
ENDBRANCH  14  17
ENDBRANCH  10  14
ENDBRANCH   7   9
ENDBRANCH   6   7
ENDBRANCH   5   6
ENDBRANCH   4   5
ENDBRANCH   3   4
ENDBRANCH   2   3
ENDBRANCH   1   2
BRANCH   1  31
ATOM     31  O   UNL A   1      34.487  32.198  28.262  1.00  0.00    -0.376 OA
BRANCH  31  32
ATOM     32  C   UNL A   1      33.864  33.333  27.687  1.00  0.00     0.202 C 
BRANCH  32  33
ATOM     33  C   UNL A   1      32.854  34.127  28.524  1.00  0.00     0.261 C 
BRANCH  33  34
ATOM     34  O   UNL A   1      33.424  35.180  29.314  1.00  0.00    -0.460 OA
BRANCH  34  35
ATOM     35  C   UNL A   1      33.505  34.934  30.648  1.00  0.00     0.338 C 
ATOM     36  O   UNL A   1      32.675  35.204  31.499  1.00  0.00    -0.246 OA
BRANCH  35  37
ATOM     37  C   UNL A   1      34.709  34.115  30.905  1.00  0.00     0.060 A 
ATOM     38  C   UNL A   1      35.950  34.492  30.388  1.00  0.00     0.016 A 
ATOM     39  C   UNL A   1      34.586  32.957  31.684  1.00  0.00     0.016 A 
ATOM     40  C   UNL A   1      37.080  33.724  30.685  1.00  0.00     0.010 A 
ATOM     41  C   UNL A   1      35.710  32.176  31.958  1.00  0.00     0.010 A 
ATOM     42  C   UNL A   1      36.969  32.572  31.485  1.00  0.00    -0.014 A 
BRANCH  42  43
ATOM     43  C   UNL A   1      38.189  31.927  32.025  1.00  0.00     0.031 A 
ATOM     44  C   UNL A   1      38.805  32.324  33.330  1.00  0.00     0.074 A 
ATOM     45  C   UNL A   1      38.757  30.963  31.274  1.00  0.00     0.049 A 
ATOM     46  N   UNL A   1      39.833  31.794  33.939  1.00  0.00    -0.248 NA
ATOM     47  C   UNL A   1      38.197  33.457  34.043  1.00  0.00     0.031 C 
ATOM     48  C   UNL A   1      38.264  30.527  29.965  1.00  0.00     0.029 A 
ATOM     49  N   UNL A   1      39.863  30.186  31.493  1.00  0.00    -0.354 N 
ATOM     50  C   UNL A   1      39.999  32.517  35.112  1.00  0.00     0.074 A 
ATOM     51  C   UNL A   1      38.974  33.541  35.120  1.00  0.00     0.031 C 
ATOM     52  C   UNL A   1      39.060  29.554  29.502  1.00  0.00     0.029 A 
ATOM     53  C   UNL A   1      40.120  29.303  30.473  1.00  0.00     0.049 A 
ATOM     54  H   UNL A   1      40.420  30.254  32.303  1.00  0.00     0.167 HD
ATOM     55  C   UNL A   1      40.910  32.324  36.096  1.00  0.00     0.034 A 
ATOM     56  C   UNL A   1      41.090  28.381  30.335  1.00  0.00     0.034 A 
ATOM     57  C   UNL A   1      41.929  31.305  36.079  1.00  0.00     0.049 A 
ATOM     58  C   UNL A   1      42.080  28.185  31.442  1.00  0.00     0.074 A 
ATOM     59  C   UNL A   1      42.877  31.022  37.049  1.00  0.00     0.029 A 
ATOM     60  N   UNL A   1      42.139  30.406  35.044  1.00  0.00    -0.354 N 
ATOM     61  N   UNL A   1      42.159  28.810  32.591  1.00  0.00    -0.248 NA
ATOM     62  C   UNL A   1      43.093  27.137  31.254  1.00  0.00     0.031 C 
ATOM     63  C   UNL A   1      43.663  29.957  36.597  1.00  0.00     0.029 A 
ATOM     64  C   UNL A   1      43.196  29.566  35.353  1.00  0.00     0.049 A 
ATOM     65  H   UNL A   1      41.614  30.370  34.212  1.00  0.00     0.167 HD
ATOM     66  C   UNL A   1      43.205  28.211  33.279  1.00  0.00     0.074 A 
ATOM     67  C   UNL A   1      43.731  27.170  32.418  1.00  0.00     0.031 C 
ATOM     68  C   UNL A   1      43.686  28.505  34.510  1.00  0.00     0.034 A 
BRANCH  55  69
ATOM     69  C   UNL A   1      40.815  33.186  37.326  1.00  0.00     0.023 A 
ATOM     70  C   UNL A   1      39.936  32.801  38.358  1.00  0.00     0.012 A 
ATOM     71  C   UNL A   1      41.665  34.293  37.516  1.00  0.00     0.148 A 
ATOM     72  C   UNL A   1      39.898  33.507  39.559  1.00  0.00     0.002 A 
ATOM     73  C   UNL A   1      41.640  34.978  38.728  1.00  0.00     0.091 A 
ATOM     74  F   UNL A   1      42.484  34.648  36.517  1.00  0.00    -0.205 F 
ATOM     75  C   UNL A   1      40.756  34.587  39.748  1.00  0.00     0.022 A 
BRANCH  73  76
ATOM     76  S   UNL A   1      42.739  36.351  39.091  1.00  0.00     0.127 S 
ATOM     77  O   UNL A   1      42.958  36.181  40.528  1.00  0.00    -0.237 OA
ATOM     78  O   UNL A   1      43.902  36.046  38.257  1.00  0.00    -0.237 OA
ATOM     79  O   UNL A   1      42.017  37.557  38.714  1.00  0.00    -0.744 OA
ENDBRANCH  73  76
ENDBRANCH  55  69
BRANCH  56  80
ATOM     80  C   UNL A   1      41.079  27.511  29.132  1.00  0.00     0.023 A 
ATOM     81  C   UNL A   1      40.096  26.510  29.023  1.00  0.00     0.012 A 
ATOM     82  C   UNL A   1      41.953  27.749  28.054  1.00  0.00     0.148 A 
ATOM     83  C   UNL A   1      39.981  25.757  27.856  1.00  0.00     0.002 A 
ATOM     84  C   UNL A   1      41.808  27.020  26.880  1.00  0.00     0.091 A 
ATOM     85  F   UNL A   1      42.872  28.715  28.186  1.00  0.00    -0.205 F 
ATOM     86  C   UNL A   1      40.828  26.019  26.782  1.00  0.00     0.022 A 
BRANCH  84  87
ATOM     87  S   UNL A   1      42.777  27.353  25.406  1.00  0.00     0.127 S 
ATOM     88  O   UNL A   1      44.116  27.530  25.965  1.00  0.00    -0.237 OA
ATOM     89  O   UNL A   1      42.587  26.120  24.641  1.00  0.00    -0.237 OA
ATOM     90  O   UNL A   1      42.192  28.542  24.803  1.00  0.00    -0.744 OA
ENDBRANCH  84  87
ENDBRANCH  56  80
BRANCH  68  91
ATOM     91  C   UNL A   1      44.830  27.679  35.032  1.00  0.00     0.023 A 
ATOM     92  C   UNL A   1      46.153  28.101  34.804  1.00  0.00     0.012 A 
ATOM     93  C   UNL A   1      44.588  26.542  35.827  1.00  0.00     0.148 A 
ATOM     94  C   UNL A   1      47.223  27.395  35.352  1.00  0.00     0.002 A 
ATOM     95  C   UNL A   1      45.659  25.863  36.398  1.00  0.00     0.091 A 
ATOM     96  F   UNL A   1      43.320  26.152  36.016  1.00  0.00    -0.205 F 
ATOM     97  C   UNL A   1      46.977  26.285  36.156  1.00  0.00     0.022 A 
BRANCH  95  98
ATOM     98  S   UNL A   1      45.438  24.466  37.505  1.00  0.00     0.127 S 
ATOM     99  O   UNL A   1      45.005  23.418  36.580  1.00  0.00    -0.237 OA
ATOM    100  O   UNL A   1      46.786  24.284  38.045  1.00  0.00    -0.237 OA
ATOM    101  O   UNL A   1      44.443  24.879  38.485  1.00  0.00    -0.744 OA
ENDBRANCH  95  98
ENDBRANCH  68  91
ENDBRANCH  42  43
ENDBRANCH  35  37
ENDBRANCH  34  35
ENDBRANCH  33  34
ENDBRANCH  32  33
ENDBRANCH  31  32
ENDBRANCH   1  31
TORSDOF 22
ENDMDL
MODEL 3
REMARK VINA RESULT:     -10.1      5.797      6.754
REMARK SMILES Cn1c(=O)c(=O)n(C)c2cc(S(=O)(=O)N3CCC[C@H]3C(=O)OCCOCCOCCOC(=O)c3ccc(-c4c5nc(c(-c6cccc(S(=O)(=O)[O-])c6F)c6ccc([nH]6)c(-c6cccc(S(=O)(=O)[O-])c6F)c6nc(c(-c7cccc(S(=O)(=O)[O-])c7F)c7ccc4[nH]7)C=C6)C=C5)cc3)ccc21
REMARK SMILES IDX 27 1 26 2 25 3 24 4 23 5 22 6 20 7 21 8 19 9 15 10 16 11
REMARK SMILES IDX 17 12 18 13 12 14 13 15 14 16 11 17 1 18 2 19 3 20 99 21
REMARK SMILES IDX 4 22 5 23 9 24 98 25 6 26 7 27 10 28 97 29 8 30 28 31 29 32
REMARK SMILES IDX 30 33 31 34 32 35 33 36 34 37 35 38 96 39 36 40 95 41 37 42
REMARK SMILES IDX 38 43 39 44 89 45 40 46 94 47 88 48 90 49 41 50 93 51 87 52
REMARK SMILES IDX 86 53 42 55 74 56 54 57 73 58 55 59 58 60 72 61 91 62 56 63
REMARK SMILES IDX 57 64 71 66 92 67 59 68 43 69 44 70 52 71 45 72 47 73 53 74
REMARK SMILES IDX 46 75 48 76 49 77 50 78 51 79 75 80 76 81 84 82 77 83 79 84
REMARK SMILES IDX 85 85 78 86 80 87 81 88 82 89 83 90 60 91 61 92 69 93 62 94
REMARK SMILES IDX 64 95 70 96 63 97 65 98 66 99 67 100 68 101
REMARK H PARENT 90 54 58 65
REMARK Flexibility Score: inf
ROOT
ATOM      1  C   UNL A   1      34.009  34.507  29.216  1.00  0.00     0.188 C 
ENDROOT
BRANCH   1   2
ATOM      2  C   UNL A   1      33.678  33.618  28.004  1.00  0.00     0.188 C 
BRANCH   2   3
ATOM      3  O   UNL A   1      34.815  32.973  27.448  1.00  0.00    -0.376 OA
BRANCH   3   4
ATOM      4  C   UNL A   1      34.955  31.603  27.782  1.00  0.00     0.202 C 
BRANCH   4   5
ATOM      5  C   UNL A   1      33.689  30.753  27.610  1.00  0.00     0.261 C 
BRANCH   5   6
ATOM      6  O   UNL A   1      33.532  30.071  26.351  1.00  0.00    -0.462 OA
BRANCH   6   7
ATOM      7  C   UNL A   1      32.390  29.364  26.164  1.00  0.00     0.324 C 
ATOM      8  O   UNL A   1      31.375  29.535  26.832  1.00  0.00    -0.250 OA
BRANCH   7   9
ATOM      9  C   UNL A   1      32.499  28.293  25.074  1.00  0.00     0.183 C 
ATOM     10  N   UNL A   1      31.649  28.447  23.857  1.00  0.00    -0.184 NA
ATOM     11  C   UNL A   1      32.412  29.228  22.873  1.00  0.00     0.103 C 
ATOM     12  C   UNL A   1      33.847  28.782  23.081  1.00  0.00     0.019 C 
ATOM     13  C   UNL A   1      33.937  28.328  24.534  1.00  0.00     0.034 C 
BRANCH  10  14
ATOM     14  S   UNL A   1      30.698  27.151  23.303  1.00  0.00     0.243 S 
ATOM     15  O   UNL A   1      31.009  26.955  21.902  1.00  0.00    -0.207 OA
ATOM     16  O   UNL A   1      29.340  27.352  23.759  1.00  0.00    -0.207 OA
BRANCH  14  17
ATOM     17  C   UNL A   1      31.317  25.716  24.166  1.00  0.00     0.084 A 
ATOM     18  C   UNL A   1      32.686  22.635  27.970  1.00  0.00     0.154 C 
ATOM     19  N   UNL A   1      33.093  22.761  26.579  1.00  0.00    -0.305 N 
ATOM     20  C   UNL A   1      34.203  22.026  26.172  1.00  0.00     0.316 A 
ATOM     21  C   UNL A   1      32.424  23.650  25.700  1.00  0.00     0.068 A 
ATOM     22  O   UNL A   1      34.835  21.279  26.915  1.00  0.00    -0.263 OA
ATOM     23  C   UNL A   1      34.653  22.169  24.713  1.00  0.00     0.316 A 
ATOM     24  C   UNL A   1      32.988  23.961  24.447  1.00  0.00     0.069 A 
ATOM     25  C   UNL A   1      31.214  24.257  26.070  1.00  0.00     0.030 A 
ATOM     26  O   UNL A   1      35.523  21.409  24.291  1.00  0.00    -0.263 OA
ATOM     27  N   UNL A   1      34.071  23.181  23.950  1.00  0.00    -0.305 N 
ATOM     28  C   UNL A   1      32.449  25.031  23.705  1.00  0.00     0.050 A 
ATOM     29  C   UNL A   1      30.642  25.258  25.290  1.00  0.00     0.024 A 
ATOM     30  C   UNL A   1      34.517  23.332  22.573  1.00  0.00     0.154 C 
ENDBRANCH  14  17
ENDBRANCH  10  14
ENDBRANCH   7   9
ENDBRANCH   6   7
ENDBRANCH   5   6
ENDBRANCH   4   5
ENDBRANCH   3   4
ENDBRANCH   2   3
ENDBRANCH   1   2
BRANCH   1  31
ATOM     31  O   UNL A   1      33.253  34.411  30.416  1.00  0.00    -0.376 OA
BRANCH  31  32
ATOM     32  C   UNL A   1      33.622  35.198  31.535  1.00  0.00     0.202 C 
BRANCH  32  33
ATOM     33  C   UNL A   1      34.532  34.583  32.605  1.00  0.00     0.261 C 
BRANCH  33  34
ATOM     34  O   UNL A   1      35.744  34.003  32.104  1.00  0.00    -0.460 OA
BRANCH  34  35
ATOM     35  C   UNL A   1      35.749  32.649  32.005  1.00  0.00     0.338 C 
ATOM     36  O   UNL A   1      34.798  31.896  32.136  1.00  0.00    -0.246 OA
BRANCH  35  37
ATOM     37  C   UNL A   1      37.081  32.214  31.537  1.00  0.00     0.060 A 
ATOM     38  C   UNL A   1      37.891  31.407  32.339  1.00  0.00     0.016 A 
ATOM     39  C   UNL A   1      37.517  32.618  30.268  1.00  0.00     0.016 A 
ATOM     40  C   UNL A   1      39.127  30.973  31.852  1.00  0.00     0.010 A 
ATOM     41  C   UNL A   1      38.764  32.206  29.793  1.00  0.00     0.010 A 
ATOM     42  C   UNL A   1      39.563  31.356  30.570  1.00  0.00    -0.014 A 
BRANCH  42  43
ATOM     43  C   UNL A   1      40.726  30.678  29.952  1.00  0.00     0.031 A 
ATOM     44  C   UNL A   1      40.646  29.301  29.371  1.00  0.00     0.074 A 
ATOM     45  C   UNL A   1      41.897  31.345  29.952  1.00  0.00     0.049 A 
ATOM     46  N   UNL A   1      41.575  28.626  28.746  1.00  0.00    -0.248 NA
ATOM     47  C   UNL A   1      39.367  28.589  29.503  1.00  0.00     0.031 C 
ATOM     48  C   UNL A   1      42.098  32.675  30.532  1.00  0.00     0.029 A 
ATOM     49  N   UNL A   1      43.129  31.002  29.460  1.00  0.00    -0.354 N 
ATOM     50  C   UNL A   1      41.001  27.410  28.401  1.00  0.00     0.074 A 
ATOM     51  C   UNL A   1      39.643  27.433  28.906  1.00  0.00     0.031 C 
ATOM     52  C   UNL A   1      43.375  33.040  30.354  1.00  0.00     0.029 A 
ATOM     53  C   UNL A   1      44.083  31.970  29.657  1.00  0.00     0.049 A 
ATOM     54  H   UNL A   1      43.311  30.146  29.010  1.00  0.00     0.167 HD
ATOM     55  C   UNL A   1      41.555  26.385  27.710  1.00  0.00     0.034 A 
ATOM     56  C   UNL A   1      45.382  32.005  29.306  1.00  0.00     0.034 A 
ATOM     57  C   UNL A   1      42.908  26.371  27.214  1.00  0.00     0.049 A 
ATOM     58  C   UNL A   1      45.966  30.861  28.537  1.00  0.00     0.074 A 
ATOM     59  C   UNL A   1      43.542  25.382  26.479  1.00  0.00     0.029 A 
ATOM     60  N   UNL A   1      43.838  27.382  27.404  1.00  0.00    -0.354 N 
ATOM     61  N   UNL A   1      45.378  29.762  28.129  1.00  0.00    -0.248 NA
ATOM     62  C   UNL A   1      47.377  30.971  28.145  1.00  0.00     0.031 C 
ATOM     63  C   UNL A   1      44.855  25.794  26.230  1.00  0.00     0.029 A 
ATOM     64  C   UNL A   1      45.036  27.045  26.797  1.00  0.00     0.049 A 
ATOM     65  H   UNL A   1      43.670  28.217  27.898  1.00  0.00     0.167 HD
ATOM     66  C   UNL A   1      46.335  29.066  27.405  1.00  0.00     0.074 A 
ATOM     67  C   UNL A   1      47.543  29.867  27.427  1.00  0.00     0.031 C 
ATOM     68  C   UNL A   1      46.220  27.867  26.786  1.00  0.00     0.034 A 
BRANCH  55  69
ATOM     69  C   UNL A   1      40.682  25.207  27.373  1.00  0.00     0.023 A 
ATOM     70  C   UNL A   1      39.427  25.441  26.775  1.00  0.00     0.012 A 
ATOM     71  C   UNL A   1      41.138  23.884  27.531  1.00  0.00     0.148 A 
ATOM     72  C   UNL A   1      38.636  24.377  26.346  1.00  0.00     0.002 A 
ATOM     73  C   UNL A   1      40.354  22.828  27.077  1.00  0.00     0.091 A 
ATOM     74  F   UNL A   1      42.329  23.685  28.113  1.00  0.00    -0.205 F 
ATOM     75  C   UNL A   1      39.103  23.073  26.487  1.00  0.00     0.022 A 
BRANCH  73  76
ATOM     76  S   UNL A   1      40.885  21.114  27.166  1.00  0.00     0.127 S 
ATOM     77  O   UNL A   1      39.902  20.457  26.305  1.00  0.00    -0.237 OA
ATOM     78  O   UNL A   1      42.236  21.180  26.608  1.00  0.00    -0.237 OA
ATOM     79  O   UNL A   1      40.822  20.744  28.572  1.00  0.00    -0.744 OA
ENDBRANCH  73  76
ENDBRANCH  55  69
BRANCH  56  80
ATOM     80  C   UNL A   1      46.165  33.231  29.601  1.00  0.00     0.023 A 
ATOM     81  C   UNL A   1      46.875  33.312  30.814  1.00  0.00     0.012 A 
ATOM     82  C   UNL A   1      46.306  34.253  28.643  1.00  0.00     0.148 A 
ATOM     83  C   UNL A   1      47.715  34.394  31.070  1.00  0.00     0.002 A 
ATOM     84  C   UNL A   1      47.175  35.309  28.889  1.00  0.00     0.091 A 
ATOM     85  F   UNL A   1      45.624  34.142  27.495  1.00  0.00    -0.205 F 
ATOM     86  C   UNL A   1      47.874  35.385  30.104  1.00  0.00     0.022 A 
BRANCH  84  87
ATOM     87  S   UNL A   1      47.529  36.578  27.669  1.00  0.00     0.127 S 
ATOM     88  O   UNL A   1      47.406  37.798  28.465  1.00  0.00    -0.237 OA
ATOM     89  O   UNL A   1      48.894  36.236  27.273  1.00  0.00    -0.237 OA
ATOM     90  O   UNL A   1      46.530  36.414  26.622  1.00  0.00    -0.744 OA
ENDBRANCH  84  87
ENDBRANCH  56  80
BRANCH  68  91
ATOM     91  C   UNL A   1      47.420  27.341  26.048  1.00  0.00     0.023 A 
ATOM     92  C   UNL A   1      47.576  27.630  24.678  1.00  0.00     0.012 A 
ATOM     93  C   UNL A   1      48.437  26.648  26.733  1.00  0.00     0.148 A 
ATOM     94  C   UNL A   1      48.724  27.225  23.998  1.00  0.00     0.002 A 
ATOM     95  C   UNL A   1      49.592  26.276  26.056  1.00  0.00     0.091 A 
ATOM     96  F   UNL A   1      48.256  26.372  28.033  1.00  0.00    -0.205 F 
ATOM     97  C   UNL A   1      49.735  26.558  24.687  1.00  0.00     0.022 A 
BRANCH  95  98
ATOM     98  S   UNL A   1      50.978  25.479  26.874  1.00  0.00     0.127 S 
ATOM     99  O   UNL A   1      50.333  24.321  27.493  1.00  0.00    -0.237 OA
ATOM    100  O   UNL A   1      51.858  25.158  25.750  1.00  0.00    -0.237 OA
ATOM    101  O   UNL A   1      51.518  26.461  27.805  1.00  0.00    -0.744 OA
ENDBRANCH  95  98
ENDBRANCH  68  91
ENDBRANCH  42  43
ENDBRANCH  35  37
ENDBRANCH  34  35
ENDBRANCH  33  34
ENDBRANCH  32  33
ENDBRANCH  31  32
ENDBRANCH   1  31
TORSDOF 22
ENDMDL
