MODEL 1
REMARK VINA RESULT:     -12.3      0.000      0.000
REMARK SMILES CC1=C[C@H](C)[C@H](CN2C[C@]34C=C[C@@H](O3)[C@H](C(=O)OCCOCCOCCOC(=O)c3ccc(-c5c6nc(c(-c7cccc(S(=O)(=O)[O-])c7F)c7ccc([nH]7)c(-c7cccc(S(=O)(=O)[O-])c7F)c7nc(c(-c8cccc(S(=O)(=O)[O-])c8F)c8ccc5[nH]8)C=C7)C=C6)cc3)[C@@H]4C2=O)[C@H](C)C1
REMARK SMILES IDX 23 1 22 2 21 3 20 4 19 5 18 6 16 7 17 8 15 9 8 10 9 11 94 12
REMARK SMILES IDX 10 13 93 14 95 15 11 16 14 17 12 18 13 19 7 20 6 21 1 22
REMARK SMILES IDX 2 23 3 24 98 25 4 26 96 27 5 28 97 29 24 30 25 31 26 32
REMARK SMILES IDX 27 33 28 34 29 35 30 36 31 37 92 38 32 39 91 40 33 41 34 42
REMARK SMILES IDX 35 43 85 44 36 45 90 46 84 47 86 48 37 49 89 50 83 51 82 52
REMARK SMILES IDX 38 54 70 55 50 56 69 57 51 58 54 59 68 60 87 61 52 62 53 63
REMARK SMILES IDX 67 65 88 66 55 67 39 68 40 69 48 70 41 71 43 72 49 73 42 74
REMARK SMILES IDX 44 75 45 76 46 77 47 78 71 79 72 80 80 81 73 82 75 83 81 84
REMARK SMILES IDX 74 85 76 86 77 87 78 88 79 89 56 90 57 91 65 92 58 93 60 94
REMARK SMILES IDX 66 95 59 96 61 97 62 98 63 99 64 100
REMARK H PARENT 86 53 54 64
REMARK Flexibility Score: inf
ROOT
ATOM      1  C   UNL A   1      41.663  19.227  26.097  1.00  0.00     0.188 C 
ENDROOT
BRANCH   1   2
ATOM      2  C   UNL A   1      40.965  20.383  26.837  1.00  0.00     0.188 C 
BRANCH   2   3
ATOM      3  O   UNL A   1      39.776  20.819  26.203  1.00  0.00    -0.376 OA
BRANCH   3   4
ATOM      4  C   UNL A   1      39.591  22.220  26.152  1.00  0.00     0.202 C 
BRANCH   4   5
ATOM      5  C   UNL A   1      38.139  22.708  26.082  1.00  0.00     0.261 C 
BRANCH   5   6
ATOM      6  O   UNL A   1      37.477  22.799  24.804  1.00  0.00    -0.463 OA
BRANCH   6   7
ATOM      7  C   UNL A   1      36.288  23.467  24.729  1.00  0.00     0.312 C 
ATOM      8  O   UNL A   1      35.976  24.357  25.500  1.00  0.00    -0.252 OA
BRANCH   7   9
ATOM      9  C   UNL A   1      35.395  22.780  23.709  1.00  0.00     0.148 C 
ATOM     10  N   UNL A   1      32.904  25.105  23.990  1.00  0.00    -0.339 N 
ATOM     11  C   UNL A   1      32.900  24.072  24.968  1.00  0.00     0.160 C 
ATOM     12  C   UNL A   1      33.617  24.685  22.910  1.00  0.00     0.230 C 
ATOM     13  C   UNL A   1      32.950  22.657  24.267  1.00  0.00     0.117 C 
ATOM     14  C   UNL A   1      34.021  23.272  23.206  1.00  0.00     0.133 C 
ATOM     15  O   UNL A   1      33.860  25.286  21.873  1.00  0.00    -0.274 OA
ATOM     16  C   UNL A   1      33.241  22.101  25.708  1.00  0.00     0.009 C 
ATOM     17  O   UNL A   1      33.575  21.406  23.825  1.00  0.00    -0.360 OA
ATOM     18  C   UNL A   1      34.461  21.558  25.776  1.00  0.00     0.004 C 
ATOM     19  C   UNL A   1      34.919  21.489  24.374  1.00  0.00     0.157 C 
BRANCH  10  20
ATOM     20  C   UNL A   1      32.399  26.441  24.329  1.00  0.00     0.124 C 
BRANCH  20  21
ATOM     21  C   UNL A   1      31.514  27.022  23.179  1.00  0.00     0.018 C 
ATOM     22  C   UNL A   1      28.884  30.634  23.392  1.00  0.00     0.039 C 
ATOM     23  C   UNL A   1      29.700  29.385  23.193  1.00  0.00    -0.077 C 
ATOM     24  C   UNL A   1      29.190  28.165  23.379  1.00  0.00    -0.025 C 
ATOM     25  C   UNL A   1      31.132  29.599  22.829  1.00  0.00     0.034 C 
ATOM     26  C   UNL A   1      29.969  26.882  23.341  1.00  0.00     0.014 C 
ATOM     27  C   UNL A   1      31.963  28.352  22.509  1.00  0.00    -0.005 C 
ATOM     28  C   UNL A   1      29.500  25.999  24.498  1.00  0.00     0.012 C 
ATOM     29  C   UNL A   1      33.460  28.646  22.632  1.00  0.00     0.008 C 
ENDBRANCH  20  21
ENDBRANCH  10  20
ENDBRANCH   7   9
ENDBRANCH   6   7
ENDBRANCH   5   6
ENDBRANCH   4   5
ENDBRANCH   3   4
ENDBRANCH   2   3
ENDBRANCH   1   2
BRANCH   1  30
ATOM     30  O   UNL A   1      42.753  19.504  25.220  1.00  0.00    -0.376 OA
BRANCH  30  31
ATOM     31  C   UNL A   1      43.709  20.479  25.602  1.00  0.00     0.202 C 
BRANCH  31  32
ATOM     32  C   UNL A   1      44.249  21.458  24.540  1.00  0.00     0.261 C 
BRANCH  32  33
ATOM     33  O   UNL A   1      43.535  22.701  24.380  1.00  0.00    -0.460 OA
BRANCH  33  34
ATOM     34  C   UNL A   1      44.233  23.832  24.668  1.00  0.00     0.338 C 
ATOM     35  O   UNL A   1      45.299  24.157  24.168  1.00  0.00    -0.246 OA
BRANCH  34  36
ATOM     36  C   UNL A   1      43.463  24.742  25.573  1.00  0.00     0.060 A 
ATOM     37  C   UNL A   1      43.876  26.081  25.679  1.00  0.00     0.016 A 
ATOM     38  C   UNL A   1      42.393  24.308  26.355  1.00  0.00     0.016 A 
ATOM     39  C   UNL A   1      43.246  26.981  26.567  1.00  0.00     0.010 A 
ATOM     40  C   UNL A   1      41.779  25.204  27.258  1.00  0.00     0.010 A 
ATOM     41  C   UNL A   1      42.195  26.553  27.388  1.00  0.00    -0.014 A 
BRANCH  41  42
ATOM     42  C   UNL A   1      41.660  27.384  28.524  1.00  0.00     0.031 A 
ATOM     43  C   UNL A   1      42.303  27.220  29.867  1.00  0.00     0.074 A 
ATOM     44  C   UNL A   1      40.678  28.312  28.462  1.00  0.00     0.049 A 
ATOM     45  N   UNL A   1      42.009  27.837  30.980  1.00  0.00    -0.248 NA
ATOM     46  C   UNL A   1      43.478  26.338  29.950  1.00  0.00     0.031 C 
ATOM     47  C   UNL A   1      40.124  28.885  27.257  1.00  0.00     0.029 A 
ATOM     48  N   UNL A   1      39.921  28.916  29.456  1.00  0.00    -0.354 N 
ATOM     49  C   UNL A   1      43.028  27.522  31.855  1.00  0.00     0.074 A 
ATOM     50  C   UNL A   1      43.869  26.542  31.199  1.00  0.00     0.031 C 
ATOM     51  C   UNL A   1      39.009  29.579  27.548  1.00  0.00     0.029 A 
ATOM     52  C   UNL A   1      38.766  29.511  28.976  1.00  0.00     0.049 A 
ATOM     53  H   UNL A   1      40.181  28.923  30.406  1.00  0.00     0.167 HD
ATOM     54  C   UNL A   1      43.299  28.092  33.049  1.00  0.00     0.034 A 
ATOM     55  C   UNL A   1      37.642  29.927  29.606  1.00  0.00     0.034 A 
ATOM     56  C   UNL A   1      42.462  29.050  33.715  1.00  0.00     0.049 A 
ATOM     57  C   UNL A   1      37.767  30.221  31.064  1.00  0.00     0.074 A 
ATOM     58  C   UNL A   1      42.689  29.699  34.917  1.00  0.00     0.029 A 
ATOM     59  N   UNL A   1      41.224  29.476  33.263  1.00  0.00    -0.354 N 
ATOM     60  N   UNL A   1      38.787  30.003  31.850  1.00  0.00    -0.248 NA
ATOM     61  C   UNL A   1      36.680  31.003  31.669  1.00  0.00     0.031 C 
ATOM     62  C   UNL A   1      41.565  30.475  35.218  1.00  0.00     0.029 A 
ATOM     63  C   UNL A   1      40.655  30.344  34.183  1.00  0.00     0.049 A 
ATOM     64  H   UNL A   1      40.809  29.204  32.414  1.00  0.00     0.167 HD
ATOM     65  C   UNL A   1      38.538  30.751  32.987  1.00  0.00     0.074 A 
ATOM     66  C   UNL A   1      37.237  31.366  32.814  1.00  0.00     0.031 C 
ATOM     67  C   UNL A   1      39.363  30.961  34.038  1.00  0.00     0.034 A 
BRANCH  54  68
ATOM     68  C   UNL A   1      44.610  27.727  33.670  1.00  0.00     0.023 A 
ATOM     69  C   UNL A   1      45.756  28.492  33.362  1.00  0.00     0.012 A 
ATOM     70  C   UNL A   1      44.704  26.656  34.570  1.00  0.00     0.148 A 
ATOM     71  C   UNL A   1      46.987  28.179  33.929  1.00  0.00     0.002 A 
ATOM     72  C   UNL A   1      45.925  26.375  35.164  1.00  0.00     0.091 A 
ATOM     73  F   UNL A   1      43.603  25.932  34.816  1.00  0.00    -0.205 F 
ATOM     74  C   UNL A   1      47.068  27.126  34.838  1.00  0.00     0.022 A 
BRANCH  72  75
ATOM     75  S   UNL A   1      46.122  25.084  36.392  1.00  0.00     0.127 S 
ATOM     76  O   UNL A   1      47.529  25.238  36.759  1.00  0.00    -0.237 OA
ATOM     77  O   UNL A   1      45.172  25.501  37.422  1.00  0.00    -0.237 OA
ATOM     78  O   UNL A   1      45.794  23.834  35.721  1.00  0.00    -0.744 OA
ENDBRANCH  72  75
ENDBRANCH  54  68
BRANCH  55  79
ATOM     79  C   UNL A   1      36.348  30.261  28.926  1.00  0.00     0.023 A 
ATOM     80  C   UNL A   1      35.586  29.259  28.304  1.00  0.00     0.012 A 
ATOM     81  C   UNL A   1      35.937  31.610  28.788  1.00  0.00     0.148 A 
ATOM     82  C   UNL A   1      34.441  29.587  27.567  1.00  0.00     0.002 A 
ATOM     83  C   UNL A   1      34.758  31.924  28.110  1.00  0.00     0.091 A 
ATOM     84  F   UNL A   1      36.710  32.569  29.319  1.00  0.00    -0.205 F 
ATOM     85  C   UNL A   1      34.019  30.912  27.483  1.00  0.00     0.022 A 
BRANCH  83  86
ATOM     86  S   UNL A   1      34.027  33.575  28.143  1.00  0.00     0.127 S 
ATOM     87  O   UNL A   1      32.689  33.328  27.614  1.00  0.00    -0.237 OA
ATOM     88  O   UNL A   1      34.070  33.903  29.570  1.00  0.00    -0.237 OA
ATOM     89  O   UNL A   1      34.899  34.400  27.319  1.00  0.00    -0.744 OA
ENDBRANCH  83  86
ENDBRANCH  55  79
BRANCH  67  90
ATOM     90  C   UNL A   1      38.899  31.950  35.069  1.00  0.00     0.023 A 
ATOM     91  C   UNL A   1      39.055  33.333  34.848  1.00  0.00     0.012 A 
ATOM     92  C   UNL A   1      38.333  31.500  36.277  1.00  0.00     0.148 A 
ATOM     93  C   UNL A   1      38.712  34.249  35.839  1.00  0.00     0.002 A 
ATOM     94  C   UNL A   1      37.932  32.423  37.233  1.00  0.00     0.091 A 
ATOM     95  F   UNL A   1      38.222  30.180  36.482  1.00  0.00    -0.205 F 
ATOM     96  C   UNL A   1      38.142  33.795  37.026  1.00  0.00     0.022 A 
BRANCH  94  97
ATOM     97  S   UNL A   1      37.096  31.942  38.746  1.00  0.00     0.127 S 
ATOM     98  O   UNL A   1      35.859  32.717  38.664  1.00  0.00    -0.237 OA
ATOM     99  O   UNL A   1      36.926  30.500  38.555  1.00  0.00    -0.237 OA
ATOM    100  O   UNL A   1      37.990  32.305  39.837  1.00  0.00    -0.744 OA
ENDBRANCH  94  97
ENDBRANCH  67  90
ENDBRANCH  41  42
ENDBRANCH  34  36
ENDBRANCH  33  34
ENDBRANCH  32  33
ENDBRANCH  31  32
ENDBRANCH  30  31
ENDBRANCH   1  30
TORSDOF 22
ENDMDL
MODEL 2
REMARK VINA RESULT:     -11.7      4.542     10.872
REMARK SMILES CC1=C[C@H](C)[C@H](CN2C[C@]34C=C[C@@H](O3)[C@H](C(=O)OCCOCCOCCOC(=O)c3ccc(-c5c6nc(c(-c7cccc(S(=O)(=O)[O-])c7F)c7ccc([nH]7)c(-c7cccc(S(=O)(=O)[O-])c7F)c7nc(c(-c8cccc(S(=O)(=O)[O-])c8F)c8ccc5[nH]8)C=C7)C=C6)cc3)[C@@H]4C2=O)[C@H](C)C1
REMARK SMILES IDX 23 1 22 2 21 3 20 4 19 5 18 6 16 7 17 8 15 9 8 10 9 11 94 12
REMARK SMILES IDX 10 13 93 14 95 15 11 16 14 17 12 18 13 19 7 20 6 21 1 22
REMARK SMILES IDX 2 23 3 24 98 25 4 26 96 27 5 28 97 29 24 30 25 31 26 32
REMARK SMILES IDX 27 33 28 34 29 35 30 36 31 37 92 38 32 39 91 40 33 41 34 42
REMARK SMILES IDX 35 43 85 44 36 45 90 46 84 47 86 48 37 49 89 50 83 51 82 52
REMARK SMILES IDX 38 54 70 55 50 56 69 57 51 58 54 59 68 60 87 61 52 62 53 63
REMARK SMILES IDX 67 65 88 66 55 67 39 68 40 69 48 70 41 71 43 72 49 73 42 74
REMARK SMILES IDX 44 75 45 76 46 77 47 78 71 79 72 80 80 81 73 82 75 83 81 84
REMARK SMILES IDX 74 85 76 86 77 87 78 88 79 89 56 90 57 91 65 92 58 93 60 94
REMARK SMILES IDX 66 95 59 96 61 97 62 98 63 99 64 100
REMARK H PARENT 86 53 54 64
REMARK Flexibility Score: inf
ROOT
ATOM      1  C   UNL A   1      33.680  33.244  28.317  1.00  0.00     0.188 C 
ENDROOT
BRANCH   1   2
ATOM      2  C   UNL A   1      34.218  31.807  28.196  1.00  0.00     0.188 C 
BRANCH   2   3
ATOM      3  O   UNL A   1      33.682  31.096  27.094  1.00  0.00    -0.376 OA
BRANCH   3   4
ATOM      4  C   UNL A   1      34.171  29.781  26.921  1.00  0.00     0.202 C 
BRANCH   4   5
ATOM      5  C   UNL A   1      33.162  28.650  27.155  1.00  0.00     0.261 C 
BRANCH   5   6
ATOM      6  O   UNL A   1      32.249  28.279  26.102  1.00  0.00    -0.463 OA
BRANCH   6   7
ATOM      7  C   UNL A   1      32.376  27.044  25.530  1.00  0.00     0.312 C 
ATOM      8  O   UNL A   1      33.341  26.324  25.713  1.00  0.00    -0.252 OA
BRANCH   7   9
ATOM      9  C   UNL A   1      31.264  26.850  24.513  1.00  0.00     0.148 C 
ATOM     10  N   UNL A   1      32.674  24.037  23.175  1.00  0.00    -0.339 N 
ATOM     11  C   UNL A   1      33.169  25.275  22.677  1.00  0.00     0.160 C 
ATOM     12  C   UNL A   1      31.451  24.245  23.732  1.00  0.00     0.230 C 
ATOM     13  C   UNL A   1      31.972  26.187  22.196  1.00  0.00     0.117 C 
ATOM     14  C   UNL A   1      31.133  25.691  23.501  1.00  0.00     0.133 C 
ATOM     15  O   UNL A   1      30.710  23.438  24.276  1.00  0.00    -0.274 OA
ATOM     16  C   UNL A   1      33.046  27.332  22.128  1.00  0.00     0.009 C 
ATOM     17  O   UNL A   1      31.018  27.297  22.287  1.00  0.00    -0.360 OA
ATOM     18  C   UNL A   1      32.776  28.298  23.011  1.00  0.00     0.004 C 
ATOM     19  C   UNL A   1      31.419  27.987  23.503  1.00  0.00     0.157 C 
BRANCH  10  20
ATOM     20  C   UNL A   1      33.554  22.864  23.236  1.00  0.00     0.124 C 
BRANCH  20  21
ATOM     21  C   UNL A   1      32.921  21.723  24.098  1.00  0.00     0.018 C 
ATOM     22  C   UNL A   1      34.346  17.493  24.399  1.00  0.00     0.039 C 
ATOM     23  C   UNL A   1      33.742  18.871  24.364  1.00  0.00    -0.077 C 
ATOM     24  C   UNL A   1      32.757  19.196  23.522  1.00  0.00    -0.025 C 
ATOM     25  C   UNL A   1      34.353  19.870  25.291  1.00  0.00     0.034 C 
ATOM     26  C   UNL A   1      32.199  20.576  23.326  1.00  0.00     0.014 C 
ATOM     27  C   UNL A   1      33.690  21.249  25.364  1.00  0.00    -0.005 C 
ATOM     28  C   UNL A   1      32.001  20.806  21.827  1.00  0.00     0.012 C 
ATOM     29  C   UNL A   1      34.654  22.289  25.943  1.00  0.00     0.008 C 
ENDBRANCH  20  21
ENDBRANCH  10  20
ENDBRANCH   7   9
ENDBRANCH   6   7
ENDBRANCH   5   6
ENDBRANCH   4   5
ENDBRANCH   3   4
ENDBRANCH   2   3
ENDBRANCH   1   2
BRANCH   1  30
ATOM     30  O   UNL A   1      34.354  34.185  29.149  1.00  0.00    -0.376 OA
BRANCH  30  31
ATOM     31  C   UNL A   1      33.697  34.670  30.308  1.00  0.00     0.202 C 
BRANCH  31  32
ATOM     32  C   UNL A   1      34.265  34.317  31.697  1.00  0.00     0.261 C 
BRANCH  32  33
ATOM     33  O   UNL A   1      34.321  32.916  32.038  1.00  0.00    -0.460 OA
BRANCH  33  34
ATOM     34  C   UNL A   1      35.346  32.540  32.850  1.00  0.00     0.338 C 
ATOM     35  O   UNL A   1      35.401  32.722  34.057  1.00  0.00    -0.246 OA
BRANCH  34  36
ATOM     36  C   UNL A   1      36.359  31.718  32.118  1.00  0.00     0.060 A 
ATOM     37  C   UNL A   1      37.453  31.212  32.840  1.00  0.00     0.016 A 
ATOM     38  C   UNL A   1      36.295  31.479  30.745  1.00  0.00     0.016 A 
ATOM     39  C   UNL A   1      38.487  30.489  32.205  1.00  0.00     0.010 A 
ATOM     40  C   UNL A   1      37.342  30.775  30.109  1.00  0.00     0.010 A 
ATOM     41  C   UNL A   1      38.460  30.273  30.821  1.00  0.00    -0.014 A 
BRANCH  41  42
ATOM     42  C   UNL A   1      39.643  29.742  30.057  1.00  0.00     0.031 A 
ATOM     43  C   UNL A   1      40.748  30.700  29.733  1.00  0.00     0.074 A 
ATOM     44  C   UNL A   1      39.851  28.465  29.660  1.00  0.00     0.049 A 
ATOM     45  N   UNL A   1      41.860  30.459  29.092  1.00  0.00    -0.248 NA
ATOM     46  C   UNL A   1      40.642  32.062  30.279  1.00  0.00     0.031 C 
ATOM     47  C   UNL A   1      39.117  27.305  30.111  1.00  0.00     0.029 A 
ATOM     48  N   UNL A   1      40.728  27.922  28.732  1.00  0.00    -0.354 N 
ATOM     49  C   UNL A   1      42.637  31.586  29.266  1.00  0.00     0.074 A 
ATOM     50  C   UNL A   1      41.817  32.571  29.941  1.00  0.00     0.031 C 
ATOM     51  C   UNL A   1      39.412  26.245  29.337  1.00  0.00     0.029 A 
ATOM     52  C   UNL A   1      40.373  26.646  28.328  1.00  0.00     0.049 A 
ATOM     53  H   UNL A   1      41.523  28.396  28.397  1.00  0.00     0.167 HD
ATOM     54  C   UNL A   1      43.950  31.737  28.990  1.00  0.00     0.034 A 
ATOM     55  C   UNL A   1      40.756  25.902  27.264  1.00  0.00     0.034 A 
ATOM     56  C   UNL A   1      44.765  30.773  28.305  1.00  0.00     0.049 A 
ATOM     57  C   UNL A   1      42.062  26.261  26.637  1.00  0.00     0.074 A 
ATOM     58  C   UNL A   1      46.118  30.843  28.018  1.00  0.00     0.029 A 
ATOM     59  N   UNL A   1      44.307  29.583  27.766  1.00  0.00    -0.354 N 
ATOM     60  N   UNL A   1      42.828  27.288  26.893  1.00  0.00    -0.248 NA
ATOM     61  C   UNL A   1      42.654  25.262  25.738  1.00  0.00     0.031 C 
ATOM     62  C   UNL A   1      46.466  29.720  27.259  1.00  0.00     0.029 A 
ATOM     63  C   UNL A   1      45.340  28.930  27.109  1.00  0.00     0.049 A 
ATOM     64  H   UNL A   1      43.385  29.248  27.838  1.00  0.00     0.167 HD
ATOM     65  C   UNL A   1      44.050  26.984  26.317  1.00  0.00     0.074 A 
ATOM     66  C   UNL A   1      43.894  25.714  25.637  1.00  0.00     0.031 C 
ATOM     67  C   UNL A   1      45.209  27.673  26.420  1.00  0.00     0.034 A 
BRANCH  54  68
ATOM     68  C   UNL A   1      44.593  32.984  29.510  1.00  0.00     0.023 A 
ATOM     69  C   UNL A   1      45.218  32.961  30.776  1.00  0.00     0.012 A 
ATOM     70  C   UNL A   1      44.604  34.157  28.744  1.00  0.00     0.148 A 
ATOM     71  C   UNL A   1      45.827  34.104  31.282  1.00  0.00     0.002 A 
ATOM     72  C   UNL A   1      45.250  35.281  29.236  1.00  0.00     0.091 A 
ATOM     73  F   UNL A   1      43.975  34.152  27.560  1.00  0.00    -0.205 F 
ATOM     74  C   UNL A   1      45.852  35.261  30.506  1.00  0.00     0.022 A 
BRANCH  72  75
ATOM     75  S   UNL A   1      45.392  36.798  28.291  1.00  0.00     0.127 S 
ATOM     76  O   UNL A   1      44.829  37.778  29.221  1.00  0.00    -0.237 OA
ATOM     77  O   UNL A   1      46.838  36.899  28.099  1.00  0.00    -0.237 OA
ATOM     78  O   UNL A   1      44.621  36.591  27.074  1.00  0.00    -0.744 OA
ENDBRANCH  72  75
ENDBRANCH  54  68
BRANCH  55  79
ATOM     79  C   UNL A   1      40.056  24.668  26.780  1.00  0.00     0.023 A 
ATOM     80  C   UNL A   1      38.780  24.749  26.197  1.00  0.00     0.012 A 
ATOM     81  C   UNL A   1      40.612  23.387  27.018  1.00  0.00     0.148 A 
ATOM     82  C   UNL A   1      38.077  23.588  25.856  1.00  0.00     0.002 A 
ATOM     83  C   UNL A   1      39.936  22.236  26.613  1.00  0.00     0.091 A 
ATOM     84  F   UNL A   1      41.797  23.313  27.642  1.00  0.00    -0.205 F 
ATOM     85  C   UNL A   1      38.657  22.335  26.047  1.00  0.00     0.022 A 
BRANCH  83  86
ATOM     86  S   UNL A   1      40.705  20.602  26.619  1.00  0.00     0.127 S 
ATOM     87  O   UNL A   1      42.026  20.882  26.063  1.00  0.00    -0.237 OA
ATOM     88  O   UNL A   1      40.700  20.263  28.044  1.00  0.00    -0.237 OA
ATOM     89  O   UNL A   1      39.835  19.762  25.807  1.00  0.00    -0.744 OA
ENDBRANCH  83  86
ENDBRANCH  55  79
BRANCH  67  90
ATOM     90  C   UNL A   1      46.427  27.031  25.822  1.00  0.00     0.023 A 
ATOM     91  C   UNL A   1      47.105  26.008  26.516  1.00  0.00     0.012 A 
ATOM     92  C   UNL A   1      46.918  27.467  24.577  1.00  0.00     0.148 A 
ATOM     93  C   UNL A   1      48.288  25.475  26.009  1.00  0.00     0.002 A 
ATOM     94  C   UNL A   1      48.061  26.884  24.047  1.00  0.00     0.091 A 
ATOM     95  F   UNL A   1      46.278  28.462  23.947  1.00  0.00    -0.205 F 
ATOM     96  C   UNL A   1      48.759  25.904  24.771  1.00  0.00     0.022 A 
BRANCH  94  97
ATOM     97  S   UNL A   1      48.685  27.297  22.416  1.00  0.00     0.127 S 
ATOM     98  O   UNL A   1      49.808  28.175  22.739  1.00  0.00    -0.237 OA
ATOM     99  O   UNL A   1      49.068  25.984  21.894  1.00  0.00    -0.237 OA
ATOM    100  O   UNL A   1      47.581  27.930  21.707  1.00  0.00    -0.744 OA
ENDBRANCH  94  97
ENDBRANCH  67  90
ENDBRANCH  41  42
ENDBRANCH  34  36
ENDBRANCH  33  34
ENDBRANCH  32  33
ENDBRANCH  31  32
ENDBRANCH  30  31
ENDBRANCH   1  30
TORSDOF 22
ENDMDL
MODEL 3
REMARK VINA RESULT:     -11.4      1.948      2.385
REMARK SMILES CC1=C[C@H](C)[C@H](CN2C[C@]34C=C[C@@H](O3)[C@H](C(=O)OCCOCCOCCOC(=O)c3ccc(-c5c6nc(c(-c7cccc(S(=O)(=O)[O-])c7F)c7ccc([nH]7)c(-c7cccc(S(=O)(=O)[O-])c7F)c7nc(c(-c8cccc(S(=O)(=O)[O-])c8F)c8ccc5[nH]8)C=C7)C=C6)cc3)[C@@H]4C2=O)[C@H](C)C1
REMARK SMILES IDX 23 1 22 2 21 3 20 4 19 5 18 6 16 7 17 8 15 9 8 10 9 11 94 12
REMARK SMILES IDX 10 13 93 14 95 15 11 16 14 17 12 18 13 19 7 20 6 21 1 22
REMARK SMILES IDX 2 23 3 24 98 25 4 26 96 27 5 28 97 29 24 30 25 31 26 32
REMARK SMILES IDX 27 33 28 34 29 35 30 36 31 37 92 38 32 39 91 40 33 41 34 42
REMARK SMILES IDX 35 43 85 44 36 45 90 46 84 47 86 48 37 49 89 50 83 51 82 52
REMARK SMILES IDX 38 54 70 55 50 56 69 57 51 58 54 59 68 60 87 61 52 62 53 63
REMARK SMILES IDX 67 65 88 66 55 67 39 68 40 69 48 70 41 71 43 72 49 73 42 74
REMARK SMILES IDX 44 75 45 76 46 77 47 78 71 79 72 80 80 81 73 82 75 83 81 84
REMARK SMILES IDX 74 85 76 86 77 87 78 88 79 89 56 90 57 91 65 92 58 93 60 94
REMARK SMILES IDX 66 95 59 96 61 97 62 98 63 99 64 100
REMARK H PARENT 86 53 54 64
REMARK Flexibility Score: inf
ROOT
ATOM      1  C   UNL A   1      41.493  19.183  26.185  1.00  0.00     0.188 C 
ENDROOT
BRANCH   1   2
ATOM      2  C   UNL A   1      40.838  20.361  26.930  1.00  0.00     0.188 C 
BRANCH   2   3
ATOM      3  O   UNL A   1      39.610  20.775  26.357  1.00  0.00    -0.376 OA
BRANCH   3   4
ATOM      4  C   UNL A   1      39.480  22.165  26.134  1.00  0.00     0.202 C 
BRANCH   4   5
ATOM      5  C   UNL A   1      38.050  22.720  26.143  1.00  0.00     0.261 C 
BRANCH   5   6
ATOM      6  O   UNL A   1      37.447  23.157  24.907  1.00  0.00    -0.463 OA
BRANCH   6   7
ATOM      7  C   UNL A   1      36.111  23.441  24.897  1.00  0.00     0.312 C 
ATOM      8  O   UNL A   1      35.592  24.225  25.671  1.00  0.00    -0.252 OA
BRANCH   7   9
ATOM      9  C   UNL A   1      35.406  22.485  23.947  1.00  0.00     0.148 C 
ATOM     10  N   UNL A   1      32.583  24.403  23.752  1.00  0.00    -0.339 N 
ATOM     11  C   UNL A   1      32.662  23.530  24.873  1.00  0.00     0.160 C 
ATOM     12  C   UNL A   1      33.427  23.955  22.785  1.00  0.00     0.230 C 
ATOM     13  C   UNL A   1      32.973  22.056  24.394  1.00  0.00     0.117 C 
ATOM     14  C   UNL A   1      34.015  22.679  23.309  1.00  0.00     0.133 C 
ATOM     15  O   UNL A   1      33.653  24.435  21.683  1.00  0.00    -0.274 OA
ATOM     16  C   UNL A   1      33.239  21.760  25.915  1.00  0.00     0.009 C 
ATOM     17  O   UNL A   1      33.808  20.871  24.176  1.00  0.00    -0.360 OA
ATOM     18  C   UNL A   1      34.517  21.432  26.124  1.00  0.00     0.004 C 
ATOM     19  C   UNL A   1      35.081  21.241  24.773  1.00  0.00     0.157 C 
BRANCH  10  20
ATOM     20  C   UNL A   1      31.861  25.677  23.862  1.00  0.00     0.124 C 
BRANCH  20  21
ATOM     21  C   UNL A   1      32.632  26.690  24.770  1.00  0.00     0.018 C 
ATOM     22  C   UNL A   1      31.401  30.878  25.749  1.00  0.00     0.039 C 
ATOM     23  C   UNL A   1      31.949  29.503  25.475  1.00  0.00    -0.077 C 
ATOM     24  C   UNL A   1      32.814  29.265  24.485  1.00  0.00    -0.025 C 
ATOM     25  C   UNL A   1      31.420  28.410  26.344  1.00  0.00     0.034 C 
ATOM     26  C   UNL A   1      33.296  27.910  24.057  1.00  0.00     0.014 C 
ATOM     27  C   UNL A   1      32.038  27.020  26.169  1.00  0.00    -0.005 C 
ATOM     28  C   UNL A   1      33.304  27.862  22.529  1.00  0.00     0.012 C 
ATOM     29  C   UNL A   1      31.116  25.936  26.734  1.00  0.00     0.008 C 
ENDBRANCH  20  21
ENDBRANCH  10  20
ENDBRANCH   7   9
ENDBRANCH   6   7
ENDBRANCH   5   6
ENDBRANCH   4   5
ENDBRANCH   3   4
ENDBRANCH   2   3
ENDBRANCH   1   2
BRANCH   1  30
ATOM     30  O   UNL A   1      42.586  19.425  25.302  1.00  0.00    -0.376 OA
BRANCH  30  31
ATOM     31  C   UNL A   1      43.526  20.433  25.634  1.00  0.00     0.202 C 
BRANCH  31  32
ATOM     32  C   UNL A   1      44.286  21.154  24.503  1.00  0.00     0.261 C 
BRANCH  32  33
ATOM     33  O   UNL A   1      43.761  22.429  24.078  1.00  0.00    -0.460 OA
BRANCH  33  34
ATOM     34  C   UNL A   1      44.509  23.519  24.397  1.00  0.00     0.338 C 
ATOM     35  O   UNL A   1      45.587  23.812  23.902  1.00  0.00    -0.246 OA
BRANCH  34  36
ATOM     36  C   UNL A   1      43.784  24.433  25.334  1.00  0.00     0.060 A 
ATOM     37  C   UNL A   1      44.285  25.733  25.517  1.00  0.00     0.016 A 
ATOM     38  C   UNL A   1      42.669  24.036  26.071  1.00  0.00     0.016 A 
ATOM     39  C   UNL A   1      43.698  26.628  26.439  1.00  0.00     0.010 A 
ATOM     40  C   UNL A   1      42.097  24.926  27.008  1.00  0.00     0.010 A 
ATOM     41  C   UNL A   1      42.602  26.234  27.216  1.00  0.00    -0.014 A 
BRANCH  41  42
ATOM     42  C   UNL A   1      42.100  27.041  28.383  1.00  0.00     0.031 A 
ATOM     43  C   UNL A   1      42.754  26.821  29.713  1.00  0.00     0.074 A 
ATOM     44  C   UNL A   1      41.139  27.994  28.363  1.00  0.00     0.049 A 
ATOM     45  N   UNL A   1      42.488  27.410  30.848  1.00  0.00    -0.248 NA
ATOM     46  C   UNL A   1      43.909  25.910  29.754  1.00  0.00     0.031 C 
ATOM     47  C   UNL A   1      40.585  28.616  27.182  1.00  0.00     0.029 A 
ATOM     48  N   UNL A   1      40.408  28.584  29.384  1.00  0.00    -0.354 N 
ATOM     49  C   UNL A   1      43.509  27.045  31.701  1.00  0.00     0.074 A 
ATOM     50  C   UNL A   1      44.319  26.066  31.004  1.00  0.00     0.031 C 
ATOM     51  C   UNL A   1      39.490  29.326  27.508  1.00  0.00     0.029 A 
ATOM     52  C   UNL A   1      39.261  29.219  28.937  1.00  0.00     0.049 A 
ATOM     53  H   UNL A   1      40.679  28.555  30.330  1.00  0.00     0.167 HD
ATOM     54  C   UNL A   1      43.807  27.570  32.908  1.00  0.00     0.034 A 
ATOM     55  C   UNL A   1      38.155  29.641  29.592  1.00  0.00     0.034 A 
ATOM     56  C   UNL A   1      43.001  28.527  33.613  1.00  0.00     0.049 A 
ATOM     57  C   UNL A   1      38.304  29.887  31.057  1.00  0.00     0.074 A 
ATOM     58  C   UNL A   1      43.256  29.132  34.832  1.00  0.00     0.029 A 
ATOM     59  N   UNL A   1      41.768  28.995  33.190  1.00  0.00    -0.354 N 
ATOM     60  N   UNL A   1      39.327  29.621  31.824  1.00  0.00    -0.248 NA
ATOM     61  C   UNL A   1      37.243  30.675  31.700  1.00  0.00     0.031 C 
ATOM     62  C   UNL A   1      42.154  29.925  35.170  1.00  0.00     0.029 A 
ATOM     63  C   UNL A   1      41.230  29.847  34.143  1.00  0.00     0.049 A 
ATOM     64  H   UNL A   1      41.336  28.759  32.337  1.00  0.00     0.167 HD
ATOM     65  C   UNL A   1      39.109  30.339  32.986  1.00  0.00     0.074 A 
ATOM     66  C   UNL A   1      37.821  30.990  32.848  1.00  0.00     0.031 C 
ATOM     67  C   UNL A   1      39.951  30.498  34.033  1.00  0.00     0.034 A 
BRANCH  54  68
ATOM     68  C   UNL A   1      45.117  27.156  33.501  1.00  0.00     0.023 A 
ATOM     69  C   UNL A   1      45.159  26.044  34.370  1.00  0.00     0.012 A 
ATOM     70  C   UNL A   1      46.297  27.840  33.181  1.00  0.00     0.148 A 
ATOM     71  C   UNL A   1      46.363  25.634  34.932  1.00  0.00     0.002 A 
ATOM     72  C   UNL A   1      47.501  27.400  33.711  1.00  0.00     0.091 A 
ATOM     73  F   UNL A   1      46.216  28.910  32.376  1.00  0.00    -0.205 F 
ATOM     74  C   UNL A   1      47.535  26.306  34.593  1.00  0.00     0.022 A 
BRANCH  72  75
ATOM     75  S   UNL A   1      49.070  28.156  33.289  1.00  0.00     0.127 S 
ATOM     76  O   UNL A   1      49.467  27.376  32.117  1.00  0.00    -0.237 OA
ATOM     77  O   UNL A   1      48.674  29.533  33.001  1.00  0.00    -0.237 OA
ATOM     78  O   UNL A   1      49.925  27.993  34.456  1.00  0.00    -0.744 OA
ENDBRANCH  72  75
ENDBRANCH  54  68
BRANCH  55  79
ATOM     79  C   UNL A   1      36.862  30.026  28.939  1.00  0.00     0.023 A 
ATOM     80  C   UNL A   1      36.046  29.054  28.338  1.00  0.00     0.012 A 
ATOM     81  C   UNL A   1      36.503  31.390  28.804  1.00  0.00     0.148 A 
ATOM     82  C   UNL A   1      34.900  29.427  27.624  1.00  0.00     0.002 A 
ATOM     83  C   UNL A   1      35.324  31.750  28.150  1.00  0.00     0.091 A 
ATOM     84  F   UNL A   1      37.326  32.318  29.315  1.00  0.00    -0.205 F 
ATOM     85  C   UNL A   1      34.531  30.768  27.543  1.00  0.00     0.022 A 
BRANCH  83  86
ATOM     86  S   UNL A   1      34.662  33.430  28.193  1.00  0.00     0.127 S 
ATOM     87  O   UNL A   1      35.537  34.129  27.257  1.00  0.00    -0.237 OA
ATOM     88  O   UNL A   1      33.290  33.233  27.719  1.00  0.00    -0.237 OA
ATOM     89  O   UNL A   1      34.754  33.846  29.586  1.00  0.00    -0.744 OA
ENDBRANCH  83  86
ENDBRANCH  55  79
BRANCH  67  90
ATOM     90  C   UNL A   1      39.522  31.465  35.099  1.00  0.00     0.023 A 
ATOM     91  C   UNL A   1      38.523  31.104  36.025  1.00  0.00     0.012 A 
ATOM     92  C   UNL A   1      40.097  32.749  35.162  1.00  0.00     0.148 A 
ATOM     93  C   UNL A   1      38.057  32.029  36.956  1.00  0.00     0.002 A 
ATOM     94  C   UNL A   1      39.674  33.642  36.136  1.00  0.00     0.091 A 
ATOM     95  F   UNL A   1      41.023  33.084  34.253  1.00  0.00    -0.205 F 
ATOM     96  C   UNL A   1      38.639  33.293  37.019  1.00  0.00     0.022 A 
BRANCH  94  97
ATOM     97  S   UNL A   1      40.433  35.253  36.361  1.00  0.00     0.127 S 
ATOM     98  O   UNL A   1      41.568  35.179  35.443  1.00  0.00    -0.237 OA
ATOM     99  O   UNL A   1      39.363  36.157  35.937  1.00  0.00    -0.237 OA
ATOM    100  O   UNL A   1      40.777  35.345  37.774  1.00  0.00    -0.744 OA
ENDBRANCH  94  97
ENDBRANCH  67  90
ENDBRANCH  41  42
ENDBRANCH  34  36
ENDBRANCH  33  34
ENDBRANCH  32  33
ENDBRANCH  31  32
ENDBRANCH  30  31
ENDBRANCH   1  30
TORSDOF 22
ENDMDL
