MODEL 1
REMARK VINA RESULT:     -11.5      0.000      0.000
REMARK SMILES CCCc1cc(OC(F)(F)F)cc2c1O[C@H](C(F)(F)F)C(C(=O)OCCOCCOCCOC(=O)c1ccc(-c3c4nc(c(-c5cccc(S(=O)(=O)[O-])c5F)c5ccc([nH]5)c(-c5cccc(S(=O)(=O)[O-])c5F)c5nc(c(-c6cccc(S(=O)(=O)[O-])c6F)c6ccc3[nH]6)C=C5)C=C4)cc1)=C2
REMARK SMILES IDX 29 1 28 2 27 3 26 4 25 5 24 6 22 7 23 8 21 9 4 10 5 11 14 12
REMARK SMILES IDX 6 13 13 14 15 15 12 16 99 17 16 18 3 19 2 20 1 21 7 22 8 23
REMARK SMILES IDX 9 24 10 25 11 26 17 27 18 28 19 29 20 30 30 31 31 32 32 33
REMARK SMILES IDX 33 34 34 35 35 36 36 37 37 38 98 39 38 40 97 41 39 42 40 43
REMARK SMILES IDX 41 44 91 45 42 46 96 47 90 48 92 49 43 50 95 51 89 52 88 53
REMARK SMILES IDX 44 55 76 56 56 57 75 58 57 59 60 60 74 61 93 62 58 63 59 64
REMARK SMILES IDX 73 66 94 67 61 68 45 69 46 70 54 71 47 72 49 73 55 74 48 75
REMARK SMILES IDX 50 76 51 77 52 78 53 79 77 80 78 81 86 82 79 83 81 84 87 85
REMARK SMILES IDX 80 86 82 87 83 88 84 89 85 90 62 91 63 92 71 93 64 94 66 95
REMARK SMILES IDX 72 96 65 97 67 98 68 99 69 100 70 101
REMARK H PARENT 92 54 60 65
REMARK Flexibility Score: inf
ROOT
ATOM      1  C   UNL A   1      31.245  27.351  26.372  1.00  0.00     0.188 C 
ENDROOT
BRANCH   1   2
ATOM      2  C   UNL A   1      30.331  26.261  25.772  1.00  0.00     0.188 C 
BRANCH   2   3
ATOM      3  O   UNL A   1      30.600  25.759  24.471  1.00  0.00    -0.376 OA
BRANCH   3   4
ATOM      4  C   UNL A   1      30.116  26.470  23.343  1.00  0.00     0.202 C 
BRANCH   4   5
ATOM      5  C   UNL A   1      31.095  26.702  22.195  1.00  0.00     0.261 C 
BRANCH   5   6
ATOM      6  O   UNL A   1      32.466  26.470  22.572  1.00  0.00    -0.460 OA
BRANCH   6   7
ATOM      7  C   UNL A   1      33.066  25.432  21.942  1.00  0.00     0.338 C 
ATOM      8  O   UNL A   1      33.402  25.403  20.769  1.00  0.00    -0.246 OA
BRANCH   7   9
ATOM      9  C   UNL A   1      33.347  24.305  22.851  1.00  0.00     0.087 C 
ATOM     10  C   UNL A   1      35.142  21.100  24.800  1.00  0.00    -0.002 A 
ATOM     11  C   UNL A   1      34.392  19.946  25.061  1.00  0.00     0.054 A 
ATOM     12  C   UNL A   1      34.543  22.140  24.085  1.00  0.00     0.131 A 
ATOM     13  C   UNL A   1      33.070  19.834  24.615  1.00  0.00     0.130 A 
ATOM     14  C   UNL A   1      33.219  22.049  23.626  1.00  0.00     0.021 A 
ATOM     15  O   UNL A   1      35.317  23.246  23.830  1.00  0.00    -0.475 OA
ATOM     16  C   UNL A   1      32.487  20.891  23.901  1.00  0.00     0.058 A 
ATOM     17  C   UNL A   1      32.669  23.146  22.823  1.00  0.00     0.027 C 
ATOM     18  C   UNL A   1      34.565  24.477  23.733  1.00  0.00     0.316 C 
BRANCH  10  19
ATOM     19  C   UNL A   1      36.545  21.235  25.347  1.00  0.00     0.039 C 
BRANCH  19  20
ATOM     20  C   UNL A   1      37.608  20.571  24.463  1.00  0.00     0.001 C 
ATOM     21  C   UNL A   1      38.187  19.299  25.066  1.00  0.00     0.004 C 
ENDBRANCH  19  20
ENDBRANCH  10  19
BRANCH  13  22
ATOM     22  O   UNL A   1      32.248  18.761  24.821  1.00  0.00    -0.406 OA
BRANCH  22  23
ATOM     23  C   UNL A   1      32.787  17.469  24.588  1.00  0.00     0.573 C 
ATOM     24  F   UNL A   1      32.754  17.155  23.275  1.00  0.00    -0.132 F 
ATOM     25  F   UNL A   1      34.054  17.375  25.043  1.00  0.00    -0.132 F 
ATOM     26  F   UNL A   1      32.037  16.561  25.251  1.00  0.00    -0.132 F 
ENDBRANCH  22  23
ENDBRANCH  13  22
BRANCH  18  27
ATOM     27  C   UNL A   1      34.225  25.020  25.134  1.00  0.00     0.430 C 
ATOM     28  F   UNL A   1      34.275  26.371  25.202  1.00  0.00    -0.167 F 
ATOM     29  F   UNL A   1      32.987  24.645  25.528  1.00  0.00    -0.167 F 
ATOM     30  F   UNL A   1      35.088  24.563  26.070  1.00  0.00    -0.167 F 
ENDBRANCH  18  27
ENDBRANCH   7   9
ENDBRANCH   6   7
ENDBRANCH   5   6
ENDBRANCH   4   5
ENDBRANCH   3   4
ENDBRANCH   2   3
ENDBRANCH   1   2
BRANCH   1  31
ATOM     31  O   UNL A   1      31.972  28.207  25.497  1.00  0.00    -0.376 OA
BRANCH  31  32
ATOM     32  C   UNL A   1      31.427  29.496  25.227  1.00  0.00     0.202 C 
BRANCH  32  33
ATOM     33  C   UNL A   1      31.885  30.615  26.158  1.00  0.00     0.261 C 
BRANCH  33  34
ATOM     34  O   UNL A   1      33.233  30.397  26.607  1.00  0.00    -0.460 OA
BRANCH  34  35
ATOM     35  C   UNL A   1      33.754  31.382  27.370  1.00  0.00     0.338 C 
ATOM     36  O   UNL A   1      33.191  32.401  27.754  1.00  0.00    -0.246 OA
BRANCH  35  37
ATOM     37  C   UNL A   1      35.106  31.005  27.803  1.00  0.00     0.060 A 
ATOM     38  C   UNL A   1      35.362  29.663  28.110  1.00  0.00     0.016 A 
ATOM     39  C   UNL A   1      36.086  31.979  28.000  1.00  0.00     0.016 A 
ATOM     40  C   UNL A   1      36.600  29.292  28.638  1.00  0.00     0.010 A 
ATOM     41  C   UNL A   1      37.321  31.607  28.543  1.00  0.00     0.010 A 
ATOM     42  C   UNL A   1      37.576  30.266  28.889  1.00  0.00    -0.014 A 
BRANCH  42  43
ATOM     43  C   UNL A   1      38.813  29.915  29.627  1.00  0.00     0.031 A 
ATOM     44  C   UNL A   1      39.739  28.878  29.053  1.00  0.00     0.074 A 
ATOM     45  C   UNL A   1      39.104  30.497  30.805  1.00  0.00     0.049 A 
ATOM     46  N   UNL A   1      40.813  28.345  29.574  1.00  0.00    -0.248 NA
ATOM     47  C   UNL A   1      39.408  28.374  27.709  1.00  0.00     0.031 C 
ATOM     48  C   UNL A   1      38.305  31.535  31.454  1.00  0.00     0.029 A 
ATOM     49  N   UNL A   1      40.141  30.272  31.677  1.00  0.00    -0.354 N 
ATOM     50  C   UNL A   1      41.271  27.423  28.641  1.00  0.00     0.074 A 
ATOM     51  C   UNL A   1      40.359  27.469  27.518  1.00  0.00     0.031 C 
ATOM     52  C   UNL A   1      38.863  31.835  32.639  1.00  0.00     0.029 A 
ATOM     53  C   UNL A   1      40.036  30.987  32.848  1.00  0.00     0.049 A 
ATOM     54  H   UNL A   1      40.886  29.659  31.484  1.00  0.00     0.167 HD
ATOM     55  C   UNL A   1      42.356  26.617  28.708  1.00  0.00     0.034 A 
ATOM     56  C   UNL A   1      40.782  30.937  33.971  1.00  0.00     0.034 A 
ATOM     57  C   UNL A   1      43.274  26.582  29.814  1.00  0.00     0.049 A 
ATOM     58  C   UNL A   1      41.959  29.997  34.037  1.00  0.00     0.074 A 
ATOM     59  C   UNL A   1      44.415  25.812  29.960  1.00  0.00     0.029 A 
ATOM     60  N   UNL A   1      43.157  27.345  30.965  1.00  0.00    -0.354 N 
ATOM     61  N   UNL A   1      42.432  29.195  33.112  1.00  0.00    -0.248 NA
ATOM     62  C   UNL A   1      42.717  29.967  35.297  1.00  0.00     0.031 C 
ATOM     63  C   UNL A   1      44.977  26.096  31.210  1.00  0.00     0.029 A 
ATOM     64  C   UNL A   1      44.196  27.057  31.832  1.00  0.00     0.049 A 
ATOM     65  H   UNL A   1      42.439  27.995  31.140  1.00  0.00     0.167 HD
ATOM     66  C   UNL A   1      43.555  28.590  33.667  1.00  0.00     0.074 A 
ATOM     67  C   UNL A   1      43.708  29.136  34.999  1.00  0.00     0.031 C 
ATOM     68  C   UNL A   1      44.372  27.649  33.132  1.00  0.00     0.034 A 
BRANCH  55  69
ATOM     69  C   UNL A   1      42.626  25.715  27.535  1.00  0.00     0.023 A 
ATOM     70  C   UNL A   1      43.410  26.186  26.464  1.00  0.00     0.012 A 
ATOM     71  C   UNL A   1      42.155  24.388  27.520  1.00  0.00     0.148 A 
ATOM     72  C   UNL A   1      43.702  25.356  25.382  1.00  0.00     0.002 A 
ATOM     73  C   UNL A   1      42.481  23.555  26.456  1.00  0.00     0.091 A 
ATOM     74  F   UNL A   1      41.392  23.968  28.540  1.00  0.00    -0.205 F 
ATOM     75  C   UNL A   1      43.247  24.039  25.384  1.00  0.00     0.022 A 
BRANCH  73  76
ATOM     76  S   UNL A   1      41.998  21.825  26.398  1.00  0.00     0.127 S 
ATOM     77  O   UNL A   1      40.595  21.925  26.001  1.00  0.00    -0.237 OA
ATOM     78  O   UNL A   1      42.887  21.292  25.365  1.00  0.00    -0.237 OA
ATOM     79  O   UNL A   1      42.235  21.297  27.734  1.00  0.00    -0.744 OA
ENDBRANCH  73  76
ENDBRANCH  55  69
BRANCH  56  80
ATOM     80  C   UNL A   1      40.447  31.811  35.131  1.00  0.00     0.023 A 
ATOM     81  C   UNL A   1      41.173  33.000  35.337  1.00  0.00     0.012 A 
ATOM     82  C   UNL A   1      39.419  31.471  36.033  1.00  0.00     0.148 A 
ATOM     83  C   UNL A   1      40.901  33.818  36.435  1.00  0.00     0.002 A 
ATOM     84  C   UNL A   1      39.117  32.318  37.092  1.00  0.00     0.091 A 
ATOM     85  F   UNL A   1      38.759  30.320  35.839  1.00  0.00    -0.205 F 
ATOM     86  C   UNL A   1      39.866  33.484  37.304  1.00  0.00     0.022 A 
BRANCH  84  87
ATOM     87  S   UNL A   1      37.720  32.022  38.182  1.00  0.00     0.127 S 
ATOM     88  O   UNL A   1      38.316  32.241  39.498  1.00  0.00    -0.237 OA
ATOM     89  O   UNL A   1      36.774  33.054  37.756  1.00  0.00    -0.237 OA
ATOM     90  O   UNL A   1      37.286  30.661  37.896  1.00  0.00    -0.744 OA
ENDBRANCH  84  87
ENDBRANCH  56  80
BRANCH  68  91
ATOM     91  C   UNL A   1      45.525  27.161  33.972  1.00  0.00     0.023 A 
ATOM     92  C   UNL A   1      46.745  27.865  33.955  1.00  0.00     0.012 A 
ATOM     93  C   UNL A   1      45.375  26.059  34.837  1.00  0.00     0.148 A 
ATOM     94  C   UNL A   1      47.808  27.464  34.764  1.00  0.00     0.002 A 
ATOM     95  C   UNL A   1      46.423  25.691  35.674  1.00  0.00     0.091 A 
ATOM     96  F   UNL A   1      44.213  25.390  34.827  1.00  0.00    -0.205 F 
ATOM     97  C   UNL A   1      47.643  26.386  35.631  1.00  0.00     0.022 A 
BRANCH  95  98
ATOM     98  S   UNL A   1      46.268  24.375  36.886  1.00  0.00     0.127 S 
ATOM     99  O   UNL A   1      44.817  24.236  36.994  1.00  0.00    -0.237 OA
ATOM    100  O   UNL A   1      46.940  23.257  36.221  1.00  0.00    -0.237 OA
ATOM    101  O   UNL A   1      46.943  24.854  38.084  1.00  0.00    -0.744 OA
ENDBRANCH  95  98
ENDBRANCH  68  91
ENDBRANCH  42  43
ENDBRANCH  35  37
ENDBRANCH  34  35
ENDBRANCH  33  34
ENDBRANCH  32  33
ENDBRANCH  31  32
ENDBRANCH   1  31
TORSDOF 25
ENDMDL
MODEL 2
REMARK VINA RESULT:     -10.2      2.049      7.359
REMARK SMILES CCCc1cc(OC(F)(F)F)cc2c1O[C@H](C(F)(F)F)C(C(=O)OCCOCCOCCOC(=O)c1ccc(-c3c4nc(c(-c5cccc(S(=O)(=O)[O-])c5F)c5ccc([nH]5)c(-c5cccc(S(=O)(=O)[O-])c5F)c5nc(c(-c6cccc(S(=O)(=O)[O-])c6F)c6ccc3[nH]6)C=C5)C=C4)cc1)=C2
REMARK SMILES IDX 29 1 28 2 27 3 26 4 25 5 24 6 22 7 23 8 21 9 4 10 5 11 14 12
REMARK SMILES IDX 6 13 13 14 15 15 12 16 99 17 16 18 3 19 2 20 1 21 7 22 8 23
REMARK SMILES IDX 9 24 10 25 11 26 17 27 18 28 19 29 20 30 30 31 31 32 32 33
REMARK SMILES IDX 33 34 34 35 35 36 36 37 37 38 98 39 38 40 97 41 39 42 40 43
REMARK SMILES IDX 41 44 91 45 42 46 96 47 90 48 92 49 43 50 95 51 89 52 88 53
REMARK SMILES IDX 44 55 76 56 56 57 75 58 57 59 60 60 74 61 93 62 58 63 59 64
REMARK SMILES IDX 73 66 94 67 61 68 45 69 46 70 54 71 47 72 49 73 55 74 48 75
REMARK SMILES IDX 50 76 51 77 52 78 53 79 77 80 78 81 86 82 79 83 81 84 87 85
REMARK SMILES IDX 80 86 82 87 83 88 84 89 85 90 62 91 63 92 71 93 64 94 66 95
REMARK SMILES IDX 72 96 65 97 67 98 68 99 69 100 70 101
REMARK H PARENT 92 54 60 65
REMARK Flexibility Score: inf
ROOT
ATOM      1  C   UNL A   1      32.010  27.556  27.043  1.00  0.00     0.188 C 
ENDROOT
BRANCH   1   2
ATOM      2  C   UNL A   1      30.844  26.951  26.232  1.00  0.00     0.188 C 
BRANCH   2   3
ATOM      3  O   UNL A   1      31.088  26.440  24.930  1.00  0.00    -0.376 OA
BRANCH   3   4
ATOM      4  C   UNL A   1      30.227  26.817  23.868  1.00  0.00     0.202 C 
BRANCH   4   5
ATOM      5  C   UNL A   1      30.784  26.712  22.450  1.00  0.00     0.261 C 
BRANCH   5   6
ATOM      6  O   UNL A   1      32.224  26.750  22.410  1.00  0.00    -0.460 OA
BRANCH   6   7
ATOM      7  C   UNL A   1      32.807  25.713  21.764  1.00  0.00     0.338 C 
ATOM      8  O   UNL A   1      33.057  25.661  20.570  1.00  0.00    -0.246 OA
BRANCH   7   9
ATOM      9  C   UNL A   1      33.190  24.620  22.678  1.00  0.00     0.087 C 
ATOM     10  C   UNL A   1      35.174  21.459  24.510  1.00  0.00    -0.002 A 
ATOM     11  C   UNL A   1      34.445  20.337  24.926  1.00  0.00     0.054 A 
ATOM     12  C   UNL A   1      34.502  22.481  23.836  1.00  0.00     0.131 A 
ATOM     13  C   UNL A   1      33.072  20.241  24.673  1.00  0.00     0.130 A 
ATOM     14  C   UNL A   1      33.125  22.405  23.569  1.00  0.00     0.021 A 
ATOM     15  O   UNL A   1      35.254  23.555  23.426  1.00  0.00    -0.475 OA
ATOM     16  C   UNL A   1      32.416  21.280  23.996  1.00  0.00     0.058 A 
ATOM     17  C   UNL A   1      32.491  23.480  22.798  1.00  0.00     0.027 C 
ATOM     18  C   UNL A   1      34.521  24.799  23.375  1.00  0.00     0.316 C 
BRANCH  10  19
ATOM     19  C   UNL A   1      36.642  21.582  24.852  1.00  0.00     0.039 C 
BRANCH  19  20
ATOM     20  C   UNL A   1      37.203  20.346  25.568  1.00  0.00     0.001 C 
ATOM     21  C   UNL A   1      38.106  19.495  24.686  1.00  0.00     0.004 C 
ENDBRANCH  19  20
ENDBRANCH  10  19
BRANCH  13  22
ATOM     22  O   UNL A   1      32.265  19.199  25.040  1.00  0.00    -0.406 OA
BRANCH  22  23
ATOM     23  C   UNL A   1      32.582  17.914  24.529  1.00  0.00     0.573 C 
ATOM     24  F   UNL A   1      33.753  17.464  25.029  1.00  0.00    -0.132 F 
ATOM     25  F   UNL A   1      31.605  17.023  24.795  1.00  0.00    -0.132 F 
ATOM     26  F   UNL A   1      32.711  18.003  23.185  1.00  0.00    -0.132 F 
ENDBRANCH  22  23
ENDBRANCH  13  22
BRANCH  18  27
ATOM     27  C   UNL A   1      34.390  25.412  24.782  1.00  0.00     0.430 C 
ATOM     28  F   UNL A   1      33.310  24.951  25.458  1.00  0.00    -0.167 F 
ATOM     29  F   UNL A   1      35.478  25.152  25.543  1.00  0.00    -0.167 F 
ATOM     30  F   UNL A   1      34.258  26.757  24.732  1.00  0.00    -0.167 F 
ENDBRANCH  18  27
ENDBRANCH   7   9
ENDBRANCH   6   7
ENDBRANCH   5   6
ENDBRANCH   4   5
ENDBRANCH   3   4
ENDBRANCH   2   3
ENDBRANCH   1   2
BRANCH   1  31
ATOM     31  O   UNL A   1      32.670  28.717  26.551  1.00  0.00    -0.376 OA
BRANCH  31  32
ATOM     32  C   UNL A   1      32.165  29.987  26.953  1.00  0.00     0.202 C 
BRANCH  32  33
ATOM     33  C   UNL A   1      33.142  31.153  26.838  1.00  0.00     0.261 C 
BRANCH  33  34
ATOM     34  O   UNL A   1      34.404  30.835  27.448  1.00  0.00    -0.460 OA
BRANCH  34  35
ATOM     35  C   UNL A   1      34.953  31.820  28.191  1.00  0.00     0.338 C 
ATOM     36  O   UNL A   1      34.524  32.958  28.347  1.00  0.00    -0.246 OA
BRANCH  35  37
ATOM     37  C   UNL A   1      36.115  31.296  28.921  1.00  0.00     0.060 A 
ATOM     38  C   UNL A   1      37.349  31.937  28.764  1.00  0.00     0.016 A 
ATOM     39  C   UNL A   1      36.011  30.127  29.676  1.00  0.00     0.016 A 
ATOM     40  C   UNL A   1      38.496  31.394  29.348  1.00  0.00     0.010 A 
ATOM     41  C   UNL A   1      37.163  29.578  30.248  1.00  0.00     0.010 A 
ATOM     42  C   UNL A   1      38.416  30.194  30.066  1.00  0.00    -0.014 A 
BRANCH  42  43
ATOM     43  C   UNL A   1      39.650  29.509  30.521  1.00  0.00     0.031 A 
ATOM     44  C   UNL A   1      40.355  30.011  31.751  1.00  0.00     0.074 A 
ATOM     45  C   UNL A   1      40.152  28.464  29.839  1.00  0.00     0.049 A 
ATOM     46  N   UNL A   1      41.496  29.633  32.266  1.00  0.00    -0.248 NA
ATOM     47  C   UNL A   1      39.681  31.083  32.503  1.00  0.00     0.031 C 
ATOM     48  C   UNL A   1      39.550  27.864  28.649  1.00  0.00     0.029 A 
ATOM     49  N   UNL A   1      41.302  27.739  30.037  1.00  0.00    -0.354 N 
ATOM     50  C   UNL A   1      41.695  30.437  33.380  1.00  0.00     0.074 A 
ATOM     51  C   UNL A   1      40.554  31.325  33.471  1.00  0.00     0.031 C 
ATOM     52  C   UNL A   1      40.353  26.883  28.203  1.00  0.00     0.029 A 
ATOM     53  C   UNL A   1      41.541  26.809  29.052  1.00  0.00     0.049 A 
ATOM     54  H   UNL A   1      41.898  27.874  30.809  1.00  0.00     0.167 HD
ATOM     55  C   UNL A   1      42.728  30.434  34.256  1.00  0.00     0.034 A 
ATOM     56  C   UNL A   1      42.611  26.015  28.843  1.00  0.00     0.034 A 
ATOM     57  C   UNL A   1      43.852  29.542  34.179  1.00  0.00     0.049 A 
ATOM     58  C   UNL A   1      43.769  26.063  29.807  1.00  0.00     0.074 A 
ATOM     59  C   UNL A   1      44.937  29.451  35.034  1.00  0.00     0.029 A 
ATOM     60  N   UNL A   1      44.043  28.590  33.190  1.00  0.00    -0.354 N 
ATOM     61  N   UNL A   1      43.903  26.766  30.907  1.00  0.00    -0.248 NA
ATOM     62  C   UNL A   1      44.919  25.194  29.512  1.00  0.00     0.031 C 
ATOM     63  C   UNL A   1      45.793  28.456  34.550  1.00  0.00     0.029 A 
ATOM     64  C   UNL A   1      45.231  27.915  33.405  1.00  0.00     0.049 A 
ATOM     65  H   UNL A   1      43.423  28.420  32.444  1.00  0.00     0.167 HD
ATOM     66  C   UNL A   1      45.133  26.403  31.446  1.00  0.00     0.074 A 
ATOM     67  C   UNL A   1      45.695  25.400  30.567  1.00  0.00     0.031 C 
ATOM     68  C   UNL A   1      45.753  26.876  32.556  1.00  0.00     0.034 A 
BRANCH  55  69
ATOM     69  C   UNL A   1      42.679  31.417  35.393  1.00  0.00     0.023 A 
ATOM     70  C   UNL A   1      42.119  31.025  36.625  1.00  0.00     0.012 A 
ATOM     71  C   UNL A   1      43.239  32.702  35.263  1.00  0.00     0.148 A 
ATOM     72  C   UNL A   1      42.094  31.908  37.704  1.00  0.00     0.002 A 
ATOM     73  C   UNL A   1      43.244  33.564  36.353  1.00  0.00     0.091 A 
ATOM     74  F   UNL A   1      43.746  33.061  34.075  1.00  0.00    -0.205 F 
ATOM     75  C   UNL A   1      42.666  33.171  37.571  1.00  0.00     0.022 A 
BRANCH  73  76
ATOM     76  S   UNL A   1      44.014  35.186  36.302  1.00  0.00     0.127 S 
ATOM     77  O   UNL A   1      43.358  35.786  35.141  1.00  0.00    -0.237 OA
ATOM     78  O   UNL A   1      43.617  35.757  37.589  1.00  0.00    -0.237 OA
ATOM     79  O   UNL A   1      45.444  34.948  36.159  1.00  0.00    -0.744 OA
ENDBRANCH  73  76
ENDBRANCH  55  69
BRANCH  56  80
ATOM     80  C   UNL A   1      42.641  25.093  27.672  1.00  0.00     0.023 A 
ATOM     81  C   UNL A   1      43.188  25.539  26.453  1.00  0.00     0.012 A 
ATOM     82  C   UNL A   1      42.128  23.784  27.755  1.00  0.00     0.148 A 
ATOM     83  C   UNL A   1      43.197  24.707  25.331  1.00  0.00     0.002 A 
ATOM     84  C   UNL A   1      42.191  22.943  26.651  1.00  0.00     0.091 A 
ATOM     85  F   UNL A   1      41.583  23.387  28.914  1.00  0.00    -0.205 F 
ATOM     86  C   UNL A   1      42.710  23.407  25.434  1.00  0.00     0.022 A 
BRANCH  84  87
ATOM     87  S   UNL A   1      41.699  21.217  26.736  1.00  0.00     0.127 S 
ATOM     88  O   UNL A   1      40.246  21.324  26.841  1.00  0.00    -0.237 OA
ATOM     89  O   UNL A   1      42.187  20.696  25.459  1.00  0.00    -0.237 OA
ATOM     90  O   UNL A   1      42.385  20.676  27.902  1.00  0.00    -0.744 OA
ENDBRANCH  84  87
ENDBRANCH  56  80
BRANCH  68  91
ATOM     91  C   UNL A   1      47.102  26.300  32.905  1.00  0.00     0.023 A 
ATOM     92  C   UNL A   1      48.271  26.977  32.508  1.00  0.00     0.012 A 
ATOM     93  C   UNL A   1      47.210  25.138  33.696  1.00  0.00     0.148 A 
ATOM     94  C   UNL A   1      49.529  26.492  32.867  1.00  0.00     0.002 A 
ATOM     95  C   UNL A   1      48.465  24.684  34.087  1.00  0.00     0.091 A 
ATOM     96  F   UNL A   1      46.087  24.496  34.049  1.00  0.00    -0.205 F 
ATOM     97  C   UNL A   1      49.625  25.355  33.665  1.00  0.00     0.022 A 
BRANCH  95  98
ATOM     98  S   UNL A   1      48.680  23.282  35.188  1.00  0.00     0.127 S 
ATOM     99  O   UNL A   1      50.108  23.359  35.496  1.00  0.00    -0.237 OA
ATOM    100  O   UNL A   1      47.797  23.622  36.305  1.00  0.00    -0.237 OA
ATOM    101  O   UNL A   1      48.265  22.110  34.429  1.00  0.00    -0.744 OA
ENDBRANCH  95  98
ENDBRANCH  68  91
ENDBRANCH  42  43
ENDBRANCH  35  37
ENDBRANCH  34  35
ENDBRANCH  33  34
ENDBRANCH  32  33
ENDBRANCH  31  32
ENDBRANCH   1  31
TORSDOF 25
ENDMDL
MODEL 3
REMARK VINA RESULT:     -10.2      2.756      8.402
REMARK SMILES CCCc1cc(OC(F)(F)F)cc2c1O[C@H](C(F)(F)F)C(C(=O)OCCOCCOCCOC(=O)c1ccc(-c3c4nc(c(-c5cccc(S(=O)(=O)[O-])c5F)c5ccc([nH]5)c(-c5cccc(S(=O)(=O)[O-])c5F)c5nc(c(-c6cccc(S(=O)(=O)[O-])c6F)c6ccc3[nH]6)C=C5)C=C4)cc1)=C2
REMARK SMILES IDX 29 1 28 2 27 3 26 4 25 5 24 6 22 7 23 8 21 9 4 10 5 11 14 12
REMARK SMILES IDX 6 13 13 14 15 15 12 16 99 17 16 18 3 19 2 20 1 21 7 22 8 23
REMARK SMILES IDX 9 24 10 25 11 26 17 27 18 28 19 29 20 30 30 31 31 32 32 33
REMARK SMILES IDX 33 34 34 35 35 36 36 37 37 38 98 39 38 40 97 41 39 42 40 43
REMARK SMILES IDX 41 44 91 45 42 46 96 47 90 48 92 49 43 50 95 51 89 52 88 53
REMARK SMILES IDX 44 55 76 56 56 57 75 58 57 59 60 60 74 61 93 62 58 63 59 64
REMARK SMILES IDX 73 66 94 67 61 68 45 69 46 70 54 71 47 72 49 73 55 74 48 75
REMARK SMILES IDX 50 76 51 77 52 78 53 79 77 80 78 81 86 82 79 83 81 84 87 85
REMARK SMILES IDX 80 86 82 87 83 88 84 89 85 90 62 91 63 92 71 93 64 94 66 95
REMARK SMILES IDX 72 96 65 97 67 98 68 99 69 100 70 101
REMARK H PARENT 92 54 60 65
REMARK Flexibility Score: inf
ROOT
ATOM      1  C   UNL A   1      34.995  32.440  28.824  1.00  0.00     0.188 C 
ENDROOT
BRANCH   1   2
ATOM      2  C   UNL A   1      34.020  31.625  27.948  1.00  0.00     0.188 C 
BRANCH   2   3
ATOM      3  O   UNL A   1      34.430  30.371  27.424  1.00  0.00    -0.376 OA
BRANCH   3   4
ATOM      4  C   UNL A   1      33.446  29.461  26.962  1.00  0.00     0.202 C 
BRANCH   4   5
ATOM      5  C   UNL A   1      32.474  29.968  25.899  1.00  0.00     0.261 C 
BRANCH   5   6
ATOM      6  O   UNL A   1      32.864  29.599  24.562  1.00  0.00    -0.460 OA
BRANCH   6   7
ATOM      7  C   UNL A   1      31.969  28.831  23.895  1.00  0.00     0.338 C 
ATOM      8  O   UNL A   1      31.133  29.231  23.101  1.00  0.00    -0.246 OA
BRANCH   7   9
ATOM      9  C   UNL A   1      32.138  27.393  24.177  1.00  0.00     0.087 C 
ATOM     10  C   UNL A   1      32.699  23.736  26.074  1.00  0.00    -0.002 A 
ATOM     11  C   UNL A   1      33.607  22.815  25.537  1.00  0.00     0.054 A 
ATOM     12  C   UNL A   1      32.573  24.986  25.462  1.00  0.00     0.131 A 
ATOM     13  C   UNL A   1      34.374  23.137  24.412  1.00  0.00     0.130 A 
ATOM     14  C   UNL A   1      33.333  25.331  24.334  1.00  0.00     0.021 A 
ATOM     15  O   UNL A   1      31.688  25.870  26.030  1.00  0.00    -0.475 OA
ATOM     16  C   UNL A   1      34.230  24.396  23.812  1.00  0.00     0.058 A 
ATOM     17  C   UNL A   1      33.205  26.683  23.777  1.00  0.00     0.027 C 
ATOM     18  C   UNL A   1      31.091  26.788  25.087  1.00  0.00     0.316 C 
BRANCH  10  19
ATOM     19  C   UNL A   1      31.827  23.349  27.248  1.00  0.00     0.039 C 
BRANCH  19  20
ATOM     20  C   UNL A   1      30.569  22.574  26.839  1.00  0.00     0.001 C 
ATOM     21  C   UNL A   1      29.275  23.317  27.140  1.00  0.00     0.004 C 
ENDBRANCH  19  20
ENDBRANCH  10  19
BRANCH  13  22
ATOM     22  O   UNL A   1      35.280  22.313  23.803  1.00  0.00    -0.406 OA
BRANCH  22  23
ATOM     23  C   UNL A   1      36.651  22.672  23.888  1.00  0.00     0.573 C 
ATOM     24  F   UNL A   1      37.070  23.273  22.753  1.00  0.00    -0.132 F 
ATOM     25  F   UNL A   1      36.882  23.483  24.941  1.00  0.00    -0.132 F 
ATOM     26  F   UNL A   1      37.383  21.548  24.057  1.00  0.00    -0.132 F 
ENDBRANCH  22  23
ENDBRANCH  13  22
BRANCH  18  27
ATOM     27  C   UNL A   1      29.941  26.108  24.319  1.00  0.00     0.430 C 
ATOM     28  F   UNL A   1      28.774  26.115  25.006  1.00  0.00    -0.167 F 
ATOM     29  F   UNL A   1      29.709  26.712  23.131  1.00  0.00    -0.167 F 
ATOM     30  F   UNL A   1      30.216  24.811  24.053  1.00  0.00    -0.167 F 
ENDBRANCH  18  27
ENDBRANCH   7   9
ENDBRANCH   6   7
ENDBRANCH   5   6
ENDBRANCH   4   5
ENDBRANCH   3   4
ENDBRANCH   2   3
ENDBRANCH   1   2
BRANCH   1  31
ATOM     31  O   UNL A   1      35.018  33.858  28.705  1.00  0.00    -0.376 OA
BRANCH  31  32
ATOM     32  C   UNL A   1      33.885  34.492  28.117  1.00  0.00     0.202 C 
BRANCH  32  33
ATOM     33  C   UNL A   1      33.274  35.635  28.923  1.00  0.00     0.261 C 
BRANCH  33  34
ATOM     34  O   UNL A   1      32.529  35.136  30.048  1.00  0.00    -0.460 OA
BRANCH  34  35
ATOM     35  C   UNL A   1      32.824  35.708  31.235  1.00  0.00     0.338 C 
ATOM     36  O   UNL A   1      32.233  36.633  31.781  1.00  0.00    -0.246 OA
BRANCH  35  37
ATOM     37  C   UNL A   1      33.918  34.968  31.878  1.00  0.00     0.060 A 
ATOM     38  C   UNL A   1      35.139  35.620  32.084  1.00  0.00     0.016 A 
ATOM     39  C   UNL A   1      33.773  33.615  32.187  1.00  0.00     0.016 A 
ATOM     40  C   UNL A   1      36.234  34.910  32.582  1.00  0.00     0.010 A 
ATOM     41  C   UNL A   1      34.875  32.902  32.673  1.00  0.00     0.010 A 
ATOM     42  C   UNL A   1      36.118  33.540  32.849  1.00  0.00    -0.014 A 
BRANCH  42  43
ATOM     43  C   UNL A   1      37.319  32.739  33.189  1.00  0.00     0.031 A 
ATOM     44  C   UNL A   1      37.985  32.949  34.521  1.00  0.00     0.074 A 
ATOM     45  C   UNL A   1      37.825  31.848  32.318  1.00  0.00     0.049 A 
ATOM     46  N   UNL A   1      39.097  32.437  34.982  1.00  0.00    -0.248 NA
ATOM     47  C   UNL A   1      37.305  33.856  35.461  1.00  0.00     0.031 C 
ATOM     48  C   UNL A   1      37.258  31.531  31.009  1.00  0.00     0.029 A 
ATOM     49  N   UNL A   1      38.951  31.065  32.397  1.00  0.00    -0.354 N 
ATOM     50  C   UNL A   1      39.269  32.982  36.249  1.00  0.00     0.074 A 
ATOM     51  C   UNL A   1      38.145  33.862  36.487  1.00  0.00     0.031 C 
ATOM     52  C   UNL A   1      38.057  30.644  30.391  1.00  0.00     0.029 A 
ATOM     53  C   UNL A   1      39.209  30.358  31.246  1.00  0.00     0.049 A 
ATOM     54  H   UNL A   1      39.519  31.016  33.200  1.00  0.00     0.167 HD
ATOM     55  C   UNL A   1      40.266  32.763  37.138  1.00  0.00     0.034 A 
ATOM     56  C   UNL A   1      40.270  29.595  30.909  1.00  0.00     0.034 A 
ATOM     57  C   UNL A   1      41.374  31.875  36.912  1.00  0.00     0.049 A 
ATOM     58  C   UNL A   1      41.390  29.404  31.900  1.00  0.00     0.074 A 
ATOM     59  C   UNL A   1      42.422  31.575  37.764  1.00  0.00     0.029 A 
ATOM     60  N   UNL A   1      41.583  31.150  35.749  1.00  0.00    -0.354 N 
ATOM     61  N   UNL A   1      41.494  29.854  33.128  1.00  0.00    -0.248 NA
ATOM     62  C   UNL A   1      42.531  28.585  31.465  1.00  0.00     0.031 C 
ATOM     63  C   UNL A   1      43.275  30.680  37.109  1.00  0.00     0.029 A 
ATOM     64  C   UNL A   1      42.748  30.410  35.857  1.00  0.00     0.049 A 
ATOM     65  H   UNL A   1      40.990  31.159  34.964  1.00  0.00     0.167 HD
ATOM     66  C   UNL A   1      42.695  29.351  33.619  1.00  0.00     0.074 A 
ATOM     67  C   UNL A   1      43.269  28.540  32.567  1.00  0.00     0.031 C 
ATOM     68  C   UNL A   1      43.281  29.559  34.824  1.00  0.00     0.034 A 
BRANCH  55  69
ATOM     69  C   UNL A   1      40.194  33.484  38.456  1.00  0.00     0.023 A 
ATOM     70  C   UNL A   1      41.039  34.587  38.691  1.00  0.00     0.012 A 
ATOM     71  C   UNL A   1      39.254  33.109  39.434  1.00  0.00     0.148 A 
ATOM     72  C   UNL A   1      40.965  35.292  39.892  1.00  0.00     0.002 A 
ATOM     73  C   UNL A   1      39.160  33.839  40.614  1.00  0.00     0.091 A 
ATOM     74  F   UNL A   1      38.476  32.043  39.198  1.00  0.00    -0.205 F 
ATOM     75  C   UNL A   1      40.020  34.925  40.847  1.00  0.00     0.022 A 
BRANCH  73  76
ATOM     76  S   UNL A   1      37.932  33.486  41.876  1.00  0.00     0.127 S 
ATOM     77  O   UNL A   1      36.720  33.333  41.073  1.00  0.00    -0.237 OA
ATOM     78  O   UNL A   1      38.437  32.243  42.459  1.00  0.00    -0.237 OA
ATOM     79  O   UNL A   1      37.945  34.628  42.779  1.00  0.00    -0.744 OA
ENDBRANCH  73  76
ENDBRANCH  55  69
BRANCH  56  80
ATOM     80  C   UNL A   1      40.326  28.942  29.570  1.00  0.00     0.023 A 
ATOM     81  C   UNL A   1      40.729  29.692  28.448  1.00  0.00     0.012 A 
ATOM     82  C   UNL A   1      39.980  27.587  29.399  1.00  0.00     0.148 A 
ATOM     83  C   UNL A   1      40.757  29.114  27.178  1.00  0.00     0.002 A 
ATOM     84  C   UNL A   1      40.064  27.003  28.142  1.00  0.00     0.091 A 
ATOM     85  F   UNL A   1      39.569  26.896  30.473  1.00  0.00    -0.205 F 
ATOM     86  C   UNL A   1      40.437  27.767  27.027  1.00  0.00     0.022 A 
BRANCH  84  87
ATOM     87  S   UNL A   1      39.788  25.246  27.885  1.00  0.00     0.127 S 
ATOM     88  O   UNL A   1      39.618  25.178  26.436  1.00  0.00    -0.237 OA
ATOM     89  O   UNL A   1      41.034  24.664  28.386  1.00  0.00    -0.237 OA
ATOM     90  O   UNL A   1      38.614  24.917  28.681  1.00  0.00    -0.744 OA
ENDBRANCH  84  87
ENDBRANCH  56  80
BRANCH  68  91
ATOM     91  C   UNL A   1      44.602  28.884  35.089  1.00  0.00     0.023 A 
ATOM     92  C   UNL A   1      45.801  29.577  34.832  1.00  0.00     0.012 A 
ATOM     93  C   UNL A   1      44.655  27.600  35.669  1.00  0.00     0.148 A 
ATOM     94  C   UNL A   1      47.034  28.992  35.119  1.00  0.00     0.002 A 
ATOM     95  C   UNL A   1      45.887  27.042  35.994  1.00  0.00     0.091 A 
ATOM     96  F   UNL A   1      43.505  26.948  35.890  1.00  0.00    -0.205 F 
ATOM     97  C   UNL A   1      47.077  27.732  35.711  1.00  0.00     0.022 A 
BRANCH  95  98
ATOM     98  S   UNL A   1      46.033  25.464  36.840  1.00  0.00     0.127 S 
ATOM     99  O   UNL A   1      45.473  24.542  35.853  1.00  0.00    -0.237 OA
ATOM    100  O   UNL A   1      47.478  25.345  37.033  1.00  0.00    -0.237 OA
ATOM    101  O   UNL A   1      45.271  25.600  38.074  1.00  0.00    -0.744 OA
ENDBRANCH  95  98
ENDBRANCH  68  91
ENDBRANCH  42  43
ENDBRANCH  35  37
ENDBRANCH  34  35
ENDBRANCH  33  34
ENDBRANCH  32  33
ENDBRANCH  31  32
ENDBRANCH   1  31
TORSDOF 25
ENDMDL
