MODEL 1
REMARK VINA RESULT:     -10.6      0.000      0.000
REMARK SMILES CC1(C)[C@H](C(=O)Nc2cccc3[nH]ccc23)[C@H]1C(=O)OCCOCCOCCOC(=O)c1ccc(-c2c3nc(c(-c4cccc(S(=O)(=O)[O-])c4F)c4ccc([nH]4)c(-c4cccc(S(=O)(=O)[O-])c4F)c4nc(c(-c5cccc(S(=O)(=O)[O-])c5F)c5ccc2[nH]5)C=C4)C=C3)cc1
REMARK SMILES IDX 25 1 24 2 23 3 22 4 21 5 20 6 18 7 19 8 17 9 1 10 2 11 3 12
REMARK SMILES IDX 4 13 5 14 6 15 7 16 8 18 9 19 16 20 10 21 12 22 15 23 11 24
REMARK SMILES IDX 13 25 14 26 26 28 27 29 28 30 29 31 30 32 31 33 32 34 33 35
REMARK SMILES IDX 94 36 34 37 93 38 35 39 36 40 37 41 87 42 38 43 92 44 86 45
REMARK SMILES IDX 88 46 39 47 91 48 85 49 84 50 40 52 72 53 52 54 71 55 53 56
REMARK SMILES IDX 56 57 70 58 89 59 54 60 55 61 69 63 90 64 57 65 41 66 42 67
REMARK SMILES IDX 50 68 43 69 45 70 51 71 44 72 46 73 47 74 48 75 49 76 73 77
REMARK SMILES IDX 74 78 82 79 75 80 77 81 83 82 76 83 78 84 79 85 80 86 81 87
REMARK SMILES IDX 58 88 59 89 67 90 60 91 62 92 68 93 61 94 63 95 64 96 65 97
REMARK SMILES IDX 66 98
REMARK H PARENT 7 17 13 27 88 51 56 62
REMARK Flexibility Score: inf
ROOT
ATOM      1  C   UNL A   1      36.998  22.516  24.667  1.00  0.00     0.188 C 
ENDROOT
BRANCH   1   2
ATOM      2  C   UNL A   1      35.633  22.430  23.955  1.00  0.00     0.188 C 
BRANCH   2   3
ATOM      3  O   UNL A   1      34.868  23.627  23.819  1.00  0.00    -0.376 OA
BRANCH   3   4
ATOM      4  C   UNL A   1      33.715  23.805  24.642  1.00  0.00     0.202 C 
BRANCH   4   5
ATOM      5  C   UNL A   1      33.944  24.352  26.056  1.00  0.00     0.261 C 
BRANCH   5   6
ATOM      6  O   UNL A   1      33.627  25.749  26.121  1.00  0.00    -0.463 OA
BRANCH   6   7
ATOM      7  C   UNL A   1      32.305  26.051  26.191  1.00  0.00     0.310 C 
ATOM      8  O   UNL A   1      31.458  25.435  26.800  1.00  0.00    -0.252 OA
BRANCH   7   9
ATOM      9  C   UNL A   1      32.009  27.348  25.528  1.00  0.00     0.118 C 
ATOM     10  C   UNL A   1      33.487  28.824  27.147  1.00  0.00     0.013 C 
ATOM     11  C   UNL A   1      32.560  28.706  25.961  1.00  0.00    -0.009 C 
ATOM     12  C   UNL A   1      31.637  29.896  25.846  1.00  0.00     0.013 C 
ATOM     13  C   UNL A   1      33.109  27.993  24.723  1.00  0.00     0.100 C 
BRANCH  13  14
ATOM     14  C   UNL A   1      32.934  28.436  23.307  1.00  0.00     0.228 C 
ATOM     15  O   UNL A   1      33.849  29.046  22.764  1.00  0.00    -0.274 OA
ATOM     16  N   UNL A   1      31.868  27.917  22.612  1.00  0.00    -0.325 N 
ATOM     17  H   UNL A   1      32.000  27.051  22.163  1.00  0.00     0.169 HD
BRANCH  16  18
ATOM     18  C   UNL A   1      30.601  28.523  22.489  1.00  0.00     0.050 A 
ATOM     19  C   UNL A   1      30.440  29.770  21.872  1.00  0.00     0.027 A 
ATOM     20  C   UNL A   1      29.451  27.877  23.002  1.00  0.00     0.023 A 
ATOM     21  C   UNL A   1      29.217  30.438  21.886  1.00  0.00     0.004 A 
ATOM     22  C   UNL A   1      28.234  28.569  22.995  1.00  0.00     0.047 A 
ATOM     23  C   UNL A   1      29.188  26.605  23.591  1.00  0.00     0.030 A 
ATOM     24  C   UNL A   1      28.095  29.861  22.477  1.00  0.00     0.027 A 
ATOM     25  N   UNL A   1      27.288  27.753  23.575  1.00  0.00    -0.361 N 
ATOM     26  C   UNL A   1      27.850  26.551  23.910  1.00  0.00     0.083 A 
ATOM     27  H   UNL A   1      26.347  27.999  23.727  1.00  0.00     0.166 HD
ENDBRANCH  16  18
ENDBRANCH  13  14
ENDBRANCH   7   9
ENDBRANCH   6   7
ENDBRANCH   5   6
ENDBRANCH   4   5
ENDBRANCH   3   4
ENDBRANCH   2   3
ENDBRANCH   1   2
BRANCH   1  28
ATOM     28  O   UNL A   1      37.269  21.412  25.511  1.00  0.00    -0.376 OA
BRANCH  28  29
ATOM     29  C   UNL A   1      37.589  20.185  24.878  1.00  0.00     0.202 C 
BRANCH  29  30
ATOM     30  C   UNL A   1      38.912  19.511  25.273  1.00  0.00     0.261 C 
BRANCH  30  31
ATOM     31  O   UNL A   1      39.798  20.285  26.097  1.00  0.00    -0.460 OA
BRANCH  31  32
ATOM     32  C   UNL A   1      41.087  19.882  26.165  1.00  0.00     0.338 C 
ATOM     33  O   UNL A   1      41.517  18.764  25.941  1.00  0.00    -0.246 OA
BRANCH  32  34
ATOM     34  C   UNL A   1      41.926  21.087  26.360  1.00  0.00     0.060 A 
ATOM     35  C   UNL A   1      42.325  21.429  27.658  1.00  0.00     0.016 A 
ATOM     36  C   UNL A   1      42.316  21.870  25.271  1.00  0.00     0.016 A 
ATOM     37  C   UNL A   1      43.085  22.579  27.873  1.00  0.00     0.010 A 
ATOM     38  C   UNL A   1      43.065  23.031  25.491  1.00  0.00     0.010 A 
ATOM     39  C   UNL A   1      43.423  23.410  26.797  1.00  0.00    -0.014 A 
BRANCH  39  40
ATOM     40  C   UNL A   1      43.991  24.756  27.059  1.00  0.00     0.031 A 
ATOM     41  C   UNL A   1      43.078  25.829  27.593  1.00  0.00     0.074 A 
ATOM     42  C   UNL A   1      45.291  25.026  26.838  1.00  0.00     0.049 A 
ATOM     43  N   UNL A   1      43.350  27.069  27.903  1.00  0.00    -0.248 NA
ATOM     44  C   UNL A   1      41.671  25.450  27.805  1.00  0.00     0.031 C 
ATOM     45  C   UNL A   1      46.274  24.083  26.310  1.00  0.00     0.029 A 
ATOM     46  N   UNL A   1      45.999  26.190  27.010  1.00  0.00    -0.354 N 
ATOM     47  C   UNL A   1      42.148  27.625  28.323  1.00  0.00     0.074 A 
ATOM     48  C   UNL A   1      41.142  26.591  28.218  1.00  0.00     0.031 C 
ATOM     49  C   UNL A   1      47.452  24.715  26.170  1.00  0.00     0.029 A 
ATOM     50  C   UNL A   1      47.306  26.108  26.591  1.00  0.00     0.049 A 
ATOM     51  H   UNL A   1      45.608  27.006  27.397  1.00  0.00     0.167 HD
ATOM     52  C   UNL A   1      41.901  28.879  28.773  1.00  0.00     0.034 A 
ATOM     53  C   UNL A   1      48.267  27.053  26.544  1.00  0.00     0.034 A 
ATOM     54  C   UNL A   1      42.898  29.907  28.888  1.00  0.00     0.049 A 
ATOM     55  C   UNL A   1      47.965  28.446  27.037  1.00  0.00     0.074 A 
ATOM     56  C   UNL A   1      42.752  31.196  29.369  1.00  0.00     0.029 A 
ATOM     57  N   UNL A   1      44.223  29.769  28.509  1.00  0.00    -0.354 N 
ATOM     58  N   UNL A   1      46.857  28.916  27.556  1.00  0.00    -0.248 NA
ATOM     59  C   UNL A   1      49.057  29.430  26.970  1.00  0.00     0.031 C 
ATOM     60  C   UNL A   1      43.986  31.844  29.262  1.00  0.00     0.029 A 
ATOM     61  C   UNL A   1      44.906  30.950  28.739  1.00  0.00     0.049 A 
ATOM     62  H   UNL A   1      44.621  28.950  28.133  1.00  0.00     0.167 HD
ATOM     63  C   UNL A   1      47.127  30.235  27.907  1.00  0.00     0.074 A 
ATOM     64  C   UNL A   1      48.512  30.483  27.563  1.00  0.00     0.031 C 
ATOM     65  C   UNL A   1      46.302  31.164  28.451  1.00  0.00     0.034 A 
BRANCH  52  66
ATOM     66  C   UNL A   1      40.494  29.200  29.200  1.00  0.00     0.023 A 
ATOM     67  C   UNL A   1      39.565  29.654  28.243  1.00  0.00     0.012 A 
ATOM     68  C   UNL A   1      40.080  29.007  30.532  1.00  0.00     0.148 A 
ATOM     69  C   UNL A   1      38.250  29.938  28.609  1.00  0.00     0.002 A 
ATOM     70  C   UNL A   1      38.757  29.254  30.881  1.00  0.00     0.091 A 
ATOM     71  F   UNL A   1      40.986  28.601  31.432  1.00  0.00    -0.205 F 
ATOM     72  C   UNL A   1      37.845  29.728  29.925  1.00  0.00     0.022 A 
BRANCH  70  73
ATOM     73  S   UNL A   1      38.123  28.944  32.533  1.00  0.00     0.127 S 
ATOM     74  O   UNL A   1      38.463  27.534  32.719  1.00  0.00    -0.237 OA
ATOM     75  O   UNL A   1      38.909  29.874  33.345  1.00  0.00    -0.237 OA
ATOM     76  O   UNL A   1      36.699  29.244  32.477  1.00  0.00    -0.744 OA
ENDBRANCH  70  73
ENDBRANCH  52  66
BRANCH  53  77
ATOM     77  C   UNL A   1      49.631  26.705  26.052  1.00  0.00     0.023 A 
ATOM     78  C   UNL A   1      50.495  25.954  26.874  1.00  0.00     0.012 A 
ATOM     79  C   UNL A   1      50.073  27.108  24.778  1.00  0.00     0.148 A 
ATOM     80  C   UNL A   1      51.783  25.633  26.445  1.00  0.00     0.002 A 
ATOM     81  C   UNL A   1      51.338  26.740  24.335  1.00  0.00     0.091 A 
ATOM     82  F   UNL A   1      49.245  27.842  24.022  1.00  0.00    -0.205 F 
ATOM     83  C   UNL A   1      52.200  26.016  25.173  1.00  0.00     0.022 A 
BRANCH  81  84
ATOM     84  S   UNL A   1      51.908  27.083  22.668  1.00  0.00     0.127 S 
ATOM     85  O   UNL A   1      50.717  26.782  21.877  1.00  0.00    -0.237 OA
ATOM     86  O   UNL A   1      52.251  28.503  22.753  1.00  0.00    -0.237 OA
ATOM     87  O   UNL A   1      53.050  26.202  22.460  1.00  0.00    -0.744 OA
ENDBRANCH  81  84
ENDBRANCH  53  77
BRANCH  65  88
ATOM     88  C   UNL A   1      46.873  32.525  28.756  1.00  0.00     0.023 A 
ATOM     89  C   UNL A   1      47.466  32.773  30.009  1.00  0.00     0.012 A 
ATOM     90  C   UNL A   1      46.896  33.530  27.769  1.00  0.00     0.148 A 
ATOM     91  C   UNL A   1      48.046  34.011  30.286  1.00  0.00     0.002 A 
ATOM     92  C   UNL A   1      47.517  34.746  28.035  1.00  0.00     0.091 A 
ATOM     93  F   UNL A   1      46.309  33.283  26.588  1.00  0.00    -0.205 F 
ATOM     94  C   UNL A   1      48.082  34.991  29.296  1.00  0.00     0.022 A 
BRANCH  92  95
ATOM     95  S   UNL A   1      47.693  36.025  26.787  1.00  0.00     0.127 S 
ATOM     96  O   UNL A   1      46.299  36.361  26.505  1.00  0.00    -0.237 OA
ATOM     97  O   UNL A   1      48.438  37.062  27.504  1.00  0.00    -0.237 OA
ATOM     98  O   UNL A   1      48.427  35.410  25.689  1.00  0.00    -0.744 OA
ENDBRANCH  92  95
ENDBRANCH  65  88
ENDBRANCH  39  40
ENDBRANCH  32  34
ENDBRANCH  31  32
ENDBRANCH  30  31
ENDBRANCH  29  30
ENDBRANCH  28  29
ENDBRANCH   1  28
TORSDOF 22
ENDMDL
MODEL 2
REMARK VINA RESULT:     -10.1      2.347      3.585
REMARK SMILES CC1(C)[C@H](C(=O)Nc2cccc3[nH]ccc23)[C@H]1C(=O)OCCOCCOCCOC(=O)c1ccc(-c2c3nc(c(-c4cccc(S(=O)(=O)[O-])c4F)c4ccc([nH]4)c(-c4cccc(S(=O)(=O)[O-])c4F)c4nc(c(-c5cccc(S(=O)(=O)[O-])c5F)c5ccc2[nH]5)C=C4)C=C3)cc1
REMARK SMILES IDX 25 1 24 2 23 3 22 4 21 5 20 6 18 7 19 8 17 9 1 10 2 11 3 12
REMARK SMILES IDX 4 13 5 14 6 15 7 16 8 18 9 19 16 20 10 21 12 22 15 23 11 24
REMARK SMILES IDX 13 25 14 26 26 28 27 29 28 30 29 31 30 32 31 33 32 34 33 35
REMARK SMILES IDX 94 36 34 37 93 38 35 39 36 40 37 41 87 42 38 43 92 44 86 45
REMARK SMILES IDX 88 46 39 47 91 48 85 49 84 50 40 52 72 53 52 54 71 55 53 56
REMARK SMILES IDX 56 57 70 58 89 59 54 60 55 61 69 63 90 64 57 65 41 66 42 67
REMARK SMILES IDX 50 68 43 69 45 70 51 71 44 72 46 73 47 74 48 75 49 76 73 77
REMARK SMILES IDX 74 78 82 79 75 80 77 81 83 82 76 83 78 84 79 85 80 86 81 87
REMARK SMILES IDX 58 88 59 89 67 90 60 91 62 92 68 93 61 94 63 95 64 96 65 97
REMARK SMILES IDX 66 98
REMARK H PARENT 7 17 13 27 88 51 56 62
REMARK Flexibility Score: inf
ROOT
ATOM      1  C   UNL A   1      34.421  22.809  23.135  1.00  0.00     0.188 C 
ENDROOT
BRANCH   1   2
ATOM      2  C   UNL A   1      34.445  24.305  23.505  1.00  0.00     0.188 C 
BRANCH   2   3
ATOM      3  O   UNL A   1      33.956  25.244  22.548  1.00  0.00    -0.376 OA
BRANCH   3   4
ATOM      4  C   UNL A   1      33.636  26.566  22.981  1.00  0.00     0.202 C 
BRANCH   4   5
ATOM      5  C   UNL A   1      33.332  27.603  21.894  1.00  0.00     0.261 C 
BRANCH   5   6
ATOM      6  O   UNL A   1      33.205  28.915  22.459  1.00  0.00    -0.463 OA
BRANCH   6   7
ATOM      7  C   UNL A   1      32.104  29.122  23.227  1.00  0.00     0.310 C 
ATOM      8  O   UNL A   1      30.955  29.157  22.843  1.00  0.00    -0.252 OA
BRANCH   7   9
ATOM      9  C   UNL A   1      32.450  29.167  24.672  1.00  0.00     0.118 C 
ATOM     10  C   UNL A   1      30.653  30.993  25.324  1.00  0.00     0.013 C 
ATOM     11  C   UNL A   1      31.773  30.057  25.714  1.00  0.00    -0.009 C 
ATOM     12  C   UNL A   1      32.648  30.646  26.796  1.00  0.00     0.013 C 
ATOM     13  C   UNL A   1      31.474  28.558  25.647  1.00  0.00     0.100 C 
BRANCH  13  14
ATOM     14  C   UNL A   1      31.868  27.541  26.669  1.00  0.00     0.228 C 
ATOM     15  O   UNL A   1      32.800  27.795  27.424  1.00  0.00    -0.274 OA
ATOM     16  N   UNL A   1      31.005  26.491  26.876  1.00  0.00    -0.325 N 
ATOM     17  H   UNL A   1      30.272  26.628  27.519  1.00  0.00     0.169 HD
BRANCH  16  18
ATOM     18  C   UNL A   1      31.084  25.233  26.245  1.00  0.00     0.050 A 
ATOM     19  C   UNL A   1      31.578  24.105  26.914  1.00  0.00     0.027 A 
ATOM     20  C   UNL A   1      30.670  25.085  24.900  1.00  0.00     0.023 A 
ATOM     21  C   UNL A   1      31.800  22.901  26.247  1.00  0.00     0.004 A 
ATOM     22  C   UNL A   1      30.898  23.862  24.258  1.00  0.00     0.047 A 
ATOM     23  C   UNL A   1      30.045  25.934  23.940  1.00  0.00     0.030 A 
ATOM     24  C   UNL A   1      31.491  22.767  24.895  1.00  0.00     0.027 A 
ATOM     25  N   UNL A   1      30.447  23.981  22.963  1.00  0.00    -0.361 N 
ATOM     26  C   UNL A   1      29.900  25.221  22.770  1.00  0.00     0.083 A 
ATOM     27  H   UNL A   1      30.510  23.279  22.276  1.00  0.00     0.166 HD
ENDBRANCH  16  18
ENDBRANCH  13  14
ENDBRANCH   7   9
ENDBRANCH   6   7
ENDBRANCH   5   6
ENDBRANCH   4   5
ENDBRANCH   3   4
ENDBRANCH   2   3
ENDBRANCH   1   2
BRANCH   1  28
ATOM     28  O   UNL A   1      35.136  21.988  24.039  1.00  0.00    -0.376 OA
BRANCH  28  29
ATOM     29  C   UNL A   1      36.550  22.091  24.018  1.00  0.00     0.202 C 
BRANCH  29  30
ATOM     30  C   UNL A   1      37.352  20.930  24.626  1.00  0.00     0.261 C 
BRANCH  30  31
ATOM     31  O   UNL A   1      37.866  21.139  25.952  1.00  0.00    -0.460 OA
BRANCH  31  32
ATOM     32  C   UNL A   1      39.197  20.979  26.129  1.00  0.00     0.338 C 
ATOM     33  O   UNL A   1      39.873  20.031  25.773  1.00  0.00    -0.246 OA
BRANCH  32  34
ATOM     34  C   UNL A   1      39.737  22.254  26.653  1.00  0.00     0.060 A 
ATOM     35  C   UNL A   1      39.155  23.457  26.235  1.00  0.00     0.016 A 
ATOM     36  C   UNL A   1      40.808  22.262  27.550  1.00  0.00     0.016 A 
ATOM     37  C   UNL A   1      39.668  24.674  26.686  1.00  0.00     0.010 A 
ATOM     38  C   UNL A   1      41.331  23.483  27.989  1.00  0.00     0.010 A 
ATOM     39  C   UNL A   1      40.786  24.696  27.531  1.00  0.00    -0.014 A 
BRANCH  39  40
ATOM     40  C   UNL A   1      41.487  25.979  27.787  1.00  0.00     0.031 A 
ATOM     41  C   UNL A   1      40.749  27.067  28.522  1.00  0.00     0.074 A 
ATOM     42  C   UNL A   1      42.755  26.179  27.385  1.00  0.00     0.049 A 
ATOM     43  N   UNL A   1      41.157  28.260  28.864  1.00  0.00    -0.248 NA
ATOM     44  C   UNL A   1      39.364  26.766  28.926  1.00  0.00     0.031 C 
ATOM     45  C   UNL A   1      43.573  25.215  26.652  1.00  0.00     0.029 A 
ATOM     46  N   UNL A   1      43.567  27.279  27.517  1.00  0.00    -0.354 N 
ATOM     47  C   UNL A   1      40.077  28.861  29.500  1.00  0.00     0.074 A 
ATOM     48  C   UNL A   1      38.992  27.906  29.488  1.00  0.00     0.031 C 
ATOM     49  C   UNL A   1      44.762  25.778  26.370  1.00  0.00     0.029 A 
ATOM     50  C   UNL A   1      44.786  27.143  26.896  1.00  0.00     0.049 A 
ATOM     51  H   UNL A   1      43.302  28.088  28.010  1.00  0.00     0.167 HD
ATOM     52  C   UNL A   1      39.997  30.091  30.060  1.00  0.00     0.034 A 
ATOM     53  C   UNL A   1      45.799  28.024  26.760  1.00  0.00     0.034 A 
ATOM     54  C   UNL A   1      41.075  31.041  30.085  1.00  0.00     0.049 A 
ATOM     55  C   UNL A   1      45.680  29.394  27.381  1.00  0.00     0.074 A 
ATOM     56  C   UNL A   1      41.100  32.298  30.662  1.00  0.00     0.029 A 
ATOM     57  N   UNL A   1      42.313  30.845  29.497  1.00  0.00    -0.354 N 
ATOM     58  N   UNL A   1      44.701  29.895  28.094  1.00  0.00    -0.248 NA
ATOM     59  C   UNL A   1      46.821  30.306  27.207  1.00  0.00     0.031 C 
ATOM     60  C   UNL A   1      42.350  32.870  30.406  1.00  0.00     0.029 A 
ATOM     61  C   UNL A   1      43.111  31.959  29.691  1.00  0.00     0.049 A 
ATOM     62  H   UNL A   1      42.587  30.033  29.012  1.00  0.00     0.167 HD
ATOM     63  C   UNL A   1      45.121  31.164  28.482  1.00  0.00     0.074 A 
ATOM     64  C   UNL A   1      46.453  31.346  27.943  1.00  0.00     0.031 C 
ATOM     65  C   UNL A   1      44.459  32.102  29.204  1.00  0.00     0.034 A 
BRANCH  52  66
ATOM     66  C   UNL A   1      38.698  30.471  30.720  1.00  0.00     0.023 A 
ATOM     67  C   UNL A   1      38.455  30.076  32.051  1.00  0.00     0.012 A 
ATOM     68  C   UNL A   1      37.744  31.255  30.044  1.00  0.00     0.148 A 
ATOM     69  C   UNL A   1      37.269  30.433  32.692  1.00  0.00     0.002 A 
ATOM     70  C   UNL A   1      36.582  31.640  30.703  1.00  0.00     0.091 A 
ATOM     71  F   UNL A   1      37.982  31.596  28.770  1.00  0.00    -0.205 F 
ATOM     72  C   UNL A   1      36.339  31.223  32.021  1.00  0.00     0.022 A 
BRANCH  70  73
ATOM     73  S   UNL A   1      35.358  32.717  29.948  1.00  0.00     0.127 S 
ATOM     74  O   UNL A   1      34.920  31.910  28.809  1.00  0.00    -0.237 OA
ATOM     75  O   UNL A   1      34.367  32.854  31.015  1.00  0.00    -0.237 OA
ATOM     76  O   UNL A   1      36.061  33.947  29.612  1.00  0.00    -0.744 OA
ENDBRANCH  70  73
ENDBRANCH  52  66
BRANCH  53  77
ATOM     77  C   UNL A   1      47.042  27.625  26.042  1.00  0.00     0.023 A 
ATOM     78  C   UNL A   1      48.095  27.022  26.758  1.00  0.00     0.012 A 
ATOM     79  C   UNL A   1      47.185  27.835  24.657  1.00  0.00     0.148 A 
ATOM     80  C   UNL A   1      49.277  26.658  26.112  1.00  0.00     0.002 A 
ATOM     81  C   UNL A   1      48.343  27.421  24.010  1.00  0.00     0.091 A 
ATOM     82  F   UNL A   1      46.182  28.432  23.999  1.00  0.00    -0.205 F 
ATOM     83  C   UNL A   1      49.397  26.847  24.738  1.00  0.00     0.022 A 
BRANCH  81  84
ATOM     84  S   UNL A   1      48.532  27.514  22.227  1.00  0.00     0.127 S 
ATOM     85  O   UNL A   1      48.633  26.102  21.864  1.00  0.00    -0.237 OA
ATOM     86  O   UNL A   1      47.285  28.167  21.826  1.00  0.00    -0.237 OA
ATOM     87  O   UNL A   1      49.727  28.315  22.004  1.00  0.00    -0.744 OA
ENDBRANCH  81  84
ENDBRANCH  53  77
BRANCH  65  88
ATOM     88  C   UNL A   1      45.171  33.397  29.502  1.00  0.00     0.023 A 
ATOM     89  C   UNL A   1      46.023  33.489  30.620  1.00  0.00     0.012 A 
ATOM     90  C   UNL A   1      45.060  34.494  28.625  1.00  0.00     0.148 A 
ATOM     91  C   UNL A   1      46.729  34.664  30.878  1.00  0.00     0.002 A 
ATOM     92  C   UNL A   1      45.803  35.645  28.862  1.00  0.00     0.091 A 
ATOM     93  F   UNL A   1      44.230  34.395  27.576  1.00  0.00    -0.205 F 
ATOM     94  C   UNL A   1      46.629  35.736  29.993  1.00  0.00     0.022 A 
BRANCH  92  95
ATOM     95  S   UNL A   1      45.807  37.034  27.722  1.00  0.00     0.127 S 
ATOM     96  O   UNL A   1      46.289  36.409  26.492  1.00  0.00    -0.237 OA
ATOM     97  O   UNL A   1      44.396  37.423  27.698  1.00  0.00    -0.237 OA
ATOM     98  O   UNL A   1      46.693  38.028  28.311  1.00  0.00    -0.744 OA
ENDBRANCH  92  95
ENDBRANCH  65  88
ENDBRANCH  39  40
ENDBRANCH  32  34
ENDBRANCH  31  32
ENDBRANCH  30  31
ENDBRANCH  29  30
ENDBRANCH  28  29
ENDBRANCH   1  28
TORSDOF 22
ENDMDL
MODEL 3
REMARK VINA RESULT:      -9.9      6.642     11.074
REMARK SMILES CC1(C)[C@H](C(=O)Nc2cccc3[nH]ccc23)[C@H]1C(=O)OCCOCCOCCOC(=O)c1ccc(-c2c3nc(c(-c4cccc(S(=O)(=O)[O-])c4F)c4ccc([nH]4)c(-c4cccc(S(=O)(=O)[O-])c4F)c4nc(c(-c5cccc(S(=O)(=O)[O-])c5F)c5ccc2[nH]5)C=C4)C=C3)cc1
REMARK SMILES IDX 25 1 24 2 23 3 22 4 21 5 20 6 18 7 19 8 17 9 1 10 2 11 3 12
REMARK SMILES IDX 4 13 5 14 6 15 7 16 8 18 9 19 16 20 10 21 12 22 15 23 11 24
REMARK SMILES IDX 13 25 14 26 26 28 27 29 28 30 29 31 30 32 31 33 32 34 33 35
REMARK SMILES IDX 94 36 34 37 93 38 35 39 36 40 37 41 87 42 38 43 92 44 86 45
REMARK SMILES IDX 88 46 39 47 91 48 85 49 84 50 40 52 72 53 52 54 71 55 53 56
REMARK SMILES IDX 56 57 70 58 89 59 54 60 55 61 69 63 90 64 57 65 41 66 42 67
REMARK SMILES IDX 50 68 43 69 45 70 51 71 44 72 46 73 47 74 48 75 49 76 73 77
REMARK SMILES IDX 74 78 82 79 75 80 77 81 83 82 76 83 78 84 79 85 80 86 81 87
REMARK SMILES IDX 58 88 59 89 67 90 60 91 62 92 68 93 61 94 63 95 64 96 65 97
REMARK SMILES IDX 66 98
REMARK H PARENT 7 17 13 27 88 51 56 62
REMARK Flexibility Score: inf
ROOT
ATOM      1  C   UNL A   1      34.917  32.787  29.141  1.00  0.00     0.188 C 
ENDROOT
BRANCH   1   2
ATOM      2  C   UNL A   1      35.117  32.011  27.824  1.00  0.00     0.188 C 
BRANCH   2   3
ATOM      3  O   UNL A   1      35.359  30.607  27.899  1.00  0.00    -0.376 OA
BRANCH   3   4
ATOM      4  C   UNL A   1      34.401  29.711  27.335  1.00  0.00     0.202 C 
BRANCH   4   5
ATOM      5  C   UNL A   1      33.009  30.279  27.032  1.00  0.00     0.261 C 
BRANCH   5   6
ATOM      6  O   UNL A   1      32.104  29.234  26.649  1.00  0.00    -0.463 OA
BRANCH   6   7
ATOM      7  C   UNL A   1      31.425  29.438  25.491  1.00  0.00     0.310 C 
ATOM      8  O   UNL A   1      31.125  30.510  25.012  1.00  0.00    -0.252 OA
BRANCH   7   9
ATOM      9  C   UNL A   1      31.194  28.162  24.765  1.00  0.00     0.118 C 
ATOM     10  C   UNL A   1      33.591  28.043  23.657  1.00  0.00     0.013 C 
ATOM     11  C   UNL A   1      32.215  27.458  23.870  1.00  0.00    -0.009 C 
ATOM     12  C   UNL A   1      31.693  26.777  22.627  1.00  0.00     0.013 C 
ATOM     13  C   UNL A   1      31.900  26.929  25.271  1.00  0.00     0.100 C 
BRANCH  13  14
ATOM     14  C   UNL A   1      31.189  25.651  25.584  1.00  0.00     0.228 C 
ATOM     15  O   UNL A   1      30.023  25.703  25.956  1.00  0.00    -0.274 OA
ATOM     16  N   UNL A   1      31.797  24.482  25.194  1.00  0.00    -0.325 N 
ATOM     17  H   UNL A   1      31.630  24.170  24.276  1.00  0.00     0.169 HD
BRANCH  16  18
ATOM     18  C   UNL A   1      32.639  23.691  26.003  1.00  0.00     0.050 A 
ATOM     19  C   UNL A   1      32.126  22.868  27.013  1.00  0.00     0.027 A 
ATOM     20  C   UNL A   1      34.041  23.721  25.813  1.00  0.00     0.023 A 
ATOM     21  C   UNL A   1      32.963  22.206  27.910  1.00  0.00     0.004 A 
ATOM     22  C   UNL A   1      34.857  23.041  26.724  1.00  0.00     0.047 A 
ATOM     23  C   UNL A   1      34.916  24.332  24.866  1.00  0.00     0.030 A 
ATOM     24  C   UNL A   1      34.348  22.306  27.800  1.00  0.00     0.027 A 
ATOM     25  N   UNL A   1      36.165  23.252  26.350  1.00  0.00    -0.361 N 
ATOM     26  C   UNL A   1      36.209  24.006  25.208  1.00  0.00     0.083 A 
ATOM     27  H   UNL A   1      36.953  22.912  26.833  1.00  0.00     0.166 HD
ENDBRANCH  16  18
ENDBRANCH  13  14
ENDBRANCH   7   9
ENDBRANCH   6   7
ENDBRANCH   5   6
ENDBRANCH   4   5
ENDBRANCH   3   4
ENDBRANCH   2   3
ENDBRANCH   1   2
BRANCH   1  28
ATOM     28  O   UNL A   1      35.033  34.191  28.998  1.00  0.00    -0.376 OA
BRANCH  28  29
ATOM     29  C   UNL A   1      33.929  34.870  28.424  1.00  0.00     0.202 C 
BRANCH  29  30
ATOM     30  C   UNL A   1      33.084  35.754  29.354  1.00  0.00     0.261 C 
BRANCH  30  31
ATOM     31  O   UNL A   1      32.475  35.096  30.477  1.00  0.00    -0.460 OA
BRANCH  31  32
ATOM     32  C   UNL A   1      32.724  35.611  31.702  1.00  0.00     0.338 C 
ATOM     33  O   UNL A   1      32.019  36.382  32.329  1.00  0.00    -0.246 OA
BRANCH  32  34
ATOM     34  C   UNL A   1      33.911  34.915  32.250  1.00  0.00     0.060 A 
ATOM     35  C   UNL A   1      35.133  35.596  32.290  1.00  0.00     0.016 A 
ATOM     36  C   UNL A   1      33.817  33.603  32.720  1.00  0.00     0.016 A 
ATOM     37  C   UNL A   1      36.275  34.951  32.768  1.00  0.00     0.010 A 
ATOM     38  C   UNL A   1      34.966  32.953  33.184  1.00  0.00     0.010 A 
ATOM     39  C   UNL A   1      36.208  33.613  33.178  1.00  0.00    -0.014 A 
BRANCH  39  40
ATOM     40  C   UNL A   1      37.461  32.857  33.426  1.00  0.00     0.031 A 
ATOM     41  C   UNL A   1      38.198  33.093  34.718  1.00  0.00     0.074 A 
ATOM     42  C   UNL A   1      37.936  31.973  32.530  1.00  0.00     0.049 A 
ATOM     43  N   UNL A   1      39.302  32.545  35.153  1.00  0.00    -0.248 NA
ATOM     44  C   UNL A   1      37.609  34.078  35.641  1.00  0.00     0.031 C 
ATOM     45  C   UNL A   1      37.328  31.666  31.238  1.00  0.00     0.029 A 
ATOM     46  N   UNL A   1      39.064  31.189  32.567  1.00  0.00    -0.354 N 
ATOM     47  C   UNL A   1      39.554  33.134  36.387  1.00  0.00     0.074 A 
ATOM     48  C   UNL A   1      38.494  34.088  36.627  1.00  0.00     0.031 C 
ATOM     49  C   UNL A   1      38.107  30.781  30.589  1.00  0.00     0.029 A 
ATOM     50  C   UNL A   1      39.271  30.465  31.416  1.00  0.00     0.049 A 
ATOM     51  H   UNL A   1      39.666  31.148  33.344  1.00  0.00     0.167 HD
ATOM     52  C   UNL A   1      40.566  32.892  37.254  1.00  0.00     0.034 A 
ATOM     53  C   UNL A   1      40.290  29.651  31.070  1.00  0.00     0.034 A 
ATOM     54  C   UNL A   1      41.616  31.938  37.026  1.00  0.00     0.049 A 
ATOM     55  C   UNL A   1      41.413  29.409  32.046  1.00  0.00     0.074 A 
ATOM     56  C   UNL A   1      42.663  31.597  37.863  1.00  0.00     0.029 A 
ATOM     57  N   UNL A   1      41.760  31.182  35.875  1.00  0.00    -0.354 N 
ATOM     58  N   UNL A   1      41.563  29.873  33.264  1.00  0.00    -0.248 NA
ATOM     59  C   UNL A   1      42.489  28.504  31.615  1.00  0.00     0.031 C 
ATOM     60  C   UNL A   1      43.452  30.647  37.207  1.00  0.00     0.029 A 
ATOM     61  C   UNL A   1      42.882  30.379  35.974  1.00  0.00     0.049 A 
ATOM     62  H   UNL A   1      41.153  31.212  35.100  1.00  0.00     0.167 HD
ATOM     63  C   UNL A   1      42.729  29.291  33.754  1.00  0.00     0.074 A 
ATOM     64  C   UNL A   1      43.232  28.423  32.710  1.00  0.00     0.031 C 
ATOM     65  C   UNL A   1      43.337  29.470  34.953  1.00  0.00     0.034 A 
BRANCH  52  66
ATOM     66  C   UNL A   1      40.569  33.660  38.549  1.00  0.00     0.023 A 
ATOM     67  C   UNL A   1      41.448  34.750  38.707  1.00  0.00     0.012 A 
ATOM     68  C   UNL A   1      39.674  33.335  39.586  1.00  0.00     0.148 A 
ATOM     69  C   UNL A   1      41.456  35.490  39.889  1.00  0.00     0.002 A 
ATOM     70  C   UNL A   1      39.660  34.101  40.746  1.00  0.00     0.091 A 
ATOM     71  F   UNL A   1      38.866  32.277  39.427  1.00  0.00    -0.205 F 
ATOM     72  C   UNL A   1      40.555  35.171  40.902  1.00  0.00     0.022 A 
BRANCH  70  73
ATOM     73  S   UNL A   1      38.488  33.814  42.077  1.00  0.00     0.127 S 
ATOM     74  O   UNL A   1      38.895  32.490  42.546  1.00  0.00    -0.237 OA
ATOM     75  O   UNL A   1      38.794  34.908  42.998  1.00  0.00    -0.237 OA
ATOM     76  O   UNL A   1      37.167  33.886  41.468  1.00  0.00    -0.744 OA
ENDBRANCH  70  73
ENDBRANCH  52  66
BRANCH  53  77
ATOM     77  C   UNL A   1      40.275  28.962  29.748  1.00  0.00     0.023 A 
ATOM     78  C   UNL A   1      40.706  29.654  28.599  1.00  0.00     0.012 A 
ATOM     79  C   UNL A   1      39.841  27.628  29.625  1.00  0.00     0.148 A 
ATOM     80  C   UNL A   1      40.682  29.038  27.347  1.00  0.00     0.002 A 
ATOM     81  C   UNL A   1      39.870  27.003  28.384  1.00  0.00     0.091 A 
ATOM     82  F   UNL A   1      39.412  26.996  30.726  1.00  0.00    -0.205 F 
ATOM     83  C   UNL A   1      40.275  27.711  27.241  1.00  0.00     0.022 A 
BRANCH  81  84
ATOM     84  S   UNL A   1      39.482  25.262  28.178  1.00  0.00     0.127 S 
ATOM     85  O   UNL A   1      40.795  24.642  28.342  1.00  0.00    -0.237 OA
ATOM     86  O   UNL A   1      38.547  25.029  29.279  1.00  0.00    -0.237 OA
ATOM     87  O   UNL A   1      38.887  25.152  26.853  1.00  0.00    -0.744 OA
ENDBRANCH  81  84
ENDBRANCH  53  77
BRANCH  65  88
ATOM     88  C   UNL A   1      44.592  28.684  35.233  1.00  0.00     0.023 A 
ATOM     89  C   UNL A   1      45.852  29.250  34.955  1.00  0.00     0.012 A 
ATOM     90  C   UNL A   1      44.524  27.419  35.849  1.00  0.00     0.148 A 
ATOM     91  C   UNL A   1      47.023  28.556  35.258  1.00  0.00     0.002 A 
ATOM     92  C   UNL A   1      45.696  26.753  36.192  1.00  0.00     0.091 A 
ATOM     93  F   UNL A   1      43.316  26.887  36.088  1.00  0.00    -0.205 F 
ATOM     94  C   UNL A   1      46.945  27.315  35.887  1.00  0.00     0.022 A 
BRANCH  92  95
ATOM     95  S   UNL A   1      45.686  25.197  37.089  1.00  0.00     0.127 S 
ATOM     96  O   UNL A   1      47.115  24.934  37.245  1.00  0.00    -0.237 OA
ATOM     97  O   UNL A   1      44.991  25.554  38.327  1.00  0.00    -0.237 OA
ATOM     98  O   UNL A   1      44.961  24.257  36.245  1.00  0.00    -0.744 OA
ENDBRANCH  92  95
ENDBRANCH  65  88
ENDBRANCH  39  40
ENDBRANCH  32  34
ENDBRANCH  31  32
ENDBRANCH  30  31
ENDBRANCH  29  30
ENDBRANCH  28  29
ENDBRANCH   1  28
TORSDOF 22
ENDMDL
