MODEL 1
REMARK VINA RESULT:      -9.5      0.000      0.000
REMARK SMILES CCn1nc(C)c(CN(C)C(=O)c2cnn(C)c2C(=O)OCCOCCOCCOC(=O)c2ccc(-c3c4nc(c(-c5cccc(S(=O)(=O)[O-])c5F)c5ccc([nH]5)c(-c5cccc(S(=O)(=O)[O-])c5F)c5nc(c(-c6cccc(S(=O)(=O)[O-])c6F)c6ccc3[nH]6)C=C5)C=C4)cc2)c1C
REMARK SMILES IDX 25 1 24 2 23 3 22 4 21 5 19 6 20 7 18 8 13 9 14 10 15 11
REMARK SMILES IDX 16 12 17 13 11 14 12 15 9 16 10 17 8 18 7 19 3 20 4 21 96 22
REMARK SMILES IDX 5 23 97 24 6 25 2 26 1 27 26 28 27 29 28 30 29 31 30 32
REMARK SMILES IDX 31 33 32 34 33 35 34 36 95 37 35 38 94 39 36 40 37 41 38 42
REMARK SMILES IDX 88 43 39 44 93 45 87 46 89 47 40 48 92 49 86 50 85 51 41 53
REMARK SMILES IDX 73 54 53 55 72 56 54 57 57 58 71 59 90 60 55 61 56 62 70 64
REMARK SMILES IDX 91 65 58 66 42 67 43 68 51 69 44 70 46 71 52 72 45 73 47 74
REMARK SMILES IDX 48 75 49 76 50 77 74 78 75 79 83 80 76 81 78 82 84 83 77 84
REMARK SMILES IDX 79 85 80 86 81 87 82 88 59 89 60 90 68 91 61 92 63 93 69 94
REMARK SMILES IDX 62 95 64 96 65 97 66 98 67 99
REMARK H PARENT 89 52 57 63
REMARK Flexibility Score: inf
ROOT
ATOM      1  C   UNL A   1      34.222  34.310  30.773  1.00  0.00     0.188 C 
ENDROOT
BRANCH   1   2
ATOM      2  O   UNL A   1      33.667  35.253  29.884  1.00  0.00    -0.376 OA
BRANCH   2   3
ATOM      3  C   UNL A   1      33.716  34.961  28.496  1.00  0.00     0.202 C 
BRANCH   3   4
ATOM      4  C   UNL A   1      32.834  33.855  27.873  1.00  0.00     0.261 C 
BRANCH   4   5
ATOM      5  O   UNL A   1      33.291  32.503  28.001  1.00  0.00    -0.459 OA
BRANCH   5   6
ATOM      6  C   UNL A   1      32.675  31.545  27.256  1.00  0.00     0.357 C 
ATOM      7  O   UNL A   1      31.659  31.711  26.617  1.00  0.00    -0.244 OA
BRANCH   6   8
ATOM      8  C   UNL A   1      33.519  30.370  27.196  1.00  0.00     0.159 A 
ATOM      9  C   UNL A   1      33.205  29.017  27.049  1.00  0.00     0.092 A 
ATOM     10  C   UNL A   1      34.463  28.377  27.003  1.00  0.00     0.150 A 
ATOM     11  N   UNL A   1      35.480  29.209  27.214  1.00  0.00    -0.180 NA
ATOM     12  N   UNL A   1      34.883  30.406  27.377  1.00  0.00    -0.261 N 
ATOM     13  C   UNL A   1      35.699  31.501  27.853  1.00  0.00     0.174 C 
BRANCH   9  14
ATOM     14  C   UNL A   1      31.871  28.453  26.868  1.00  0.00     0.257 C 
ATOM     15  O   UNL A   1      31.180  28.237  27.862  1.00  0.00    -0.269 OA
BRANCH  14  16
ATOM     16  N   UNL A   1      31.401  28.223  25.566  1.00  0.00    -0.337 N 
ATOM     17  C   UNL A   1      31.132  29.264  24.583  1.00  0.00     0.147 C 
BRANCH  16  18
ATOM     18  C   UNL A   1      31.094  26.851  25.171  1.00  0.00     0.159 C 
BRANCH  18  19
ATOM     19  C   UNL A   1      32.321  25.999  25.096  1.00  0.00     0.015 A 
ATOM     20  N   UNL A   1      33.844  24.447  25.477  1.00  0.00    -0.270 N 
ATOM     21  N   UNL A   1      34.333  25.133  24.432  1.00  0.00    -0.178 NA
ATOM     22  C   UNL A   1      32.581  24.850  25.832  1.00  0.00     0.041 A 
ATOM     23  C   UNL A   1      33.440  26.110  24.221  1.00  0.00     0.065 A 
ATOM     24  C   UNL A   1      31.729  24.140  26.821  1.00  0.00     0.067 C 
ATOM     25  C   UNL A   1      33.695  27.108  23.150  1.00  0.00     0.069 C 
BRANCH  20  26
ATOM     26  C   UNL A   1      34.595  23.346  26.052  1.00  0.00     0.141 C 
ATOM     27  C   UNL A   1      34.210  21.948  25.591  1.00  0.00     0.029 C 
ENDBRANCH  20  26
ENDBRANCH  18  19
ENDBRANCH  16  18
ENDBRANCH  14  16
ENDBRANCH   9  14
ENDBRANCH   6   8
ENDBRANCH   5   6
ENDBRANCH   4   5
ENDBRANCH   3   4
ENDBRANCH   2   3
ENDBRANCH   1   2
BRANCH   1  28
ATOM     28  C   UNL A   1      34.763  34.925  32.078  1.00  0.00     0.188 C 
BRANCH  28  29
ATOM     29  O   UNL A   1      34.708  34.222  33.313  1.00  0.00    -0.376 OA
BRANCH  29  30
ATOM     30  C   UNL A   1      35.416  33.002  33.518  1.00  0.00     0.202 C 
BRANCH  30  31
ATOM     31  C   UNL A   1      36.832  32.846  32.988  1.00  0.00     0.261 C 
BRANCH  31  32
ATOM     32  O   UNL A   1      36.872  32.253  31.708  1.00  0.00    -0.460 OA
BRANCH  32  33
ATOM     33  C   UNL A   1      36.787  30.909  31.729  1.00  0.00     0.338 C 
ATOM     34  O   UNL A   1      35.980  30.218  32.329  1.00  0.00    -0.246 OA
BRANCH  33  35
ATOM     35  C   UNL A   1      37.894  30.373  30.940  1.00  0.00     0.060 A 
ATOM     36  C   UNL A   1      37.880  28.995  30.714  1.00  0.00     0.016 A 
ATOM     37  C   UNL A   1      39.037  31.164  30.761  1.00  0.00     0.016 A 
ATOM     38  C   UNL A   1      39.088  28.362  30.575  1.00  0.00     0.010 A 
ATOM     39  C   UNL A   1      40.243  30.529  30.652  1.00  0.00     0.010 A 
ATOM     40  C   UNL A   1      40.247  29.137  30.666  1.00  0.00    -0.014 A 
BRANCH  40  41
ATOM     41  C   UNL A   1      41.502  28.446  30.812  1.00  0.00     0.031 A 
ATOM     42  C   UNL A   1      41.985  28.400  32.201  1.00  0.00     0.074 A 
ATOM     43  C   UNL A   1      42.067  27.823  29.761  1.00  0.00     0.049 A 
ATOM     44  N   UNL A   1      43.048  28.950  32.683  1.00  0.00    -0.248 NA
ATOM     45  C   UNL A   1      41.089  27.818  33.210  1.00  0.00     0.031 C 
ATOM     46  C   UNL A   1      41.463  27.577  28.446  1.00  0.00     0.029 A 
ATOM     47  N   UNL A   1      43.229  27.120  29.711  1.00  0.00    -0.354 N 
ATOM     48  C   UNL A   1      43.075  28.555  34.014  1.00  0.00     0.074 A 
ATOM     49  C   UNL A   1      41.757  28.078  34.332  1.00  0.00     0.031 C 
ATOM     50  C   UNL A   1      42.131  26.568  27.844  1.00  0.00     0.029 A 
ATOM     51  C   UNL A   1      43.255  26.187  28.680  1.00  0.00     0.049 A 
ATOM     52  H   UNL A   1      43.974  27.257  30.338  1.00  0.00     0.167 HD
ATOM     53  C   UNL A   1      44.252  28.355  34.660  1.00  0.00     0.034 A 
ATOM     54  C   UNL A   1      44.069  25.106  28.607  1.00  0.00     0.034 A 
ATOM     55  C   UNL A   1      45.353  28.982  33.975  1.00  0.00     0.049 A 
ATOM     56  C   UNL A   1      45.196  25.329  29.543  1.00  0.00     0.074 A 
ATOM     57  C   UNL A   1      45.641  30.268  33.564  1.00  0.00     0.029 A 
ATOM     58  N   UNL A   1      46.209  28.157  33.286  1.00  0.00    -0.354 N 
ATOM     59  N   UNL A   1      46.115  26.238  29.375  1.00  0.00    -0.248 NA
ATOM     60  C   UNL A   1      45.084  24.801  30.895  1.00  0.00     0.031 C 
ATOM     61  C   UNL A   1      46.348  30.116  32.337  1.00  0.00     0.029 A 
ATOM     62  C   UNL A   1      46.486  28.749  32.085  1.00  0.00     0.049 A 
ATOM     63  H   UNL A   1      46.560  27.293  33.602  1.00  0.00     0.167 HD
ATOM     64  C   UNL A   1      46.372  26.715  30.655  1.00  0.00     0.074 A 
ATOM     65  C   UNL A   1      45.813  25.706  31.551  1.00  0.00     0.031 C 
ATOM     66  C   UNL A   1      46.737  28.016  30.862  1.00  0.00     0.034 A 
BRANCH  53  67
ATOM     67  C   UNL A   1      44.465  27.270  35.686  1.00  0.00     0.023 A 
ATOM     68  C   UNL A   1      44.810  27.680  36.991  1.00  0.00     0.012 A 
ATOM     69  C   UNL A   1      44.611  25.895  35.385  1.00  0.00     0.148 A 
ATOM     70  C   UNL A   1      45.317  26.776  37.930  1.00  0.00     0.002 A 
ATOM     71  C   UNL A   1      45.021  24.987  36.351  1.00  0.00     0.091 A 
ATOM     72  F   UNL A   1      44.499  25.461  34.126  1.00  0.00    -0.205 F 
ATOM     73  C   UNL A   1      45.409  25.427  37.616  1.00  0.00     0.022 A 
BRANCH  71  74
ATOM     74  S   UNL A   1      45.080  23.226  35.999  1.00  0.00     0.127 S 
ATOM     75  O   UNL A   1      45.420  22.677  37.308  1.00  0.00    -0.237 OA
ATOM     76  O   UNL A   1      43.712  22.961  35.550  1.00  0.00    -0.237 OA
ATOM     77  O   UNL A   1      46.085  23.079  34.953  1.00  0.00    -0.744 OA
ENDBRANCH  71  74
ENDBRANCH  53  67
BRANCH  54  78
ATOM     78  C   UNL A   1      43.791  23.777  28.013  1.00  0.00     0.023 A 
ATOM     79  C   UNL A   1      42.761  22.984  28.552  1.00  0.00     0.012 A 
ATOM     80  C   UNL A   1      44.349  23.391  26.772  1.00  0.00     0.148 A 
ATOM     81  C   UNL A   1      42.282  21.860  27.867  1.00  0.00     0.002 A 
ATOM     82  C   UNL A   1      43.885  22.262  26.105  1.00  0.00     0.091 A 
ATOM     83  F   UNL A   1      45.263  24.181  26.194  1.00  0.00    -0.205 F 
ATOM     84  C   UNL A   1      42.841  21.501  26.643  1.00  0.00     0.022 A 
BRANCH  82  85
ATOM     85  S   UNL A   1      44.568  21.748  24.523  1.00  0.00     0.127 S 
ATOM     86  O   UNL A   1      44.242  20.321  24.497  1.00  0.00    -0.237 OA
ATOM     87  O   UNL A   1      43.808  22.566  23.584  1.00  0.00    -0.237 OA
ATOM     88  O   UNL A   1      45.997  22.027  24.602  1.00  0.00    -0.744 OA
ENDBRANCH  82  85
ENDBRANCH  54  78
BRANCH  66  89
ATOM     89  C   UNL A   1      47.159  28.836  29.668  1.00  0.00     0.023 A 
ATOM     90  C   UNL A   1      48.479  28.817  29.172  1.00  0.00     0.012 A 
ATOM     91  C   UNL A   1      46.168  29.506  28.930  1.00  0.00     0.148 A 
ATOM     92  C   UNL A   1      48.809  29.478  27.986  1.00  0.00     0.002 A 
ATOM     93  C   UNL A   1      46.490  30.120  27.725  1.00  0.00     0.091 A 
ATOM     94  F   UNL A   1      44.914  29.514  29.408  1.00  0.00    -0.205 F 
ATOM     95  C   UNL A   1      47.812  30.119  27.256  1.00  0.00     0.022 A 
BRANCH  93  96
ATOM     96  S   UNL A   1      45.220  30.840  26.680  1.00  0.00     0.127 S 
ATOM     97  O   UNL A   1      45.949  31.094  25.440  1.00  0.00    -0.237 OA
ATOM     98  O   UNL A   1      44.228  29.766  26.597  1.00  0.00    -0.237 OA
ATOM     99  O   UNL A   1      44.750  32.023  27.393  1.00  0.00    -0.744 OA
ENDBRANCH  93  96
ENDBRANCH  66  89
ENDBRANCH  40  41
ENDBRANCH  33  35
ENDBRANCH  32  33
ENDBRANCH  31  32
ENDBRANCH  30  31
ENDBRANCH  29  30
ENDBRANCH  28  29
ENDBRANCH   1  28
TORSDOF 25
ENDMDL
MODEL 2
REMARK VINA RESULT:      -8.9      2.342      4.264
REMARK SMILES CCn1nc(C)c(CN(C)C(=O)c2cnn(C)c2C(=O)OCCOCCOCCOC(=O)c2ccc(-c3c4nc(c(-c5cccc(S(=O)(=O)[O-])c5F)c5ccc([nH]5)c(-c5cccc(S(=O)(=O)[O-])c5F)c5nc(c(-c6cccc(S(=O)(=O)[O-])c6F)c6ccc3[nH]6)C=C5)C=C4)cc2)c1C
REMARK SMILES IDX 25 1 24 2 23 3 22 4 21 5 19 6 20 7 18 8 13 9 14 10 15 11
REMARK SMILES IDX 16 12 17 13 11 14 12 15 9 16 10 17 8 18 7 19 3 20 4 21 96 22
REMARK SMILES IDX 5 23 97 24 6 25 2 26 1 27 26 28 27 29 28 30 29 31 30 32
REMARK SMILES IDX 31 33 32 34 33 35 34 36 95 37 35 38 94 39 36 40 37 41 38 42
REMARK SMILES IDX 88 43 39 44 93 45 87 46 89 47 40 48 92 49 86 50 85 51 41 53
REMARK SMILES IDX 73 54 53 55 72 56 54 57 57 58 71 59 90 60 55 61 56 62 70 64
REMARK SMILES IDX 91 65 58 66 42 67 43 68 51 69 44 70 46 71 52 72 45 73 47 74
REMARK SMILES IDX 48 75 49 76 50 77 74 78 75 79 83 80 76 81 78 82 84 83 77 84
REMARK SMILES IDX 79 85 80 86 81 87 82 88 59 89 60 90 68 91 61 92 63 93 69 94
REMARK SMILES IDX 62 95 64 96 65 97 66 98 67 99
REMARK H PARENT 89 52 57 63
REMARK Flexibility Score: inf
ROOT
ATOM      1  C   UNL A   1      34.349  29.932  27.603  1.00  0.00     0.188 C 
ENDROOT
BRANCH   1   2
ATOM      2  O   UNL A   1      34.667  28.800  26.825  1.00  0.00    -0.376 OA
BRANCH   2   3
ATOM      3  C   UNL A   1      33.637  28.236  26.027  1.00  0.00     0.202 C 
BRANCH   3   4
ATOM      4  C   UNL A   1      33.150  26.785  26.248  1.00  0.00     0.261 C 
BRANCH   4   5
ATOM      5  O   UNL A   1      34.093  25.734  26.006  1.00  0.00    -0.459 OA
BRANCH   5   6
ATOM      6  C   UNL A   1      33.615  24.470  25.844  1.00  0.00     0.357 C 
ATOM      7  O   UNL A   1      32.954  23.869  26.663  1.00  0.00    -0.244 OA
BRANCH   6   8
ATOM      8  C   UNL A   1      33.856  24.039  24.483  1.00  0.00     0.159 A 
ATOM      9  C   UNL A   1      33.003  23.948  23.381  1.00  0.00     0.092 A 
ATOM     10  C   UNL A   1      33.844  23.519  22.331  1.00  0.00     0.150 A 
ATOM     11  N   UNL A   1      35.084  23.248  22.733  1.00  0.00    -0.180 NA
ATOM     12  N   UNL A   1      35.057  23.524  24.052  1.00  0.00    -0.261 N 
ATOM     13  C   UNL A   1      36.197  23.116  24.843  1.00  0.00     0.174 C 
BRANCH   9  14
ATOM     14  C   UNL A   1      31.596  24.335  23.341  1.00  0.00     0.257 C 
ATOM     15  O   UNL A   1      30.753  23.546  23.767  1.00  0.00    -0.269 OA
BRANCH  14  16
ATOM     16  N   UNL A   1      31.255  25.611  22.868  1.00  0.00    -0.337 N 
ATOM     17  C   UNL A   1      31.432  26.065  21.495  1.00  0.00     0.147 C 
BRANCH  16  18
ATOM     18  C   UNL A   1      30.741  26.590  23.822  1.00  0.00     0.159 C 
BRANCH  18  19
ATOM     19  C   UNL A   1      30.327  27.863  23.153  1.00  0.00     0.015 A 
ATOM     20  N   UNL A   1      29.132  29.487  22.254  1.00  0.00    -0.270 N 
ATOM     21  N   UNL A   1      30.399  29.917  22.147  1.00  0.00    -0.178 NA
ATOM     22  C   UNL A   1      29.027  28.316  22.962  1.00  0.00     0.041 A 
ATOM     23  C   UNL A   1      31.139  28.917  22.646  1.00  0.00     0.065 A 
ATOM     24  C   UNL A   1      27.738  27.720  23.396  1.00  0.00     0.067 C 
ATOM     25  C   UNL A   1      32.620  29.036  22.638  1.00  0.00     0.069 C 
BRANCH  20  26
ATOM     26  C   UNL A   1      28.036  30.283  21.731  1.00  0.00     0.141 C 
ATOM     27  C   UNL A   1      28.414  31.580  21.033  1.00  0.00     0.029 C 
ENDBRANCH  20  26
ENDBRANCH  18  19
ENDBRANCH  16  18
ENDBRANCH  14  16
ENDBRANCH   9  14
ENDBRANCH   6   8
ENDBRANCH   5   6
ENDBRANCH   4   5
ENDBRANCH   3   4
ENDBRANCH   2   3
ENDBRANCH   1   2
BRANCH   1  28
ATOM     28  C   UNL A   1      35.469  30.989  27.655  1.00  0.00     0.188 C 
BRANCH  28  29
ATOM     29  O   UNL A   1      35.192  32.358  27.918  1.00  0.00    -0.376 OA
BRANCH  29  30
ATOM     30  C   UNL A   1      35.532  32.971  29.159  1.00  0.00     0.202 C 
BRANCH  30  31
ATOM     31  C   UNL A   1      36.012  32.119  30.323  1.00  0.00     0.261 C 
BRANCH  31  32
ATOM     32  O   UNL A   1      37.183  32.626  30.923  1.00  0.00    -0.460 OA
BRANCH  32  33
ATOM     33  C   UNL A   1      38.290  32.473  30.171  1.00  0.00     0.338 C 
ATOM     34  O   UNL A   1      38.480  32.858  29.029  1.00  0.00    -0.246 OA
BRANCH  33  35
ATOM     35  C   UNL A   1      39.253  31.685  30.938  1.00  0.00     0.060 A 
ATOM     36  C   UNL A   1      40.601  31.966  30.710  1.00  0.00     0.016 A 
ATOM     37  C   UNL A   1      38.814  30.510  31.562  1.00  0.00     0.016 A 
ATOM     38  C   UNL A   1      41.498  30.941  30.859  1.00  0.00     0.010 A 
ATOM     39  C   UNL A   1      39.704  29.479  31.682  1.00  0.00     0.010 A 
ATOM     40  C   UNL A   1      41.004  29.689  31.230  1.00  0.00    -0.014 A 
BRANCH  40  41
ATOM     41  C   UNL A   1      41.888  28.559  31.104  1.00  0.00     0.031 A 
ATOM     42  C   UNL A   1      42.589  28.223  32.353  1.00  0.00     0.074 A 
ATOM     43  C   UNL A   1      41.932  27.849  29.962  1.00  0.00     0.049 A 
ATOM     44  N   UNL A   1      43.857  28.281  32.584  1.00  0.00    -0.248 NA
ATOM     45  C   UNL A   1      41.765  27.955  33.541  1.00  0.00     0.031 C 
ATOM     46  C   UNL A   1      41.023  27.957  28.814  1.00  0.00     0.029 A 
ATOM     47  N   UNL A   1      42.686  26.758  29.665  1.00  0.00    -0.354 N 
ATOM     48  C   UNL A   1      44.000  27.805  33.881  1.00  0.00     0.074 A 
ATOM     49  C   UNL A   1      42.697  27.850  34.486  1.00  0.00     0.031 C 
ATOM     50  C   UNL A   1      41.101  26.818  28.091  1.00  0.00     0.029 A 
ATOM     51  C   UNL A   1      42.131  25.970  28.663  1.00  0.00     0.049 A 
ATOM     52  H   UNL A   1      43.538  26.548  30.111  1.00  0.00     0.167 HD
ATOM     53  C   UNL A   1      45.109  27.117  34.254  1.00  0.00     0.034 A 
ATOM     54  C   UNL A   1      42.419  24.668  28.424  1.00  0.00     0.034 A 
ATOM     55  C   UNL A   1      46.201  27.321  33.338  1.00  0.00     0.049 A 
ATOM     56  C   UNL A   1      43.710  24.365  29.087  1.00  0.00     0.074 A 
ATOM     57  C   UNL A   1      46.880  28.424  32.860  1.00  0.00     0.029 A 
ATOM     58  N   UNL A   1      46.501  26.286  32.486  1.00  0.00    -0.354 N 
ATOM     59  N   UNL A   1      44.856  24.859  28.711  1.00  0.00    -0.248 NA
ATOM     60  C   UNL A   1      43.681  23.819  30.435  1.00  0.00     0.031 C 
ATOM     61  C   UNL A   1      47.201  28.106  31.509  1.00  0.00     0.029 A 
ATOM     62  C   UNL A   1      46.735  26.816  31.247  1.00  0.00     0.049 A 
ATOM     63  H   UNL A   1      46.541  25.332  32.726  1.00  0.00     0.167 HD
ATOM     64  C   UNL A   1      45.538  25.100  29.898  1.00  0.00     0.074 A 
ATOM     65  C   UNL A   1      44.826  24.319  30.906  1.00  0.00     0.031 C 
ATOM     66  C   UNL A   1      46.419  26.139  30.006  1.00  0.00     0.034 A 
BRANCH  53  67
ATOM     67  C   UNL A   1      45.085  25.959  35.220  1.00  0.00     0.023 A 
ATOM     68  C   UNL A   1      43.851  25.301  35.402  1.00  0.00     0.012 A 
ATOM     69  C   UNL A   1      46.116  25.658  36.142  1.00  0.00     0.148 A 
ATOM     70  C   UNL A   1      43.641  24.427  36.474  1.00  0.00     0.002 A 
ATOM     71  C   UNL A   1      45.932  24.716  37.145  1.00  0.00     0.091 A 
ATOM     72  F   UNL A   1      47.240  26.381  36.162  1.00  0.00    -0.205 F 
ATOM     73  C   UNL A   1      44.685  24.123  37.337  1.00  0.00     0.022 A 
BRANCH  71  74
ATOM     74  S   UNL A   1      47.284  24.246  38.231  1.00  0.00     0.127 S 
ATOM     75  O   UNL A   1      46.842  22.935  38.697  1.00  0.00    -0.237 OA
ATOM     76  O   UNL A   1      48.420  24.227  37.309  1.00  0.00    -0.237 OA
ATOM     77  O   UNL A   1      47.353  25.301  39.234  1.00  0.00    -0.744 OA
ENDBRANCH  71  74
ENDBRANCH  53  67
BRANCH  54  78
ATOM     78  C   UNL A   1      41.525  23.599  27.919  1.00  0.00     0.023 A 
ATOM     79  C   UNL A   1      40.198  23.918  27.577  1.00  0.00     0.012 A 
ATOM     80  C   UNL A   1      42.029  22.336  27.531  1.00  0.00     0.148 A 
ATOM     81  C   UNL A   1      39.406  23.021  26.847  1.00  0.00     0.002 A 
ATOM     82  C   UNL A   1      41.232  21.440  26.824  1.00  0.00     0.091 A 
ATOM     83  F   UNL A   1      43.316  22.048  27.761  1.00  0.00    -0.205 F 
ATOM     84  C   UNL A   1      39.924  21.785  26.468  1.00  0.00     0.022 A 
BRANCH  82  85
ATOM     85  S   UNL A   1      41.844  19.830  26.309  1.00  0.00     0.127 S 
ATOM     86  O   UNL A   1      40.648  19.220  25.725  1.00  0.00    -0.237 OA
ATOM     87  O   UNL A   1      42.879  20.192  25.347  1.00  0.00    -0.237 OA
ATOM     88  O   UNL A   1      42.307  19.177  27.529  1.00  0.00    -0.744 OA
ENDBRANCH  82  85
ENDBRANCH  54  78
BRANCH  66  89
ATOM     89  C   UNL A   1      46.874  26.822  28.741  1.00  0.00     0.023 A 
ATOM     90  C   UNL A   1      47.830  26.248  27.878  1.00  0.00     0.012 A 
ATOM     91  C   UNL A   1      46.201  27.985  28.326  1.00  0.00     0.148 A 
ATOM     92  C   UNL A   1      48.131  26.836  26.647  1.00  0.00     0.002 A 
ATOM     93  C   UNL A   1      46.467  28.539  27.079  1.00  0.00     0.091 A 
ATOM     94  F   UNL A   1      45.289  28.522  29.152  1.00  0.00    -0.205 F 
ATOM     95  C   UNL A   1      47.440  27.975  26.241  1.00  0.00     0.022 A 
BRANCH  93  96
ATOM     96  S   UNL A   1      45.509  29.923  26.454  1.00  0.00     0.127 S 
ATOM     97  O   UNL A   1      44.187  29.327  26.276  1.00  0.00    -0.237 OA
ATOM     98  O   UNL A   1      45.599  30.894  27.547  1.00  0.00    -0.237 OA
ATOM     99  O   UNL A   1      46.184  30.346  25.232  1.00  0.00    -0.744 OA
ENDBRANCH  93  96
ENDBRANCH  66  89
ENDBRANCH  40  41
ENDBRANCH  33  35
ENDBRANCH  32  33
ENDBRANCH  31  32
ENDBRANCH  30  31
ENDBRANCH  29  30
ENDBRANCH  28  29
ENDBRANCH   1  28
TORSDOF 25
ENDMDL
MODEL 3
REMARK VINA RESULT:      -8.9      7.033     11.585
REMARK SMILES CCn1nc(C)c(CN(C)C(=O)c2cnn(C)c2C(=O)OCCOCCOCCOC(=O)c2ccc(-c3c4nc(c(-c5cccc(S(=O)(=O)[O-])c5F)c5ccc([nH]5)c(-c5cccc(S(=O)(=O)[O-])c5F)c5nc(c(-c6cccc(S(=O)(=O)[O-])c6F)c6ccc3[nH]6)C=C5)C=C4)cc2)c1C
REMARK SMILES IDX 25 1 24 2 23 3 22 4 21 5 19 6 20 7 18 8 13 9 14 10 15 11
REMARK SMILES IDX 16 12 17 13 11 14 12 15 9 16 10 17 8 18 7 19 3 20 4 21 96 22
REMARK SMILES IDX 5 23 97 24 6 25 2 26 1 27 26 28 27 29 28 30 29 31 30 32
REMARK SMILES IDX 31 33 32 34 33 35 34 36 95 37 35 38 94 39 36 40 37 41 38 42
REMARK SMILES IDX 88 43 39 44 93 45 87 46 89 47 40 48 92 49 86 50 85 51 41 53
REMARK SMILES IDX 73 54 53 55 72 56 54 57 57 58 71 59 90 60 55 61 56 62 70 64
REMARK SMILES IDX 91 65 58 66 42 67 43 68 51 69 44 70 46 71 52 72 45 73 47 74
REMARK SMILES IDX 48 75 49 76 50 77 74 78 75 79 83 80 76 81 78 82 84 83 77 84
REMARK SMILES IDX 79 85 80 86 81 87 82 88 59 89 60 90 68 91 61 92 63 93 69 94
REMARK SMILES IDX 62 95 64 96 65 97 66 98 67 99
REMARK H PARENT 89 52 57 63
REMARK Flexibility Score: inf
ROOT
ATOM      1  C   UNL A   1      41.399  35.366  29.480  1.00  0.00     0.188 C 
ENDROOT
BRANCH   1   2
ATOM      2  O   UNL A   1      41.523  36.314  28.443  1.00  0.00    -0.376 OA
BRANCH   2   3
ATOM      3  C   UNL A   1      42.722  36.310  27.684  1.00  0.00     0.202 C 
BRANCH   3   4
ATOM      4  C   UNL A   1      43.204  37.571  26.931  1.00  0.00     0.261 C 
BRANCH   4   5
ATOM      5  O   UNL A   1      43.695  38.659  27.724  1.00  0.00    -0.459 OA
BRANCH   5   6
ATOM      6  C   UNL A   1      42.880  39.733  27.913  1.00  0.00     0.357 C 
ATOM      7  O   UNL A   1      41.691  39.669  28.135  1.00  0.00    -0.244 OA
BRANCH   6   8
ATOM      8  C   UNL A   1      43.684  40.934  27.998  1.00  0.00     0.159 A 
ATOM      9  C   UNL A   1      44.143  41.807  27.009  1.00  0.00     0.092 A 
ATOM     10  C   UNL A   1      44.821  42.814  27.728  1.00  0.00     0.150 A 
ATOM     11  N   UNL A   1      44.896  42.563  29.033  1.00  0.00    -0.180 NA
ATOM     12  N   UNL A   1      44.241  41.393  29.169  1.00  0.00    -0.261 N 
ATOM     13  C   UNL A   1      44.335  40.719  30.445  1.00  0.00     0.174 C 
BRANCH   9  14
ATOM     14  C   UNL A   1      43.859  41.722  25.579  1.00  0.00     0.257 C 
ATOM     15  O   UNL A   1      42.959  40.975  25.198  1.00  0.00    -0.269 OA
BRANCH  14  16
ATOM     16  N   UNL A   1      44.585  42.531  24.692  1.00  0.00    -0.337 N 
ATOM     17  C   UNL A   1      45.932  42.245  24.217  1.00  0.00     0.147 C 
BRANCH  16  18
ATOM     18  C   UNL A   1      43.987  43.789  24.253  1.00  0.00     0.159 C 
BRANCH  18  19
ATOM     19  C   UNL A   1      43.816  43.841  22.768  1.00  0.00     0.015 A 
ATOM     20  N   UNL A   1      43.088  43.509  20.710  1.00  0.00    -0.270 N 
ATOM     21  N   UNL A   1      44.095  44.385  20.561  1.00  0.00    -0.178 NA
ATOM     22  C   UNL A   1      42.802  43.248  22.027  1.00  0.00     0.041 A 
ATOM     23  C   UNL A   1      44.577  44.558  21.800  1.00  0.00     0.065 A 
ATOM     24  C   UNL A   1      41.619  42.473  22.482  1.00  0.00     0.067 C 
ATOM     25  C   UNL A   1      45.754  45.443  22.003  1.00  0.00     0.069 C 
BRANCH  20  26
ATOM     26  C   UNL A   1      42.367  43.011  19.552  1.00  0.00     0.141 C 
ATOM     27  C   UNL A   1      41.942  44.046  18.522  1.00  0.00     0.029 C 
ENDBRANCH  20  26
ENDBRANCH  18  19
ENDBRANCH  16  18
ENDBRANCH  14  16
ENDBRANCH   9  14
ENDBRANCH   6   8
ENDBRANCH   5   6
ENDBRANCH   4   5
ENDBRANCH   3   4
ENDBRANCH   2   3
ENDBRANCH   1   2
BRANCH   1  28
ATOM     28  C   UNL A   1      39.976  34.796  29.637  1.00  0.00     0.188 C 
BRANCH  28  29
ATOM     29  O   UNL A   1      39.711  33.668  30.461  1.00  0.00    -0.376 OA
BRANCH  29  30
ATOM     30  C   UNL A   1      39.209  32.446  29.927  1.00  0.00     0.202 C 
BRANCH  30  31
ATOM     31  C   UNL A   1      37.777  32.366  29.422  1.00  0.00     0.261 C 
BRANCH  31  32
ATOM     32  O   UNL A   1      37.047  31.317  30.018  1.00  0.00    -0.460 OA
BRANCH  32  33
ATOM     33  C   UNL A   1      36.518  30.450  29.133  1.00  0.00     0.338 C 
ATOM     34  O   UNL A   1      35.407  30.478  28.629  1.00  0.00    -0.246 OA
BRANCH  33  35
ATOM     35  C   UNL A   1      37.493  29.387  28.903  1.00  0.00     0.060 A 
ATOM     36  C   UNL A   1      37.828  28.607  30.011  1.00  0.00     0.016 A 
ATOM     37  C   UNL A   1      38.268  29.426  27.736  1.00  0.00     0.016 A 
ATOM     38  C   UNL A   1      39.091  28.076  30.057  1.00  0.00     0.010 A 
ATOM     39  C   UNL A   1      39.537  28.923  27.794  1.00  0.00     0.010 A 
ATOM     40  C   UNL A   1      39.954  28.349  28.993  1.00  0.00    -0.014 A 
BRANCH  40  41
ATOM     41  C   UNL A   1      41.350  28.046  29.171  1.00  0.00     0.031 A 
ATOM     42  C   UNL A   1      41.822  26.944  28.318  1.00  0.00     0.074 A 
ATOM     43  C   UNL A   1      42.121  28.810  29.967  1.00  0.00     0.049 A 
ATOM     44  N   UNL A   1      42.258  25.789  28.693  1.00  0.00    -0.248 NA
ATOM     45  C   UNL A   1      41.624  27.079  26.867  1.00  0.00     0.031 C 
ATOM     46  C   UNL A   1      41.764  30.096  30.579  1.00  0.00     0.029 A 
ATOM     47  N   UNL A   1      43.445  28.686  30.245  1.00  0.00    -0.354 N 
ATOM     48  C   UNL A   1      42.628  25.154  27.515  1.00  0.00     0.074 A 
ATOM     49  C   UNL A   1      42.007  25.878  26.440  1.00  0.00     0.031 C 
ATOM     50  C   UNL A   1      42.899  30.749  30.911  1.00  0.00     0.029 A 
ATOM     51  C   UNL A   1      44.033  29.884  30.636  1.00  0.00     0.049 A 
ATOM     52  H   UNL A   1      43.937  27.837  30.179  1.00  0.00     0.167 HD
ATOM     53  C   UNL A   1      43.667  24.279  27.490  1.00  0.00     0.034 A 
ATOM     54  C   UNL A   1      45.357  30.169  30.601  1.00  0.00     0.034 A 
ATOM     55  C   UNL A   1      44.004  23.810  28.808  1.00  0.00     0.049 A 
ATOM     56  C   UNL A   1      46.090  28.884  30.517  1.00  0.00     0.074 A 
ATOM     57  C   UNL A   1      43.317  23.174  29.823  1.00  0.00     0.029 A 
ATOM     58  N   UNL A   1      45.147  24.317  29.377  1.00  0.00    -0.354 N 
ATOM     59  N   UNL A   1      46.135  28.005  31.479  1.00  0.00    -0.248 NA
ATOM     60  C   UNL A   1      46.451  28.382  29.199  1.00  0.00     0.031 C 
ATOM     61  C   UNL A   1      43.861  23.705  31.028  1.00  0.00     0.029 A 
ATOM     62  C   UNL A   1      44.873  24.604  30.686  1.00  0.00     0.049 A 
ATOM     63  H   UNL A   1      46.010  24.451  28.922  1.00  0.00     0.167 HD
ATOM     64  C   UNL A   1      46.080  26.776  30.831  1.00  0.00     0.074 A 
ATOM     65  C   UNL A   1      46.411  27.069  29.440  1.00  0.00     0.031 C 
ATOM     66  C   UNL A   1      45.478  25.698  31.417  1.00  0.00     0.034 A 
BRANCH  53  67
ATOM     67  C   UNL A   1      44.622  24.155  26.330  1.00  0.00     0.023 A 
ATOM     68  C   UNL A   1      44.801  22.868  25.781  1.00  0.00     0.012 A 
ATOM     69  C   UNL A   1      45.540  25.156  25.932  1.00  0.00     0.148 A 
ATOM     70  C   UNL A   1      45.866  22.583  24.920  1.00  0.00     0.002 A 
ATOM     71  C   UNL A   1      46.535  24.892  25.002  1.00  0.00     0.091 A 
ATOM     72  F   UNL A   1      45.564  26.339  26.554  1.00  0.00    -0.205 F 
ATOM     73  C   UNL A   1      46.725  23.598  24.518  1.00  0.00     0.022 A 
BRANCH  71  74
ATOM     74  S   UNL A   1      47.615  26.198  24.405  1.00  0.00     0.127 S 
ATOM     75  O   UNL A   1      48.301  25.530  23.303  1.00  0.00    -0.237 OA
ATOM     76  O   UNL A   1      46.654  27.226  24.006  1.00  0.00    -0.237 OA
ATOM     77  O   UNL A   1      48.436  26.568  25.552  1.00  0.00    -0.744 OA
ENDBRANCH  71  74
ENDBRANCH  53  67
BRANCH  54  78
ATOM     78  C   UNL A   1      46.018  31.469  30.340  1.00  0.00     0.023 A 
ATOM     79  C   UNL A   1      46.870  32.016  31.318  1.00  0.00     0.012 A 
ATOM     80  C   UNL A   1      46.023  32.051  29.051  1.00  0.00     0.148 A 
ATOM     81  C   UNL A   1      47.721  33.087  31.016  1.00  0.00     0.002 A 
ATOM     82  C   UNL A   1      46.855  33.128  28.762  1.00  0.00     0.091 A 
ATOM     83  F   UNL A   1      45.293  31.490  28.080  1.00  0.00    -0.205 F 
ATOM     84  C   UNL A   1      47.716  33.641  29.738  1.00  0.00     0.022 A 
BRANCH  82  85
ATOM     85  S   UNL A   1      46.892  33.885  27.131  1.00  0.00     0.127 S 
ATOM     86  O   UNL A   1      45.502  34.311  26.959  1.00  0.00    -0.237 OA
ATOM     87  O   UNL A   1      47.846  34.973  27.323  1.00  0.00    -0.237 OA
ATOM     88  O   UNL A   1      47.306  32.828  26.216  1.00  0.00    -0.744 OA
ENDBRANCH  82  85
ENDBRANCH  54  78
BRANCH  66  89
ATOM     89  C   UNL A   1      45.156  25.774  32.889  1.00  0.00     0.023 A 
ATOM     90  C   UNL A   1      46.085  25.401  33.882  1.00  0.00     0.012 A 
ATOM     91  C   UNL A   1      43.956  26.392  33.282  1.00  0.00     0.148 A 
ATOM     92  C   UNL A   1      45.811  25.611  35.236  1.00  0.00     0.002 A 
ATOM     93  C   UNL A   1      43.709  26.644  34.627  1.00  0.00     0.091 A 
ATOM     94  F   UNL A   1      43.080  26.747  32.329  1.00  0.00    -0.205 F 
ATOM     95  C   UNL A   1      44.628  26.244  35.608  1.00  0.00     0.022 A 
BRANCH  93  96
ATOM     96  S   UNL A   1      42.266  27.578  35.147  1.00  0.00     0.127 S 
ATOM     97  O   UNL A   1      42.335  28.755  34.286  1.00  0.00    -0.237 OA
ATOM     98  O   UNL A   1      41.165  26.661  34.842  1.00  0.00    -0.237 OA
ATOM     99  O   UNL A   1      42.451  27.823  36.573  1.00  0.00    -0.744 OA
ENDBRANCH  93  96
ENDBRANCH  66  89
ENDBRANCH  40  41
ENDBRANCH  33  35
ENDBRANCH  32  33
ENDBRANCH  31  32
ENDBRANCH  30  31
ENDBRANCH  29  30
ENDBRANCH  28  29
ENDBRANCH   1  28
TORSDOF 25
ENDMDL
