MODEL 1
REMARK VINA RESULT:      -6.7      0.000      0.000
REMARK SMILES C[C@@H](C(=O)OCCOCCOCCOC(=O)c1ccc(-c2c3nc(c(-c4cccc(S(=O)(=O)[O-])c4F)c4ccc([nH]4)c(-c4cccc(S(=O)(=O)[O-])c4F)c4nc(c(-c5cccc(S(=O)(=O)[O-])c5F)c5ccc2[nH]5)C=C4)C=C3)cc1)c1ccc(-c2cccc(OC(=O)NCCC3CCCCC3)c2)c(F)c1
REMARK SMILES IDX 7 1 6 2 5 3 3 4 4 5 2 6 1 7 80 8 81 9 104 10 82 11 102 12
REMARK SMILES IDX 83 13 103 14 84 15 85 16 101 17 86 18 88 19 87 20 89 21
REMARK SMILES IDX 90 22 91 23 92 24 93 26 94 27 95 28 96 29 100 30 97 31 99 32
REMARK SMILES IDX 98 33 8 34 9 35 10 36 11 37 12 38 13 39 14 40 15 41 16 42
REMARK SMILES IDX 17 43 18 44 79 45 19 46 78 47 20 48 21 49 22 50 72 51 23 52
REMARK SMILES IDX 77 53 71 54 73 55 24 56 76 57 70 58 69 59 25 61 57 62 37 63
REMARK SMILES IDX 56 64 38 65 41 66 55 67 74 68 39 69 40 70 54 72 75 73 42 74
REMARK SMILES IDX 26 75 27 76 35 77 28 78 30 79 36 80 29 81 31 82 32 83 33 84
REMARK SMILES IDX 34 85 58 86 59 87 67 88 60 89 62 90 68 91 61 92 63 93 64 94
REMARK SMILES IDX 65 95 66 96 43 97 44 98 52 99 45 100 47 101 53 102 46 103
REMARK SMILES IDX 48 104 49 105 50 106 51 107
REMARK H PARENT 92 25 73 60 41 71
REMARK Flexibility Score: inf
ROOT
ATOM      1  C   UNL A   1      34.482  32.485  29.648  1.00  0.00     0.202 C 
ENDROOT
BRANCH   1   2
ATOM      2  C   UNL A   1      35.948  32.013  29.712  1.00  0.00     0.261 C 
BRANCH   2   3
ATOM      3  O   UNL A   1      36.191  30.841  30.527  1.00  0.00    -0.463 OA
BRANCH   3   4
ATOM      4  C   UNL A   1      36.535  29.702  29.859  1.00  0.00     0.313 C 
ATOM      5  O   UNL A   1      36.116  29.426  28.738  1.00  0.00    -0.252 OA
BRANCH   4   6
ATOM      6  C   UNL A   1      37.479  28.754  30.630  1.00  0.00     0.126 C 
ATOM      7  C   UNL A   1      37.785  29.081  32.096  1.00  0.00     0.025 C 
BRANCH   6   8
ATOM      8  C   UNL A   1      38.776  28.480  29.870  1.00  0.00    -0.031 A 
ATOM      9  C   UNL A   1      39.142  27.187  29.468  1.00  0.00     0.005 A 
ATOM     10  C   UNL A   1      39.662  29.516  29.575  1.00  0.00     0.044 A 
ATOM     11  C   UNL A   1      40.349  26.953  28.776  1.00  0.00     0.012 A 
ATOM     12  C   UNL A   1      40.848  29.274  28.891  1.00  0.00     0.131 A 
ATOM     13  C   UNL A   1      41.231  28.000  28.477  1.00  0.00     0.018 A 
ATOM     14  F   UNL A   1      41.631  30.325  28.643  1.00  0.00    -0.206 F 
BRANCH  13  15
ATOM     15  C   UNL A   1      42.508  27.797  27.772  1.00  0.00    -0.012 A 
ATOM     16  C   UNL A   1      43.467  28.821  27.706  1.00  0.00     0.009 A 
ATOM     17  C   UNL A   1      42.819  26.550  27.188  1.00  0.00     0.056 A 
ATOM     18  C   UNL A   1      44.698  28.609  27.079  1.00  0.00     0.004 A 
ATOM     19  C   UNL A   1      44.053  26.339  26.569  1.00  0.00     0.133 A 
ATOM     20  C   UNL A   1      44.993  27.369  26.509  1.00  0.00     0.047 A 
BRANCH  19  21
ATOM     21  O   UNL A   1      44.436  25.130  25.922  1.00  0.00    -0.410 OA
BRANCH  21  22
ATOM     22  C   UNL A   1      44.761  23.921  26.540  1.00  0.00     0.412 C 
ATOM     23  O   UNL A   1      43.959  23.099  26.976  1.00  0.00    -0.224 OA
ATOM     24  N   UNL A   1      46.106  23.660  26.597  1.00  0.00    -0.321 N 
ATOM     25  H   UNL A   1      46.364  22.816  27.033  1.00  0.00     0.167 HD
BRANCH  24  26
ATOM     26  C   UNL A   1      47.199  24.476  26.092  1.00  0.00     0.119 C 
BRANCH  26  27
ATOM     27  C   UNL A   1      47.925  25.242  27.202  1.00  0.00     0.025 C 
BRANCH  27  28
ATOM     28  C   UNL A   1      49.307  25.849  26.856  1.00  0.00    -0.009 C 
ATOM     29  C   UNL A   1      50.488  25.146  27.540  1.00  0.00     0.003 C 
ATOM     30  C   UNL A   1      49.515  25.782  25.334  1.00  0.00     0.003 C 
ATOM     31  C   UNL A   1      51.837  25.718  27.083  1.00  0.00     0.000 C 
ATOM     32  C   UNL A   1      50.847  26.360  24.884  1.00  0.00     0.000 C 
ATOM     33  C   UNL A   1      52.009  25.669  25.567  1.00  0.00     0.000 C 
ENDBRANCH  27  28
ENDBRANCH  26  27
ENDBRANCH  24  26
ENDBRANCH  21  22
ENDBRANCH  19  21
ENDBRANCH  13  15
ENDBRANCH   6   8
ENDBRANCH   4   6
ENDBRANCH   3   4
ENDBRANCH   2   3
ENDBRANCH   1   2
BRANCH   1  34
ATOM     34  O   UNL A   1      34.145  33.660  28.917  1.00  0.00    -0.376 OA
BRANCH  34  35
ATOM     35  C   UNL A   1      34.266  34.910  29.576  1.00  0.00     0.188 C 
BRANCH  35  36
ATOM     36  C   UNL A   1      33.171  35.290  30.583  1.00  0.00     0.188 C 
BRANCH  36  37
ATOM     37  O   UNL A   1      33.395  34.913  31.919  1.00  0.00    -0.376 OA
BRANCH  37  38
ATOM     38  C   UNL A   1      34.711  34.817  32.429  1.00  0.00     0.202 C 
BRANCH  38  39
ATOM     39  C   UNL A   1      35.149  33.926  33.607  1.00  0.00     0.261 C 
BRANCH  39  40
ATOM     40  O   UNL A   1      36.192  32.975  33.392  1.00  0.00    -0.460 OA
BRANCH  40  41
ATOM     41  C   UNL A   1      37.081  32.782  34.396  1.00  0.00     0.338 C 
ATOM     42  O   UNL A   1      36.828  32.566  35.563  1.00  0.00    -0.246 OA
BRANCH  41  43
ATOM     43  C   UNL A   1      38.416  32.649  33.759  1.00  0.00     0.060 A 
ATOM     44  C   UNL A   1      38.490  32.496  32.370  1.00  0.00     0.016 A 
ATOM     45  C   UNL A   1      39.584  32.730  34.523  1.00  0.00     0.016 A 
ATOM     46  C   UNL A   1      39.738  32.400  31.746  1.00  0.00     0.010 A 
ATOM     47  C   UNL A   1      40.829  32.625  33.898  1.00  0.00     0.010 A 
ATOM     48  C   UNL A   1      40.915  32.442  32.509  1.00  0.00    -0.014 A 
BRANCH  48  49
ATOM     49  C   UNL A   1      42.205  32.017  31.905  1.00  0.00     0.031 A 
ATOM     50  C   UNL A   1      43.006  33.068  31.195  1.00  0.00     0.074 A 
ATOM     51  C   UNL A   1      42.618  30.739  31.878  1.00  0.00     0.049 A 
ATOM     52  N   UNL A   1      44.033  32.944  30.395  1.00  0.00    -0.248 NA
ATOM     53  C   UNL A   1      42.494  34.440  31.319  1.00  0.00     0.031 C 
ATOM     54  C   UNL A   1      41.864  29.601  32.386  1.00  0.00     0.029 A 
ATOM     55  N   UNL A   1      43.767  30.184  31.370  1.00  0.00    -0.354 N 
ATOM     56  C   UNL A   1      44.243  34.210  29.863  1.00  0.00     0.074 A 
ATOM     57  C   UNL A   1      43.187  35.056  30.379  1.00  0.00     0.031 C 
ATOM     58  C   UNL A   1      42.576  28.479  32.187  1.00  0.00     0.029 A 
ATOM     59  C   UNL A   1      43.816  28.815  31.490  1.00  0.00     0.049 A 
ATOM     60  H   UNL A   1      44.486  30.715  30.958  1.00  0.00     0.167 HD
ATOM     61  C   UNL A   1      45.241  34.639  29.049  1.00  0.00     0.034 A 
ATOM     62  C   UNL A   1      44.745  27.935  31.064  1.00  0.00     0.034 A 
ATOM     63  C   UNL A   1      46.299  33.762  28.579  1.00  0.00     0.049 A 
ATOM     64  C   UNL A   1      45.969  28.458  30.359  1.00  0.00     0.074 A 
ATOM     65  C   UNL A   1      47.367  34.036  27.737  1.00  0.00     0.029 A 
ATOM     66  N   UNL A   1      46.472  32.441  28.990  1.00  0.00    -0.354 N 
ATOM     67  N   UNL A   1      46.250  29.687  29.999  1.00  0.00    -0.248 NA
ATOM     68  C   UNL A   1      47.020  27.484  30.027  1.00  0.00     0.031 C 
ATOM     69  C   UNL A   1      48.231  32.935  27.731  1.00  0.00     0.029 A 
ATOM     70  C   UNL A   1      47.673  31.937  28.509  1.00  0.00     0.049 A 
ATOM     71  H   UNL A   1      45.834  31.937  29.545  1.00  0.00     0.167 HD
ATOM     72  C   UNL A   1      47.507  29.636  29.409  1.00  0.00     0.074 A 
ATOM     73  C   UNL A   1      47.964  28.265  29.517  1.00  0.00     0.031 C 
ATOM     74  C   UNL A   1      48.190  30.617  28.769  1.00  0.00     0.034 A 
BRANCH  61  75
ATOM     75  C   UNL A   1      45.280  36.137  28.747  1.00  0.00     0.023 A 
ATOM     76  C   UNL A   1      44.677  36.627  27.560  1.00  0.00     0.012 A 
ATOM     77  C   UNL A   1      45.836  37.079  29.632  1.00  0.00     0.148 A 
ATOM     78  C   UNL A   1      44.701  37.979  27.218  1.00  0.00     0.002 A 
ATOM     79  C   UNL A   1      45.743  38.441  29.346  1.00  0.00     0.091 A 
ATOM     80  F   UNL A   1      46.449  36.640  30.740  1.00  0.00    -0.205 F 
ATOM     81  C   UNL A   1      45.210  38.891  28.128  1.00  0.00     0.022 A 
BRANCH  79  82
ATOM     82  S   UNL A   1      46.184  39.720  30.528  1.00  0.00     0.127 S 
ATOM     83  O   UNL A   1      45.563  40.902  29.933  1.00  0.00    -0.237 OA
ATOM     84  O   UNL A   1      45.532  39.235  31.745  1.00  0.00    -0.237 OA
ATOM     85  O   UNL A   1      47.638  39.740  30.577  1.00  0.00    -0.744 OA
ENDBRANCH  79  82
ENDBRANCH  61  75
BRANCH  62  86
ATOM     86  C   UNL A   1      44.559  26.476  31.311  1.00  0.00     0.023 A 
ATOM     87  C   UNL A   1      44.132  25.631  30.270  1.00  0.00     0.012 A 
ATOM     88  C   UNL A   1      44.835  25.916  32.574  1.00  0.00     0.148 A 
ATOM     89  C   UNL A   1      43.964  24.261  30.482  1.00  0.00     0.002 A 
ATOM     90  C   UNL A   1      44.729  24.544  32.762  1.00  0.00     0.091 A 
ATOM     91  F   UNL A   1      45.209  26.738  33.565  1.00  0.00    -0.205 F 
ATOM     92  C   UNL A   1      44.277  23.716  31.724  1.00  0.00     0.022 A 
BRANCH  90  93
ATOM     93  S   UNL A   1      45.244  23.742  34.285  1.00  0.00     0.127 S 
ATOM     94  O   UNL A   1      44.875  22.353  34.029  1.00  0.00    -0.237 OA
ATOM     95  O   UNL A   1      46.683  24.006  34.290  1.00  0.00    -0.237 OA
ATOM     96  O   UNL A   1      44.508  24.407  35.350  1.00  0.00    -0.744 OA
ENDBRANCH  90  93
ENDBRANCH  62  86
BRANCH  74  97
ATOM     97  C   UNL A   1      49.538  30.252  28.198  1.00  0.00     0.023 A 
ATOM     98  C   UNL A   1      49.600  29.626  26.936  1.00  0.00     0.012 A 
ATOM     99  C   UNL A   1      50.733  30.538  28.887  1.00  0.00     0.148 A 
ATOM    100  C   UNL A   1      50.825  29.257  26.383  1.00  0.00     0.002 A 
ATOM    101  C   UNL A   1      51.955  30.192  28.316  1.00  0.00     0.091 A 
ATOM    102  F   UNL A   1      50.653  31.126  30.089  1.00  0.00    -0.205 F 
ATOM    103  C   UNL A   1      52.002  29.543  27.070  1.00  0.00     0.022 A 
BRANCH 101 104
ATOM    104  S   UNL A   1      53.537  30.548  29.094  1.00  0.00     0.127 S 
ATOM    105  O   UNL A   1      53.619  32.002  28.950  1.00  0.00    -0.237 OA
ATOM    106  O   UNL A   1      53.319  30.084  30.463  1.00  0.00    -0.237 OA
ATOM    107  O   UNL A   1      54.533  29.797  28.342  1.00  0.00    -0.744 OA
ENDBRANCH 101 104
ENDBRANCH  74  97
ENDBRANCH  48  49
ENDBRANCH  41  43
ENDBRANCH  40  41
ENDBRANCH  39  40
ENDBRANCH  38  39
ENDBRANCH  37  38
ENDBRANCH  36  37
ENDBRANCH  35  36
ENDBRANCH  34  35
ENDBRANCH   1  34
TORSDOF 27
ENDMDL
MODEL 2
REMARK VINA RESULT:      -6.3      3.900     10.668
REMARK SMILES C[C@@H](C(=O)OCCOCCOCCOC(=O)c1ccc(-c2c3nc(c(-c4cccc(S(=O)(=O)[O-])c4F)c4ccc([nH]4)c(-c4cccc(S(=O)(=O)[O-])c4F)c4nc(c(-c5cccc(S(=O)(=O)[O-])c5F)c5ccc2[nH]5)C=C4)C=C3)cc1)c1ccc(-c2cccc(OC(=O)NCCC3CCCCC3)c2)c(F)c1
REMARK SMILES IDX 7 1 6 2 5 3 3 4 4 5 2 6 1 7 80 8 81 9 104 10 82 11 102 12
REMARK SMILES IDX 83 13 103 14 84 15 85 16 101 17 86 18 88 19 87 20 89 21
REMARK SMILES IDX 90 22 91 23 92 24 93 26 94 27 95 28 96 29 100 30 97 31 99 32
REMARK SMILES IDX 98 33 8 34 9 35 10 36 11 37 12 38 13 39 14 40 15 41 16 42
REMARK SMILES IDX 17 43 18 44 79 45 19 46 78 47 20 48 21 49 22 50 72 51 23 52
REMARK SMILES IDX 77 53 71 54 73 55 24 56 76 57 70 58 69 59 25 61 57 62 37 63
REMARK SMILES IDX 56 64 38 65 41 66 55 67 74 68 39 69 40 70 54 72 75 73 42 74
REMARK SMILES IDX 26 75 27 76 35 77 28 78 30 79 36 80 29 81 31 82 32 83 33 84
REMARK SMILES IDX 34 85 58 86 59 87 67 88 60 89 62 90 68 91 61 92 63 93 64 94
REMARK SMILES IDX 65 95 66 96 43 97 44 98 52 99 45 100 47 101 53 102 46 103
REMARK SMILES IDX 48 104 49 105 50 106 51 107
REMARK H PARENT 92 25 73 60 41 71
REMARK Flexibility Score: inf
ROOT
ATOM      1  C   UNL A   1      35.601  23.807  24.557  1.00  0.00     0.202 C 
ENDROOT
BRANCH   1   2
ATOM      2  C   UNL A   1      34.786  25.053  24.957  1.00  0.00     0.261 C 
BRANCH   2   3
ATOM      3  O   UNL A   1      34.015  25.661  23.895  1.00  0.00    -0.463 OA
BRANCH   3   4
ATOM      4  C   UNL A   1      33.651  26.964  24.081  1.00  0.00     0.313 C 
ATOM      5  O   UNL A   1      34.044  27.881  23.366  1.00  0.00    -0.252 OA
BRANCH   4   6
ATOM      6  C   UNL A   1      32.720  27.215  25.287  1.00  0.00     0.126 C 
ATOM      7  C   UNL A   1      31.207  27.212  25.038  1.00  0.00     0.025 C 
BRANCH   6   8
ATOM      8  C   UNL A   1      33.121  28.456  26.082  1.00  0.00    -0.031 A 
ATOM      9  C   UNL A   1      34.348  28.540  26.758  1.00  0.00     0.005 A 
ATOM     10  C   UNL A   1      32.257  29.545  26.189  1.00  0.00     0.044 A 
ATOM     11  C   UNL A   1      34.695  29.691  27.496  1.00  0.00     0.012 A 
ATOM     12  C   UNL A   1      32.610  30.675  26.917  1.00  0.00     0.131 A 
ATOM     13  C   UNL A   1      33.824  30.785  27.592  1.00  0.00     0.018 A 
ATOM     14  F   UNL A   1      31.727  31.673  26.957  1.00  0.00    -0.206 F 
BRANCH  13  15
ATOM     15  C   UNL A   1      34.141  31.998  28.365  1.00  0.00    -0.012 A 
ATOM     16  C   UNL A   1      33.716  33.263  27.930  1.00  0.00     0.009 A 
ATOM     17  C   UNL A   1      34.837  31.911  29.590  1.00  0.00     0.056 A 
ATOM     18  C   UNL A   1      33.976  34.406  28.691  1.00  0.00     0.004 A 
ATOM     19  C   UNL A   1      35.088  33.054  30.353  1.00  0.00     0.133 A 
ATOM     20  C   UNL A   1      34.662  34.304  29.902  1.00  0.00     0.047 A 
BRANCH  19  21
ATOM     21  O   UNL A   1      35.815  33.064  31.577  1.00  0.00    -0.410 OA
BRANCH  21  22
ATOM     22  C   UNL A   1      36.972  33.795  31.854  1.00  0.00     0.412 C 
ATOM     23  O   UNL A   1      37.025  34.838  32.502  1.00  0.00    -0.224 OA
ATOM     24  N   UNL A   1      38.125  33.229  31.375  1.00  0.00    -0.321 N 
ATOM     25  H   UNL A   1      38.956  33.727  31.552  1.00  0.00     0.167 HD
BRANCH  24  26
ATOM     26  C   UNL A   1      38.273  31.983  30.639  1.00  0.00     0.119 C 
BRANCH  26  27
ATOM     27  C   UNL A   1      39.725  31.705  30.236  1.00  0.00     0.025 C 
BRANCH  27  28
ATOM     28  C   UNL A   1      40.221  30.242  30.340  1.00  0.00    -0.009 C 
ATOM     29  C   UNL A   1      39.160  29.195  29.970  1.00  0.00     0.003 C 
ATOM     30  C   UNL A   1      41.432  30.057  29.413  1.00  0.00     0.003 C 
ATOM     31  C   UNL A   1      39.731  27.771  29.989  1.00  0.00     0.000 C 
ATOM     32  C   UNL A   1      42.002  28.648  29.443  1.00  0.00     0.000 C 
ATOM     33  C   UNL A   1      40.952  27.619  29.085  1.00  0.00     0.000 C 
ENDBRANCH  27  28
ENDBRANCH  26  27
ENDBRANCH  24  26
ENDBRANCH  21  22
ENDBRANCH  19  21
ENDBRANCH  13  15
ENDBRANCH   6   8
ENDBRANCH   4   6
ENDBRANCH   3   4
ENDBRANCH   2   3
ENDBRANCH   1   2
BRANCH   1  34
ATOM     34  O   UNL A   1      36.939  23.655  25.022  1.00  0.00    -0.376 OA
BRANCH  34  35
ATOM     35  C   UNL A   1      37.222  22.567  25.887  1.00  0.00     0.188 C 
BRANCH  35  36
ATOM     36  C   UNL A   1      38.550  21.823  25.679  1.00  0.00     0.188 C 
BRANCH  36  37
ATOM     37  O   UNL A   1      39.688  22.407  26.263  1.00  0.00    -0.376 OA
BRANCH  37  38
ATOM     38  C   UNL A   1      40.962  21.813  26.107  1.00  0.00     0.202 C 
BRANCH  38  39
ATOM     39  C   UNL A   1      42.296  22.577  25.998  1.00  0.00     0.261 C 
BRANCH  39  40
ATOM     40  O   UNL A   1      42.427  23.820  26.687  1.00  0.00    -0.460 OA
BRANCH  40  41
ATOM     41  C   UNL A   1      43.427  23.932  27.594  1.00  0.00     0.338 C 
ATOM     42  O   UNL A   1      43.861  23.055  28.313  1.00  0.00    -0.246 OA
BRANCH  41  43
ATOM     43  C   UNL A   1      44.051  25.262  27.376  1.00  0.00     0.060 A 
ATOM     44  C   UNL A   1      44.058  25.802  26.084  1.00  0.00     0.016 A 
ATOM     45  C   UNL A   1      44.575  25.990  28.448  1.00  0.00     0.016 A 
ATOM     46  C   UNL A   1      44.613  27.065  25.862  1.00  0.00     0.010 A 
ATOM     47  C   UNL A   1      45.136  27.250  28.221  1.00  0.00     0.010 A 
ATOM     48  C   UNL A   1      45.175  27.788  26.925  1.00  0.00    -0.014 A 
BRANCH  48  49
ATOM     49  C   UNL A   1      46.044  28.962  26.645  1.00  0.00     0.031 A 
ATOM     50  C   UNL A   1      47.508  28.699  26.457  1.00  0.00     0.074 A 
ATOM     51  C   UNL A   1      45.595  30.228  26.663  1.00  0.00     0.049 A 
ATOM     52  N   UNL A   1      48.515  29.533  26.429  1.00  0.00    -0.248 NA
ATOM     53  C   UNL A   1      47.892  27.281  26.411  1.00  0.00     0.031 C 
ATOM     54  C   UNL A   1      44.235  30.634  26.990  1.00  0.00     0.029 A 
ATOM     55  N   UNL A   1      46.253  31.410  26.427  1.00  0.00    -0.354 N 
ATOM     56  C   UNL A   1      49.654  28.738  26.438  1.00  0.00     0.074 A 
ATOM     57  C   UNL A   1      49.201  27.368  26.550  1.00  0.00     0.031 C 
ATOM     58  C   UNL A   1      44.146  31.973  26.915  1.00  0.00     0.029 A 
ATOM     59  C   UNL A   1      45.459  32.522  26.583  1.00  0.00     0.049 A 
ATOM     60  H   UNL A   1      47.202  31.457  26.172  1.00  0.00     0.167 HD
ATOM     61  C   UNL A   1      50.955  29.110  26.328  1.00  0.00     0.034 A 
ATOM     62  C   UNL A   1      45.766  33.833  26.491  1.00  0.00     0.034 A 
ATOM     63  C   UNL A   1      51.363  30.497  26.187  1.00  0.00     0.049 A 
ATOM     64  C   UNL A   1      47.177  34.224  26.138  1.00  0.00     0.074 A 
ATOM     65  C   UNL A   1      52.636  31.039  26.085  1.00  0.00     0.029 A 
ATOM     66  N   UNL A   1      50.484  31.569  26.038  1.00  0.00    -0.354 N 
ATOM     67  N   UNL A   1      48.229  33.457  25.981  1.00  0.00    -0.248 NA
ATOM     68  C   UNL A   1      47.443  35.653  25.917  1.00  0.00     0.031 C 
ATOM     69  C   UNL A   1      52.524  32.398  25.765  1.00  0.00     0.029 A 
ATOM     70  C   UNL A   1      51.183  32.731  25.739  1.00  0.00     0.049 A 
ATOM     71  H   UNL A   1      49.506  31.510  26.129  1.00  0.00     0.167 HD
ATOM     72  C   UNL A   1      49.274  34.306  25.637  1.00  0.00     0.074 A 
ATOM     73  C   UNL A   1      48.715  35.639  25.543  1.00  0.00     0.031 C 
ATOM     74  C   UNL A   1      50.590  34.020  25.484  1.00  0.00     0.034 A 
BRANCH  61  75
ATOM     75  C   UNL A   1      51.982  27.983  26.226  1.00  0.00     0.023 A 
ATOM     76  C   UNL A   1      52.153  27.301  24.994  1.00  0.00     0.012 A 
ATOM     77  C   UNL A   1      52.828  27.624  27.292  1.00  0.00     0.148 A 
ATOM     78  C   UNL A   1      53.056  26.248  24.846  1.00  0.00     0.002 A 
ATOM     79  C   UNL A   1      53.817  26.659  27.100  1.00  0.00     0.091 A 
ATOM     80  F   UNL A   1      52.660  28.223  28.478  1.00  0.00    -0.205 F 
ATOM     81  C   UNL A   1      53.911  25.947  25.894  1.00  0.00     0.022 A 
BRANCH  79  82
ATOM     82  S   UNL A   1      55.103  26.326  28.309  1.00  0.00     0.127 S 
ATOM     83  O   UNL A   1      55.834  27.592  28.323  1.00  0.00    -0.237 OA
ATOM     84  O   UNL A   1      54.316  26.061  29.513  1.00  0.00    -0.237 OA
ATOM     85  O   UNL A   1      55.848  25.183  27.799  1.00  0.00    -0.744 OA
ENDBRANCH  79  82
ENDBRANCH  61  75
BRANCH  62  86
ATOM     86  C   UNL A   1      44.712  34.863  26.719  1.00  0.00     0.023 A 
ATOM     87  C   UNL A   1      43.582  34.916  25.880  1.00  0.00     0.012 A 
ATOM     88  C   UNL A   1      44.812  35.775  27.787  1.00  0.00     0.148 A 
ATOM     89  C   UNL A   1      42.582  35.867  26.086  1.00  0.00     0.002 A 
ATOM     90  C   UNL A   1      43.783  36.677  28.027  1.00  0.00     0.091 A 
ATOM     91  F   UNL A   1      45.908  35.735  28.556  1.00  0.00    -0.205 F 
ATOM     92  C   UNL A   1      42.675  36.737  27.169  1.00  0.00     0.022 A 
BRANCH  90  93
ATOM     93  S   UNL A   1      43.756  37.737  29.477  1.00  0.00     0.127 S 
ATOM     94  O   UNL A   1      43.490  36.777  30.543  1.00  0.00    -0.237 OA
ATOM     95  O   UNL A   1      45.110  38.291  29.468  1.00  0.00    -0.237 OA
ATOM     96  O   UNL A   1      42.706  38.716  29.230  1.00  0.00    -0.744 OA
ENDBRANCH  90  93
ENDBRANCH  62  86
BRANCH  74  97
ATOM     97  C   UNL A   1      51.504  35.168  25.131  1.00  0.00     0.023 A 
ATOM     98  C   UNL A   1      51.974  35.285  23.807  1.00  0.00     0.012 A 
ATOM     99  C   UNL A   1      51.882  36.132  26.087  1.00  0.00     0.148 A 
ATOM    100  C   UNL A   1      52.835  36.321  23.445  1.00  0.00     0.002 A 
ATOM    101  C   UNL A   1      52.720  37.180  25.711  1.00  0.00     0.091 A 
ATOM    102  F   UNL A   1      51.432  35.998  27.342  1.00  0.00    -0.205 F 
ATOM    103  C   UNL A   1      53.204  37.269  24.395  1.00  0.00     0.022 A 
BRANCH 101 104
ATOM    104  S   UNL A   1      53.228  38.481  26.843  1.00  0.00     0.127 S 
ATOM    105  O   UNL A   1      54.000  37.730  27.833  1.00  0.00    -0.237 OA
ATOM    106  O   UNL A   1      54.027  39.348  25.978  1.00  0.00    -0.237 OA
ATOM    107  O   UNL A   1      51.999  39.080  27.346  1.00  0.00    -0.744 OA
ENDBRANCH 101 104
ENDBRANCH  74  97
ENDBRANCH  48  49
ENDBRANCH  41  43
ENDBRANCH  40  41
ENDBRANCH  39  40
ENDBRANCH  38  39
ENDBRANCH  37  38
ENDBRANCH  36  37
ENDBRANCH  35  36
ENDBRANCH  34  35
ENDBRANCH   1  34
TORSDOF 27
ENDMDL
MODEL 3
REMARK VINA RESULT:      -6.0      4.339      9.719
REMARK SMILES C[C@@H](C(=O)OCCOCCOCCOC(=O)c1ccc(-c2c3nc(c(-c4cccc(S(=O)(=O)[O-])c4F)c4ccc([nH]4)c(-c4cccc(S(=O)(=O)[O-])c4F)c4nc(c(-c5cccc(S(=O)(=O)[O-])c5F)c5ccc2[nH]5)C=C4)C=C3)cc1)c1ccc(-c2cccc(OC(=O)NCCC3CCCCC3)c2)c(F)c1
REMARK SMILES IDX 7 1 6 2 5 3 3 4 4 5 2 6 1 7 80 8 81 9 104 10 82 11 102 12
REMARK SMILES IDX 83 13 103 14 84 15 85 16 101 17 86 18 88 19 87 20 89 21
REMARK SMILES IDX 90 22 91 23 92 24 93 26 94 27 95 28 96 29 100 30 97 31 99 32
REMARK SMILES IDX 98 33 8 34 9 35 10 36 11 37 12 38 13 39 14 40 15 41 16 42
REMARK SMILES IDX 17 43 18 44 79 45 19 46 78 47 20 48 21 49 22 50 72 51 23 52
REMARK SMILES IDX 77 53 71 54 73 55 24 56 76 57 70 58 69 59 25 61 57 62 37 63
REMARK SMILES IDX 56 64 38 65 41 66 55 67 74 68 39 69 40 70 54 72 75 73 42 74
REMARK SMILES IDX 26 75 27 76 35 77 28 78 30 79 36 80 29 81 31 82 32 83 33 84
REMARK SMILES IDX 34 85 58 86 59 87 67 88 60 89 62 90 68 91 61 92 63 93 64 94
REMARK SMILES IDX 65 95 66 96 43 97 44 98 52 99 45 100 47 101 53 102 46 103
REMARK SMILES IDX 48 104 49 105 50 106 51 107
REMARK H PARENT 92 25 73 60 41 71
REMARK Flexibility Score: inf
ROOT
ATOM      1  C   UNL A   1      30.923  25.381  24.841  1.00  0.00     0.202 C 
ENDROOT
BRANCH   1   2
ATOM      2  C   UNL A   1      31.536  26.670  25.425  1.00  0.00     0.261 C 
BRANCH   2   3
ATOM      3  O   UNL A   1      32.232  27.514  24.477  1.00  0.00    -0.463 OA
BRANCH   3   4
ATOM      4  C   UNL A   1      32.998  28.512  25.006  1.00  0.00     0.313 C 
ATOM      5  O   UNL A   1      34.189  28.657  24.745  1.00  0.00    -0.252 OA
BRANCH   4   6
ATOM      6  C   UNL A   1      32.262  29.446  25.992  1.00  0.00     0.126 C 
ATOM      7  C   UNL A   1      31.202  30.397  25.425  1.00  0.00     0.025 C 
BRANCH   6   8
ATOM      8  C   UNL A   1      33.226  30.212  26.897  1.00  0.00    -0.031 A 
ATOM      9  C   UNL A   1      34.329  29.590  27.501  1.00  0.00     0.005 A 
ATOM     10  C   UNL A   1      33.021  31.562  27.178  1.00  0.00     0.044 A 
ATOM     11  C   UNL A   1      35.202  30.312  28.343  1.00  0.00     0.012 A 
ATOM     12  C   UNL A   1      33.889  32.264  28.006  1.00  0.00     0.131 A 
ATOM     13  C   UNL A   1      34.993  31.671  28.614  1.00  0.00     0.018 A 
ATOM     14  F   UNL A   1      33.622  33.554  28.211  1.00  0.00    -0.206 F 
BRANCH  13  15
ATOM     15  C   UNL A   1      35.870  32.457  29.499  1.00  0.00    -0.012 A 
ATOM     16  C   UNL A   1      35.355  33.112  30.628  1.00  0.00     0.009 A 
ATOM     17  C   UNL A   1      37.260  32.527  29.259  1.00  0.00     0.056 A 
ATOM     18  C   UNL A   1      36.198  33.816  31.493  1.00  0.00     0.004 A 
ATOM     19  C   UNL A   1      38.100  33.225  30.129  1.00  0.00     0.133 A 
ATOM     20  C   UNL A   1      37.571  33.874  31.245  1.00  0.00     0.047 A 
BRANCH  19  21
ATOM     21  O   UNL A   1      39.504  33.381  29.945  1.00  0.00    -0.410 OA
BRANCH  21  22
ATOM     22  C   UNL A   1      40.204  34.586  29.856  1.00  0.00     0.412 C 
ATOM     23  O   UNL A   1      40.230  35.330  28.879  1.00  0.00    -0.224 OA
ATOM     24  N   UNL A   1      40.865  34.940  31.004  1.00  0.00    -0.321 N 
ATOM     25  H   UNL A   1      41.371  35.784  30.967  1.00  0.00     0.167 HD
BRANCH  24  26
ATOM     26  C   UNL A   1      40.909  34.225  32.270  1.00  0.00     0.119 C 
BRANCH  26  27
ATOM     27  C   UNL A   1      41.781  34.930  33.314  1.00  0.00     0.025 C 
BRANCH  27  28
ATOM     28  C   UNL A   1      43.300  34.631  33.284  1.00  0.00    -0.009 C 
ATOM     29  C   UNL A   1      44.185  35.883  33.381  1.00  0.00     0.003 C 
ATOM     30  C   UNL A   1      43.650  33.696  34.452  1.00  0.00     0.003 C 
ATOM     31  C   UNL A   1      45.676  35.525  33.451  1.00  0.00     0.000 C 
ATOM     32  C   UNL A   1      45.125  33.334  34.511  1.00  0.00     0.000 C 
ATOM     33  C   UNL A   1      45.994  34.570  34.599  1.00  0.00     0.000 C 
ENDBRANCH  27  28
ENDBRANCH  26  27
ENDBRANCH  24  26
ENDBRANCH  21  22
ENDBRANCH  19  21
ENDBRANCH  13  15
ENDBRANCH   6   8
ENDBRANCH   4   6
ENDBRANCH   3   4
ENDBRANCH   2   3
ENDBRANCH   1   2
BRANCH   1  34
ATOM     34  O   UNL A   1      31.716  24.203  24.737  1.00  0.00    -0.376 OA
BRANCH  34  35
ATOM     35  C   UNL A   1      33.025  24.326  24.206  1.00  0.00     0.188 C 
BRANCH  35  36
ATOM     36  C   UNL A   1      33.388  23.448  23.000  1.00  0.00     0.188 C 
BRANCH  36  37
ATOM     37  O   UNL A   1      33.929  22.183  23.291  1.00  0.00    -0.376 OA
BRANCH  37  38
ATOM     38  C   UNL A   1      34.418  21.890  24.586  1.00  0.00     0.202 C 
BRANCH  38  39
ATOM     39  C   UNL A   1      35.780  21.239  24.898  1.00  0.00     0.261 C 
BRANCH  39  40
ATOM     40  O   UNL A   1      36.767  22.016  25.575  1.00  0.00    -0.460 OA
BRANCH  40  41
ATOM     41  C   UNL A   1      38.028  21.522  25.625  1.00  0.00     0.338 C 
ATOM     42  O   UNL A   1      38.440  20.518  25.082  1.00  0.00    -0.246 OA
BRANCH  41  43
ATOM     43  C   UNL A   1      38.866  22.564  26.271  1.00  0.00     0.060 A 
ATOM     44  C   UNL A   1      38.507  23.909  26.122  1.00  0.00     0.016 A 
ATOM     45  C   UNL A   1      39.964  22.211  27.061  1.00  0.00     0.016 A 
ATOM     46  C   UNL A   1      39.264  24.904  26.747  1.00  0.00     0.010 A 
ATOM     47  C   UNL A   1      40.724  23.209  27.677  1.00  0.00     0.010 A 
ATOM     48  C   UNL A   1      40.390  24.562  27.510  1.00  0.00    -0.014 A 
BRANCH  48  49
ATOM     49  C   UNL A   1      41.371  25.611  27.896  1.00  0.00     0.031 A 
ATOM     50  C   UNL A   1      40.912  26.648  28.876  1.00  0.00     0.074 A 
ATOM     51  C   UNL A   1      42.585  25.723  27.333  1.00  0.00     0.049 A 
ATOM     52  N   UNL A   1      41.459  27.788  29.213  1.00  0.00    -0.248 NA
ATOM     53  C   UNL A   1      39.587  26.413  29.468  1.00  0.00     0.031 C 
ATOM     54  C   UNL A   1      43.094  24.883  26.257  1.00  0.00     0.029 A 
ATOM     55  N   UNL A   1      43.599  26.618  27.571  1.00  0.00    -0.354 N 
ATOM     56  C   UNL A   1      40.513  28.436  29.996  1.00  0.00     0.074 A 
ATOM     57  C   UNL A   1      39.339  27.590  30.012  1.00  0.00     0.031 C 
ATOM     58  C   UNL A   1      44.336  25.283  25.938  1.00  0.00     0.029 A 
ATOM     59  C   UNL A   1      44.691  26.443  26.754  1.00  0.00     0.049 A 
ATOM     60  H   UNL A   1      43.549  27.319  28.261  1.00  0.00     0.167 HD
ATOM     61  C   UNL A   1      40.622  29.610  30.668  1.00  0.00     0.034 A 
ATOM     62  C   UNL A   1      45.833  27.154  26.660  1.00  0.00     0.034 A 
ATOM     63  C   UNL A   1      41.832  30.414  30.648  1.00  0.00     0.049 A 
ATOM     64  C   UNL A   1      46.035  28.327  27.584  1.00  0.00     0.074 A 
ATOM     65  C   UNL A   1      42.094  31.633  31.257  1.00  0.00     0.029 A 
ATOM     66  N   UNL A   1      43.028  30.027  30.046  1.00  0.00    -0.354 N 
ATOM     67  N   UNL A   1      45.198  28.846  28.450  1.00  0.00    -0.248 NA
ATOM     68  C   UNL A   1      47.344  28.996  27.545  1.00  0.00     0.031 C 
ATOM     69  C   UNL A   1      43.458  31.921  31.121  1.00  0.00     0.029 A 
ATOM     70  C   UNL A   1      44.042  30.923  30.363  1.00  0.00     0.049 A 
ATOM     71  H   UNL A   1      43.140  29.231  29.479  1.00  0.00     0.167 HD
ATOM     72  C   UNL A   1      45.879  29.891  29.062  1.00  0.00     0.074 A 
ATOM     73  C   UNL A   1      47.221  29.892  28.515  1.00  0.00     0.031 C 
ATOM     74  C   UNL A   1      45.416  30.813  29.941  1.00  0.00     0.034 A 
BRANCH  61  75
ATOM     75  C   UNL A   1      39.447  29.996  31.567  1.00  0.00     0.023 A 
ATOM     76  C   UNL A   1      38.122  29.708  31.147  1.00  0.00     0.012 A 
ATOM     77  C   UNL A   1      39.617  30.571  32.839  1.00  0.00     0.148 A 
ATOM     78  C   UNL A   1      37.008  30.057  31.911  1.00  0.00     0.002 A 
ATOM     79  C   UNL A   1      38.507  30.799  33.652  1.00  0.00     0.091 A 
ATOM     80  F   UNL A   1      40.853  30.891  33.242  1.00  0.00    -0.205 F 
ATOM     81  C   UNL A   1      37.203  30.576  33.180  1.00  0.00     0.022 A 
BRANCH  79  82
ATOM     82  S   UNL A   1      38.643  31.280  35.378  1.00  0.00     0.127 S 
ATOM     83  O   UNL A   1      37.368  31.962  35.599  1.00  0.00    -0.237 OA
ATOM     84  O   UNL A   1      38.763  29.981  36.039  1.00  0.00    -0.237 OA
ATOM     85  O   UNL A   1      39.823  32.127  35.468  1.00  0.00    -0.744 OA
ENDBRANCH  79  82
ENDBRANCH  61  75
BRANCH  62  86
ATOM     86  C   UNL A   1      46.877  26.762  25.670  1.00  0.00     0.023 A 
ATOM     87  C   UNL A   1      47.671  25.621  25.893  1.00  0.00     0.012 A 
ATOM     88  C   UNL A   1      47.066  27.503  24.488  1.00  0.00     0.148 A 
ATOM     89  C   UNL A   1      48.644  25.234  24.971  1.00  0.00     0.002 A 
ATOM     90  C   UNL A   1      47.990  27.077  23.542  1.00  0.00     0.091 A 
ATOM     91  F   UNL A   1      46.326  28.606  24.304  1.00  0.00    -0.205 F 
ATOM     92  C   UNL A   1      48.793  25.954  23.788  1.00  0.00     0.022 A 
BRANCH  90  93
ATOM     93  S   UNL A   1      48.150  27.862  21.935  1.00  0.00     0.127 S 
ATOM     94  O   UNL A   1      46.941  28.679  21.881  1.00  0.00    -0.237 OA
ATOM     95  O   UNL A   1      49.395  28.614  22.090  1.00  0.00    -0.237 OA
ATOM     96  O   UNL A   1      48.222  26.775  20.970  1.00  0.00    -0.744 OA
ENDBRANCH  90  93
ENDBRANCH  62  86
BRANCH  74  97
ATOM     97  C   UNL A   1      46.394  31.859  30.417  1.00  0.00     0.023 A 
ATOM     98  C   UNL A   1      47.077  31.652  31.633  1.00  0.00     0.012 A 
ATOM     99  C   UNL A   1      46.653  33.023  29.667  1.00  0.00     0.148 A 
ATOM    100  C   UNL A   1      47.975  32.604  32.117  1.00  0.00     0.002 A 
ATOM    101  C   UNL A   1      47.572  33.956  30.143  1.00  0.00     0.091 A 
ATOM    102  F   UNL A   1      45.987  33.205  28.519  1.00  0.00    -0.205 F 
ATOM    103  C   UNL A   1      48.225  33.752  31.370  1.00  0.00     0.022 A 
BRANCH 101 104
ATOM    104  S   UNL A   1      48.002  35.453  29.244  1.00  0.00     0.127 S 
ATOM    105  O   UNL A   1      48.926  34.938  28.233  1.00  0.00    -0.237 OA
ATOM    106  O   UNL A   1      46.706  35.883  28.723  1.00  0.00    -0.237 OA
ATOM    107  O   UNL A   1      48.599  36.352  30.223  1.00  0.00    -0.744 OA
ENDBRANCH 101 104
ENDBRANCH  74  97
ENDBRANCH  48  49
ENDBRANCH  41  43
ENDBRANCH  40  41
ENDBRANCH  39  40
ENDBRANCH  38  39
ENDBRANCH  37  38
ENDBRANCH  36  37
ENDBRANCH  35  36
ENDBRANCH  34  35
ENDBRANCH   1  34
TORSDOF 27
ENDMDL
