MODEL 1
REMARK VINA RESULT:     -12.9      0.000      0.000
REMARK SMILES Cc1c(C(=O)OCCOCCOCCOC(=O)c2ccc(-c3c4nc(c(-c5cccc(S(=O)(=O)[O-])c5F)c5ccc([nH]5)c(-c5cccc(S(=O)(=O)[O-])c5F)c5nc(c(-c6cccc(S(=O)(=O)[O-])c6F)c6ccc3[nH]6)C=C5)C=C4)cc2)cccc1-n1c(C)cc(/C=C2/C(=O)NC(=S)N=C2O)c1C
REMARK SMILES IDX 10 1 9 2 8 3 7 4 6 5 4 6 5 7 3 8 1 9 2 10 84 11 81 12 83 13
REMARK SMILES IDX 82 14 85 15 86 16 100 17 87 18 88 19 89 20 101 21 90 22
REMARK SMILES IDX 91 23 92 24 98 25 93 26 94 27 97 28 95 29 96 31 99 32 11 34
REMARK SMILES IDX 12 35 13 36 14 37 15 38 16 39 17 40 18 41 19 42 80 43 20 44
REMARK SMILES IDX 79 45 21 46 22 47 23 48 73 49 24 50 78 51 72 52 74 53 25 54
REMARK SMILES IDX 77 55 71 56 70 57 26 59 58 60 38 61 57 62 39 63 42 64 56 65
REMARK SMILES IDX 75 66 40 67 41 68 55 70 76 71 43 72 27 73 28 74 36 75 29 76
REMARK SMILES IDX 31 77 37 78 30 79 32 80 33 81 34 82 35 83 59 84 60 85 68 86
REMARK SMILES IDX 61 87 63 88 69 89 62 90 64 91 65 92 66 93 67 94 44 95 45 96
REMARK SMILES IDX 53 97 46 98 48 99 54 100 47 101 49 102 50 103 51 104 52 105
REMARK H PARENT 94 30 99 33 74 58 42 69
REMARK Flexibility Score: inf
ROOT
ATOM      1  C   UNL A   1      33.900  34.718  28.383  1.00  0.00     0.188 C 
ENDROOT
BRANCH   1   2
ATOM      2  O   UNL A   1      33.317  33.476  27.937  1.00  0.00    -0.376 OA
BRANCH   2   3
ATOM      3  C   UNL A   1      32.132  33.375  27.121  1.00  0.00     0.202 C 
BRANCH   3   4
ATOM      4  C   UNL A   1      31.460  31.961  26.640  1.00  0.00     0.261 C 
BRANCH   4   5
ATOM      5  O   UNL A   1      32.181  30.398  26.271  1.00  0.00    -0.460 OA
BRANCH   5   6
ATOM      6  C   UNL A   1      31.865  28.988  26.274  1.00  0.00     0.338 C 
ATOM      7  O   UNL A   1      31.727  28.201  27.208  1.00  0.00    -0.246 OA
BRANCH   6   8
ATOM      8  C   UNL A   1      31.579  28.147  25.109  1.00  0.00     0.065 A 
ATOM      9  C   UNL A   1      33.957  27.480  25.249  1.00  0.00     0.047 C 
ATOM     10  C   UNL A   1      32.539  27.203  24.839  1.00  0.00    -0.012 A 
ATOM     11  C   UNL A   1      32.074  25.994  24.290  1.00  0.00     0.049 A 
ATOM     12  C   UNL A   1      30.199  27.865  24.808  1.00  0.00     0.016 A 
ATOM     13  C   UNL A   1      30.738  25.706  23.968  1.00  0.00     0.027 A 
ATOM     14  C   UNL A   1      29.782  26.664  24.229  1.00  0.00     0.003 A 
BRANCH  11  15
ATOM     15  N   UNL A   1      33.030  25.069  23.893  1.00  0.00    -0.318 N 
ATOM     16  C   UNL A   1      33.314  24.721  22.592  1.00  0.00     0.020 A 
ATOM     17  C   UNL A   1      33.499  24.110  24.773  1.00  0.00     0.027 A 
ATOM     18  C   UNL A   1      32.725  25.436  21.415  1.00  0.00     0.065 C 
ATOM     19  C   UNL A   1      34.124  23.606  22.655  1.00  0.00     0.031 A 
ATOM     20  C   UNL A   1      34.274  23.248  24.024  1.00  0.00    -0.003 A 
ATOM     21  C   UNL A   1      33.068  24.139  26.212  1.00  0.00     0.065 C 
BRANCH  20  22
ATOM     22  C   UNL A   1      34.930  22.077  24.491  1.00  0.00     0.029 C 
ATOM     23  C   UNL A   1      34.445  20.836  24.662  1.00  0.00     0.102 C 
ATOM     24  C   UNL A   1      35.451  19.782  24.913  1.00  0.00     0.262 C 
ATOM     25  C   UNL A   1      33.080  20.328  24.493  1.00  0.00     0.226 C 
ATOM     26  O   UNL A   1      36.589  19.979  25.318  1.00  0.00    -0.269 OA
ATOM     27  N   UNL A   1      35.009  18.524  24.600  1.00  0.00    -0.297 N 
ATOM     28  N   UNL A   1      32.741  19.109  24.271  1.00  0.00    -0.184 NA
ATOM     29  C   UNL A   1      33.737  18.172  24.220  1.00  0.00     0.203 C 
ATOM     30  H   UNL A   1      35.671  17.797  24.655  1.00  0.00     0.172 HD
ATOM     31  S   UNL A   1      33.478  16.573  23.783  1.00  0.00    -0.038 S 
BRANCH  25  32
ATOM     32  O   UNL A   1      32.091  21.212  24.647  1.00  0.00    -0.493 OA
ATOM     33  H   UNL A   1      32.287  22.125  24.725  1.00  0.00     0.295 HD
ENDBRANCH  25  32
ENDBRANCH  20  22
ENDBRANCH  11  15
ENDBRANCH   6   8
ENDBRANCH   5   6
ENDBRANCH   4   5
ENDBRANCH   3   4
ENDBRANCH   2   3
ENDBRANCH   1   2
BRANCH   1  34
ATOM     34  C   UNL A   1      33.073  35.832  29.033  1.00  0.00     0.188 C 
BRANCH  34  35
ATOM     35  O   UNL A   1      33.400  35.940  30.398  1.00  0.00    -0.376 OA
BRANCH  35  36
ATOM     36  C   UNL A   1      33.533  34.744  31.132  1.00  0.00     0.202 C 
BRANCH  36  37
ATOM     37  C   UNL A   1      34.972  34.517  31.616  1.00  0.00     0.261 C 
BRANCH  37  38
ATOM     38  O   UNL A   1      35.622  33.478  30.849  1.00  0.00    -0.460 OA
BRANCH  38  39
ATOM     39  C   UNL A   1      35.411  32.178  31.262  1.00  0.00     0.338 C 
ATOM     40  O   UNL A   1      34.825  31.888  32.294  1.00  0.00    -0.246 OA
BRANCH  39  41
ATOM     41  C   UNL A   1      36.231  31.236  30.422  1.00  0.00     0.060 A 
ATOM     42  C   UNL A   1      36.500  29.882  30.674  1.00  0.00     0.016 A 
ATOM     43  C   UNL A   1      37.073  31.833  29.558  1.00  0.00     0.016 A 
ATOM     44  C   UNL A   1      37.732  29.217  30.219  1.00  0.00     0.010 A 
ATOM     45  C   UNL A   1      38.326  31.241  29.429  1.00  0.00     0.010 A 
ATOM     46  C   UNL A   1      38.806  29.905  29.638  1.00  0.00    -0.014 A 
BRANCH  46  47
ATOM     47  C   UNL A   1      40.402  29.275  29.367  1.00  0.00     0.031 A 
ATOM     48  C   UNL A   1      41.035  27.779  28.660  1.00  0.00     0.074 A 
ATOM     49  C   UNL A   1      41.418  29.927  29.972  1.00  0.00     0.049 A 
ATOM     50  N   UNL A   1      41.883  26.968  29.271  1.00  0.00    -0.248 NA
ATOM     51  C   UNL A   1      40.620  27.051  27.384  1.00  0.00     0.031 C 
ATOM     52  C   UNL A   1      42.845  29.617  29.900  1.00  0.00     0.029 A 
ATOM     53  N   UNL A   1      41.338  30.920  30.951  1.00  0.00    -0.354 N 
ATOM     54  C   UNL A   1      42.002  25.779  28.513  1.00  0.00     0.074 A 
ATOM     55  C   UNL A   1      41.068  25.821  27.467  1.00  0.00     0.031 C 
ATOM     56  C   UNL A   1      43.438  30.122  30.992  1.00  0.00     0.029 A 
ATOM     57  C   UNL A   1      42.390  30.659  31.842  1.00  0.00     0.049 A 
ATOM     58  H   UNL A   1      40.681  31.651  31.004  1.00  0.00     0.167 HD
ATOM     59  C   UNL A   1      43.000  24.863  28.582  1.00  0.00     0.034 A 
ATOM     60  C   UNL A   1      42.151  30.359  33.149  1.00  0.00     0.034 A 
ATOM     61  C   UNL A   1      43.989  25.336  29.502  1.00  0.00     0.049 A 
ATOM     62  C   UNL A   1      42.814  29.075  33.619  1.00  0.00     0.074 A 
ATOM     63  C   UNL A   1      45.075  26.182  29.371  1.00  0.00     0.029 A 
ATOM     64  N   UNL A   1      43.654  25.320  30.833  1.00  0.00    -0.354 N 
ATOM     65  N   UNL A   1      43.519  28.269  32.868  1.00  0.00    -0.248 NA
ATOM     66  C   UNL A   1      42.676  28.570  34.983  1.00  0.00     0.031 C 
ATOM     67  C   UNL A   1      45.410  26.657  30.670  1.00  0.00     0.029 A 
ATOM     68  C   UNL A   1      44.556  26.053  31.573  1.00  0.00     0.049 A 
ATOM     69  H   UNL A   1      42.874  24.850  31.208  1.00  0.00     0.167 HD
ATOM     70  C   UNL A   1      43.804  27.119  33.569  1.00  0.00     0.074 A 
ATOM     71  C   UNL A   1      43.276  27.372  34.897  1.00  0.00     0.031 C 
ATOM     72  C   UNL A   1      44.387  26.015  33.006  1.00  0.00     0.034 A 
BRANCH  59  73
ATOM     73  C   UNL A   1      43.180  23.846  27.451  1.00  0.00     0.023 A 
ATOM     74  C   UNL A   1      43.528  24.350  26.185  1.00  0.00     0.012 A 
ATOM     75  C   UNL A   1      42.829  22.465  27.513  1.00  0.00     0.148 A 
ATOM     76  C   UNL A   1      43.417  23.576  25.024  1.00  0.00     0.002 A 
ATOM     77  C   UNL A   1      42.631  21.718  26.341  1.00  0.00     0.091 A 
ATOM     78  F   UNL A   1      42.608  21.898  28.711  1.00  0.00    -0.205 F 
ATOM     79  C   UNL A   1      42.928  22.278  25.093  1.00  0.00     0.022 A 
BRANCH  77  80
ATOM     80  S   UNL A   1      41.763  20.128  26.327  1.00  0.00     0.127 S 
ATOM     81  O   UNL A   1      42.241  19.491  27.559  1.00  0.00    -0.237 OA
ATOM     82  O   UNL A   1      40.358  20.522  26.363  1.00  0.00    -0.237 OA
ATOM     83  O   UNL A   1      42.214  19.451  25.116  1.00  0.00    -0.744 OA
ENDBRANCH  77  80
ENDBRANCH  59  73
BRANCH  60  84
ATOM     84  C   UNL A   1      40.910  30.994  33.723  1.00  0.00     0.023 A 
ATOM     85  C   UNL A   1      39.656  30.508  33.256  1.00  0.00     0.012 A 
ATOM     86  C   UNL A   1      40.901  31.850  34.840  1.00  0.00     0.148 A 
ATOM     87  C   UNL A   1      38.462  30.766  33.934  1.00  0.00     0.002 A 
ATOM     88  C   UNL A   1      39.694  32.138  35.492  1.00  0.00     0.091 A 
ATOM     89  F   UNL A   1      42.066  32.285  35.332  1.00  0.00    -0.205 F 
ATOM     90  C   UNL A   1      38.482  31.579  35.057  1.00  0.00     0.022 A 
BRANCH  88  91
ATOM     91  S   UNL A   1      39.626  33.183  36.957  1.00  0.00     0.127 S 
ATOM     92  O   UNL A   1      38.183  33.314  37.172  1.00  0.00    -0.237 OA
ATOM     93  O   UNL A   1      40.314  32.366  37.952  1.00  0.00    -0.237 OA
ATOM     94  O   UNL A   1      40.285  34.420  36.564  1.00  0.00    -0.744 OA
ENDBRANCH  88  91
ENDBRANCH  60  84
BRANCH  72  95
ATOM     95  C   UNL A   1      44.749  24.725  33.732  1.00  0.00     0.023 A 
ATOM     96  C   UNL A   1      43.761  23.785  34.067  1.00  0.00     0.012 A 
ATOM     97  C   UNL A   1      46.067  24.443  34.197  1.00  0.00     0.148 A 
ATOM     98  C   UNL A   1      44.080  22.575  34.697  1.00  0.00     0.002 A 
ATOM     99  C   UNL A   1      46.383  23.246  34.828  1.00  0.00     0.091 A 
ATOM    100  F   UNL A   1      47.037  25.357  34.099  1.00  0.00    -0.205 F 
ATOM    101  C   UNL A   1      45.393  22.293  35.054  1.00  0.00     0.022 A 
BRANCH  99 102
ATOM    102  S   UNL A   1      48.058  22.878  35.381  1.00  0.00     0.127 S 
ATOM    103  O   UNL A   1      47.915  21.503  35.861  1.00  0.00    -0.237 OA
ATOM    104  O   UNL A   1      48.826  23.012  34.142  1.00  0.00    -0.237 OA
ATOM    105  O   UNL A   1      48.377  23.872  36.393  1.00  0.00    -0.744 OA
ENDBRANCH  99 102
ENDBRANCH  72  95
ENDBRANCH  46  47
ENDBRANCH  39  41
ENDBRANCH  38  39
ENDBRANCH  37  38
ENDBRANCH  36  37
ENDBRANCH  35  36
ENDBRANCH  34  35
ENDBRANCH   1  34
TORSDOF 23
ENDMDL
MODEL 2
REMARK VINA RESULT:     -12.7      1.722      2.118
REMARK SMILES Cc1c(C(=O)OCCOCCOCCOC(=O)c2ccc(-c3c4nc(c(-c5cccc(S(=O)(=O)[O-])c5F)c5ccc([nH]5)c(-c5cccc(S(=O)(=O)[O-])c5F)c5nc(c(-c6cccc(S(=O)(=O)[O-])c6F)c6ccc3[nH]6)C=C5)C=C4)cc2)cccc1-n1c(C)cc(/C=C2/C(=O)NC(=S)N=C2O)c1C
REMARK SMILES IDX 10 1 9 2 8 3 7 4 6 5 4 6 5 7 3 8 1 9 2 10 84 11 81 12 83 13
REMARK SMILES IDX 82 14 85 15 86 16 100 17 87 18 88 19 89 20 101 21 90 22
REMARK SMILES IDX 91 23 92 24 98 25 93 26 94 27 97 28 95 29 96 31 99 32 11 34
REMARK SMILES IDX 12 35 13 36 14 37 15 38 16 39 17 40 18 41 19 42 80 43 20 44
REMARK SMILES IDX 79 45 21 46 22 47 23 48 73 49 24 50 78 51 72 52 74 53 25 54
REMARK SMILES IDX 77 55 71 56 70 57 26 59 58 60 38 61 57 62 39 63 42 64 56 65
REMARK SMILES IDX 75 66 40 67 41 68 55 70 76 71 43 72 27 73 28 74 36 75 29 76
REMARK SMILES IDX 31 77 37 78 30 79 32 80 33 81 34 82 35 83 59 84 60 85 68 86
REMARK SMILES IDX 61 87 63 88 69 89 62 90 64 91 65 92 66 93 67 94 44 95 45 96
REMARK SMILES IDX 53 97 46 98 48 99 54 100 47 101 49 102 50 103 51 104 52 105
REMARK H PARENT 94 30 99 33 74 58 42 69
REMARK Flexibility Score: inf
ROOT
ATOM      1  C   UNL A   1      33.901  34.852  28.570  1.00  0.00     0.188 C 
ENDROOT
BRANCH   1   2
ATOM      2  O   UNL A   1      33.316  33.646  28.036  1.00  0.00    -0.376 OA
BRANCH   2   3
ATOM      3  C   UNL A   1      32.130  33.606  27.215  1.00  0.00     0.202 C 
BRANCH   3   4
ATOM      4  C   UNL A   1      31.438  32.230  26.658  1.00  0.00     0.261 C 
BRANCH   4   5
ATOM      5  O   UNL A   1      32.122  30.646  26.307  1.00  0.00    -0.460 OA
BRANCH   5   6
ATOM      6  C   UNL A   1      31.750  29.251  26.253  1.00  0.00     0.338 C 
ATOM      7  O   UNL A   1      31.494  28.455  27.154  1.00  0.00    -0.246 OA
BRANCH   6   8
ATOM      8  C   UNL A   1      31.539  28.441  25.050  1.00  0.00     0.065 A 
ATOM      9  C   UNL A   1      33.895  27.745  25.340  1.00  0.00     0.047 C 
ATOM     10  C   UNL A   1      32.507  27.494  24.824  1.00  0.00    -0.012 A 
ATOM     11  C   UNL A   1      32.071  26.303  24.214  1.00  0.00     0.049 A 
ATOM     12  C   UNL A   1      30.181  28.182  24.646  1.00  0.00     0.016 A 
ATOM     13  C   UNL A   1      30.759  26.038  23.792  1.00  0.00     0.027 A 
ATOM     14  C   UNL A   1      29.795  26.999  24.010  1.00  0.00     0.003 A 
BRANCH  11  15
ATOM     15  N   UNL A   1      33.044  25.378  23.863  1.00  0.00    -0.318 N 
ATOM     16  C   UNL A   1      33.406  25.049  22.576  1.00  0.00     0.020 A 
ATOM     17  C   UNL A   1      33.451  24.402  24.754  1.00  0.00     0.027 A 
ATOM     18  C   UNL A   1      32.897  25.786  21.377  1.00  0.00     0.065 C 
ATOM     19  C   UNL A   1      34.204  23.927  22.671  1.00  0.00     0.031 A 
ATOM     20  C   UNL A   1      34.267  23.546  24.041  1.00  0.00    -0.003 A 
ATOM     21  C   UNL A   1      32.932  24.411  26.164  1.00  0.00     0.065 C 
BRANCH  20  22
ATOM     22  C   UNL A   1      34.885  22.363  24.528  1.00  0.00     0.029 C 
ATOM     23  C   UNL A   1      34.377  21.127  24.664  1.00  0.00     0.102 C 
ATOM     24  C   UNL A   1      35.356  20.059  24.954  1.00  0.00     0.262 C 
ATOM     25  C   UNL A   1      33.016  20.637  24.424  1.00  0.00     0.226 C 
ATOM     26  O   UNL A   1      36.476  20.238  25.416  1.00  0.00    -0.269 OA
ATOM     27  N   UNL A   1      34.916  18.809  24.608  1.00  0.00    -0.297 N 
ATOM     28  N   UNL A   1      32.674  19.424  24.174  1.00  0.00    -0.184 NA
ATOM     29  C   UNL A   1      33.660  18.475  24.163  1.00  0.00     0.203 C 
ATOM     30  H   UNL A   1      35.565  18.073  24.688  1.00  0.00     0.172 HD
ATOM     31  S   UNL A   1      33.404  16.884  23.699  1.00  0.00    -0.038 S 
BRANCH  25  32
ATOM     32  O   UNL A   1      32.032  21.531  24.537  1.00  0.00    -0.493 OA
ATOM     33  H   UNL A   1      31.342  21.552  23.903  1.00  0.00     0.295 HD
ENDBRANCH  25  32
ENDBRANCH  20  22
ENDBRANCH  11  15
ENDBRANCH   6   8
ENDBRANCH   5   6
ENDBRANCH   4   5
ENDBRANCH   3   4
ENDBRANCH   2   3
ENDBRANCH   1   2
BRANCH   1  34
ATOM     34  C   UNL A   1      33.061  36.068  28.976  1.00  0.00     0.188 C 
BRANCH  34  35
ATOM     35  O   UNL A   1      32.980  36.149  30.379  1.00  0.00    -0.376 OA
BRANCH  35  36
ATOM     36  C   UNL A   1      33.479  35.063  31.125  1.00  0.00     0.202 C 
BRANCH  36  37
ATOM     37  C   UNL A   1      34.512  35.502  32.171  1.00  0.00     0.261 C 
BRANCH  37  38
ATOM     38  O   UNL A   1      35.552  34.509  32.325  1.00  0.00    -0.460 OA
BRANCH  38  39
ATOM     39  C   UNL A   1      35.160  33.268  32.787  1.00  0.00     0.338 C 
ATOM     40  O   UNL A   1      34.641  33.092  33.879  1.00  0.00    -0.246 OA
BRANCH  39  41
ATOM     41  C   UNL A   1      35.714  32.192  31.892  1.00  0.00     0.060 A 
ATOM     42  C   UNL A   1      36.209  30.936  32.274  1.00  0.00     0.016 A 
ATOM     43  C   UNL A   1      36.102  32.612  30.674  1.00  0.00     0.016 A 
ATOM     44  C   UNL A   1      37.253  30.228  31.515  1.00  0.00     0.010 A 
ATOM     45  C   UNL A   1      37.278  32.047  30.187  1.00  0.00     0.010 A 
ATOM     46  C   UNL A   1      37.950  30.806  30.445  1.00  0.00    -0.014 A 
BRANCH  46  47
ATOM     47  C   UNL A   1      39.394  30.184  29.706  1.00  0.00     0.031 A 
ATOM     48  C   UNL A   1      39.860  28.610  29.040  1.00  0.00     0.074 A 
ATOM     49  C   UNL A   1      40.499  30.955  29.799  1.00  0.00     0.049 A 
ATOM     50  N   UNL A   1      40.936  27.934  29.410  1.00  0.00    -0.248 NA
ATOM     51  C   UNL A   1      39.083  27.670  28.121  1.00  0.00     0.031 C 
ATOM     52  C   UNL A   1      41.828  30.677  29.257  1.00  0.00     0.029 A 
ATOM     53  N   UNL A   1      40.687  32.093  30.585  1.00  0.00    -0.354 N 
ATOM     54  C   UNL A   1      40.879  26.641  28.840  1.00  0.00     0.074 A 
ATOM     55  C   UNL A   1      39.635  26.484  28.212  1.00  0.00     0.031 C 
ATOM     56  C   UNL A   1      42.725  31.371  29.973  1.00  0.00     0.029 A 
ATOM     57  C   UNL A   1      42.005  32.012  31.060  1.00  0.00     0.049 A 
ATOM     58  H   UNL A   1      40.031  32.804  30.768  1.00  0.00     0.167 HD
ATOM     59  C   UNL A   1      41.911  25.777  28.672  1.00  0.00     0.034 A 
ATOM     60  C   UNL A   1      42.272  31.925  32.393  1.00  0.00     0.034 A 
ATOM     61  C   UNL A   1      43.118  26.422  29.090  1.00  0.00     0.049 A 
ATOM     62  C   UNL A   1      43.166  30.756  32.769  1.00  0.00     0.074 A 
ATOM     63  C   UNL A   1      44.010  27.265  28.453  1.00  0.00     0.029 A 
ATOM     64  N   UNL A   1      43.280  26.617  30.439  1.00  0.00    -0.354 N 
ATOM     65  N   UNL A   1      43.625  29.857  31.937  1.00  0.00    -0.248 NA
ATOM     66  C   UNL A   1      43.565  30.479  34.146  1.00  0.00     0.031 C 
ATOM     67  C   UNL A   1      44.742  27.956  29.458  1.00  0.00     0.029 A 
ATOM     68  C   UNL A   1      44.320  27.486  30.687  1.00  0.00     0.049 A 
ATOM     69  H   UNL A   1      42.727  26.194  31.136  1.00  0.00     0.167 HD
ATOM     70  C   UNL A   1      44.237  28.847  32.643  1.00  0.00     0.074 A 
ATOM     71  C   UNL A   1      44.195  29.301  34.021  1.00  0.00     0.031 C 
ATOM     72  C   UNL A   1      44.675  27.681  32.072  1.00  0.00     0.034 A 
BRANCH  59  73
ATOM     73  C   UNL A   1      41.764  24.592  27.712  1.00  0.00     0.023 A 
ATOM     74  C   UNL A   1      40.728  23.679  27.975  1.00  0.00     0.012 A 
ATOM     75  C   UNL A   1      42.703  24.219  26.705  1.00  0.00     0.148 A 
ATOM     76  C   UNL A   1      40.684  22.415  27.374  1.00  0.00     0.002 A 
ATOM     77  C   UNL A   1      42.710  22.920  26.172  1.00  0.00     0.091 A 
ATOM     78  F   UNL A   1      43.641  25.103  26.323  1.00  0.00    -0.205 F 
ATOM     79  C   UNL A   1      41.695  22.018  26.509  1.00  0.00     0.022 A 
BRANCH  77  80
ATOM     80  S   UNL A   1      44.117  22.247  25.250  1.00  0.00     0.127 S 
ATOM     81  O   UNL A   1      44.025  20.810  25.529  1.00  0.00    -0.237 OA
ATOM     82  O   UNL A   1      43.808  22.610  23.870  1.00  0.00    -0.237 OA
ATOM     83  O   UNL A   1      45.298  22.874  25.834  1.00  0.00    -0.744 OA
ENDBRANCH  77  80
ENDBRANCH  59  73
BRANCH  60  84
ATOM     84  C   UNL A   1      41.266  32.612  33.281  1.00  0.00     0.023 A 
ATOM     85  C   UNL A   1      40.971  33.976  32.996  1.00  0.00     0.012 A 
ATOM     86  C   UNL A   1      40.437  31.947  34.204  1.00  0.00     0.148 A 
ATOM     87  C   UNL A   1      39.841  34.614  33.514  1.00  0.00     0.002 A 
ATOM     88  C   UNL A   1      39.328  32.606  34.751  1.00  0.00     0.091 A 
ATOM     89  F   UNL A   1      40.658  30.651  34.456  1.00  0.00    -0.205 F 
ATOM     90  C   UNL A   1      39.016  33.925  34.389  1.00  0.00     0.022 A 
BRANCH  88  91
ATOM     91  S   UNL A   1      38.201  31.790  35.894  1.00  0.00     0.127 S 
ATOM     92  O   UNL A   1      39.090  31.448  37.007  1.00  0.00    -0.237 OA
ATOM     93  O   UNL A   1      37.240  32.848  36.190  1.00  0.00    -0.237 OA
ATOM     94  O   UNL A   1      37.695  30.639  35.161  1.00  0.00    -0.744 OA
ENDBRANCH  88  91
ENDBRANCH  60  84
BRANCH  72  95
ATOM     95  C   UNL A   1      45.379  26.539  32.794  1.00  0.00     0.023 A 
ATOM     96  C   UNL A   1      46.724  26.237  32.526  1.00  0.00     0.012 A 
ATOM     97  C   UNL A   1      44.705  25.660  33.693  1.00  0.00     0.148 A 
ATOM     98  C   UNL A   1      47.400  25.219  33.211  1.00  0.00     0.002 A 
ATOM     99  C   UNL A   1      45.374  24.646  34.367  1.00  0.00     0.091 A 
ATOM    100  F   UNL A   1      43.383  25.743  33.868  1.00  0.00    -0.205 F 
ATOM    101  C   UNL A   1      46.734  24.440  34.150  1.00  0.00     0.022 A 
BRANCH  99 102
ATOM    102  S   UNL A   1      44.527  23.561  35.530  1.00  0.00     0.127 S 
ATOM    103  O   UNL A   1      43.640  22.810  34.641  1.00  0.00    -0.237 OA
ATOM    104  O   UNL A   1      45.635  22.780  36.083  1.00  0.00    -0.237 OA
ATOM    105  O   UNL A   1      43.871  24.433  36.491  1.00  0.00    -0.744 OA
ENDBRANCH  99 102
ENDBRANCH  72  95
ENDBRANCH  46  47
ENDBRANCH  39  41
ENDBRANCH  38  39
ENDBRANCH  37  38
ENDBRANCH  36  37
ENDBRANCH  35  36
ENDBRANCH  34  35
ENDBRANCH   1  34
TORSDOF 23
ENDMDL
MODEL 3
REMARK VINA RESULT:     -11.9      4.573     11.353
REMARK SMILES Cc1c(C(=O)OCCOCCOCCOC(=O)c2ccc(-c3c4nc(c(-c5cccc(S(=O)(=O)[O-])c5F)c5ccc([nH]5)c(-c5cccc(S(=O)(=O)[O-])c5F)c5nc(c(-c6cccc(S(=O)(=O)[O-])c6F)c6ccc3[nH]6)C=C5)C=C4)cc2)cccc1-n1c(C)cc(/C=C2/C(=O)NC(=S)N=C2O)c1C
REMARK SMILES IDX 10 1 9 2 8 3 7 4 6 5 4 6 5 7 3 8 1 9 2 10 84 11 81 12 83 13
REMARK SMILES IDX 82 14 85 15 86 16 100 17 87 18 88 19 89 20 101 21 90 22
REMARK SMILES IDX 91 23 92 24 98 25 93 26 94 27 97 28 95 29 96 31 99 32 11 34
REMARK SMILES IDX 12 35 13 36 14 37 15 38 16 39 17 40 18 41 19 42 80 43 20 44
REMARK SMILES IDX 79 45 21 46 22 47 23 48 73 49 24 50 78 51 72 52 74 53 25 54
REMARK SMILES IDX 77 55 71 56 70 57 26 59 58 60 38 61 57 62 39 63 42 64 56 65
REMARK SMILES IDX 75 66 40 67 41 68 55 70 76 71 43 72 27 73 28 74 36 75 29 76
REMARK SMILES IDX 31 77 37 78 30 79 32 80 33 81 34 82 35 83 59 84 60 85 68 86
REMARK SMILES IDX 61 87 63 88 69 89 62 90 64 91 65 92 66 93 67 94 44 95 45 96
REMARK SMILES IDX 53 97 46 98 48 99 54 100 47 101 49 102 50 103 51 104 52 105
REMARK H PARENT 94 30 99 33 74 58 42 69
REMARK Flexibility Score: inf
ROOT
ATOM      1  C   UNL A   1      43.023  20.320  25.766  1.00  0.00     0.188 C 
ENDROOT
BRANCH   1   2
ATOM      2  O   UNL A   1      42.471  20.835  26.995  1.00  0.00    -0.376 OA
BRANCH   2   3
ATOM      3  C   UNL A   1      41.102  21.258  27.163  1.00  0.00     0.202 C 
BRANCH   3   4
ATOM      4  C   UNL A   1      39.899  20.940  26.097  1.00  0.00     0.261 C 
BRANCH   4   5
ATOM      5  O   UNL A   1      38.297  21.644  25.909  1.00  0.00    -0.460 OA
BRANCH   5   6
ATOM      6  C   UNL A   1      37.072  21.463  25.165  1.00  0.00     0.338 C 
ATOM      7  O   UNL A   1      36.870  20.934  24.074  1.00  0.00    -0.246 OA
BRANCH   6   8
ATOM      8  C   UNL A   1      35.722  21.846  25.584  1.00  0.00     0.065 A 
ATOM      9  C   UNL A   1      36.141  23.945  24.342  1.00  0.00     0.047 C 
ATOM     10  C   UNL A   1      35.199  22.921  24.907  1.00  0.00    -0.012 A 
ATOM     11  C   UNL A   1      33.806  22.902  24.707  1.00  0.00     0.049 A 
ATOM     12  C   UNL A   1      34.844  20.805  26.054  1.00  0.00     0.016 A 
ATOM     13  C   UNL A   1      32.930  21.910  25.175  1.00  0.00     0.027 A 
ATOM     14  C   UNL A   1      33.460  20.842  25.865  1.00  0.00     0.003 A 
BRANCH  11  15
ATOM     15  N   UNL A   1      33.233  24.029  24.134  1.00  0.00    -0.318 N 
ATOM     16  C   UNL A   1      33.183  24.303  22.786  1.00  0.00     0.020 A 
ATOM     17  C   UNL A   1      33.024  25.176  24.878  1.00  0.00     0.027 A 
ATOM     18  C   UNL A   1      33.607  23.317  21.743  1.00  0.00     0.065 C 
ATOM     19  C   UNL A   1      32.769  25.614  22.670  1.00  0.00     0.031 A 
ATOM     20  C   UNL A   1      32.629  26.148  23.982  1.00  0.00    -0.003 A 
ATOM     21  C   UNL A   1      33.302  25.172  26.355  1.00  0.00     0.065 C 
BRANCH  20  22
ATOM     22  C   UNL A   1      32.345  27.509  24.279  1.00  0.00     0.029 C 
ATOM     23  C   UNL A   1      31.509  28.362  23.663  1.00  0.00     0.102 C 
ATOM     24  C   UNL A   1      31.245  29.629  24.377  1.00  0.00     0.262 C 
ATOM     25  C   UNL A   1      30.695  28.176  22.458  1.00  0.00     0.226 C 
ATOM     26  O   UNL A   1      31.957  30.105  25.252  1.00  0.00    -0.269 OA
ATOM     27  N   UNL A   1      30.072  30.229  24.003  1.00  0.00    -0.297 N 
ATOM     28  N   UNL A   1      29.638  28.834  22.142  1.00  0.00    -0.184 NA
ATOM     29  C   UNL A   1      29.238  29.837  22.984  1.00  0.00     0.203 C 
ATOM     30  H   UNL A   1      29.798  31.023  24.515  1.00  0.00     0.172 HD
ATOM     31  S   UNL A   1      27.799  30.678  22.798  1.00  0.00    -0.038 S 
BRANCH  25  32
ATOM     32  O   UNL A   1      31.132  27.275  21.575  1.00  0.00    -0.493 OA
ATOM     33  H   UNL A   1      31.971  26.875  21.692  1.00  0.00     0.295 HD
ENDBRANCH  25  32
ENDBRANCH  20  22
ENDBRANCH  11  15
ENDBRANCH   6   8
ENDBRANCH   5   6
ENDBRANCH   4   5
ENDBRANCH   3   4
ENDBRANCH   2   3
ENDBRANCH   1   2
BRANCH   1  34
ATOM     34  C   UNL A   1      44.482  20.549  25.356  1.00  0.00     0.188 C 
BRANCH  34  35
ATOM     35  O   UNL A   1      45.006  21.661  26.042  1.00  0.00    -0.376 OA
BRANCH  35  36
ATOM     36  C   UNL A   1      45.647  22.656  25.277  1.00  0.00     0.202 C 
BRANCH  36  37
ATOM     37  C   UNL A   1      44.679  23.763  24.837  1.00  0.00     0.261 C 
BRANCH  37  38
ATOM     38  O   UNL A   1      43.402  23.634  25.502  1.00  0.00    -0.460 OA
BRANCH  38  39
ATOM     39  C   UNL A   1      42.611  24.764  25.550  1.00  0.00     0.338 C 
ATOM     40  O   UNL A   1      42.189  25.332  24.554  1.00  0.00    -0.246 OA
BRANCH  39  41
ATOM     41  C   UNL A   1      42.596  25.317  26.950  1.00  0.00     0.060 A 
ATOM     42  C   UNL A   1      41.590  25.166  27.916  1.00  0.00     0.016 A 
ATOM     43  C   UNL A   1      43.444  26.340  27.164  1.00  0.00     0.016 A 
ATOM     44  C   UNL A   1      41.330  26.173  28.958  1.00  0.00     0.010 A 
ATOM     45  C   UNL A   1      42.957  27.372  27.962  1.00  0.00     0.010 A 
ATOM     46  C   UNL A   1      41.950  27.430  28.983  1.00  0.00    -0.014 A 
BRANCH  46  47
ATOM     47  C   UNL A   1      41.483  28.785  29.965  1.00  0.00     0.031 A 
ATOM     48  C   UNL A   1      40.087  29.875  29.981  1.00  0.00     0.074 A 
ATOM     49  C   UNL A   1      42.429  29.288  30.787  1.00  0.00     0.049 A 
ATOM     50  N   UNL A   1      40.172  31.194  29.931  1.00  0.00    -0.248 NA
ATOM     51  C   UNL A   1      38.598  29.557  29.859  1.00  0.00     0.031 C 
ATOM     52  C   UNL A   1      42.297  30.405  31.720  1.00  0.00     0.029 A 
ATOM     53  N   UNL A   1      43.794  28.992  30.807  1.00  0.00    -0.354 N 
ATOM     54  C   UNL A   1      38.874  31.727  29.745  1.00  0.00     0.074 A 
ATOM     55  C   UNL A   1      37.983  30.666  29.529  1.00  0.00     0.031 C 
ATOM     56  C   UNL A   1      43.520  30.912  31.941  1.00  0.00     0.029 A 
ATOM     57  C   UNL A   1      44.442  30.209  31.066  1.00  0.00     0.049 A 
ATOM     58  H   UNL A   1      44.213  28.112  30.668  1.00  0.00     0.167 HD
ATOM     59  C   UNL A   1      38.471  32.999  29.989  1.00  0.00     0.034 A 
ATOM     60  C   UNL A   1      45.306  30.755  30.166  1.00  0.00     0.034 A 
ATOM     61  C   UNL A   1      39.566  33.721  30.564  1.00  0.00     0.049 A 
ATOM     62  C   UNL A   1      44.988  32.196  29.800  1.00  0.00     0.074 A 
ATOM     63  C   UNL A   1      40.034  33.857  31.857  1.00  0.00     0.029 A 
ATOM     64  N   UNL A   1      40.607  34.033  29.727  1.00  0.00    -0.354 N 
ATOM     65  N   UNL A   1      43.963  32.879  30.241  1.00  0.00    -0.248 NA
ATOM     66  C   UNL A   1      45.786  32.961  28.846  1.00  0.00     0.031 C 
ATOM     67  C   UNL A   1      41.387  34.291  31.781  1.00  0.00     0.029 A 
ATOM     68  C   UNL A   1      41.701  34.462  30.446  1.00  0.00     0.049 A 
ATOM     69  H   UNL A   1      40.578  33.960  28.745  1.00  0.00     0.167 HD
ATOM     70  C   UNL A   1      43.881  34.073  29.561  1.00  0.00     0.074 A 
ATOM     71  C   UNL A   1      45.063  34.085  28.718  1.00  0.00     0.031 C 
ATOM     72  C   UNL A   1      42.825  34.939  29.677  1.00  0.00     0.034 A 
BRANCH  59  73
ATOM     73  C   UNL A   1      36.977  33.317  30.098  1.00  0.00     0.023 A 
ATOM     74  C   UNL A   1      36.334  33.782  28.937  1.00  0.00     0.012 A 
ATOM     75  C   UNL A   1      36.228  33.382  31.311  1.00  0.00     0.148 A 
ATOM     76  C   UNL A   1      35.076  34.393  28.981  1.00  0.00     0.002 A 
ATOM     77  C   UNL A   1      35.009  34.075  31.368  1.00  0.00     0.091 A 
ATOM     78  F   UNL A   1      36.741  32.840  32.428  1.00  0.00    -0.205 F 
ATOM     79  C   UNL A   1      34.432  34.581  30.198  1.00  0.00     0.022 A 
BRANCH  77  80
ATOM     80  S   UNL A   1      34.242  34.582  32.931  1.00  0.00     0.127 S 
ATOM     81  O   UNL A   1      34.260  33.341  33.712  1.00  0.00    -0.237 OA
ATOM     82  O   UNL A   1      35.152  35.612  33.422  1.00  0.00    -0.237 OA
ATOM     83  O   UNL A   1      32.897  35.022  32.577  1.00  0.00    -0.744 OA
ENDBRANCH  77  80
ENDBRANCH  59  73
BRANCH  60  84
ATOM     84  C   UNL A   1      46.047  29.753  29.318  1.00  0.00     0.023 A 
ATOM     85  C   UNL A   1      46.769  28.733  30.001  1.00  0.00     0.012 A 
ATOM     86  C   UNL A   1      45.884  29.615  27.927  1.00  0.00     0.148 A 
ATOM     87  C   UNL A   1      47.208  27.576  29.352  1.00  0.00     0.002 A 
ATOM     88  C   UNL A   1      46.362  28.471  27.276  1.00  0.00     0.091 A 
ATOM     89  F   UNL A   1      45.169  30.532  27.265  1.00  0.00    -0.205 F 
ATOM     90  C   UNL A   1      47.000  27.443  27.988  1.00  0.00     0.022 A 
BRANCH  88  91
ATOM     91  S   UNL A   1      46.136  28.213  25.508  1.00  0.00     0.127 S 
ATOM     92  O   UNL A   1      46.821  29.377  24.940  1.00  0.00    -0.237 OA
ATOM     93  O   UNL A   1      46.820  26.943  25.290  1.00  0.00    -0.237 OA
ATOM     94  O   UNL A   1      44.694  28.216  25.312  1.00  0.00    -0.744 OA
ENDBRANCH  88  91
ENDBRANCH  60  84
BRANCH  72  95
ATOM     95  C   UNL A   1      42.688  36.283  28.972  1.00  0.00     0.023 A 
ATOM     96  C   UNL A   1      42.091  36.375  27.705  1.00  0.00     0.012 A 
ATOM     97  C   UNL A   1      43.236  37.491  29.497  1.00  0.00     0.148 A 
ATOM     98  C   UNL A   1      41.918  37.606  27.060  1.00  0.00     0.002 A 
ATOM     99  C   UNL A   1      43.071  38.711  28.855  1.00  0.00     0.091 A 
ATOM    100  F   UNL A   1      43.989  37.477  30.601  1.00  0.00    -0.205 F 
ATOM    101  C   UNL A   1      42.383  38.778  27.646  1.00  0.00     0.022 A 
BRANCH  99 102
ATOM    102  S   UNL A   1      43.732  40.241  29.540  1.00  0.00     0.127 S 
ATOM    103  O   UNL A   1      45.173  40.023  29.413  1.00  0.00    -0.237 OA
ATOM    104  O   UNL A   1      43.187  41.247  28.626  1.00  0.00    -0.237 OA
ATOM    105  O   UNL A   1      43.222  40.328  30.899  1.00  0.00    -0.744 OA
ENDBRANCH  99 102
ENDBRANCH  72  95
ENDBRANCH  46  47
ENDBRANCH  39  41
ENDBRANCH  38  39
ENDBRANCH  37  38
ENDBRANCH  36  37
ENDBRANCH  35  36
ENDBRANCH  34  35
ENDBRANCH   1  34
TORSDOF 23
ENDMDL
