MODEL 1
REMARK VINA RESULT:     -10.0      0.000      0.000
REMARK SMILES CCCc1cc2c(cc1Cl)C=C(C(=O)OCCOCCOCCOC(=O)c1ccc(-c3c4nc(c(-c5cccc(S(=O)(=O)[O-])c5F)c5ccc([nH]5)c(-c5cccc(S(=O)(=O)[O-])c5F)c5nc(c(-c6cccc(S(=O)(=O)[O-])c6F)c6ccc3[nH]6)C=C5)C=C4)cc1)[C@@H](C(F)(F)F)O2
REMARK SMILES IDX 20 1 19 2 18 3 17 4 16 5 15 6 13 7 14 8 12 9 4 10 5 11 9 12
REMARK SMILES IDX 6 13 8 14 10 15 7 16 95 17 11 18 90 19 3 20 2 21 1 22 91 23
REMARK SMILES IDX 92 24 93 25 94 26 21 27 22 28 23 29 24 30 25 31 26 32 27 33
REMARK SMILES IDX 28 34 89 35 29 36 88 37 30 38 31 39 32 40 82 41 33 42 87 43
REMARK SMILES IDX 81 44 83 45 34 46 86 47 80 48 79 49 35 51 67 52 47 53 66 54
REMARK SMILES IDX 48 55 51 56 65 57 84 58 49 59 50 60 64 62 85 63 52 64 36 65
REMARK SMILES IDX 37 66 45 67 38 68 40 69 46 70 39 71 41 72 42 73 43 74 44 75
REMARK SMILES IDX 68 76 69 77 77 78 70 79 72 80 78 81 71 82 73 83 74 84 75 85
REMARK SMILES IDX 76 86 53 87 54 88 62 89 55 90 57 91 63 92 56 93 58 94 59 95
REMARK SMILES IDX 60 96 61 97
REMARK H PARENT 83 50 51 61
REMARK Flexibility Score: inf
ROOT
ATOM      1  C   UNL A   1      31.140  29.097  24.899  1.00  0.00     0.188 C 
ENDROOT
BRANCH   1   2
ATOM      2  C   UNL A   1      31.244  28.624  23.432  1.00  0.00     0.188 C 
BRANCH   2   3
ATOM      3  O   UNL A   1      32.568  28.465  22.980  1.00  0.00    -0.376 OA
BRANCH   3   4
ATOM      4  C   UNL A   1      32.976  27.283  22.319  1.00  0.00     0.202 C 
BRANCH   4   5
ATOM      5  C   UNL A   1      33.495  26.017  23.025  1.00  0.00     0.261 C 
BRANCH   5   6
ATOM      6  O   UNL A   1      32.963  25.717  24.315  1.00  0.00    -0.460 OA
BRANCH   6   7
ATOM      7  C   UNL A   1      31.927  24.847  24.346  1.00  0.00     0.338 C 
ATOM      8  O   UNL A   1      30.745  25.117  24.214  1.00  0.00    -0.246 OA
BRANCH   7   9
ATOM      9  C   UNL A   1      32.464  23.476  24.450  1.00  0.00     0.087 C 
ATOM     10  C   UNL A   1      33.280  18.551  23.977  1.00  0.00    -0.026 A 
ATOM     11  C   UNL A   1      33.730  19.544  24.867  1.00  0.00     0.052 A 
ATOM     12  C   UNL A   1      32.569  18.951  22.835  1.00  0.00     0.045 A 
ATOM     13  C   UNL A   1      33.389  20.883  24.678  1.00  0.00     0.128 A 
ATOM     14  C   UNL A   1      32.238  20.297  22.640  1.00  0.00     0.032 A 
ATOM     15  Cl  UNL A   1      32.019  17.823  21.650  1.00  0.00    -0.084 Cl
ATOM     16  C   UNL A   1      32.608  21.257  23.585  1.00  0.00     0.019 A 
ATOM     17  O   UNL A   1      33.834  21.752  25.631  1.00  0.00    -0.475 OA
ATOM     18  C   UNL A   1      32.126  22.623  23.476  1.00  0.00     0.027 C 
ATOM     19  C   UNL A   1      33.365  23.126  25.605  1.00  0.00     0.316 C 
BRANCH  10  20
ATOM     20  C   UNL A   1      33.491  17.102  24.355  1.00  0.00     0.037 C 
BRANCH  20  21
ATOM     21  C   UNL A   1      32.606  16.667  25.534  1.00  0.00     0.001 C 
ATOM     22  C   UNL A   1      32.392  15.159  25.621  1.00  0.00     0.004 C 
ENDBRANCH  20  21
ENDBRANCH  10  20
BRANCH  19  23
ATOM     23  C   UNL A   1      32.727  23.440  26.966  1.00  0.00     0.430 C 
ATOM     24  F   UNL A   1      32.748  24.772  27.223  1.00  0.00    -0.167 F 
ATOM     25  F   UNL A   1      31.426  23.064  27.011  1.00  0.00    -0.167 F 
ATOM     26  F   UNL A   1      33.363  22.823  27.986  1.00  0.00    -0.167 F 
ENDBRANCH  19  23
ENDBRANCH   7   9
ENDBRANCH   6   7
ENDBRANCH   5   6
ENDBRANCH   4   5
ENDBRANCH   3   4
ENDBRANCH   2   3
ENDBRANCH   1   2
BRANCH   1  27
ATOM     27  O   UNL A   1      31.330  28.165  25.957  1.00  0.00    -0.376 OA
BRANCH  27  28
ATOM     28  C   UNL A   1      32.365  28.401  26.908  1.00  0.00     0.202 C 
BRANCH  28  29
ATOM     29  C   UNL A   1      33.787  28.711  26.418  1.00  0.00     0.261 C 
BRANCH  29  30
ATOM     30  O   UNL A   1      34.073  30.110  26.268  1.00  0.00    -0.460 OA
BRANCH  30  31
ATOM     31  C   UNL A   1      34.380  30.772  27.413  1.00  0.00     0.338 C 
ATOM     32  O   UNL A   1      33.678  31.568  28.012  1.00  0.00    -0.246 OA
BRANCH  31  33
ATOM     33  C   UNL A   1      35.637  30.221  27.961  1.00  0.00     0.060 A 
ATOM     34  C   UNL A   1      36.820  30.251  27.221  1.00  0.00     0.016 A 
ATOM     35  C   UNL A   1      35.618  29.665  29.249  1.00  0.00     0.016 A 
ATOM     36  C   UNL A   1      37.993  29.742  27.785  1.00  0.00     0.010 A 
ATOM     37  C   UNL A   1      36.787  29.139  29.802  1.00  0.00     0.010 A 
ATOM     38  C   UNL A   1      37.987  29.194  29.080  1.00  0.00    -0.014 A 
BRANCH  38  39
ATOM     39  C   UNL A   1      39.270  28.859  29.744  1.00  0.00     0.031 A 
ATOM     40  C   UNL A   1      39.750  29.578  30.967  1.00  0.00     0.074 A 
ATOM     41  C   UNL A   1      40.023  27.886  29.196  1.00  0.00     0.049 A 
ATOM     42  N   UNL A   1      40.792  29.311  31.711  1.00  0.00    -0.248 NA
ATOM     43  C   UNL A   1      38.975  30.745  31.412  1.00  0.00     0.031 C 
ATOM     44  C   UNL A   1      39.691  27.166  27.964  1.00  0.00     0.029 A 
ATOM     45  N   UNL A   1      41.214  27.340  29.595  1.00  0.00    -0.354 N 
ATOM     46  C   UNL A   1      40.804  30.270  32.714  1.00  0.00     0.074 A 
ATOM     47  C   UNL A   1      39.672  31.142  32.471  1.00  0.00     0.031 C 
ATOM     48  C   UNL A   1      40.651  26.263  27.715  1.00  0.00     0.029 A 
ATOM     49  C   UNL A   1      41.663  26.342  28.764  1.00  0.00     0.049 A 
ATOM     50  H   UNL A   1      41.701  27.633  30.398  1.00  0.00     0.167 HD
ATOM     51  C   UNL A   1      41.664  30.391  33.752  1.00  0.00     0.034 A 
ATOM     52  C   UNL A   1      42.758  25.561  28.842  1.00  0.00     0.034 A 
ATOM     53  C   UNL A   1      42.778  29.510  33.995  1.00  0.00     0.049 A 
ATOM     54  C   UNL A   1      43.682  25.700  30.015  1.00  0.00     0.074 A 
ATOM     55  C   UNL A   1      43.652  29.510  35.070  1.00  0.00     0.029 A 
ATOM     56  N   UNL A   1      43.186  28.491  33.149  1.00  0.00    -0.354 N 
ATOM     57  N   UNL A   1      43.582  26.503  31.046  1.00  0.00    -0.248 NA
ATOM     58  C   UNL A   1      44.849  24.808  30.057  1.00  0.00     0.031 C 
ATOM     59  C   UNL A   1      44.597  28.500  34.867  1.00  0.00     0.029 A 
ATOM     60  C   UNL A   1      44.306  27.863  33.671  1.00  0.00     0.049 A 
ATOM     61  H   UNL A   1      42.746  28.249  32.303  1.00  0.00     0.167 HD
ATOM     62  C   UNL A   1      44.661  26.203  31.868  1.00  0.00     0.074 A 
ATOM     63  C   UNL A   1      45.394  25.133  31.223  1.00  0.00     0.031 C 
ATOM     64  C   UNL A   1      45.012  26.775  33.044  1.00  0.00     0.034 A 
BRANCH  51  65
ATOM     65  C   UNL A   1      41.407  31.471  34.767  1.00  0.00     0.023 A 
ATOM     66  C   UNL A   1      42.181  32.646  34.718  1.00  0.00     0.012 A 
ATOM     67  C   UNL A   1      40.330  31.383  35.672  1.00  0.00     0.148 A 
ATOM     68  C   UNL A   1      41.893  33.720  35.559  1.00  0.00     0.002 A 
ATOM     69  C   UNL A   1      40.033  32.469  36.489  1.00  0.00     0.091 A 
ATOM     70  F   UNL A   1      39.615  30.251  35.705  1.00  0.00    -0.205 F 
ATOM     71  C   UNL A   1      40.815  33.635  36.436  1.00  0.00     0.022 A 
BRANCH  69  72
ATOM     72  S   UNL A   1      38.632  32.488  37.612  1.00  0.00     0.127 S 
ATOM     73  O   UNL A   1      37.934  33.701  37.191  1.00  0.00    -0.237 OA
ATOM     74  O   UNL A   1      37.947  31.240  37.272  1.00  0.00    -0.237 OA
ATOM     75  O   UNL A   1      39.192  32.530  38.955  1.00  0.00    -0.744 OA
ENDBRANCH  69  72
ENDBRANCH  51  65
BRANCH  52  76
ATOM     76  C   UNL A   1      42.964  24.513  27.809  1.00  0.00     0.023 A 
ATOM     77  C   UNL A   1      43.966  24.697  26.838  1.00  0.00     0.012 A 
ATOM     78  C   UNL A   1      42.248  23.302  27.851  1.00  0.00     0.148 A 
ATOM     79  C   UNL A   1      44.253  23.688  25.920  1.00  0.00     0.002 A 
ATOM     80  C   UNL A   1      42.565  22.286  26.956  1.00  0.00     0.091 A 
ATOM     81  F   UNL A   1      41.304  23.156  28.790  1.00  0.00    -0.205 F 
ATOM     82  C   UNL A   1      43.562  22.482  25.986  1.00  0.00     0.022 A 
BRANCH  80  83
ATOM     83  S   UNL A   1      41.809  20.660  27.028  1.00  0.00     0.127 S 
ATOM     84  O   UNL A   1      40.540  20.950  27.691  1.00  0.00    -0.237 OA
ATOM     85  O   UNL A   1      41.699  20.321  25.609  1.00  0.00    -0.237 OA
ATOM     86  O   UNL A   1      42.731  19.824  27.783  1.00  0.00    -0.744 OA
ENDBRANCH  80  83
ENDBRANCH  52  76
BRANCH  64  87
ATOM     87  C   UNL A   1      46.252  26.272  33.732  1.00  0.00     0.023 A 
ATOM     88  C   UNL A   1      47.476  26.929  33.507  1.00  0.00     0.012 A 
ATOM     89  C   UNL A   1      46.182  25.236  34.684  1.00  0.00     0.148 A 
ATOM     90  C   UNL A   1      48.618  26.558  34.216  1.00  0.00     0.002 A 
ATOM     91  C   UNL A   1      47.315  24.894  35.411  1.00  0.00     0.091 A 
ATOM     92  F   UNL A   1      45.005  24.622  34.872  1.00  0.00    -0.205 F 
ATOM     93  C   UNL A   1      48.535  25.550  35.176  1.00  0.00     0.022 A 
BRANCH  91  94
ATOM     94  S   UNL A   1      47.296  23.660  36.717  1.00  0.00     0.127 S 
ATOM     95  O   UNL A   1      46.340  24.239  37.661  1.00  0.00    -0.237 OA
ATOM     96  O   UNL A   1      46.814  22.472  36.013  1.00  0.00    -0.237 OA
ATOM     97  O   UNL A   1      48.665  23.566  37.205  1.00  0.00    -0.744 OA
ENDBRANCH  91  94
ENDBRANCH  64  87
ENDBRANCH  38  39
ENDBRANCH  31  33
ENDBRANCH  30  31
ENDBRANCH  29  30
ENDBRANCH  28  29
ENDBRANCH  27  28
ENDBRANCH   1  27
TORSDOF 23
ENDMDL
MODEL 2
REMARK VINA RESULT:      -9.7      2.135      7.662
REMARK SMILES CCCc1cc2c(cc1Cl)C=C(C(=O)OCCOCCOCCOC(=O)c1ccc(-c3c4nc(c(-c5cccc(S(=O)(=O)[O-])c5F)c5ccc([nH]5)c(-c5cccc(S(=O)(=O)[O-])c5F)c5nc(c(-c6cccc(S(=O)(=O)[O-])c6F)c6ccc3[nH]6)C=C5)C=C4)cc1)[C@@H](C(F)(F)F)O2
REMARK SMILES IDX 20 1 19 2 18 3 17 4 16 5 15 6 13 7 14 8 12 9 4 10 5 11 9 12
REMARK SMILES IDX 6 13 8 14 10 15 7 16 95 17 11 18 90 19 3 20 2 21 1 22 91 23
REMARK SMILES IDX 92 24 93 25 94 26 21 27 22 28 23 29 24 30 25 31 26 32 27 33
REMARK SMILES IDX 28 34 89 35 29 36 88 37 30 38 31 39 32 40 82 41 33 42 87 43
REMARK SMILES IDX 81 44 83 45 34 46 86 47 80 48 79 49 35 51 67 52 47 53 66 54
REMARK SMILES IDX 48 55 51 56 65 57 84 58 49 59 50 60 64 62 85 63 52 64 36 65
REMARK SMILES IDX 37 66 45 67 38 68 40 69 46 70 39 71 41 72 42 73 43 74 44 75
REMARK SMILES IDX 68 76 69 77 77 78 70 79 72 80 78 81 71 82 73 83 74 84 75 85
REMARK SMILES IDX 76 86 53 87 54 88 62 89 55 90 57 91 63 92 56 93 58 94 59 95
REMARK SMILES IDX 60 96 61 97
REMARK H PARENT 83 50 51 61
REMARK Flexibility Score: inf
ROOT
ATOM      1  C   UNL A   1      31.131  28.886  25.251  1.00  0.00     0.188 C 
ENDROOT
BRANCH   1   2
ATOM      2  C   UNL A   1      31.177  28.323  23.814  1.00  0.00     0.188 C 
BRANCH   2   3
ATOM      3  O   UNL A   1      32.454  28.376  23.224  1.00  0.00    -0.376 OA
BRANCH   3   4
ATOM      4  C   UNL A   1      32.965  27.279  22.493  1.00  0.00     0.202 C 
BRANCH   4   5
ATOM      5  C   UNL A   1      33.605  26.027  23.120  1.00  0.00     0.261 C 
BRANCH   5   6
ATOM      6  O   UNL A   1      33.174  25.652  24.429  1.00  0.00    -0.460 OA
BRANCH   6   7
ATOM      7  C   UNL A   1      32.140  24.781  24.490  1.00  0.00     0.338 C 
ATOM      8  O   UNL A   1      30.953  25.056  24.452  1.00  0.00    -0.246 OA
BRANCH   7   9
ATOM      9  C   UNL A   1      32.679  23.407  24.493  1.00  0.00     0.087 C 
ATOM     10  C   UNL A   1      33.398  18.490  23.817  1.00  0.00    -0.026 A 
ATOM     11  C   UNL A   1      33.971  19.465  24.655  1.00  0.00     0.052 A 
ATOM     12  C   UNL A   1      32.539  18.915  22.792  1.00  0.00     0.045 A 
ATOM     13  C   UNL A   1      33.614  20.808  24.541  1.00  0.00     0.128 A 
ATOM     14  C   UNL A   1      32.191  20.264  22.671  1.00  0.00     0.032 A 
ATOM     15  Cl  UNL A   1      31.825  17.812  21.672  1.00  0.00    -0.084 Cl
ATOM     16  C   UNL A   1      32.692  21.205  23.573  1.00  0.00     0.019 A 
ATOM     17  O   UNL A   1      34.191  21.657  25.440  1.00  0.00    -0.475 OA
ATOM     18  C   UNL A   1      32.207  22.574  23.558  1.00  0.00     0.027 C 
ATOM     19  C   UNL A   1      33.729  23.032  25.505  1.00  0.00     0.316 C 
BRANCH  10  20
ATOM     20  C   UNL A   1      33.652  17.033  24.135  1.00  0.00     0.037 C 
BRANCH  20  21
ATOM     21  C   UNL A   1      32.854  16.550  25.357  1.00  0.00     0.001 C 
ATOM     22  C   UNL A   1      32.604  15.046  25.375  1.00  0.00     0.004 C 
ENDBRANCH  20  21
ENDBRANCH  10  20
BRANCH  19  23
ATOM     23  C   UNL A   1      33.287  23.321  26.947  1.00  0.00     0.430 C 
ATOM     24  F   UNL A   1      31.966  23.056  27.118  1.00  0.00    -0.167 F 
ATOM     25  F   UNL A   1      33.948  22.547  27.842  1.00  0.00    -0.167 F 
ATOM     26  F   UNL A   1      33.488  24.609  27.299  1.00  0.00    -0.167 F 
ENDBRANCH  19  23
ENDBRANCH   7   9
ENDBRANCH   6   7
ENDBRANCH   5   6
ENDBRANCH   4   5
ENDBRANCH   3   4
ENDBRANCH   2   3
ENDBRANCH   1   2
BRANCH   1  27
ATOM     27  O   UNL A   1      31.403  28.029  26.354  1.00  0.00    -0.376 OA
BRANCH  27  28
ATOM     28  C   UNL A   1      32.530  28.304  27.182  1.00  0.00     0.202 C 
BRANCH  28  29
ATOM     29  C   UNL A   1      33.897  28.571  26.536  1.00  0.00     0.261 C 
BRANCH  29  30
ATOM     30  O   UNL A   1      34.195  29.960  26.325  1.00  0.00    -0.460 OA
BRANCH  30  31
ATOM     31  C   UNL A   1      34.508  30.668  27.440  1.00  0.00     0.338 C 
ATOM     32  O   UNL A   1      33.809  31.489  28.009  1.00  0.00    -0.246 OA
BRANCH  31  33
ATOM     33  C   UNL A   1      35.768  30.141  28.004  1.00  0.00     0.060 A 
ATOM     34  C   UNL A   1      36.938  30.107  27.244  1.00  0.00     0.016 A 
ATOM     35  C   UNL A   1      35.764  29.672  29.325  1.00  0.00     0.016 A 
ATOM     36  C   UNL A   1      38.115  29.623  27.823  1.00  0.00     0.010 A 
ATOM     37  C   UNL A   1      36.936  29.170  29.894  1.00  0.00     0.010 A 
ATOM     38  C   UNL A   1      38.125  29.162  29.152  1.00  0.00    -0.014 A 
BRANCH  38  39
ATOM     39  C   UNL A   1      39.414  28.857  29.816  1.00  0.00     0.031 A 
ATOM     40  C   UNL A   1      40.254  27.677  29.431  1.00  0.00     0.074 A 
ATOM     41  C   UNL A   1      39.812  29.669  30.814  1.00  0.00     0.049 A 
ATOM     42  N   UNL A   1      41.451  27.360  29.851  1.00  0.00    -0.248 NA
ATOM     43  C   UNL A   1      39.684  26.731  28.462  1.00  0.00     0.031 C 
ATOM     44  C   UNL A   1      39.041  30.805  31.324  1.00  0.00     0.029 A 
ATOM     45  N   UNL A   1      40.950  29.664  31.577  1.00  0.00    -0.354 N 
ATOM     46  C   UNL A   1      41.785  26.181  29.201  1.00  0.00     0.074 A 
ATOM     47  C   UNL A   1      40.651  25.825  28.371  1.00  0.00     0.031 C 
ATOM     48  C   UNL A   1      39.736  31.397  32.308  1.00  0.00     0.029 A 
ATOM     49  C   UNL A   1      40.995  30.682  32.499  1.00  0.00     0.049 A 
ATOM     50  H   UNL A   1      41.667  28.997  31.475  1.00  0.00     0.167 HD
ATOM     51  C   UNL A   1      42.941  25.478  29.273  1.00  0.00     0.034 A 
ATOM     52  C   UNL A   1      41.948  31.019  33.389  1.00  0.00     0.034 A 
ATOM     53  C   UNL A   1      44.069  25.846  30.089  1.00  0.00     0.049 A 
ATOM     54  C   UNL A   1      43.228  30.238  33.432  1.00  0.00     0.074 A 
ATOM     55  C   UNL A   1      45.311  25.237  30.158  1.00  0.00     0.029 A 
ATOM     56  N   UNL A   1      44.091  26.901  30.988  1.00  0.00    -0.354 N 
ATOM     57  N   UNL A   1      43.594  29.224  32.687  1.00  0.00    -0.248 NA
ATOM     58  C   UNL A   1      44.239  30.663  34.409  1.00  0.00     0.031 C 
ATOM     59  C   UNL A   1      46.079  25.914  31.110  1.00  0.00     0.029 A 
ATOM     60  C   UNL A   1      45.320  26.952  31.626  1.00  0.00     0.049 A 
ATOM     61  H   UNL A   1      43.344  27.521  31.149  1.00  0.00     0.167 HD
ATOM     62  C   UNL A   1      44.882  28.900  33.092  1.00  0.00     0.074 A 
ATOM     63  C   UNL A   1      45.240  29.836  34.138  1.00  0.00     0.031 C 
ATOM     64  C   UNL A   1      45.685  27.907  32.641  1.00  0.00     0.034 A 
BRANCH  51  65
ATOM     65  C   UNL A   1      43.094  24.269  28.390  1.00  0.00     0.023 A 
ATOM     66  C   UNL A   1      42.390  23.095  28.721  1.00  0.00     0.012 A 
ATOM     67  C   UNL A   1      43.816  24.332  27.183  1.00  0.00     0.148 A 
ATOM     68  C   UNL A   1      42.407  21.993  27.866  1.00  0.00     0.002 A 
ATOM     69  C   UNL A   1      43.806  23.239  26.322  1.00  0.00     0.091 A 
ATOM     70  F   UNL A   1      44.484  25.457  26.896  1.00  0.00    -0.205 F 
ATOM     71  C   UNL A   1      43.106  22.070  26.664  1.00  0.00     0.022 A 
BRANCH  69  72
ATOM     72  S   UNL A   1      44.624  23.251  24.723  1.00  0.00     0.127 S 
ATOM     73  O   UNL A   1      45.823  22.461  25.000  1.00  0.00    -0.237 OA
ATOM     74  O   UNL A   1      43.639  22.586  23.868  1.00  0.00    -0.237 OA
ATOM     75  O   UNL A   1      44.864  24.651  24.403  1.00  0.00    -0.744 OA
ENDBRANCH  69  72
ENDBRANCH  51  65
BRANCH  52  76
ATOM     76  C   UNL A   1      41.740  32.220  34.238  1.00  0.00     0.023 A 
ATOM     77  C   UNL A   1      42.150  33.478  33.757  1.00  0.00     0.012 A 
ATOM     78  C   UNL A   1      41.050  32.134  35.462  1.00  0.00     0.148 A 
ATOM     79  C   UNL A   1      41.876  34.635  34.484  1.00  0.00     0.002 A 
ATOM     80  C   UNL A   1      40.748  33.295  36.163  1.00  0.00     0.091 A 
ATOM     81  F   UNL A   1      40.670  30.923  35.890  1.00  0.00    -0.205 F 
ATOM     82  C   UNL A   1      41.167  34.545  35.678  1.00  0.00     0.022 A 
BRANCH  80  83
ATOM     83  S   UNL A   1      39.748  33.296  37.654  1.00  0.00     0.127 S 
ATOM     84  O   UNL A   1      38.458  32.832  37.148  1.00  0.00    -0.237 OA
ATOM     85  O   UNL A   1      40.463  32.333  38.491  1.00  0.00    -0.237 OA
ATOM     86  O   UNL A   1      39.769  34.666  38.147  1.00  0.00    -0.744 OA
ENDBRANCH  80  83
ENDBRANCH  52  76
BRANCH  64  87
ATOM     87  C   UNL A   1      47.044  27.758  33.270  1.00  0.00     0.023 A 
ATOM     88  C   UNL A   1      47.195  26.916  34.388  1.00  0.00     0.012 A 
ATOM     89  C   UNL A   1      48.181  28.348  32.684  1.00  0.00     0.148 A 
ATOM     90  C   UNL A   1      48.459  26.669  34.921  1.00  0.00     0.002 A 
ATOM     91  C   UNL A   1      49.441  28.071  33.199  1.00  0.00     0.091 A 
ATOM     92  F   UNL A   1      48.008  29.152  31.624  1.00  0.00    -0.205 F 
ATOM     93  C   UNL A   1      49.582  27.236  34.321  1.00  0.00     0.022 A 
BRANCH  91  94
ATOM     94  S   UNL A   1      50.954  28.694  32.456  1.00  0.00     0.127 S 
ATOM     95  O   UNL A   1      51.960  28.276  33.433  1.00  0.00    -0.237 OA
ATOM     96  O   UNL A   1      50.997  27.967  31.188  1.00  0.00    -0.237 OA
ATOM     97  O   UNL A   1      50.780  30.134  32.328  1.00  0.00    -0.744 OA
ENDBRANCH  91  94
ENDBRANCH  64  87
ENDBRANCH  38  39
ENDBRANCH  31  33
ENDBRANCH  30  31
ENDBRANCH  29  30
ENDBRANCH  28  29
ENDBRANCH  27  28
ENDBRANCH   1  27
TORSDOF 23
ENDMDL
MODEL 3
REMARK VINA RESULT:      -9.7      5.950     11.216
REMARK SMILES CCCc1cc2c(cc1Cl)C=C(C(=O)OCCOCCOCCOC(=O)c1ccc(-c3c4nc(c(-c5cccc(S(=O)(=O)[O-])c5F)c5ccc([nH]5)c(-c5cccc(S(=O)(=O)[O-])c5F)c5nc(c(-c6cccc(S(=O)(=O)[O-])c6F)c6ccc3[nH]6)C=C5)C=C4)cc1)[C@@H](C(F)(F)F)O2
REMARK SMILES IDX 20 1 19 2 18 3 17 4 16 5 15 6 13 7 14 8 12 9 4 10 5 11 9 12
REMARK SMILES IDX 6 13 8 14 10 15 7 16 95 17 11 18 90 19 3 20 2 21 1 22 91 23
REMARK SMILES IDX 92 24 93 25 94 26 21 27 22 28 23 29 24 30 25 31 26 32 27 33
REMARK SMILES IDX 28 34 89 35 29 36 88 37 30 38 31 39 32 40 82 41 33 42 87 43
REMARK SMILES IDX 81 44 83 45 34 46 86 47 80 48 79 49 35 51 67 52 47 53 66 54
REMARK SMILES IDX 48 55 51 56 65 57 84 58 49 59 50 60 64 62 85 63 52 64 36 65
REMARK SMILES IDX 37 66 45 67 38 68 40 69 46 70 39 71 41 72 42 73 43 74 44 75
REMARK SMILES IDX 68 76 69 77 77 78 70 79 72 80 78 81 71 82 73 83 74 84 75 85
REMARK SMILES IDX 76 86 53 87 54 88 62 89 55 90 57 91 63 92 56 93 58 94 59 95
REMARK SMILES IDX 60 96 61 97
REMARK H PARENT 83 50 51 61
REMARK Flexibility Score: inf
ROOT
ATOM      1  C   UNL A   1      49.625  26.707  25.220  1.00  0.00     0.188 C 
ENDROOT
BRANCH   1   2
ATOM      2  C   UNL A   1      48.434  26.739  24.238  1.00  0.00     0.188 C 
BRANCH   2   3
ATOM      3  O   UNL A   1      48.033  25.466  23.790  1.00  0.00    -0.376 OA
BRANCH   3   4
ATOM      4  C   UNL A   1      47.170  24.658  24.566  1.00  0.00     0.202 C 
BRANCH   4   5
ATOM      5  C   UNL A   1      46.701  23.245  24.173  1.00  0.00     0.261 C 
BRANCH   5   6
ATOM      6  O   UNL A   1      45.551  22.723  24.839  1.00  0.00    -0.460 OA
BRANCH   6   7
ATOM      7  C   UNL A   1      44.385  22.787  24.155  1.00  0.00     0.338 C 
ATOM      8  O   UNL A   1      44.119  22.212  23.113  1.00  0.00    -0.246 OA
BRANCH   7   9
ATOM      9  C   UNL A   1      43.421  23.585  24.938  1.00  0.00     0.087 C 
ATOM     10  C   UNL A   1      41.142  27.178  27.591  1.00  0.00    -0.026 A 
ATOM     11  C   UNL A   1      40.890  25.814  27.359  1.00  0.00     0.052 A 
ATOM     12  C   UNL A   1      42.136  27.811  26.829  1.00  0.00     0.045 A 
ATOM     13  C   UNL A   1      41.676  25.080  26.472  1.00  0.00     0.128 A 
ATOM     14  C   UNL A   1      42.916  27.077  25.930  1.00  0.00     0.032 A 
ATOM     15  Cl  UNL A   1      42.490  29.493  26.992  1.00  0.00    -0.084 Cl
ATOM     16  C   UNL A   1      42.718  25.702  25.784  1.00  0.00     0.019 A 
ATOM     17  O   UNL A   1      41.376  23.754  26.365  1.00  0.00    -0.475 OA
ATOM     18  C   UNL A   1      43.630  24.906  24.982  1.00  0.00     0.027 C 
ATOM     19  C   UNL A   1      42.265  22.890  25.607  1.00  0.00     0.316 C 
BRANCH  10  20
ATOM     20  C   UNL A   1      40.407  27.861  28.723  1.00  0.00     0.037 C 
BRANCH  20  21
ATOM     21  C   UNL A   1      39.374  26.940  29.394  1.00  0.00     0.001 C 
ATOM     22  C   UNL A   1      38.760  27.523  30.662  1.00  0.00     0.004 C 
ENDBRANCH  20  21
ENDBRANCH  10  20
BRANCH  19  23
ATOM     23  C   UNL A   1      42.717  21.745  26.524  1.00  0.00     0.430 C 
ATOM     24  F   UNL A   1      43.172  20.689  25.804  1.00  0.00    -0.167 F 
ATOM     25  F   UNL A   1      43.736  22.120  27.334  1.00  0.00    -0.167 F 
ATOM     26  F   UNL A   1      41.717  21.294  27.314  1.00  0.00    -0.167 F 
ENDBRANCH  19  23
ENDBRANCH   7   9
ENDBRANCH   6   7
ENDBRANCH   5   6
ENDBRANCH   4   5
ENDBRANCH   3   4
ENDBRANCH   2   3
ENDBRANCH   1   2
BRANCH   1  27
ATOM     27  O   UNL A   1      49.387  26.788  26.621  1.00  0.00    -0.376 OA
BRANCH  27  28
ATOM     28  C   UNL A   1      49.248  25.584  27.370  1.00  0.00     0.202 C 
BRANCH  28  29
ATOM     29  C   UNL A   1      47.990  25.364  28.223  1.00  0.00     0.261 C 
BRANCH  29  30
ATOM     30  O   UNL A   1      46.848  26.130  27.808  1.00  0.00    -0.460 OA
BRANCH  30  31
ATOM     31  C   UNL A   1      45.641  25.624  28.169  1.00  0.00     0.338 C 
ATOM     32  O   UNL A   1      45.226  24.497  27.962  1.00  0.00    -0.246 OA
BRANCH  31  33
ATOM     33  C   UNL A   1      44.962  26.593  29.055  1.00  0.00     0.060 A 
ATOM     34  C   UNL A   1      43.939  26.189  29.913  1.00  0.00     0.016 A 
ATOM     35  C   UNL A   1      45.370  27.934  29.014  1.00  0.00     0.016 A 
ATOM     36  C   UNL A   1      43.339  27.132  30.752  1.00  0.00     0.010 A 
ATOM     37  C   UNL A   1      44.755  28.877  29.839  1.00  0.00     0.010 A 
ATOM     38  C   UNL A   1      43.749  28.477  30.730  1.00  0.00    -0.014 A 
BRANCH  38  39
ATOM     39  C   UNL A   1      43.260  29.415  31.768  1.00  0.00     0.031 A 
ATOM     40  C   UNL A   1      42.134  30.371  31.518  1.00  0.00     0.074 A 
ATOM     41  C   UNL A   1      43.880  29.404  32.964  1.00  0.00     0.049 A 
ATOM     42  N   UNL A   1      41.535  31.162  32.369  1.00  0.00    -0.248 NA
ATOM     43  C   UNL A   1      41.618  30.460  30.144  1.00  0.00     0.031 C 
ATOM     44  C   UNL A   1      45.035  28.567  33.298  1.00  0.00     0.029 A 
ATOM     45  N   UNL A   1      43.635  30.114  34.110  1.00  0.00    -0.354 N 
ATOM     46  C   UNL A   1      40.569  31.845  31.643  1.00  0.00     0.074 A 
ATOM     47  C   UNL A   1      40.676  31.389  30.271  1.00  0.00     0.031 C 
ATOM     48  C   UNL A   1      45.390  28.803  34.571  1.00  0.00     0.029 A 
ATOM     49  C   UNL A   1      44.492  29.806  35.138  1.00  0.00     0.049 A 
ATOM     50  H   UNL A   1      42.914  30.780  34.189  1.00  0.00     0.167 HD
ATOM     51  C   UNL A   1      39.662  32.747  32.089  1.00  0.00     0.034 A 
ATOM     52  C   UNL A   1      44.545  30.262  36.404  1.00  0.00     0.034 A 
ATOM     53  C   UNL A   1      39.552  33.184  33.457  1.00  0.00     0.049 A 
ATOM     54  C   UNL A   1      43.515  31.244  36.878  1.00  0.00     0.074 A 
ATOM     55  C   UNL A   1      38.608  34.032  34.012  1.00  0.00     0.029 A 
ATOM     56  N   UNL A   1      40.419  32.828  34.479  1.00  0.00    -0.354 N 
ATOM     57  N   UNL A   1      42.502  31.750  36.220  1.00  0.00    -0.248 NA
ATOM     58  C   UNL A   1      43.610  31.691  38.275  1.00  0.00     0.031 C 
ATOM     59  C   UNL A   1      38.913  34.201  35.367  1.00  0.00     0.029 A 
ATOM     60  C   UNL A   1      40.039  33.449  35.658  1.00  0.00     0.049 A 
ATOM     61  H   UNL A   1      41.189  32.224  34.381  1.00  0.00     0.167 HD
ATOM     62  C   UNL A   1      41.829  32.563  37.123  1.00  0.00     0.074 A 
ATOM     63  C   UNL A   1      42.540  32.469  38.381  1.00  0.00     0.031 C 
ATOM     64  C   UNL A   1      40.729  33.325  36.917  1.00  0.00     0.034 A 
BRANCH  51  65
ATOM     65  C   UNL A   1      38.651  33.281  31.112  1.00  0.00     0.023 A 
ATOM     66  C   UNL A   1      39.064  34.235  30.162  1.00  0.00     0.012 A 
ATOM     67  C   UNL A   1      37.347  32.754  31.047  1.00  0.00     0.148 A 
ATOM     68  C   UNL A   1      38.192  34.664  29.162  1.00  0.00     0.002 A 
ATOM     69  C   UNL A   1      36.491  33.166  30.031  1.00  0.00     0.091 A 
ATOM     70  F   UNL A   1      36.975  31.854  31.969  1.00  0.00    -0.205 F 
ATOM     71  C   UNL A   1      36.911  34.122  29.091  1.00  0.00     0.022 A 
BRANCH  69  72
ATOM     72  S   UNL A   1      34.841  32.491  29.813  1.00  0.00     0.127 S 
ATOM     73  O   UNL A   1      35.136  31.161  29.281  1.00  0.00    -0.237 OA
ATOM     74  O   UNL A   1      34.321  32.499  31.180  1.00  0.00    -0.237 OA
ATOM     75  O   UNL A   1      34.156  33.389  28.894  1.00  0.00    -0.744 OA
ENDBRANCH  69  72
ENDBRANCH  51  65
BRANCH  52  76
ATOM     76  C   UNL A   1      45.568  29.702  37.324  1.00  0.00     0.023 A 
ATOM     77  C   UNL A   1      46.740  30.440  37.575  1.00  0.00     0.012 A 
ATOM     78  C   UNL A   1      45.337  28.503  38.024  1.00  0.00     0.148 A 
ATOM     79  C   UNL A   1      47.670  29.990  38.511  1.00  0.00     0.002 A 
ATOM     80  C   UNL A   1      46.250  28.081  38.983  1.00  0.00     0.091 A 
ATOM     81  F   UNL A   1      44.209  27.827  37.766  1.00  0.00    -0.205 F 
ATOM     82  C   UNL A   1      47.420  28.819  39.221  1.00  0.00     0.022 A 
BRANCH  80  83
ATOM     83  S   UNL A   1      45.969  26.646  40.025  1.00  0.00     0.127 S 
ATOM     84  O   UNL A   1      47.188  26.620  40.831  1.00  0.00    -0.237 OA
ATOM     85  O   UNL A   1      44.760  27.038  40.750  1.00  0.00    -0.237 OA
ATOM     86  O   UNL A   1      45.796  25.522  39.117  1.00  0.00    -0.744 OA
ENDBRANCH  80  83
ENDBRANCH  52  76
BRANCH  64  87
ATOM     87  C   UNL A   1      40.205  34.136  38.071  1.00  0.00     0.023 A 
ATOM     88  C   UNL A   1      40.494  35.512  38.131  1.00  0.00     0.012 A 
ATOM     89  C   UNL A   1      39.335  33.565  39.021  1.00  0.00     0.148 A 
ATOM     90  C   UNL A   1      39.930  36.310  39.125  1.00  0.00     0.002 A 
ATOM     91  C   UNL A   1      38.750  34.372  39.989  1.00  0.00     0.091 A 
ATOM     92  F   UNL A   1      39.083  32.250  38.946  1.00  0.00    -0.205 F 
ATOM     93  C   UNL A   1      39.049  35.744  40.045  1.00  0.00     0.022 A 
BRANCH  91  94
ATOM     94  S   UNL A   1      37.549  33.754  41.174  1.00  0.00     0.127 S 
ATOM     95  O   UNL A   1      36.534  33.173  40.295  1.00  0.00    -0.237 OA
ATOM     96  O   UNL A   1      38.334  32.778  41.928  1.00  0.00    -0.237 OA
ATOM     97  O   UNL A   1      37.109  34.909  41.944  1.00  0.00    -0.744 OA
ENDBRANCH  91  94
ENDBRANCH  64  87
ENDBRANCH  38  39
ENDBRANCH  31  33
ENDBRANCH  30  31
ENDBRANCH  29  30
ENDBRANCH  28  29
ENDBRANCH  27  28
ENDBRANCH   1  27
TORSDOF 23
ENDMDL
