MODEL 1
REMARK VINA RESULT:     -10.7      0.000      0.000
REMARK SMILES CC(C)(C)NS(=O)(=O)c1csc(C(=O)Nc2ccccc2C(=O)OCCOCCOCCOC(=O)c2ccc(-c3c4nc(c(-c5cccc(S(=O)(=O)[O-])c5F)c5ccc([nH]5)c(-c5cccc(S(=O)(=O)[O-])c5F)c5nc(c(-c6cccc(S(=O)(=O)[O-])c6F)c6ccc3[nH]6)C=C5)C=C4)cc2)c1
REMARK SMILES IDX 28 1 27 2 26 3 25 4 24 5 22 6 23 7 21 8 16 9 17 10 18 11
REMARK SMILES IDX 20 12 19 13 15 14 13 15 14 16 12 18 9 19 10 20 99 21 11 22
REMARK SMILES IDX 6 23 7 24 8 25 5 26 2 28 1 29 3 30 4 31 29 32 30 33 31 34
REMARK SMILES IDX 32 35 33 36 34 37 35 38 36 39 37 40 98 41 38 42 97 43 39 44
REMARK SMILES IDX 40 45 41 46 91 47 42 48 96 49 90 50 92 51 43 52 95 53 89 54
REMARK SMILES IDX 88 55 44 57 76 58 56 59 75 60 57 61 60 62 74 63 93 64 58 65
REMARK SMILES IDX 59 66 73 68 94 69 61 70 45 71 46 72 54 73 47 74 49 75 55 76
REMARK SMILES IDX 48 77 50 78 51 79 52 80 53 81 77 82 78 83 86 84 79 85 81 86
REMARK SMILES IDX 87 87 80 88 82 89 83 90 84 91 85 92 62 93 63 94 71 95 64 96
REMARK SMILES IDX 66 97 72 98 65 99 67 100 68 101 69 102 70 103
REMARK H PARENT 15 17 5 27 92 56 60 67
REMARK Flexibility Score: inf
ROOT
ATOM      1  C   UNL A   1      32.681  28.561  27.333  1.00  0.00     0.188 C 
ENDROOT
BRANCH   1   2
ATOM      2  O   UNL A   1      32.675  27.484  26.426  1.00  0.00    -0.376 OA
BRANCH   2   3
ATOM      3  C   UNL A   1      33.899  26.868  26.084  1.00  0.00     0.202 C 
BRANCH   3   4
ATOM      4  C   UNL A   1      34.126  26.014  24.831  1.00  0.00     0.261 C 
BRANCH   4   5
ATOM      5  O   UNL A   1      35.129  24.990  24.838  1.00  0.00    -0.460 OA
BRANCH   5   6
ATOM      6  C   UNL A   1      34.912  23.974  23.964  1.00  0.00     0.340 C 
ATOM      7  O   UNL A   1      35.789  23.417  23.321  1.00  0.00    -0.246 OA
BRANCH   6   8
ATOM      8  C   UNL A   1      33.485  23.531  23.918  1.00  0.00     0.083 A 
ATOM      9  C   UNL A   1      32.584  23.709  22.847  1.00  0.00     0.056 A 
ATOM     10  C   UNL A   1      31.240  23.328  23.045  1.00  0.00     0.027 A 
ATOM     11  C   UNL A   1      30.818  22.699  24.220  1.00  0.00     0.002 A 
ATOM     12  C   UNL A   1      33.042  22.896  25.100  1.00  0.00     0.018 A 
ATOM     13  C   UNL A   1      31.724  22.470  25.245  1.00  0.00     0.001 A 
BRANCH   9  14
ATOM     14  N   UNL A   1      32.856  24.191  21.543  1.00  0.00    -0.320 N 
ATOM     15  C   UNL A   1      32.756  25.437  20.941  1.00  0.00     0.265 C 
ATOM     16  O   UNL A   1      32.923  25.473  19.719  1.00  0.00    -0.268 OA
ATOM     17  H   UNL A   1      33.186  23.492  20.934  1.00  0.00     0.170 HD
BRANCH  15  18
ATOM     18  C   UNL A   1      32.564  26.628  21.751  1.00  0.00     0.094 A 
ATOM     19  C   UNL A   1      31.495  28.451  22.710  1.00  0.00     0.093 A 
ATOM     20  C   UNL A   1      32.767  28.955  22.559  1.00  0.00     0.087 A 
ATOM     21  C   UNL A   1      31.432  27.066  22.400  1.00  0.00     0.047 A 
ATOM     22  S   UNL A   1      33.853  27.734  22.024  1.00  0.00    -0.137 S 
BRANCH  19  23
ATOM     23  S   UNL A   1      30.106  29.346  23.214  1.00  0.00     0.241 S 
ATOM     24  O   UNL A   1      30.454  29.919  24.496  1.00  0.00    -0.207 OA
ATOM     25  O   UNL A   1      28.995  28.448  23.030  1.00  0.00    -0.207 OA
BRANCH  23  26
ATOM     26  N   UNL A   1      29.893  30.619  22.141  1.00  0.00    -0.206 NA
ATOM     27  H   UNL A   1      30.675  31.254  22.303  1.00  0.00     0.141 HD
BRANCH  26  28
ATOM     28  C   UNL A   1      28.674  31.475  22.108  1.00  0.00     0.025 C 
ATOM     29  C   UNL A   1      28.128  31.659  20.685  1.00  0.00     0.028 C 
ATOM     30  C   UNL A   1      28.893  32.829  22.790  1.00  0.00     0.028 C 
ATOM     31  C   UNL A   1      27.620  30.676  22.888  1.00  0.00     0.028 C 
ENDBRANCH  26  28
ENDBRANCH  23  26
ENDBRANCH  19  23
ENDBRANCH  15  18
ENDBRANCH   9  14
ENDBRANCH   6   8
ENDBRANCH   5   6
ENDBRANCH   4   5
ENDBRANCH   3   4
ENDBRANCH   2   3
ENDBRANCH   1   2
BRANCH   1  32
ATOM     32  C   UNL A   1      33.756  29.638  27.046  1.00  0.00     0.188 C 
BRANCH  32  33
ATOM     33  O   UNL A   1      33.375  30.925  26.596  1.00  0.00    -0.376 OA
BRANCH  33  34
ATOM     34  C   UNL A   1      32.085  31.399  26.951  1.00  0.00     0.202 C 
BRANCH  34  35
ATOM     35  C   UNL A   1      31.811  32.893  27.258  1.00  0.00     0.261 C 
BRANCH  35  36
ATOM     36  O   UNL A   1      32.927  33.805  27.209  1.00  0.00    -0.460 OA
BRANCH  36  37
ATOM     37  C   UNL A   1      33.415  34.235  28.403  1.00  0.00     0.338 C 
ATOM     38  O   UNL A   1      32.857  34.994  29.179  1.00  0.00    -0.246 OA
BRANCH  37  39
ATOM     39  C   UNL A   1      34.614  33.432  28.784  1.00  0.00     0.060 A 
ATOM     40  C   UNL A   1      34.419  32.267  29.551  1.00  0.00     0.016 A 
ATOM     41  C   UNL A   1      35.903  33.787  28.386  1.00  0.00     0.016 A 
ATOM     42  C   UNL A   1      35.502  31.488  29.956  1.00  0.00     0.010 A 
ATOM     43  C   UNL A   1      36.996  33.026  28.833  1.00  0.00     0.010 A 
ATOM     44  C   UNL A   1      36.804  31.903  29.661  1.00  0.00    -0.014 A 
BRANCH  44  45
ATOM     45  C   UNL A   1      37.925  31.339  30.462  1.00  0.00     0.031 A 
ATOM     46  C   UNL A   1      38.800  30.301  29.801  1.00  0.00     0.074 A 
ATOM     47  C   UNL A   1      38.216  31.759  31.707  1.00  0.00     0.049 A 
ATOM     48  N   UNL A   1      39.847  29.672  30.270  1.00  0.00    -0.248 NA
ATOM     49  C   UNL A   1      38.443  29.925  28.423  1.00  0.00     0.031 C 
ATOM     50  C   UNL A   1      37.479  32.773  32.458  1.00  0.00     0.029 A 
ATOM     51  N   UNL A   1      39.214  31.362  32.566  1.00  0.00    -0.354 N 
ATOM     52  C   UNL A   1      40.250  28.806  29.260  1.00  0.00     0.074 A 
ATOM     53  C   UNL A   1      39.328  28.977  28.160  1.00  0.00     0.031 C 
ATOM     54  C   UNL A   1      38.032  32.898  33.678  1.00  0.00     0.029 A 
ATOM     55  C   UNL A   1      39.150  31.961  33.802  1.00  0.00     0.049 A 
ATOM     56  H   UNL A   1      39.910  30.711  32.318  1.00  0.00     0.167 HD
ATOM     57  C   UNL A   1      41.300  27.951  29.236  1.00  0.00     0.034 A 
ATOM     58  C   UNL A   1      39.893  31.761  34.911  1.00  0.00     0.034 A 
ATOM     59  C   UNL A   1      42.229  27.782  30.319  1.00  0.00     0.049 A 
ATOM     60  C   UNL A   1      41.036  30.773  34.874  1.00  0.00     0.074 A 
ATOM     61  C   UNL A   1      43.347  26.968  30.372  1.00  0.00     0.029 A 
ATOM     62  N   UNL A   1      42.139  28.417  31.546  1.00  0.00    -0.354 N 
ATOM     63  N   UNL A   1      41.470  30.043  33.875  1.00  0.00    -0.248 NA
ATOM     64  C   UNL A   1      41.816  30.613  36.112  1.00  0.00     0.031 C 
ATOM     65  C   UNL A   1      43.908  27.079  31.648  1.00  0.00     0.029 A 
ATOM     66  C   UNL A   1      43.171  28.003  32.371  1.00  0.00     0.049 A 
ATOM     67  H   UNL A   1      41.444  29.068  31.795  1.00  0.00     0.167 HD
ATOM     68  C   UNL A   1      42.592  29.369  34.351  1.00  0.00     0.074 A 
ATOM     69  C   UNL A   1      42.786  29.799  35.719  1.00  0.00     0.031 C 
ATOM     70  C   UNL A   1      43.385  28.467  33.718  1.00  0.00     0.034 A 
BRANCH  57  71
ATOM     71  C   UNL A   1      41.500  27.130  27.988  1.00  0.00     0.023 A 
ATOM     72  C   UNL A   1      42.088  27.712  26.846  1.00  0.00     0.012 A 
ATOM     73  C   UNL A   1      41.139  25.768  27.962  1.00  0.00     0.148 A 
ATOM     74  C   UNL A   1      42.279  26.963  25.686  1.00  0.00     0.002 A 
ATOM     75  C   UNL A   1      41.381  25.016  26.819  1.00  0.00     0.091 A 
ATOM     76  F   UNL A   1      40.561  25.239  29.048  1.00  0.00    -0.205 F 
ATOM     77  C   UNL A   1      41.936  25.613  25.676  1.00  0.00     0.022 A 
BRANCH  75  78
ATOM     78  S   UNL A   1      41.053  23.252  26.734  1.00  0.00     0.127 S 
ATOM     79  O   UNL A   1      41.871  22.855  25.590  1.00  0.00    -0.237 OA
ATOM     80  O   UNL A   1      41.550  22.787  28.030  1.00  0.00    -0.237 OA
ATOM     81  O   UNL A   1      39.615  23.116  26.548  1.00  0.00    -0.744 OA
ENDBRANCH  75  78
ENDBRANCH  57  71
BRANCH  58  82
ATOM     82  C   UNL A   1      39.602  32.523  36.162  1.00  0.00     0.023 A 
ATOM     83  C   UNL A   1      40.330  33.693  36.454  1.00  0.00     0.012 A 
ATOM     84  C   UNL A   1      38.626  32.077  37.074  1.00  0.00     0.148 A 
ATOM     85  C   UNL A   1      40.116  34.386  37.647  1.00  0.00     0.002 A 
ATOM     86  C   UNL A   1      38.379  32.803  38.233  1.00  0.00     0.091 A 
ATOM     87  F   UNL A   1      37.960  30.950  36.789  1.00  0.00    -0.205 F 
ATOM     88  C   UNL A   1      39.135  33.946  38.532  1.00  0.00     0.022 A 
BRANCH  86  89
ATOM     89  S   UNL A   1      37.063  32.378  39.380  1.00  0.00     0.127 S 
ATOM     90  O   UNL A   1      37.444  31.027  39.784  1.00  0.00    -0.237 OA
ATOM     91  O   UNL A   1      37.228  33.400  40.414  1.00  0.00    -0.237 OA
ATOM     92  O   UNL A   1      35.826  32.481  38.618  1.00  0.00    -0.744 OA
ENDBRANCH  86  89
ENDBRANCH  58  82
BRANCH  70  93
ATOM     93  C   UNL A   1      44.569  27.916  34.475  1.00  0.00     0.023 A 
ATOM     94  C   UNL A   1      45.792  28.615  34.490  1.00  0.00     0.012 A 
ATOM     95  C   UNL A   1      44.451  26.722  35.218  1.00  0.00     0.148 A 
ATOM     96  C   UNL A   1      46.892  28.111  35.186  1.00  0.00     0.002 A 
ATOM     97  C   UNL A   1      45.533  26.255  35.955  1.00  0.00     0.091 A 
ATOM     98  F   UNL A   1      43.284  26.061  35.186  1.00  0.00    -0.205 F 
ATOM     99  C   UNL A   1      46.759  26.938  35.926  1.00  0.00     0.022 A 
BRANCH  97 100
ATOM    100  S   UNL A   1      45.425  24.810  37.016  1.00  0.00     0.127 S 
ATOM    101  O   UNL A   1      44.521  23.949  36.255  1.00  0.00    -0.237 OA
ATOM    102  O   UNL A   1      46.814  24.350  37.056  1.00  0.00    -0.237 OA
ATOM    103  O   UNL A   1      44.910  25.285  38.294  1.00  0.00    -0.744 OA
ENDBRANCH  97 100
ENDBRANCH  70  93
ENDBRANCH  44  45
ENDBRANCH  37  39
ENDBRANCH  36  37
ENDBRANCH  35  36
ENDBRANCH  34  35
ENDBRANCH  33  34
ENDBRANCH  32  33
ENDBRANCH   1  32
TORSDOF 25
ENDMDL
MODEL 2
REMARK VINA RESULT:     -10.3      1.462      7.343
REMARK SMILES CC(C)(C)NS(=O)(=O)c1csc(C(=O)Nc2ccccc2C(=O)OCCOCCOCCOC(=O)c2ccc(-c3c4nc(c(-c5cccc(S(=O)(=O)[O-])c5F)c5ccc([nH]5)c(-c5cccc(S(=O)(=O)[O-])c5F)c5nc(c(-c6cccc(S(=O)(=O)[O-])c6F)c6ccc3[nH]6)C=C5)C=C4)cc2)c1
REMARK SMILES IDX 28 1 27 2 26 3 25 4 24 5 22 6 23 7 21 8 16 9 17 10 18 11
REMARK SMILES IDX 20 12 19 13 15 14 13 15 14 16 12 18 9 19 10 20 99 21 11 22
REMARK SMILES IDX 6 23 7 24 8 25 5 26 2 28 1 29 3 30 4 31 29 32 30 33 31 34
REMARK SMILES IDX 32 35 33 36 34 37 35 38 36 39 37 40 98 41 38 42 97 43 39 44
REMARK SMILES IDX 40 45 41 46 91 47 42 48 96 49 90 50 92 51 43 52 95 53 89 54
REMARK SMILES IDX 88 55 44 57 76 58 56 59 75 60 57 61 60 62 74 63 93 64 58 65
REMARK SMILES IDX 59 66 73 68 94 69 61 70 45 71 46 72 54 73 47 74 49 75 55 76
REMARK SMILES IDX 48 77 50 78 51 79 52 80 53 81 77 82 78 83 86 84 79 85 81 86
REMARK SMILES IDX 87 87 80 88 82 89 83 90 84 91 85 92 62 93 63 94 71 95 64 96
REMARK SMILES IDX 66 97 72 98 65 99 67 100 68 101 69 102 70 103
REMARK H PARENT 15 17 5 27 92 56 60 67
REMARK Flexibility Score: inf
ROOT
ATOM      1  C   UNL A   1      33.022  30.459  27.198  1.00  0.00     0.188 C 
ENDROOT
BRANCH   1   2
ATOM      2  O   UNL A   1      33.742  29.524  26.429  1.00  0.00    -0.376 OA
BRANCH   2   3
ATOM      3  C   UNL A   1      33.613  28.149  26.723  1.00  0.00     0.202 C 
BRANCH   3   4
ATOM      4  C   UNL A   1      33.708  27.023  25.687  1.00  0.00     0.261 C 
BRANCH   4   5
ATOM      5  O   UNL A   1      34.510  25.867  25.961  1.00  0.00    -0.460 OA
BRANCH   5   6
ATOM      6  C   UNL A   1      34.504  24.925  24.984  1.00  0.00     0.340 C 
ATOM      7  O   UNL A   1      35.469  24.643  24.290  1.00  0.00    -0.246 OA
BRANCH   6   8
ATOM      8  C   UNL A   1      33.208  24.188  24.884  1.00  0.00     0.083 A 
ATOM      9  C   UNL A   1      32.450  23.975  23.713  1.00  0.00     0.056 A 
ATOM     10  C   UNL A   1      31.188  23.358  23.845  1.00  0.00     0.027 A 
ATOM     11  C   UNL A   1      30.730  22.875  25.076  1.00  0.00     0.002 A 
ATOM     12  C   UNL A   1      32.730  23.695  26.119  1.00  0.00     0.018 A 
ATOM     13  C   UNL A   1      31.509  23.032  26.213  1.00  0.00     0.001 A 
BRANCH   9  14
ATOM     14  N   UNL A   1      32.807  24.262  22.372  1.00  0.00    -0.320 N 
ATOM     15  C   UNL A   1      32.760  25.407  21.591  1.00  0.00     0.265 C 
ATOM     16  O   UNL A   1      33.003  25.265  20.390  1.00  0.00    -0.268 OA
ATOM     17  H   UNL A   1      33.167  23.481  21.892  1.00  0.00     0.170 HD
BRANCH  15  18
ATOM     18  C   UNL A   1      32.533  26.704  22.206  1.00  0.00     0.094 A 
ATOM     19  C   UNL A   1      31.405  28.613  22.893  1.00  0.00     0.093 A 
ATOM     20  C   UNL A   1      32.650  29.136  22.630  1.00  0.00     0.087 A 
ATOM     21  C   UNL A   1      31.396  27.194  22.808  1.00  0.00     0.047 A 
ATOM     22  S   UNL A   1      33.778  27.890  22.266  1.00  0.00    -0.137 S 
BRANCH  19  23
ATOM     23  S   UNL A   1      29.988  29.520  23.284  1.00  0.00     0.241 S 
ATOM     24  O   UNL A   1      30.346  30.325  24.433  1.00  0.00    -0.207 OA
ATOM     25  O   UNL A   1      28.919  28.557  23.303  1.00  0.00    -0.207 OA
BRANCH  23  26
ATOM     26  N   UNL A   1      29.681  30.574  22.015  1.00  0.00    -0.206 NA
ATOM     27  H   UNL A   1      30.566  31.042  21.821  1.00  0.00     0.141 HD
BRANCH  26  28
ATOM     28  C   UNL A   1      28.653  31.651  22.067  1.00  0.00     0.025 C 
ATOM     29  C   UNL A   1      27.460  31.278  22.959  1.00  0.00     0.028 C 
ATOM     30  C   UNL A   1      28.182  32.077  20.673  1.00  0.00     0.028 C 
ATOM     31  C   UNL A   1      29.363  32.830  22.748  1.00  0.00     0.028 C 
ENDBRANCH  26  28
ENDBRANCH  23  26
ENDBRANCH  19  23
ENDBRANCH  15  18
ENDBRANCH   9  14
ENDBRANCH   6   8
ENDBRANCH   5   6
ENDBRANCH   4   5
ENDBRANCH   3   4
ENDBRANCH   2   3
ENDBRANCH   1   2
BRANCH   1  32
ATOM     32  C   UNL A   1      33.889  31.575  27.830  1.00  0.00     0.188 C 
BRANCH  32  33
ATOM     33  O   UNL A   1      33.771  32.913  27.380  1.00  0.00    -0.376 OA
BRANCH  33  34
ATOM     34  C   UNL A   1      32.807  33.743  28.009  1.00  0.00     0.202 C 
BRANCH  34  35
ATOM     35  C   UNL A   1      33.026  35.266  28.194  1.00  0.00     0.261 C 
BRANCH  35  36
ATOM     36  O   UNL A   1      33.814  35.700  29.320  1.00  0.00    -0.460 OA
BRANCH  36  37
ATOM     37  C   UNL A   1      33.716  34.958  30.456  1.00  0.00     0.338 C 
ATOM     38  O   UNL A   1      32.742  34.886  31.188  1.00  0.00    -0.246 OA
BRANCH  37  39
ATOM     39  C   UNL A   1      34.863  34.008  30.545  1.00  0.00     0.060 A 
ATOM     40  C   UNL A   1      34.708  32.850  31.331  1.00  0.00     0.016 A 
ATOM     41  C   UNL A   1      36.060  34.223  29.863  1.00  0.00     0.016 A 
ATOM     42  C   UNL A   1      35.752  31.935  31.471  1.00  0.00     0.010 A 
ATOM     43  C   UNL A   1      37.126  33.324  30.042  1.00  0.00     0.010 A 
ATOM     44  C   UNL A   1      36.993  32.205  30.887  1.00  0.00    -0.014 A 
BRANCH  44  45
ATOM     45  C   UNL A   1      38.191  31.487  31.404  1.00  0.00     0.031 A 
ATOM     46  C   UNL A   1      38.722  31.901  32.755  1.00  0.00     0.074 A 
ATOM     47  C   UNL A   1      38.767  30.463  30.748  1.00  0.00     0.049 A 
ATOM     48  N   UNL A   1      39.734  31.426  33.435  1.00  0.00    -0.248 NA
ATOM     49  C   UNL A   1      38.011  33.002  33.428  1.00  0.00     0.031 C 
ATOM     50  C   UNL A   1      38.346  29.937  29.452  1.00  0.00     0.029 A 
ATOM     51  N   UNL A   1      39.853  29.691  31.089  1.00  0.00    -0.354 N 
ATOM     52  C   UNL A   1      39.799  32.189  34.596  1.00  0.00     0.074 A 
ATOM     53  C   UNL A   1      38.738  33.168  34.522  1.00  0.00     0.031 C 
ATOM     54  C   UNL A   1      39.182  28.946  29.092  1.00  0.00     0.029 A 
ATOM     55  C   UNL A   1      40.209  28.780  30.122  1.00  0.00     0.049 A 
ATOM     56  H   UNL A   1      40.330  29.782  31.945  1.00  0.00     0.167 HD
ATOM     57  C   UNL A   1      40.654  32.083  35.640  1.00  0.00     0.034 A 
ATOM     58  C   UNL A   1      41.253  27.927  30.066  1.00  0.00     0.034 A 
ATOM     59  C   UNL A   1      41.705  31.107  35.728  1.00  0.00     0.049 A 
ATOM     60  C   UNL A   1      42.218  27.852  31.226  1.00  0.00     0.074 A 
ATOM     61  C   UNL A   1      42.597  30.897  36.765  1.00  0.00     0.029 A 
ATOM     62  N   UNL A   1      42.022  30.193  34.737  1.00  0.00    -0.354 N 
ATOM     63  N   UNL A   1      42.201  28.505  32.363  1.00  0.00    -0.248 NA
ATOM     64  C   UNL A   1      43.327  26.892  31.108  1.00  0.00     0.031 C 
ATOM     65  C   UNL A   1      43.482  29.884  36.382  1.00  0.00     0.029 A 
ATOM     66  C   UNL A   1      43.107  29.427  35.129  1.00  0.00     0.049 A 
ATOM     67  H   UNL A   1      41.547  30.101  33.880  1.00  0.00     0.167 HD
ATOM     68  C   UNL A   1      43.268  28.008  33.108  1.00  0.00     0.074 A 
ATOM     69  C   UNL A   1      43.894  26.981  32.303  1.00  0.00     0.031 C 
ATOM     70  C   UNL A   1      43.699  28.375  34.342  1.00  0.00     0.034 A 
BRANCH  57  71
ATOM     71  C   UNL A   1      40.484  33.055  36.779  1.00  0.00     0.023 A 
ATOM     72  C   UNL A   1      41.143  34.302  36.747  1.00  0.00     0.012 A 
ATOM     73  C   UNL A   1      39.641  32.746  37.864  1.00  0.00     0.148 A 
ATOM     74  C   UNL A   1      40.993  35.210  37.795  1.00  0.00     0.002 A 
ATOM     75  C   UNL A   1      39.456  33.678  38.878  1.00  0.00     0.091 A 
ATOM     76  F   UNL A   1      39.043  31.547  37.887  1.00  0.00    -0.205 F 
ATOM     77  C   UNL A   1      40.142  34.903  38.854  1.00  0.00     0.022 A 
BRANCH  75  78
ATOM     78  S   UNL A   1      38.318  33.413  40.241  1.00  0.00     0.127 S 
ATOM     79  O   UNL A   1      38.776  32.127  40.763  1.00  0.00    -0.237 OA
ATOM     80  O   UNL A   1      38.604  34.559  41.105  1.00  0.00    -0.237 OA
ATOM     81  O   UNL A   1      36.983  33.407  39.658  1.00  0.00    -0.744 OA
ENDBRANCH  75  78
ENDBRANCH  57  71
BRANCH  58  82
ATOM     82  C   UNL A   1      41.446  27.048  28.874  1.00  0.00     0.023 A 
ATOM     83  C   UNL A   1      40.749  25.826  28.785  1.00  0.00     0.012 A 
ATOM     84  C   UNL A   1      42.336  27.406  27.843  1.00  0.00     0.148 A 
ATOM     85  C   UNL A   1      40.961  24.962  27.710  1.00  0.00     0.002 A 
ATOM     86  C   UNL A   1      42.500  26.566  26.748  1.00  0.00     0.091 A 
ATOM     87  F   UNL A   1      43.006  28.561  27.956  1.00  0.00    -0.205 F 
ATOM     88  C   UNL A   1      41.829  25.335  26.687  1.00  0.00     0.022 A 
BRANCH  86  89
ATOM     89  S   UNL A   1      43.512  27.010  25.331  1.00  0.00     0.127 S 
ATOM     90  O   UNL A   1      43.720  25.712  24.694  1.00  0.00    -0.237 OA
ATOM     91  O   UNL A   1      42.624  27.917  24.604  1.00  0.00    -0.237 OA
ATOM     92  O   UNL A   1      44.706  27.640  25.879  1.00  0.00    -0.744 OA
ENDBRANCH  86  89
ENDBRANCH  58  82
BRANCH  70  93
ATOM     93  C   UNL A   1      44.875  27.632  34.927  1.00  0.00     0.023 A 
ATOM     94  C   UNL A   1      46.181  28.140  34.784  1.00  0.00     0.012 A 
ATOM     95  C   UNL A   1      44.676  26.448  35.668  1.00  0.00     0.148 A 
ATOM     96  C   UNL A   1      47.274  27.458  35.320  1.00  0.00     0.002 A 
ATOM     97  C   UNL A   1      45.763  25.804  36.249  1.00  0.00     0.091 A 
ATOM     98  F   UNL A   1      43.429  25.969  35.787  1.00  0.00    -0.205 F 
ATOM     99  C   UNL A   1      47.064  26.296  36.061  1.00  0.00     0.022 A 
BRANCH  97 100
ATOM    100  S   UNL A   1      45.578  24.359  37.301  1.00  0.00     0.127 S 
ATOM    101  O   UNL A   1      44.606  24.831  38.285  1.00  0.00    -0.237 OA
ATOM    102  O   UNL A   1      45.063  23.359  36.366  1.00  0.00    -0.237 OA
ATOM    103  O   UNL A   1      46.907  24.069  37.824  1.00  0.00    -0.744 OA
ENDBRANCH  97 100
ENDBRANCH  70  93
ENDBRANCH  44  45
ENDBRANCH  37  39
ENDBRANCH  36  37
ENDBRANCH  35  36
ENDBRANCH  34  35
ENDBRANCH  33  34
ENDBRANCH  32  33
ENDBRANCH   1  32
TORSDOF 25
ENDMDL
MODEL 3
REMARK VINA RESULT:     -10.0      2.103      7.370
REMARK SMILES CC(C)(C)NS(=O)(=O)c1csc(C(=O)Nc2ccccc2C(=O)OCCOCCOCCOC(=O)c2ccc(-c3c4nc(c(-c5cccc(S(=O)(=O)[O-])c5F)c5ccc([nH]5)c(-c5cccc(S(=O)(=O)[O-])c5F)c5nc(c(-c6cccc(S(=O)(=O)[O-])c6F)c6ccc3[nH]6)C=C5)C=C4)cc2)c1
REMARK SMILES IDX 28 1 27 2 26 3 25 4 24 5 22 6 23 7 21 8 16 9 17 10 18 11
REMARK SMILES IDX 20 12 19 13 15 14 13 15 14 16 12 18 9 19 10 20 99 21 11 22
REMARK SMILES IDX 6 23 7 24 8 25 5 26 2 28 1 29 3 30 4 31 29 32 30 33 31 34
REMARK SMILES IDX 32 35 33 36 34 37 35 38 36 39 37 40 98 41 38 42 97 43 39 44
REMARK SMILES IDX 40 45 41 46 91 47 42 48 96 49 90 50 92 51 43 52 95 53 89 54
REMARK SMILES IDX 88 55 44 57 76 58 56 59 75 60 57 61 60 62 74 63 93 64 58 65
REMARK SMILES IDX 59 66 73 68 94 69 61 70 45 71 46 72 54 73 47 74 49 75 55 76
REMARK SMILES IDX 48 77 50 78 51 79 52 80 53 81 77 82 78 83 86 84 79 85 81 86
REMARK SMILES IDX 87 87 80 88 82 89 83 90 84 91 85 92 62 93 63 94 71 95 64 96
REMARK SMILES IDX 66 97 72 98 65 99 67 100 68 101 69 102 70 103
REMARK H PARENT 15 17 5 27 92 56 60 67
REMARK Flexibility Score: inf
ROOT
ATOM      1  C   UNL A   1      33.250  29.979  27.018  1.00  0.00     0.188 C 
ENDROOT
BRANCH   1   2
ATOM      2  O   UNL A   1      33.868  29.076  26.133  1.00  0.00    -0.376 OA
BRANCH   2   3
ATOM      3  C   UNL A   1      33.856  27.698  26.441  1.00  0.00     0.202 C 
BRANCH   3   4
ATOM      4  C   UNL A   1      33.898  26.571  25.401  1.00  0.00     0.261 C 
BRANCH   4   5
ATOM      5  O   UNL A   1      34.754  25.441  25.608  1.00  0.00    -0.460 OA
BRANCH   5   6
ATOM      6  C   UNL A   1      34.670  24.479  24.652  1.00  0.00     0.340 C 
ATOM      7  O   UNL A   1      35.618  24.072  23.998  1.00  0.00    -0.246 OA
BRANCH   6   8
ATOM      8  C   UNL A   1      33.302  23.893  24.525  1.00  0.00     0.083 A 
ATOM      9  C   UNL A   1      32.499  23.877  23.365  1.00  0.00     0.056 A 
ATOM     10  C   UNL A   1      31.182  23.383  23.479  1.00  0.00     0.027 A 
ATOM     11  C   UNL A   1      30.705  22.829  24.671  1.00  0.00     0.002 A 
ATOM     12  C   UNL A   1      32.803  23.332  25.721  1.00  0.00     0.018 A 
ATOM     13  C   UNL A   1      31.522  22.791  25.791  1.00  0.00     0.001 A 
BRANCH   9  14
ATOM     14  N   UNL A   1      32.854  24.258  22.046  1.00  0.00    -0.320 N 
ATOM     15  C   UNL A   1      32.821  25.459  21.354  1.00  0.00     0.265 C 
ATOM     16  O   UNL A   1      33.055  25.404  20.144  1.00  0.00    -0.268 OA
ATOM     17  H   UNL A   1      33.198  23.510  21.507  1.00  0.00     0.170 HD
BRANCH  15  18
ATOM     18  C   UNL A   1      32.618  26.710  22.066  1.00  0.00     0.094 A 
ATOM     19  C   UNL A   1      31.520  28.571  22.914  1.00  0.00     0.093 A 
ATOM     20  C   UNL A   1      32.764  29.104  22.661  1.00  0.00     0.087 A 
ATOM     21  C   UNL A   1      31.499  27.163  22.727  1.00  0.00     0.047 A 
ATOM     22  S   UNL A   1      33.873  27.880  22.183  1.00  0.00    -0.137 S 
BRANCH  19  23
ATOM     23  S   UNL A   1      30.121  29.457  23.402  1.00  0.00     0.241 S 
ATOM     24  O   UNL A   1      30.484  30.109  24.643  1.00  0.00    -0.207 OA
ATOM     25  O   UNL A   1      29.030  28.524  23.295  1.00  0.00    -0.207 OA
BRANCH  23  26
ATOM     26  N   UNL A   1      29.850  30.664  22.267  1.00  0.00    -0.206 NA
ATOM     27  H   UNL A   1      30.685  31.249  22.278  1.00  0.00     0.141 HD
BRANCH  26  28
ATOM     28  C   UNL A   1      28.694  31.603  22.321  1.00  0.00     0.025 C 
ATOM     29  C   UNL A   1      29.117  33.028  22.706  1.00  0.00     0.028 C 
ATOM     30  C   UNL A   1      27.574  31.098  23.237  1.00  0.00     0.028 C 
ATOM     31  C   UNL A   1      28.180  31.668  20.876  1.00  0.00     0.028 C 
ENDBRANCH  26  28
ENDBRANCH  23  26
ENDBRANCH  19  23
ENDBRANCH  15  18
ENDBRANCH   9  14
ENDBRANCH   6   8
ENDBRANCH   5   6
ENDBRANCH   4   5
ENDBRANCH   3   4
ENDBRANCH   2   3
ENDBRANCH   1   2
BRANCH   1  32
ATOM     32  C   UNL A   1      34.206  31.026  27.640  1.00  0.00     0.188 C 
BRANCH  32  33
ATOM     33  O   UNL A   1      34.122  32.387  27.257  1.00  0.00    -0.376 OA
BRANCH  33  34
ATOM     34  C   UNL A   1      33.151  33.199  27.898  1.00  0.00     0.202 C 
BRANCH  34  35
ATOM     35  C   UNL A   1      33.366  34.717  28.126  1.00  0.00     0.261 C 
BRANCH  35  36
ATOM     36  O   UNL A   1      34.391  35.118  29.058  1.00  0.00    -0.460 OA
BRANCH  36  37
ATOM     37  C   UNL A   1      34.483  34.401  30.210  1.00  0.00     0.338 C 
ATOM     38  O   UNL A   1      33.627  34.315  31.076  1.00  0.00    -0.246 OA
BRANCH  37  39
ATOM     39  C   UNL A   1      35.664  33.491  30.152  1.00  0.00     0.060 A 
ATOM     40  C   UNL A   1      35.586  32.255  30.822  1.00  0.00     0.016 A 
ATOM     41  C   UNL A   1      36.820  33.819  29.444  1.00  0.00     0.016 A 
ATOM     42  C   UNL A   1      36.666  31.372  30.823  1.00  0.00     0.010 A 
ATOM     43  C   UNL A   1      37.923  32.949  29.483  1.00  0.00     0.010 A 
ATOM     44  C   UNL A   1      37.868  31.746  30.215  1.00  0.00    -0.014 A 
BRANCH  44  45
ATOM     45  C   UNL A   1      39.112  31.028  30.604  1.00  0.00     0.031 A 
ATOM     46  C   UNL A   1      39.761  31.414  31.911  1.00  0.00     0.074 A 
ATOM     47  C   UNL A   1      39.633  30.024  29.874  1.00  0.00     0.049 A 
ATOM     48  N   UNL A   1      40.833  30.932  32.485  1.00  0.00    -0.248 NA
ATOM     49  C   UNL A   1      39.107  32.492  32.673  1.00  0.00     0.031 C 
ATOM     50  C   UNL A   1      39.099  29.525  28.609  1.00  0.00     0.029 A 
ATOM     51  N   UNL A   1      40.751  29.254  30.096  1.00  0.00    -0.354 N 
ATOM     52  C   UNL A   1      40.999  31.668  33.653  1.00  0.00     0.074 A 
ATOM     53  C   UNL A   1      39.929  32.638  33.700  1.00  0.00     0.031 C 
ATOM     54  C   UNL A   1      39.906  28.550  28.151  1.00  0.00     0.029 A 
ATOM     55  C   UNL A   1      41.024  28.369  29.079  1.00  0.00     0.049 A 
ATOM     56  H   UNL A   1      41.303  29.328  30.908  1.00  0.00     0.167 HD
ATOM     57  C   UNL A   1      41.946  31.545  34.613  1.00  0.00     0.034 A 
ATOM     58  C   UNL A   1      42.064  27.527  28.908  1.00  0.00     0.034 A 
ATOM     59  C   UNL A   1      43.007  30.576  34.582  1.00  0.00     0.049 A 
ATOM     60  C   UNL A   1      43.130  27.434  29.974  1.00  0.00     0.074 A 
ATOM     61  C   UNL A   1      43.991  30.349  35.529  1.00  0.00     0.029 A 
ATOM     62  N   UNL A   1      43.239  29.688  33.544  1.00  0.00    -0.354 N 
ATOM     63  N   UNL A   1      43.213  28.059  31.123  1.00  0.00    -0.248 NA
ATOM     64  C   UNL A   1      44.230  26.486  29.733  1.00  0.00     0.031 C 
ATOM     65  C   UNL A   1      44.844  29.353  35.042  1.00  0.00     0.029 A 
ATOM     66  C   UNL A   1      44.359  28.923  33.817  1.00  0.00     0.049 A 
ATOM     67  H   UNL A   1      42.688  29.613  32.732  1.00  0.00     0.167 HD
ATOM     68  C   UNL A   1      44.346  27.554  31.756  1.00  0.00     0.074 A 
ATOM     69  C   UNL A   1      44.903  26.552  30.873  1.00  0.00     0.031 C 
ATOM     70  C   UNL A   1      44.884  27.896  32.954  1.00  0.00     0.034 A 
BRANCH  57  71
ATOM     71  C   UNL A   1      41.874  32.488  35.787  1.00  0.00     0.023 A 
ATOM     72  C   UNL A   1      41.179  32.109  36.954  1.00  0.00     0.012 A 
ATOM     73  C   UNL A   1      42.528  33.734  35.745  1.00  0.00     0.148 A 
ATOM     74  C   UNL A   1      41.106  32.972  38.047  1.00  0.00     0.002 A 
ATOM     75  C   UNL A   1      42.494  34.566  36.857  1.00  0.00     0.091 A 
ATOM     76  F   UNL A   1      43.163  34.085  34.618  1.00  0.00    -0.205 F 
ATOM     77  C   UNL A   1      41.772  34.195  38.002  1.00  0.00     0.022 A 
BRANCH  75  78
ATOM     78  S   UNL A   1      43.387  36.122  36.931  1.00  0.00     0.127 S 
ATOM     79  O   UNL A   1      42.421  36.986  37.606  1.00  0.00    -0.237 OA
ATOM     80  O   UNL A   1      44.555  35.765  37.738  1.00  0.00    -0.237 OA
ATOM     81  O   UNL A   1      43.687  36.482  35.552  1.00  0.00    -0.744 OA
ENDBRANCH  75  78
ENDBRANCH  57  71
BRANCH  58  82
ATOM     82  C   UNL A   1      42.153  26.678  27.683  1.00  0.00     0.023 A 
ATOM     83  C   UNL A   1      42.587  27.245  26.468  1.00  0.00     0.012 A 
ATOM     84  C   UNL A   1      41.785  25.319  27.711  1.00  0.00     0.148 A 
ATOM     85  C   UNL A   1      42.619  26.485  25.298  1.00  0.00     0.002 A 
ATOM     86  C   UNL A   1      41.873  24.553  26.555  1.00  0.00     0.091 A 
ATOM     87  F   UNL A   1      41.355  24.803  28.871  1.00  0.00    -0.205 F 
ATOM     88  C   UNL A   1      42.271  25.138  25.343  1.00  0.00     0.022 A 
BRANCH  86  89
ATOM     89  S   UNL A   1      41.552  22.786  26.536  1.00  0.00     0.127 S 
ATOM     90  O   UNL A   1      40.093  22.749  26.484  1.00  0.00    -0.237 OA
ATOM     91  O   UNL A   1      42.223  22.374  25.304  1.00  0.00    -0.237 OA
ATOM     92  O   UNL A   1      42.150  22.262  27.757  1.00  0.00    -0.744 OA
ENDBRANCH  86  89
ENDBRANCH  58  82
BRANCH  70  93
ATOM     93  C   UNL A   1      46.114  27.149  33.413  1.00  0.00     0.023 A 
ATOM     94  C   UNL A   1      47.380  27.470  32.884  1.00  0.00     0.012 A 
ATOM     95  C   UNL A   1      46.018  26.157  34.412  1.00  0.00     0.148 A 
ATOM     96  C   UNL A   1      48.521  26.783  33.301  1.00  0.00     0.002 A 
ATOM     97  C   UNL A   1      47.167  25.516  34.864  1.00  0.00     0.091 A 
ATOM     98  F   UNL A   1      44.806  25.854  34.898  1.00  0.00    -0.205 F 
ATOM     99  C   UNL A   1      48.415  25.814  34.298  1.00  0.00     0.022 A 
BRANCH  97 100
ATOM    100  S   UNL A   1      47.140  24.329  36.212  1.00  0.00     0.127 S 
ATOM    101  O   UNL A   1      46.576  25.126  37.300  1.00  0.00    -0.237 OA
ATOM    102  O   UNL A   1      46.250  23.290  35.692  1.00  0.00    -0.237 OA
ATOM    103  O   UNL A   1      48.521  23.901  36.399  1.00  0.00    -0.744 OA
ENDBRANCH  97 100
ENDBRANCH  70  93
ENDBRANCH  44  45
ENDBRANCH  37  39
ENDBRANCH  36  37
ENDBRANCH  35  36
ENDBRANCH  34  35
ENDBRANCH  33  34
ENDBRANCH  32  33
ENDBRANCH   1  32
TORSDOF 25
ENDMDL
