MODEL 1
REMARK VINA RESULT:     -10.8      0.000      0.000
REMARK SMILES CO[C@H]1CCC[C@H]1NC(=O)N[C@](C)(C(=O)OCCOCCOCCOC(=O)c1ccc(-c2c3nc(c(-c4cccc(S(=O)(=O)[O-])c4F)c4ccc([nH]4)c(-c4cccc(S(=O)(=O)[O-])c4F)c4nc(c(-c5cccc(S(=O)(=O)[O-])c5F)c5ccc2[nH]5)C=C4)C=C3)cc1)C(F)(F)F
REMARK SMILES IDX 20 1 19 2 18 3 17 4 16 5 14 6 15 7 12 8 13 9 11 10 8 11 9 12
REMARK SMILES IDX 10 14 7 16 3 17 4 18 5 19 6 20 2 21 1 22 91 23 92 24 93 25
REMARK SMILES IDX 94 26 21 27 22 28 23 29 24 30 25 31 26 32 27 33 28 34 29 35
REMARK SMILES IDX 90 36 30 37 89 38 31 39 32 40 33 41 83 42 34 43 88 44 82 45
REMARK SMILES IDX 84 46 35 47 87 48 81 49 80 50 36 52 68 53 48 54 67 55 49 56
REMARK SMILES IDX 52 57 66 58 85 59 50 60 51 61 65 63 86 64 53 65 37 66 38 67
REMARK SMILES IDX 46 68 39 69 41 70 47 71 40 72 42 73 43 74 44 75 45 76 69 77
REMARK SMILES IDX 70 78 78 79 71 80 73 81 79 82 72 83 74 84 75 85 76 86 77 87
REMARK SMILES IDX 54 88 55 89 63 90 56 91 58 92 64 93 57 94 59 95 60 96 61 97
REMARK SMILES IDX 62 98
REMARK H PARENT 8 13 11 15 84 51 52 62
REMARK Flexibility Score: inf
ROOT
ATOM      1  C   UNL A   1      40.816  21.140  26.374  1.00  0.00     0.188 C 
ENDROOT
BRANCH   1   2
ATOM      2  O   UNL A   1      39.528  21.693  26.595  1.00  0.00    -0.376 OA
BRANCH   2   3
ATOM      3  C   UNL A   1      38.486  21.458  25.657  1.00  0.00     0.202 C 
BRANCH   3   4
ATOM      4  C   UNL A   1      37.422  22.543  25.431  1.00  0.00     0.261 C 
BRANCH   4   5
ATOM      5  O   UNL A   1      36.175  22.209  26.069  1.00  0.00    -0.461 OA
BRANCH   5   6
ATOM      6  C   UNL A   1      35.143  21.882  25.240  1.00  0.00     0.341 C 
ATOM      7  O   UNL A   1      35.018  20.769  24.742  1.00  0.00    -0.249 OA
BRANCH   6   8
ATOM      8  C   UNL A   1      34.124  23.038  25.038  1.00  0.00     0.232 C 
ATOM      9  C   UNL A   1      34.775  24.398  25.380  1.00  0.00     0.058 C 
BRANCH   8  10
ATOM     10  N   UNL A   1      33.843  23.006  23.545  1.00  0.00    -0.315 N 
ATOM     11  N   UNL A   1      32.504  24.761  22.648  1.00  0.00    -0.333 N 
ATOM     12  C   UNL A   1      33.318  23.711  22.543  1.00  0.00     0.316 C 
ATOM     13  H   UNL A   1      32.359  25.236  21.797  1.00  0.00     0.165 HD
ATOM     14  O   UNL A   1      33.622  23.340  21.405  1.00  0.00    -0.249 OA
ATOM     15  H   UNL A   1      34.167  22.148  23.185  1.00  0.00     0.166 HD
BRANCH  11  16
ATOM     16  C   UNL A   1      31.798  25.333  23.755  1.00  0.00     0.112 C 
ATOM     17  C   UNL A   1      31.994  26.818  24.057  1.00  0.00     0.140 C 
ATOM     18  C   UNL A   1      30.955  27.051  25.165  1.00  0.00     0.034 C 
ATOM     19  C   UNL A   1      29.885  25.957  24.999  1.00  0.00     0.005 C 
ATOM     20  C   UNL A   1      30.284  25.166  23.753  1.00  0.00     0.028 C 
BRANCH  17  21
ATOM     21  O   UNL A   1      31.655  27.635  22.935  1.00  0.00    -0.379 OA
ATOM     22  C   UNL A   1      32.311  28.894  22.966  1.00  0.00     0.195 C 
ENDBRANCH  17  21
ENDBRANCH  11  16
ENDBRANCH   8  10
BRANCH   8  23
ATOM     23  C   UNL A   1      33.004  22.640  26.022  1.00  0.00     0.422 C 
ATOM     24  F   UNL A   1      31.950  22.047  25.444  1.00  0.00    -0.168 F 
ATOM     25  F   UNL A   1      33.430  21.724  26.932  1.00  0.00    -0.168 F 
ATOM     26  F   UNL A   1      32.503  23.704  26.684  1.00  0.00    -0.168 F 
ENDBRANCH   8  23
ENDBRANCH   6   8
ENDBRANCH   5   6
ENDBRANCH   4   5
ENDBRANCH   3   4
ENDBRANCH   2   3
ENDBRANCH   1   2
BRANCH   1  27
ATOM     27  C   UNL A   1      41.958  21.462  27.360  1.00  0.00     0.188 C 
BRANCH  27  28
ATOM     28  O   UNL A   1      43.304  21.517  26.911  1.00  0.00    -0.376 OA
BRANCH  28  29
ATOM     29  C   UNL A   1      43.551  21.233  25.547  1.00  0.00     0.202 C 
BRANCH  29  30
ATOM     30  C   UNL A   1      44.055  22.381  24.664  1.00  0.00     0.261 C 
BRANCH  30  31
ATOM     31  O   UNL A   1      43.244  23.567  24.693  1.00  0.00    -0.460 OA
BRANCH  31  32
ATOM     32  C   UNL A   1      43.893  24.695  25.066  1.00  0.00     0.338 C 
ATOM     33  O   UNL A   1      44.972  25.096  24.630  1.00  0.00    -0.246 OA
BRANCH  32  34
ATOM     34  C   UNL A   1      43.064  25.502  25.986  1.00  0.00     0.060 A 
ATOM     35  C   UNL A   1      43.332  26.875  26.077  1.00  0.00     0.016 A 
ATOM     36  C   UNL A   1      42.098  24.922  26.812  1.00  0.00     0.016 A 
ATOM     37  C   UNL A   1      42.689  27.657  27.036  1.00  0.00     0.010 A 
ATOM     38  C   UNL A   1      41.460  25.705  27.784  1.00  0.00     0.010 A 
ATOM     39  C   UNL A   1      41.789  27.065  27.932  1.00  0.00    -0.014 A 
BRANCH  39  40
ATOM     40  C   UNL A   1      41.370  27.818  29.144  1.00  0.00     0.031 A 
ATOM     41  C   UNL A   1      40.060  28.561  29.112  1.00  0.00     0.074 A 
ATOM     42  C   UNL A   1      42.114  27.826  30.265  1.00  0.00     0.049 A 
ATOM     43  N   UNL A   1      39.480  29.264  30.050  1.00  0.00    -0.248 NA
ATOM     44  C   UNL A   1      39.302  28.503  27.850  1.00  0.00     0.031 C 
ATOM     45  C   UNL A   1      43.396  27.148  30.438  1.00  0.00     0.029 A 
ATOM     46  N   UNL A   1      41.895  28.450  31.470  1.00  0.00    -0.354 N 
ATOM     47  C   UNL A   1      38.304  29.746  29.490  1.00  0.00     0.074 A 
ATOM     48  C   UNL A   1      38.258  29.270  28.125  1.00  0.00     0.031 C 
ATOM     49  C   UNL A   1      43.863  27.410  31.674  1.00  0.00     0.029 A 
ATOM     50  C   UNL A   1      42.920  28.285  32.371  1.00  0.00     0.049 A 
ATOM     51  H   UNL A   1      41.081  28.964  31.670  1.00  0.00     0.167 HD
ATOM     52  C   UNL A   1      37.335  30.503  30.059  1.00  0.00     0.034 A 
ATOM     53  C   UNL A   1      43.083  28.791  33.611  1.00  0.00     0.034 A 
ATOM     54  C   UNL A   1      37.361  30.971  31.417  1.00  0.00     0.049 A 
ATOM     55  C   UNL A   1      42.000  29.651  34.215  1.00  0.00     0.074 A 
ATOM     56  C   UNL A   1      36.409  31.719  32.088  1.00  0.00     0.029 A 
ATOM     57  N   UNL A   1      38.397  30.750  32.310  1.00  0.00    -0.354 N 
ATOM     58  N   UNL A   1      40.838  29.995  33.714  1.00  0.00    -0.248 NA
ATOM     59  C   UNL A   1      42.238  30.164  35.575  1.00  0.00     0.031 C 
ATOM     60  C   UNL A   1      36.880  31.968  33.383  1.00  0.00     0.029 A 
ATOM     61  C   UNL A   1      38.112  31.353  33.524  1.00  0.00     0.049 A 
ATOM     62  H   UNL A   1      39.216  30.240  32.111  1.00  0.00     0.167 HD
ATOM     63  C   UNL A   1      40.192  30.726  34.709  1.00  0.00     0.074 A 
ATOM     64  C   UNL A   1      41.084  30.758  35.849  1.00  0.00     0.031 C 
ATOM     65  C   UNL A   1      38.977  31.329  34.675  1.00  0.00     0.034 A 
BRANCH  52  66
ATOM     66  C   UNL A   1      36.141  30.851  29.210  1.00  0.00     0.023 A 
ATOM     67  C   UNL A   1      35.483  29.835  28.486  1.00  0.00     0.012 A 
ATOM     68  C   UNL A   1      35.646  32.168  29.162  1.00  0.00     0.148 A 
ATOM     69  C   UNL A   1      34.370  30.131  27.701  1.00  0.00     0.002 A 
ATOM     70  C   UNL A   1      34.511  32.447  28.410  1.00  0.00     0.091 A 
ATOM     71  F   UNL A   1      36.301  33.123  29.836  1.00  0.00    -0.205 F 
ATOM     72  C   UNL A   1      33.878  31.433  27.672  1.00  0.00     0.022 A 
BRANCH  70  73
ATOM     73  S   UNL A   1      33.761  34.078  28.366  1.00  0.00     0.127 S 
ATOM     74  O   UNL A   1      32.528  33.815  27.625  1.00  0.00    -0.237 OA
ATOM     75  O   UNL A   1      33.567  34.368  29.787  1.00  0.00    -0.237 OA
ATOM     76  O   UNL A   1      34.722  34.943  27.696  1.00  0.00    -0.744 OA
ENDBRANCH  70  73
ENDBRANCH  52  66
BRANCH  53  77
ATOM     77  C   UNL A   1      44.310  28.469  34.396  1.00  0.00     0.023 A 
ATOM     78  C   UNL A   1      45.503  29.175  34.142  1.00  0.00     0.012 A 
ATOM     79  C   UNL A   1      44.303  27.465  35.383  1.00  0.00     0.148 A 
ATOM     80  C   UNL A   1      46.675  28.861  34.831  1.00  0.00     0.002 A 
ATOM     81  C   UNL A   1      45.461  27.195  36.104  1.00  0.00     0.091 A 
ATOM     82  F   UNL A   1      43.164  26.791  35.594  1.00  0.00    -0.205 F 
ATOM     83  C   UNL A   1      46.652  27.879  35.816  1.00  0.00     0.022 A 
BRANCH  81  84
ATOM     84  S   UNL A   1      45.493  26.029  37.470  1.00  0.00     0.127 S 
ATOM     85  O   UNL A   1      45.892  24.794  36.802  1.00  0.00    -0.237 OA
ATOM     86  O   UNL A   1      46.511  26.616  38.343  1.00  0.00    -0.237 OA
ATOM     87  O   UNL A   1      44.147  26.043  38.027  1.00  0.00    -0.744 OA
ENDBRANCH  81  84
ENDBRANCH  53  77
BRANCH  65  88
ATOM     88  C   UNL A   1      38.509  32.044  35.919  1.00  0.00     0.023 A 
ATOM     89  C   UNL A   1      38.613  33.447  36.003  1.00  0.00     0.012 A 
ATOM     90  C   UNL A   1      37.897  31.334  36.972  1.00  0.00     0.148 A 
ATOM     91  C   UNL A   1      38.151  34.127  37.131  1.00  0.00     0.002 A 
ATOM     92  C   UNL A   1      37.395  32.023  38.071  1.00  0.00     0.091 A 
ATOM     93  F   UNL A   1      37.821  29.998  36.886  1.00  0.00    -0.205 F 
ATOM     94  C   UNL A   1      37.533  33.418  38.158  1.00  0.00     0.022 A 
BRANCH  92  95
ATOM     95  S   UNL A   1      36.497  31.198  39.391  1.00  0.00     0.127 S 
ATOM     96  O   UNL A   1      35.351  32.087  39.573  1.00  0.00    -0.237 OA
ATOM     97  O   UNL A   1      36.174  29.903  38.791  1.00  0.00    -0.237 OA
ATOM     98  O   UNL A   1      37.423  31.125  40.514  1.00  0.00    -0.744 OA
ENDBRANCH  92  95
ENDBRANCH  65  88
ENDBRANCH  39  40
ENDBRANCH  32  34
ENDBRANCH  31  32
ENDBRANCH  30  31
ENDBRANCH  29  30
ENDBRANCH  28  29
ENDBRANCH  27  28
ENDBRANCH   1  27
TORSDOF 24
ENDMDL
MODEL 2
REMARK VINA RESULT:      -9.8      3.168     10.014
REMARK SMILES CO[C@H]1CCC[C@H]1NC(=O)N[C@](C)(C(=O)OCCOCCOCCOC(=O)c1ccc(-c2c3nc(c(-c4cccc(S(=O)(=O)[O-])c4F)c4ccc([nH]4)c(-c4cccc(S(=O)(=O)[O-])c4F)c4nc(c(-c5cccc(S(=O)(=O)[O-])c5F)c5ccc2[nH]5)C=C4)C=C3)cc1)C(F)(F)F
REMARK SMILES IDX 20 1 19 2 18 3 17 4 16 5 14 6 15 7 12 8 13 9 11 10 8 11 9 12
REMARK SMILES IDX 10 14 7 16 3 17 4 18 5 19 6 20 2 21 1 22 91 23 92 24 93 25
REMARK SMILES IDX 94 26 21 27 22 28 23 29 24 30 25 31 26 32 27 33 28 34 29 35
REMARK SMILES IDX 90 36 30 37 89 38 31 39 32 40 33 41 83 42 34 43 88 44 82 45
REMARK SMILES IDX 84 46 35 47 87 48 81 49 80 50 36 52 68 53 48 54 67 55 49 56
REMARK SMILES IDX 52 57 66 58 85 59 50 60 51 61 65 63 86 64 53 65 37 66 38 67
REMARK SMILES IDX 46 68 39 69 41 70 47 71 40 72 42 73 43 74 44 75 45 76 69 77
REMARK SMILES IDX 70 78 78 79 71 80 73 81 79 82 72 83 74 84 75 85 76 86 77 87
REMARK SMILES IDX 54 88 55 89 63 90 56 91 58 92 64 93 57 94 59 95 60 96 61 97
REMARK SMILES IDX 62 98
REMARK H PARENT 8 13 11 15 84 51 52 62
REMARK Flexibility Score: inf
ROOT
ATOM      1  C   UNL A   1      33.767  30.591  27.621  1.00  0.00     0.188 C 
ENDROOT
BRANCH   1   2
ATOM      2  O   UNL A   1      33.213  30.275  26.354  1.00  0.00    -0.376 OA
BRANCH   2   3
ATOM      3  C   UNL A   1      31.818  30.426  26.133  1.00  0.00     0.202 C 
BRANCH   3   4
ATOM      4  C   UNL A   1      31.233  30.074  24.756  1.00  0.00     0.261 C 
BRANCH   4   5
ATOM      5  O   UNL A   1      31.724  28.809  24.275  1.00  0.00    -0.461 OA
BRANCH   5   6
ATOM      6  C   UNL A   1      30.813  27.797  24.206  1.00  0.00     0.341 C 
ATOM      7  O   UNL A   1      29.636  27.980  23.917  1.00  0.00    -0.249 OA
BRANCH   6   8
ATOM      8  C   UNL A   1      31.427  26.395  24.477  1.00  0.00     0.232 C 
ATOM      9  C   UNL A   1      30.404  25.284  24.148  1.00  0.00     0.058 C 
BRANCH   8  10
ATOM     10  N   UNL A   1      32.566  26.307  23.475  1.00  0.00    -0.315 N 
ATOM     11  N   UNL A   1      33.952  24.370  23.565  1.00  0.00    -0.333 N 
ATOM     12  C   UNL A   1      33.506  25.490  22.999  1.00  0.00     0.316 C 
ATOM     13  H   UNL A   1      34.530  23.831  22.978  1.00  0.00     0.165 HD
ATOM     14  O   UNL A   1      34.012  25.821  21.921  1.00  0.00    -0.249 OA
ATOM     15  H   UNL A   1      32.637  27.170  23.006  1.00  0.00     0.166 HD
BRANCH  11  16
ATOM     16  C   UNL A   1      33.756  23.796  24.863  1.00  0.00     0.112 C 
ATOM     17  C   UNL A   1      32.807  22.606  24.999  1.00  0.00     0.140 C 
ATOM     18  C   UNL A   1      33.021  22.202  26.467  1.00  0.00     0.034 C 
ATOM     19  C   UNL A   1      34.414  22.721  26.865  1.00  0.00     0.005 C 
ATOM     20  C   UNL A   1      35.008  23.339  25.599  1.00  0.00     0.028 C 
BRANCH  17  21
ATOM     21  O   UNL A   1      33.203  21.516  24.165  1.00  0.00    -0.379 OA
ATOM     22  C   UNL A   1      32.704  20.271  24.629  1.00  0.00     0.195 C 
ENDBRANCH  17  21
ENDBRANCH  11  16
ENDBRANCH   8  10
BRANCH   8  23
ATOM     23  C   UNL A   1      31.756  26.486  25.982  1.00  0.00     0.422 C 
ATOM     24  F   UNL A   1      30.993  27.357  26.659  1.00  0.00    -0.168 F 
ATOM     25  F   UNL A   1      31.542  25.305  26.621  1.00  0.00    -0.168 F 
ATOM     26  F   UNL A   1      33.030  26.872  26.205  1.00  0.00    -0.168 F 
ENDBRANCH   8  23
ENDBRANCH   6   8
ENDBRANCH   5   6
ENDBRANCH   4   5
ENDBRANCH   3   4
ENDBRANCH   2   3
ENDBRANCH   1   2
BRANCH   1  27
ATOM     27  C   UNL A   1      33.987  32.069  28.005  1.00  0.00     0.188 C 
BRANCH  27  28
ATOM     28  O   UNL A   1      32.910  32.993  27.963  1.00  0.00    -0.376 OA
BRANCH  28  29
ATOM     29  C   UNL A   1      33.222  34.369  28.076  1.00  0.00     0.202 C 
BRANCH  29  30
ATOM     30  C   UNL A   1      33.628  34.891  29.459  1.00  0.00     0.261 C 
BRANCH  30  31
ATOM     31  O   UNL A   1      32.581  34.872  30.444  1.00  0.00    -0.460 OA
BRANCH  31  32
ATOM     32  C   UNL A   1      32.851  35.561  31.577  1.00  0.00     0.338 C 
ATOM     33  O   UNL A   1      32.213  36.516  32.022  1.00  0.00    -0.246 OA
BRANCH  32  34
ATOM     34  C   UNL A   1      33.951  34.928  32.333  1.00  0.00     0.060 A 
ATOM     35  C   UNL A   1      35.195  35.576  32.349  1.00  0.00     0.016 A 
ATOM     36  C   UNL A   1      33.805  33.680  32.945  1.00  0.00     0.016 A 
ATOM     37  C   UNL A   1      36.307  34.952  32.914  1.00  0.00     0.010 A 
ATOM     38  C   UNL A   1      34.926  33.049  33.502  1.00  0.00     0.010 A 
ATOM     39  C   UNL A   1      36.191  33.661  33.445  1.00  0.00    -0.014 A 
BRANCH  39  40
ATOM     40  C   UNL A   1      37.424  32.882  33.734  1.00  0.00     0.031 A 
ATOM     41  C   UNL A   1      38.237  33.246  34.949  1.00  0.00     0.074 A 
ATOM     42  C   UNL A   1      37.809  31.852  32.958  1.00  0.00     0.049 A 
ATOM     43  N   UNL A   1      39.329  32.697  35.413  1.00  0.00    -0.248 NA
ATOM     44  C   UNL A   1      37.750  34.382  35.749  1.00  0.00     0.031 C 
ATOM     45  C   UNL A   1      37.117  31.387  31.759  1.00  0.00     0.029 A 
ATOM     46  N   UNL A   1      38.898  31.020  33.064  1.00  0.00    -0.354 N 
ATOM     47  C   UNL A   1      39.672  33.430  36.542  1.00  0.00     0.074 A 
ATOM     48  C   UNL A   1      38.681  34.473  36.688  1.00  0.00     0.031 C 
ATOM     49  C   UNL A   1      37.811  30.365  31.225  1.00  0.00     0.029 A 
ATOM     50  C   UNL A   1      39.002  30.113  32.037  1.00  0.00     0.049 A 
ATOM     51  H   UNL A   1      39.542  31.069  33.806  1.00  0.00     0.167 HD
ATOM     52  C   UNL A   1      40.706  33.246  37.398  1.00  0.00     0.034 A 
ATOM     53  C   UNL A   1      39.954  29.195  31.776  1.00  0.00     0.034 A 
ATOM     54  C   UNL A   1      41.690  32.206  37.273  1.00  0.00     0.049 A 
ATOM     55  C   UNL A   1      41.110  29.025  32.731  1.00  0.00     0.074 A 
ATOM     56  C   UNL A   1      42.756  31.926  38.109  1.00  0.00     0.029 A 
ATOM     57  N   UNL A   1      41.739  31.283  36.241  1.00  0.00    -0.354 N 
ATOM     58  N   UNL A   1      41.350  29.645  33.861  1.00  0.00    -0.248 NA
ATOM     59  C   UNL A   1      42.109  27.997  32.392  1.00  0.00     0.031 C 
ATOM     60  C   UNL A   1      43.463  30.845  37.571  1.00  0.00     0.029 A 
ATOM     61  C   UNL A   1      42.820  30.436  36.415  1.00  0.00     0.049 A 
ATOM     62  H   UNL A   1      41.098  31.236  35.495  1.00  0.00     0.167 HD
ATOM     63  C   UNL A   1      42.500  29.058  34.385  1.00  0.00     0.074 A 
ATOM     64  C   UNL A   1      42.896  28.018  33.459  1.00  0.00     0.031 C 
ATOM     65  C   UNL A   1      43.174  29.363  35.522  1.00  0.00     0.034 A 
BRANCH  52  66
ATOM     66  C   UNL A   1      40.809  34.186  38.570  1.00  0.00     0.023 A 
ATOM     67  C   UNL A   1      41.711  35.269  38.515  1.00  0.00     0.012 A 
ATOM     68  C   UNL A   1      39.990  34.022  39.703  1.00  0.00     0.148 A 
ATOM     69  C   UNL A   1      41.818  36.157  39.584  1.00  0.00     0.002 A 
ATOM     70  C   UNL A   1      40.073  34.936  40.747  1.00  0.00     0.091 A 
ATOM     71  F   UNL A   1      39.159  32.972  39.746  1.00  0.00    -0.205 F 
ATOM     72  C   UNL A   1      40.993  35.997  40.694  1.00  0.00     0.022 A 
BRANCH  70  73
ATOM     73  S   UNL A   1      39.003  34.856  42.186  1.00  0.00     0.127 S 
ATOM     74  O   UNL A   1      39.841  34.129  43.138  1.00  0.00    -0.237 OA
ATOM     75  O   UNL A   1      38.807  36.271  42.505  1.00  0.00    -0.237 OA
ATOM     76  O   UNL A   1      37.799  34.161  41.753  1.00  0.00    -0.744 OA
ENDBRANCH  70  73
ENDBRANCH  52  66
BRANCH  53  77
ATOM     77  C   UNL A   1      39.844  28.323  30.570  1.00  0.00     0.023 A 
ATOM     78  C   UNL A   1      38.999  27.197  30.601  1.00  0.00     0.012 A 
ATOM     79  C   UNL A   1      40.578  28.599  29.400  1.00  0.00     0.148 A 
ATOM     80  C   UNL A   1      38.914  26.341  29.503  1.00  0.00     0.002 A 
ATOM     81  C   UNL A   1      40.446  27.772  28.290  1.00  0.00     0.091 A 
ATOM     82  F   UNL A   1      41.393  29.662  29.398  1.00  0.00    -0.205 F 
ATOM     83  C   UNL A   1      39.629  26.632  28.346  1.00  0.00     0.022 A 
BRANCH  81  84
ATOM     84  S   UNL A   1      41.239  28.137  26.720  1.00  0.00     0.127 S 
ATOM     85  O   UNL A   1      42.604  28.447  27.137  1.00  0.00    -0.237 OA
ATOM     86  O   UNL A   1      41.086  26.870  26.003  1.00  0.00    -0.237 OA
ATOM     87  O   UNL A   1      40.484  29.243  26.148  1.00  0.00    -0.744 OA
ENDBRANCH  81  84
ENDBRANCH  53  77
BRANCH  65  88
ATOM     88  C   UNL A   1      44.392  28.540  35.864  1.00  0.00     0.023 A 
ATOM     89  C   UNL A   1      44.255  27.372  36.641  1.00  0.00     0.012 A 
ATOM     90  C   UNL A   1      45.660  28.883  35.353  1.00  0.00     0.148 A 
ATOM     91  C   UNL A   1      45.366  26.580  36.935  1.00  0.00     0.002 A 
ATOM     92  C   UNL A   1      46.754  28.062  35.610  1.00  0.00     0.091 A 
ATOM     93  F   UNL A   1      45.779  30.006  34.631  1.00  0.00    -0.205 F 
ATOM     94  C   UNL A   1      46.611  26.918  36.411  1.00  0.00     0.022 A 
BRANCH  92  95
ATOM     95  S   UNL A   1      48.373  28.371  34.892  1.00  0.00     0.127 S 
ATOM     96  O   UNL A   1      48.254  27.712  33.593  1.00  0.00    -0.237 OA
ATOM     97  O   UNL A   1      48.417  29.832  34.832  1.00  0.00    -0.237 OA
ATOM     98  O   UNL A   1      49.334  27.779  35.813  1.00  0.00    -0.744 OA
ENDBRANCH  92  95
ENDBRANCH  65  88
ENDBRANCH  39  40
ENDBRANCH  32  34
ENDBRANCH  31  32
ENDBRANCH  30  31
ENDBRANCH  29  30
ENDBRANCH  28  29
ENDBRANCH  27  28
ENDBRANCH   1  27
TORSDOF 24
ENDMDL
MODEL 3
REMARK VINA RESULT:      -9.6      3.398      9.738
REMARK SMILES CO[C@H]1CCC[C@H]1NC(=O)N[C@](C)(C(=O)OCCOCCOCCOC(=O)c1ccc(-c2c3nc(c(-c4cccc(S(=O)(=O)[O-])c4F)c4ccc([nH]4)c(-c4cccc(S(=O)(=O)[O-])c4F)c4nc(c(-c5cccc(S(=O)(=O)[O-])c5F)c5ccc2[nH]5)C=C4)C=C3)cc1)C(F)(F)F
REMARK SMILES IDX 20 1 19 2 18 3 17 4 16 5 14 6 15 7 12 8 13 9 11 10 8 11 9 12
REMARK SMILES IDX 10 14 7 16 3 17 4 18 5 19 6 20 2 21 1 22 91 23 92 24 93 25
REMARK SMILES IDX 94 26 21 27 22 28 23 29 24 30 25 31 26 32 27 33 28 34 29 35
REMARK SMILES IDX 90 36 30 37 89 38 31 39 32 40 33 41 83 42 34 43 88 44 82 45
REMARK SMILES IDX 84 46 35 47 87 48 81 49 80 50 36 52 68 53 48 54 67 55 49 56
REMARK SMILES IDX 52 57 66 58 85 59 50 60 51 61 65 63 86 64 53 65 37 66 38 67
REMARK SMILES IDX 46 68 39 69 41 70 47 71 40 72 42 73 43 74 44 75 45 76 69 77
REMARK SMILES IDX 70 78 78 79 71 80 73 81 79 82 72 83 74 84 75 85 76 86 77 87
REMARK SMILES IDX 54 88 55 89 63 90 56 91 58 92 64 93 57 94 59 95 60 96 61 97
REMARK SMILES IDX 62 98
REMARK H PARENT 8 13 11 15 84 51 52 62
REMARK Flexibility Score: inf
ROOT
ATOM      1  C   UNL A   1      33.892  30.531  27.648  1.00  0.00     0.188 C 
ENDROOT
BRANCH   1   2
ATOM      2  O   UNL A   1      33.282  30.139  26.429  1.00  0.00    -0.376 OA
BRANCH   2   3
ATOM      3  C   UNL A   1      31.887  30.334  26.241  1.00  0.00     0.202 C 
BRANCH   3   4
ATOM      4  C   UNL A   1      31.257  29.984  24.883  1.00  0.00     0.261 C 
BRANCH   4   5
ATOM      5  O   UNL A   1      31.744  28.729  24.376  1.00  0.00    -0.461 OA
BRANCH   5   6
ATOM      6  C   UNL A   1      30.829  27.722  24.280  1.00  0.00     0.341 C 
ATOM      7  O   UNL A   1      29.653  27.918  23.996  1.00  0.00    -0.249 OA
BRANCH   6   8
ATOM      8  C   UNL A   1      31.437  26.311  24.514  1.00  0.00     0.232 C 
ATOM      9  C   UNL A   1      30.416  25.213  24.138  1.00  0.00     0.058 C 
BRANCH   8  10
ATOM     10  N   UNL A   1      32.588  26.251  23.523  1.00  0.00    -0.315 N 
ATOM     11  N   UNL A   1      34.000  24.333  23.603  1.00  0.00    -0.333 N 
ATOM     12  C   UNL A   1      33.544  25.455  23.045  1.00  0.00     0.316 C 
ATOM     13  H   UNL A   1      34.592  23.810  23.014  1.00  0.00     0.165 HD
ATOM     14  O   UNL A   1      34.056  25.806  21.977  1.00  0.00    -0.249 OA
ATOM     15  H   UNL A   1      32.651  27.122  23.065  1.00  0.00     0.166 HD
BRANCH  11  16
ATOM     16  C   UNL A   1      33.799  23.740  24.891  1.00  0.00     0.112 C 
ATOM     17  C   UNL A   1      33.460  22.252  24.964  1.00  0.00     0.140 C 
ATOM     18  C   UNL A   1      33.506  21.996  26.479  1.00  0.00     0.034 C 
ATOM     19  C   UNL A   1      34.411  23.086  27.080  1.00  0.00     0.005 C 
ATOM     20  C   UNL A   1      34.934  23.898  25.894  1.00  0.00     0.028 C 
BRANCH  17  21
ATOM     21  O   UNL A   1      34.461  21.450  24.336  1.00  0.00    -0.379 OA
ATOM     22  C   UNL A   1      34.482  20.122  24.836  1.00  0.00     0.195 C 
ENDBRANCH  17  21
ENDBRANCH  11  16
ENDBRANCH   8  10
BRANCH   8  23
ATOM     23  C   UNL A   1      31.749  26.354  26.024  1.00  0.00     0.422 C 
ATOM     24  F   UNL A   1      31.697  25.160  26.631  1.00  0.00    -0.168 F 
ATOM     25  F   UNL A   1      33.016  26.785  26.270  1.00  0.00    -0.168 F 
ATOM     26  F   UNL A   1      30.888  27.142  26.703  1.00  0.00    -0.168 F 
ENDBRANCH   8  23
ENDBRANCH   6   8
ENDBRANCH   5   6
ENDBRANCH   4   5
ENDBRANCH   3   4
ENDBRANCH   2   3
ENDBRANCH   1   2
BRANCH   1  27
ATOM     27  C   UNL A   1      34.176  32.026  27.907  1.00  0.00     0.188 C 
BRANCH  27  28
ATOM     28  O   UNL A   1      33.142  32.989  27.779  1.00  0.00    -0.376 OA
BRANCH  28  29
ATOM     29  C   UNL A   1      33.482  34.348  27.982  1.00  0.00     0.202 C 
BRANCH  29  30
ATOM     30  C   UNL A   1      33.892  34.771  29.398  1.00  0.00     0.261 C 
BRANCH  30  31
ATOM     31  O   UNL A   1      32.895  34.548  30.408  1.00  0.00    -0.460 OA
BRANCH  31  32
ATOM     32  C   UNL A   1      33.063  35.263  31.545  1.00  0.00     0.338 C 
ATOM     33  O   UNL A   1      32.325  36.154  31.964  1.00  0.00    -0.246 OA
BRANCH  32  34
ATOM     34  C   UNL A   1      34.196  34.740  32.336  1.00  0.00     0.060 A 
ATOM     35  C   UNL A   1      35.351  35.529  32.431  1.00  0.00     0.016 A 
ATOM     36  C   UNL A   1      34.171  33.465  32.908  1.00  0.00     0.016 A 
ATOM     37  C   UNL A   1      36.503  35.023  33.033  1.00  0.00     0.010 A 
ATOM     38  C   UNL A   1      35.332  32.953  33.503  1.00  0.00     0.010 A 
ATOM     39  C   UNL A   1      36.517  33.711  33.524  1.00  0.00    -0.014 A 
BRANCH  39  40
ATOM     40  C   UNL A   1      37.820  33.073  33.852  1.00  0.00     0.031 A 
ATOM     41  C   UNL A   1      38.393  33.277  35.231  1.00  0.00     0.074 A 
ATOM     42  C   UNL A   1      38.475  32.303  32.965  1.00  0.00     0.049 A 
ATOM     43  N   UNL A   1      39.495  32.804  35.751  1.00  0.00    -0.248 NA
ATOM     44  C   UNL A   1      37.616  34.130  36.146  1.00  0.00     0.031 C 
ATOM     45  C   UNL A   1      38.035  32.016  31.602  1.00  0.00     0.029 A 
ATOM     46  N   UNL A   1      39.670  31.634  33.084  1.00  0.00    -0.354 N 
ATOM     47  C   UNL A   1      39.556  33.315  37.041  1.00  0.00     0.074 A 
ATOM     48  C   UNL A   1      38.388  34.148  37.223  1.00  0.00     0.031 C 
ATOM     49  C   UNL A   1      38.960  31.245  31.001  1.00  0.00     0.029 A 
ATOM     50  C   UNL A   1      40.063  30.997  31.931  1.00  0.00     0.049 A 
ATOM     51  H   UNL A   1      40.195  31.612  33.915  1.00  0.00     0.167 HD
ATOM     52  C   UNL A   1      40.487  33.101  38.001  1.00  0.00     0.034 A 
ATOM     53  C   UNL A   1      41.186  30.304  31.654  1.00  0.00     0.034 A 
ATOM     54  C   UNL A   1      41.646  32.266  37.839  1.00  0.00     0.049 A 
ATOM     55  C   UNL A   1      42.221  30.099  32.734  1.00  0.00     0.074 A 
ATOM     56  C   UNL A   1      42.628  31.967  38.767  1.00  0.00     0.029 A 
ATOM     57  N   UNL A   1      41.988  31.606  36.670  1.00  0.00    -0.354 N 
ATOM     58  N   UNL A   1      42.201  30.486  33.986  1.00  0.00    -0.248 NA
ATOM     59  C   UNL A   1      43.420  29.325  32.369  1.00  0.00     0.031 C 
ATOM     60  C   UNL A   1      43.576  31.142  38.151  1.00  0.00     0.029 A 
ATOM     61  C   UNL A   1      43.169  30.906  36.849  1.00  0.00     0.049 A 
ATOM     62  H   UNL A   1      41.467  31.630  35.834  1.00  0.00     0.167 HD
ATOM     63  C   UNL A   1      43.359  29.971  34.566  1.00  0.00     0.074 A 
ATOM     64  C   UNL A   1      44.047  29.226  33.533  1.00  0.00     0.031 C 
ATOM     65  C   UNL A   1      43.817  30.116  35.835  1.00  0.00     0.034 A 
BRANCH  52  66
ATOM     66  C   UNL A   1      40.273  33.767  39.334  1.00  0.00     0.023 A 
ATOM     67  C   UNL A   1      39.823  33.001  40.429  1.00  0.00     0.012 A 
ATOM     68  C   UNL A   1      40.555  35.135  39.513  1.00  0.00     0.148 A 
ATOM     69  C   UNL A   1      39.626  33.594  41.676  1.00  0.00     0.002 A 
ATOM     70  C   UNL A   1      40.397  35.709  40.769  1.00  0.00     0.091 A 
ATOM     71  F   UNL A   1      40.957  35.850  38.454  1.00  0.00    -0.205 F 
ATOM     72  C   UNL A   1      39.922  34.943  41.848  1.00  0.00     0.022 A 
BRANCH  70  73
ATOM     73  S   UNL A   1      40.820  37.421  41.108  1.00  0.00     0.127 S 
ATOM     74  O   UNL A   1      40.342  38.088  39.898  1.00  0.00    -0.237 OA
ATOM     75  O   UNL A   1      40.032  37.702  42.309  1.00  0.00    -0.237 OA
ATOM     76  O   UNL A   1      42.262  37.444  41.310  1.00  0.00    -0.744 OA
ENDBRANCH  70  73
ENDBRANCH  52  66
BRANCH  53  77
ATOM     77  C   UNL A   1      41.386  29.710  30.301  1.00  0.00     0.023 A 
ATOM     78  C   UNL A   1      42.086  30.437  29.319  1.00  0.00     0.012 A 
ATOM     79  C   UNL A   1      40.881  28.435  29.982  1.00  0.00     0.148 A 
ATOM     80  C   UNL A   1      42.247  29.922  28.032  1.00  0.00     0.002 A 
ATOM     81  C   UNL A   1      41.092  27.905  28.714  1.00  0.00     0.091 A 
ATOM     82  F   UNL A   1      40.200  27.767  30.923  1.00  0.00    -0.205 F 
ATOM     83  C   UNL A   1      41.759  28.654  27.732  1.00  0.00     0.022 A 
BRANCH  81  84
ATOM     84  S   UNL A   1      40.601  26.233  28.276  1.00  0.00     0.127 S 
ATOM     85  O   UNL A   1      40.511  26.317  26.821  1.00  0.00    -0.237 OA
ATOM     86  O   UNL A   1      41.728  25.446  28.780  1.00  0.00    -0.237 OA
ATOM     87  O   UNL A   1      39.347  25.998  28.977  1.00  0.00    -0.744 OA
ENDBRANCH  81  84
ENDBRANCH  53  77
BRANCH  65  88
ATOM     88  C   UNL A   1      45.106  29.422  36.203  1.00  0.00     0.023 A 
ATOM     89  C   UNL A   1      46.332  30.106  36.078  1.00  0.00     0.012 A 
ATOM     90  C   UNL A   1      45.095  28.121  36.744  1.00  0.00     0.148 A 
ATOM     91  C   UNL A   1      47.529  29.492  36.449  1.00  0.00     0.002 A 
ATOM     92  C   UNL A   1      46.286  27.533  37.157  1.00  0.00     0.091 A 
ATOM     93  F   UNL A   1      43.923  27.476  36.840  1.00  0.00    -0.205 F 
ATOM     94  C   UNL A   1      47.505  28.212  36.998  1.00  0.00     0.022 A 
BRANCH  92  95
ATOM     95  S   UNL A   1      46.334  25.929  37.965  1.00  0.00     0.127 S 
ATOM     96  O   UNL A   1      45.491  26.159  39.136  1.00  0.00    -0.237 OA
ATOM     97  O   UNL A   1      45.746  25.049  36.954  1.00  0.00    -0.237 OA
ATOM     98  O   UNL A   1      47.740  25.667  38.243  1.00  0.00    -0.744 OA
ENDBRANCH  92  95
ENDBRANCH  65  88
ENDBRANCH  39  40
ENDBRANCH  32  34
ENDBRANCH  31  32
ENDBRANCH  30  31
ENDBRANCH  29  30
ENDBRANCH  28  29
ENDBRANCH  27  28
ENDBRANCH   1  27
TORSDOF 24
ENDMDL
