MODEL 1
REMARK VINA RESULT:     -10.3      0.000      0.000
REMARK SMILES O=C(Nc1ccc2c(c1)[C@@H]1C=CC[C@@H]1[C@H](C(=O)OCCOCCOCCOC(=O)c1ccc(-c3c4nc(c(-c5cccc(S(=O)(=O)[O-])c5F)c5ccc([nH]5)c(-c5cccc(S(=O)(=O)[O-])c5F)c5nc(c(-c6cccc(S(=O)(=O)[O-])c6F)c6ccc3[nH]6)C=C5)C=C4)cc1)N2)c1ccccc1
REMARK SMILES IDX 23 1 22 2 21 3 20 4 19 5 18 6 16 7 17 8 15 9 4 10 5 11 9 12
REMARK SMILES IDX 6 13 8 14 7 15 10 16 93 17 11 18 14 19 12 21 13 22 3 23 1 24
REMARK SMILES IDX 2 25 94 27 95 28 99 29 96 30 98 31 97 32 24 33 25 34 26 35
REMARK SMILES IDX 27 36 28 37 29 38 30 39 31 40 92 41 32 42 91 43 33 44 34 45
REMARK SMILES IDX 35 46 85 47 36 48 90 49 84 50 86 51 37 52 89 53 83 54 82 55
REMARK SMILES IDX 38 57 70 58 50 59 69 60 51 61 54 62 68 63 87 64 52 65 53 66
REMARK SMILES IDX 67 68 88 69 55 70 39 71 40 72 48 73 41 74 43 75 49 76 42 77
REMARK SMILES IDX 44 78 45 79 46 80 47 81 71 82 72 83 80 84 73 85 75 86 81 87
REMARK SMILES IDX 74 88 76 89 77 90 78 91 79 92 56 93 57 94 65 95 58 96 60 97
REMARK SMILES IDX 66 98 59 99 61 100 62 101 63 102 64 103
REMARK H PARENT 93 20 3 26 86 56 54 67
REMARK Flexibility Score: inf
ROOT
ATOM      1  C   UNL A   1      33.750  35.586  31.152  1.00  0.00     0.188 C 
ENDROOT
BRANCH   1   2
ATOM      2  C   UNL A   1      33.341  34.970  29.813  1.00  0.00     0.188 C 
BRANCH   2   3
ATOM      3  O   UNL A   1      34.241  35.158  28.726  1.00  0.00    -0.376 OA
BRANCH   3   4
ATOM      4  C   UNL A   1      34.772  33.987  28.111  1.00  0.00     0.202 C 
BRANCH   4   5
ATOM      5  C   UNL A   1      34.148  32.651  28.537  1.00  0.00     0.261 C 
BRANCH   5   6
ATOM      6  O   UNL A   1      34.516  31.542  27.693  1.00  0.00    -0.462 OA
BRANCH   6   7
ATOM      7  C   UNL A   1      33.474  30.894  27.115  1.00  0.00     0.328 C 
ATOM      8  O   UNL A   1      32.355  31.383  26.959  1.00  0.00    -0.250 OA
BRANCH   7   9
ATOM      9  C   UNL A   1      33.802  29.484  26.575  1.00  0.00     0.194 C 
ATOM     10  C   UNL A   1      33.436  26.389  22.480  1.00  0.00     0.041 A 
ATOM     11  C   UNL A   1      33.788  27.650  22.018  1.00  0.00     0.028 A 
ATOM     12  C   UNL A   1      33.355  26.156  23.859  1.00  0.00     0.032 A 
ATOM     13  C   UNL A   1      33.905  28.700  22.921  1.00  0.00     0.028 A 
ATOM     14  C   UNL A   1      33.463  27.214  24.779  1.00  0.00    -0.015 A 
ATOM     15  C   UNL A   1      33.724  28.498  24.294  1.00  0.00     0.039 A 
ATOM     16  C   UNL A   1      33.309  26.985  26.273  1.00  0.00     0.050 C 
ATOM     17  N   UNL A   1      33.731  29.590  25.122  1.00  0.00    -0.372 N 
ATOM     18  C   UNL A   1      32.087  26.174  26.625  1.00  0.00    -0.023 C 
ATOM     19  C   UNL A   1      33.038  28.272  27.103  1.00  0.00     0.038 C 
ATOM     20  H   UNL A   1      33.686  30.486  24.717  1.00  0.00     0.161 HD
ATOM     21  C   UNL A   1      31.104  26.933  27.121  1.00  0.00    -0.030 C 
ATOM     22  C   UNL A   1      31.510  28.372  27.193  1.00  0.00     0.034 C 
BRANCH  10  23
ATOM     23  N   UNL A   1      33.122  25.420  21.514  1.00  0.00    -0.322 N 
ATOM     24  O   UNL A   1      33.213  23.400  20.491  1.00  0.00    -0.269 OA
ATOM     25  C   UNL A   1      33.409  24.071  21.504  1.00  0.00     0.255 C 
ATOM     26  H   UNL A   1      32.627  25.751  20.730  1.00  0.00     0.170 HD
BRANCH  25  27
ATOM     27  C   UNL A   1      33.852  23.384  22.742  1.00  0.00     0.040 A 
ATOM     28  C   UNL A   1      32.966  22.605  23.502  1.00  0.00     0.014 A 
ATOM     29  C   UNL A   1      35.182  23.520  23.143  1.00  0.00     0.014 A 
ATOM     30  C   UNL A   1      33.393  22.034  24.699  1.00  0.00     0.001 A 
ATOM     31  C   UNL A   1      35.608  22.939  24.338  1.00  0.00     0.001 A 
ATOM     32  C   UNL A   1      34.712  22.209  25.121  1.00  0.00     0.000 A 
ENDBRANCH  25  27
ENDBRANCH  10  23
ENDBRANCH   7   9
ENDBRANCH   6   7
ENDBRANCH   5   6
ENDBRANCH   4   5
ENDBRANCH   3   4
ENDBRANCH   2   3
ENDBRANCH   1   2
BRANCH   1  33
ATOM     33  O   UNL A   1      34.079  34.652  32.176  1.00  0.00    -0.376 OA
BRANCH  33  34
ATOM     34  C   UNL A   1      35.350  34.004  32.054  1.00  0.00     0.202 C 
BRANCH  34  35
ATOM     35  C   UNL A   1      35.331  32.467  31.927  1.00  0.00     0.261 C 
BRANCH  35  36
ATOM     36  O   UNL A   1      36.318  31.776  32.722  1.00  0.00    -0.460 OA
BRANCH  36  37
ATOM     37  C   UNL A   1      36.844  30.635  32.219  1.00  0.00     0.338 C 
ATOM     38  O   UNL A   1      36.273  29.561  32.120  1.00  0.00    -0.246 OA
BRANCH  37  39
ATOM     39  C   UNL A   1      38.135  30.962  31.556  1.00  0.00     0.060 A 
ATOM     40  C   UNL A   1      39.275  31.100  32.362  1.00  0.00     0.016 A 
ATOM     41  C   UNL A   1      38.253  31.061  30.166  1.00  0.00     0.016 A 
ATOM     42  C   UNL A   1      40.515  31.390  31.788  1.00  0.00     0.010 A 
ATOM     43  C   UNL A   1      39.494  31.359  29.591  1.00  0.00     0.010 A 
ATOM     44  C   UNL A   1      40.626  31.565  30.402  1.00  0.00    -0.014 A 
BRANCH  44  45
ATOM     45  C   UNL A   1      41.861  32.158  29.828  1.00  0.00     0.031 A 
ATOM     46  C   UNL A   1      43.002  31.234  29.484  1.00  0.00     0.074 A 
ATOM     47  C   UNL A   1      41.983  33.479  29.599  1.00  0.00     0.049 A 
ATOM     48  N   UNL A   1      44.174  31.515  28.977  1.00  0.00    -0.248 NA
ATOM     49  C   UNL A   1      42.790  29.802  29.750  1.00  0.00     0.031 C 
ATOM     50  C   UNL A   1      40.966  34.489  29.885  1.00  0.00     0.029 A 
ATOM     51  N   UNL A   1      43.037  34.200  29.088  1.00  0.00    -0.354 N 
ATOM     52  C   UNL A   1      44.845  30.302  28.880  1.00  0.00     0.074 A 
ATOM     53  C   UNL A   1      43.958  29.284  29.399  1.00  0.00     0.031 C 
ATOM     54  C   UNL A   1      41.456  35.702  29.571  1.00  0.00     0.029 A 
ATOM     55  C   UNL A   1      42.826  35.558  29.079  1.00  0.00     0.049 A 
ATOM     56  H   UNL A   1      43.866  33.781  28.761  1.00  0.00     0.167 HD
ATOM     57  C   UNL A   1      46.078  30.047  28.384  1.00  0.00     0.034 A 
ATOM     58  C   UNL A   1      43.649  36.570  28.729  1.00  0.00     0.034 A 
ATOM     59  C   UNL A   1      46.963  31.046  27.852  1.00  0.00     0.049 A 
ATOM     60  C   UNL A   1      45.032  36.260  28.204  1.00  0.00     0.074 A 
ATOM     61  C   UNL A   1      48.218  30.873  27.296  1.00  0.00     0.029 A 
ATOM     62  N   UNL A   1      46.695  32.404  27.818  1.00  0.00    -0.354 N 
ATOM     63  N   UNL A   1      45.600  35.097  28.003  1.00  0.00    -0.248 NA
ATOM     64  C   UNL A   1      45.873  37.408  27.825  1.00  0.00     0.031 C 
ATOM     65  C   UNL A   1      48.720  32.130  26.947  1.00  0.00     0.029 A 
ATOM     66  C   UNL A   1      47.765  33.083  27.257  1.00  0.00     0.049 A 
ATOM     67  H   UNL A   1      45.868  32.825  28.144  1.00  0.00     0.167 HD
ATOM     68  C   UNL A   1      46.844  35.370  27.437  1.00  0.00     0.074 A 
ATOM     69  C   UNL A   1      46.936  36.808  27.308  1.00  0.00     0.031 C 
ATOM     70  C   UNL A   1      47.826  34.509  27.073  1.00  0.00     0.034 A 
BRANCH  57  71
ATOM     71  C   UNL A   1      46.537  28.614  28.364  1.00  0.00     0.023 A 
ATOM     72  C   UNL A   1      47.138  28.061  29.513  1.00  0.00     0.012 A 
ATOM     73  C   UNL A   1      46.316  27.800  27.237  1.00  0.00     0.148 A 
ATOM     74  C   UNL A   1      47.534  26.725  29.532  1.00  0.00     0.002 A 
ATOM     75  C   UNL A   1      46.674  26.458  27.279  1.00  0.00     0.091 A 
ATOM     76  F   UNL A   1      45.765  28.353  26.147  1.00  0.00    -0.205 F 
ATOM     77  C   UNL A   1      47.292  25.922  28.421  1.00  0.00     0.022 A 
BRANCH  75  78
ATOM     78  S   UNL A   1      46.336  25.321  25.931  1.00  0.00     0.127 S 
ATOM     79  O   UNL A   1      46.974  24.097  26.413  1.00  0.00    -0.237 OA
ATOM     80  O   UNL A   1      44.874  25.284  25.920  1.00  0.00    -0.237 OA
ATOM     81  O   UNL A   1      46.939  25.912  24.745  1.00  0.00    -0.744 OA
ENDBRANCH  75  78
ENDBRANCH  57  71
BRANCH  58  82
ATOM     82  C   UNL A   1      43.191  37.986  28.835  1.00  0.00     0.023 A 
ATOM     83  C   UNL A   1      42.442  38.558  27.788  1.00  0.00     0.012 A 
ATOM     84  C   UNL A   1      43.516  38.774  29.956  1.00  0.00     0.148 A 
ATOM     85  C   UNL A   1      42.061  39.901  27.836  1.00  0.00     0.002 A 
ATOM     86  C   UNL A   1      43.084  40.094  30.023  1.00  0.00     0.091 A 
ATOM     87  F   UNL A   1      44.249  38.220  30.931  1.00  0.00    -0.205 F 
ATOM     88  C   UNL A   1      42.373  40.665  28.956  1.00  0.00     0.022 A 
BRANCH  86  89
ATOM     89  S   UNL A   1      43.339  41.114  31.479  1.00  0.00     0.127 S 
ATOM     90  O   UNL A   1      42.174  41.994  31.436  1.00  0.00    -0.237 OA
ATOM     91  O   UNL A   1      43.320  40.118  32.552  1.00  0.00    -0.237 OA
ATOM     92  O   UNL A   1      44.631  41.760  31.283  1.00  0.00    -0.744 OA
ENDBRANCH  86  89
ENDBRANCH  58  82
BRANCH  70  93
ATOM     93  C   UNL A   1      49.076  35.082  26.452  1.00  0.00     0.023 A 
ATOM     94  C   UNL A   1      49.152  35.257  25.056  1.00  0.00     0.012 A 
ATOM     95  C   UNL A   1      50.146  35.516  27.260  1.00  0.00     0.148 A 
ATOM     96  C   UNL A   1      50.288  35.819  24.471  1.00  0.00     0.002 A 
ATOM     97  C   UNL A   1      51.253  36.121  26.675  1.00  0.00     0.091 A 
ATOM     98  F   UNL A   1      50.065  35.330  28.586  1.00  0.00    -0.205 F 
ATOM     99  C   UNL A   1      51.331  36.261  25.281  1.00  0.00     0.022 A 
BRANCH  97 100
ATOM    100  S   UNL A   1      52.600  36.808  27.646  1.00  0.00     0.127 S 
ATOM    101  O   UNL A   1      53.443  35.633  27.861  1.00  0.00    -0.237 OA
ATOM    102  O   UNL A   1      53.165  37.805  26.736  1.00  0.00    -0.237 OA
ATOM    103  O   UNL A   1      51.986  37.367  28.844  1.00  0.00    -0.744 OA
ENDBRANCH  97 100
ENDBRANCH  70  93
ENDBRANCH  44  45
ENDBRANCH  37  39
ENDBRANCH  36  37
ENDBRANCH  35  36
ENDBRANCH  34  35
ENDBRANCH  33  34
ENDBRANCH   1  33
TORSDOF 22
ENDMDL
MODEL 2
REMARK VINA RESULT:     -10.1      4.888      8.580
REMARK SMILES O=C(Nc1ccc2c(c1)[C@@H]1C=CC[C@@H]1[C@H](C(=O)OCCOCCOCCOC(=O)c1ccc(-c3c4nc(c(-c5cccc(S(=O)(=O)[O-])c5F)c5ccc([nH]5)c(-c5cccc(S(=O)(=O)[O-])c5F)c5nc(c(-c6cccc(S(=O)(=O)[O-])c6F)c6ccc3[nH]6)C=C5)C=C4)cc1)N2)c1ccccc1
REMARK SMILES IDX 23 1 22 2 21 3 20 4 19 5 18 6 16 7 17 8 15 9 4 10 5 11 9 12
REMARK SMILES IDX 6 13 8 14 7 15 10 16 93 17 11 18 14 19 12 21 13 22 3 23 1 24
REMARK SMILES IDX 2 25 94 27 95 28 99 29 96 30 98 31 97 32 24 33 25 34 26 35
REMARK SMILES IDX 27 36 28 37 29 38 30 39 31 40 92 41 32 42 91 43 33 44 34 45
REMARK SMILES IDX 35 46 85 47 36 48 90 49 84 50 86 51 37 52 89 53 83 54 82 55
REMARK SMILES IDX 38 57 70 58 50 59 69 60 51 61 54 62 68 63 87 64 52 65 53 66
REMARK SMILES IDX 67 68 88 69 55 70 39 71 40 72 48 73 41 74 43 75 49 76 42 77
REMARK SMILES IDX 44 78 45 79 46 80 47 81 71 82 72 83 80 84 73 85 75 86 81 87
REMARK SMILES IDX 74 88 76 89 77 90 78 91 79 92 56 93 57 94 65 95 58 96 60 97
REMARK SMILES IDX 66 98 59 99 61 100 62 101 63 102 64 103
REMARK H PARENT 93 20 3 26 86 56 54 67
REMARK Flexibility Score: inf
ROOT
ATOM      1  C   UNL A   1      37.454  32.314  35.565  1.00  0.00     0.188 C 
ENDROOT
BRANCH   1   2
ATOM      2  C   UNL A   1      36.820  32.759  34.246  1.00  0.00     0.188 C 
BRANCH   2   3
ATOM      3  O   UNL A   1      36.176  34.029  34.247  1.00  0.00    -0.376 OA
BRANCH   3   4
ATOM      4  C   UNL A   1      34.778  34.049  33.967  1.00  0.00     0.202 C 
BRANCH   4   5
ATOM      5  C   UNL A   1      34.355  33.559  32.576  1.00  0.00     0.261 C 
BRANCH   5   6
ATOM      6  O   UNL A   1      34.952  34.299  31.492  1.00  0.00    -0.462 OA
BRANCH   6   7
ATOM      7  C   UNL A   1      34.811  33.733  30.268  1.00  0.00     0.328 C 
ATOM      8  O   UNL A   1      33.778  33.781  29.598  1.00  0.00    -0.250 OA
BRANCH   7   9
ATOM      9  C   UNL A   1      36.086  33.066  29.706  1.00  0.00     0.194 C 
ATOM     10  C   UNL A   1      39.478  29.264  30.425  1.00  0.00     0.041 A 
ATOM     11  C   UNL A   1      38.214  28.749  30.685  1.00  0.00     0.028 A 
ATOM     12  C   UNL A   1      39.605  30.575  29.947  1.00  0.00     0.032 A 
ATOM     13  C   UNL A   1      37.108  29.587  30.614  1.00  0.00     0.028 A 
ATOM     14  C   UNL A   1      38.492  31.432  29.881  1.00  0.00    -0.015 A 
ATOM     15  C   UNL A   1      37.238  30.928  30.236  1.00  0.00     0.039 A 
ATOM     16  C   UNL A   1      38.628  32.875  29.429  1.00  0.00     0.050 C 
ATOM     17  N   UNL A   1      36.133  31.736  30.301  1.00  0.00    -0.372 N 
ATOM     18  C   UNL A   1      39.751  33.609  30.120  1.00  0.00    -0.023 C 
ATOM     19  C   UNL A   1      37.427  33.789  29.802  1.00  0.00     0.038 C 
ATOM     20  H   UNL A   1      35.335  31.403  30.772  1.00  0.00     0.161 HD
ATOM     21  C   UNL A   1      39.302  34.444  31.063  1.00  0.00    -0.030 C 
ATOM     22  C   UNL A   1      37.807  34.416  31.150  1.00  0.00     0.034 C 
BRANCH  10  23
ATOM     23  N   UNL A   1      40.575  28.439  30.718  1.00  0.00    -0.322 N 
ATOM     24  O   UNL A   1      42.231  26.954  30.286  1.00  0.00    -0.269 OA
ATOM     25  C   UNL A   1      41.427  27.779  29.856  1.00  0.00     0.255 C 
ATOM     26  H   UNL A   1      40.764  28.312  31.676  1.00  0.00     0.170 HD
BRANCH  25  27
ATOM     27  C   UNL A   1      41.465  28.132  28.415  1.00  0.00     0.040 A 
ATOM     28  C   UNL A   1      40.661  27.465  27.479  1.00  0.00     0.014 A 
ATOM     29  C   UNL A   1      42.317  29.157  27.999  1.00  0.00     0.014 A 
ATOM     30  C   UNL A   1      40.775  27.767  26.123  1.00  0.00     0.001 A 
ATOM     31  C   UNL A   1      42.420  29.464  26.643  1.00  0.00     0.001 A 
ATOM     32  C   UNL A   1      41.661  28.761  25.705  1.00  0.00     0.000 A 
ENDBRANCH  25  27
ENDBRANCH  10  23
ENDBRANCH   7   9
ENDBRANCH   6   7
ENDBRANCH   5   6
ENDBRANCH   4   5
ENDBRANCH   3   4
ENDBRANCH   2   3
ENDBRANCH   1   2
BRANCH   1  33
ATOM     33  O   UNL A   1      37.121  33.111  36.698  1.00  0.00    -0.376 OA
BRANCH  33  34
ATOM     34  C   UNL A   1      38.056  33.089  37.782  1.00  0.00     0.202 C 
BRANCH  34  35
ATOM     35  C   UNL A   1      38.754  34.424  38.117  1.00  0.00     0.261 C 
BRANCH  35  36
ATOM     36  O   UNL A   1      38.881  35.341  37.010  1.00  0.00    -0.460 OA
BRANCH  36  37
ATOM     37  C   UNL A   1      40.085  35.929  36.816  1.00  0.00     0.338 C 
ATOM     38  O   UNL A   1      40.572  36.815  37.499  1.00  0.00    -0.246 OA
BRANCH  37  39
ATOM     39  C   UNL A   1      40.839  35.140  35.804  1.00  0.00     0.060 A 
ATOM     40  C   UNL A   1      40.111  34.488  34.798  1.00  0.00     0.016 A 
ATOM     41  C   UNL A   1      42.237  35.094  35.789  1.00  0.00     0.016 A 
ATOM     42  C   UNL A   1      40.771  33.748  33.814  1.00  0.00     0.010 A 
ATOM     43  C   UNL A   1      42.898  34.346  34.807  1.00  0.00     0.010 A 
ATOM     44  C   UNL A   1      42.167  33.636  33.837  1.00  0.00    -0.014 A 
BRANCH  44  45
ATOM     45  C   UNL A   1      42.841  32.622  32.984  1.00  0.00     0.031 A 
ATOM     46  C   UNL A   1      42.998  31.225  33.528  1.00  0.00     0.074 A 
ATOM     47  C   UNL A   1      43.299  32.912  31.752  1.00  0.00     0.049 A 
ATOM     48  N   UNL A   1      43.549  30.176  32.974  1.00  0.00    -0.248 NA
ATOM     49  C   UNL A   1      42.461  30.980  34.876  1.00  0.00     0.031 C 
ATOM     50  C   UNL A   1      43.219  34.217  31.101  1.00  0.00     0.029 A 
ATOM     51  N   UNL A   1      43.946  32.118  30.834  1.00  0.00    -0.354 N 
ATOM     52  C   UNL A   1      43.443  29.154  33.911  1.00  0.00     0.074 A 
ATOM     53  C   UNL A   1      42.793  29.713  35.076  1.00  0.00     0.031 C 
ATOM     54  C   UNL A   1      43.820  34.143  29.899  1.00  0.00     0.029 A 
ATOM     55  C   UNL A   1      44.342  32.791  29.702  1.00  0.00     0.049 A 
ATOM     56  H   UNL A   1      44.110  31.158  30.975  1.00  0.00     0.167 HD
ATOM     57  C   UNL A   1      43.829  27.861  33.809  1.00  0.00     0.034 A 
ATOM     58  C   UNL A   1      45.057  32.368  28.637  1.00  0.00     0.034 A 
ATOM     59  C   UNL A   1      44.462  27.290  32.653  1.00  0.00     0.049 A 
ATOM     60  C   UNL A   1      45.500  30.925  28.561  1.00  0.00     0.074 A 
ATOM     61  C   UNL A   1      44.855  25.979  32.450  1.00  0.00     0.029 A 
ATOM     62  N   UNL A   1      44.805  27.992  31.510  1.00  0.00    -0.354 N 
ATOM     63  N   UNL A   1      45.279  29.945  29.402  1.00  0.00    -0.248 NA
ATOM     64  C   UNL A   1      46.261  30.525  27.366  1.00  0.00     0.031 C 
ATOM     65  C   UNL A   1      45.459  25.893  31.191  1.00  0.00     0.029 A 
ATOM     66  C   UNL A   1      45.413  27.144  30.599  1.00  0.00     0.049 A 
ATOM     67  H   UNL A   1      44.641  28.952  31.366  1.00  0.00     0.167 HD
ATOM     68  C   UNL A   1      45.836  28.808  28.820  1.00  0.00     0.074 A 
ATOM     69  C   UNL A   1      46.386  29.218  27.546  1.00  0.00     0.031 C 
ATOM     70  C   UNL A   1      45.902  27.543  29.306  1.00  0.00     0.034 A 
BRANCH  57  71
ATOM     71  C   UNL A   1      43.546  26.957  34.979  1.00  0.00     0.023 A 
ATOM     72  C   UNL A   1      42.294  26.316  35.073  1.00  0.00     0.012 A 
ATOM     73  C   UNL A   1      44.536  26.692  35.943  1.00  0.00     0.148 A 
ATOM     74  C   UNL A   1      42.023  25.442  36.125  1.00  0.00     0.002 A 
ATOM     75  C   UNL A   1      44.273  25.787  36.965  1.00  0.00     0.091 A 
ATOM     76  F   UNL A   1      45.710  27.331  35.847  1.00  0.00    -0.205 F 
ATOM     77  C   UNL A   1      43.015  25.169  37.062  1.00  0.00     0.022 A 
BRANCH  75  78
ATOM     78  S   UNL A   1      45.508  25.308  38.177  1.00  0.00     0.127 S 
ATOM     79  O   UNL A   1      44.910  24.099  38.743  1.00  0.00    -0.237 OA
ATOM     80  O   UNL A   1      46.685  25.073  37.342  1.00  0.00    -0.237 OA
ATOM     81  O   UNL A   1      45.627  26.431  39.096  1.00  0.00    -0.744 OA
ENDBRANCH  75  78
ENDBRANCH  57  71
BRANCH  58  82
ATOM     82  C   UNL A   1      45.388  33.310  27.529  1.00  0.00     0.023 A 
ATOM     83  C   UNL A   1      44.531  33.411  26.417  1.00  0.00     0.012 A 
ATOM     84  C   UNL A   1      46.562  34.087  27.562  1.00  0.00     0.148 A 
ATOM     85  C   UNL A   1      44.855  34.236  25.338  1.00  0.00     0.002 A 
ATOM     86  C   UNL A   1      46.852  34.950  26.511  1.00  0.00     0.091 A 
ATOM     87  F   UNL A   1      47.379  33.962  28.617  1.00  0.00    -0.205 F 
ATOM     88  C   UNL A   1      46.010  35.012  25.389  1.00  0.00     0.022 A 
BRANCH  86  89
ATOM     89  S   UNL A   1      48.253  36.073  26.548  1.00  0.00     0.127 S 
ATOM     90  O   UNL A   1      47.802  37.083  27.502  1.00  0.00    -0.237 OA
ATOM     91  O   UNL A   1      49.325  35.202  27.033  1.00  0.00    -0.237 OA
ATOM     92  O   UNL A   1      48.425  36.529  25.175  1.00  0.00    -0.744 OA
ENDBRANCH  86  89
ENDBRANCH  58  82
BRANCH  70  93
ATOM     93  C   UNL A   1      46.546  26.486  28.444  1.00  0.00     0.023 A 
ATOM     94  C   UNL A   1      47.932  26.248  28.538  1.00  0.00     0.012 A 
ATOM     95  C   UNL A   1      45.764  25.677  27.593  1.00  0.00     0.148 A 
ATOM     96  C   UNL A   1      48.535  25.250  27.772  1.00  0.00     0.002 A 
ATOM     97  C   UNL A   1      46.365  24.652  26.872  1.00  0.00     0.091 A 
ATOM     98  F   UNL A   1      44.449  25.926  27.504  1.00  0.00    -0.205 F 
ATOM     99  C   UNL A   1      47.751  24.445  26.949  1.00  0.00     0.022 A 
BRANCH  97 100
ATOM    100  S   UNL A   1      45.419  23.504  25.861  1.00  0.00     0.127 S 
ATOM    101  O   UNL A   1      45.151  24.307  24.670  1.00  0.00    -0.237 OA
ATOM    102  O   UNL A   1      46.369  22.410  25.659  1.00  0.00    -0.237 OA
ATOM    103  O   UNL A   1      44.249  23.146  26.652  1.00  0.00    -0.744 OA
ENDBRANCH  97 100
ENDBRANCH  70  93
ENDBRANCH  44  45
ENDBRANCH  37  39
ENDBRANCH  36  37
ENDBRANCH  35  36
ENDBRANCH  34  35
ENDBRANCH  33  34
ENDBRANCH   1  33
TORSDOF 22
ENDMDL
MODEL 3
REMARK VINA RESULT:      -9.9      4.497      7.559
REMARK SMILES O=C(Nc1ccc2c(c1)[C@@H]1C=CC[C@@H]1[C@H](C(=O)OCCOCCOCCOC(=O)c1ccc(-c3c4nc(c(-c5cccc(S(=O)(=O)[O-])c5F)c5ccc([nH]5)c(-c5cccc(S(=O)(=O)[O-])c5F)c5nc(c(-c6cccc(S(=O)(=O)[O-])c6F)c6ccc3[nH]6)C=C5)C=C4)cc1)N2)c1ccccc1
REMARK SMILES IDX 23 1 22 2 21 3 20 4 19 5 18 6 16 7 17 8 15 9 4 10 5 11 9 12
REMARK SMILES IDX 6 13 8 14 7 15 10 16 93 17 11 18 14 19 12 21 13 22 3 23 1 24
REMARK SMILES IDX 2 25 94 27 95 28 99 29 96 30 98 31 97 32 24 33 25 34 26 35
REMARK SMILES IDX 27 36 28 37 29 38 30 39 31 40 92 41 32 42 91 43 33 44 34 45
REMARK SMILES IDX 35 46 85 47 36 48 90 49 84 50 86 51 37 52 89 53 83 54 82 55
REMARK SMILES IDX 38 57 70 58 50 59 69 60 51 61 54 62 68 63 87 64 52 65 53 66
REMARK SMILES IDX 67 68 88 69 55 70 39 71 40 72 48 73 41 74 43 75 49 76 42 77
REMARK SMILES IDX 44 78 45 79 46 80 47 81 71 82 72 83 80 84 73 85 75 86 81 87
REMARK SMILES IDX 74 88 76 89 77 90 78 91 79 92 56 93 57 94 65 95 58 96 60 97
REMARK SMILES IDX 66 98 59 99 61 100 62 101 63 102 64 103
REMARK H PARENT 93 20 3 26 86 56 54 67
REMARK Flexibility Score: inf
ROOT
ATOM      1  C   UNL A   1      33.608  34.347  28.754  1.00  0.00     0.188 C 
ENDROOT
BRANCH   1   2
ATOM      2  C   UNL A   1      33.181  33.451  27.590  1.00  0.00     0.188 C 
BRANCH   2   3
ATOM      3  O   UNL A   1      31.780  33.296  27.388  1.00  0.00    -0.376 OA
BRANCH   3   4
ATOM      4  C   UNL A   1      31.362  32.276  26.484  1.00  0.00     0.202 C 
BRANCH   4   5
ATOM      5  C   UNL A   1      32.169  30.971  26.510  1.00  0.00     0.261 C 
BRANCH   5   6
ATOM      6  O   UNL A   1      31.405  29.807  26.135  1.00  0.00    -0.462 OA
BRANCH   6   7
ATOM      7  C   UNL A   1      31.816  28.647  26.702  1.00  0.00     0.328 C 
ATOM      8  O   UNL A   1      32.632  28.577  27.623  1.00  0.00    -0.250 OA
BRANCH   7   9
ATOM      9  C   UNL A   1      31.125  27.375  26.162  1.00  0.00     0.194 C 
ATOM     10  C   UNL A   1      31.599  22.284  25.586  1.00  0.00     0.041 A 
ATOM     11  C   UNL A   1      32.064  22.604  26.856  1.00  0.00     0.028 A 
ATOM     12  C   UNL A   1      31.028  23.283  24.787  1.00  0.00     0.032 A 
ATOM     13  C   UNL A   1      32.095  23.935  27.255  1.00  0.00     0.028 A 
ATOM     14  C   UNL A   1      31.065  24.633  25.180  1.00  0.00    -0.015 A 
ATOM     15  C   UNL A   1      31.621  24.953  26.421  1.00  0.00     0.039 A 
ATOM     16  C   UNL A   1      30.510  25.732  24.292  1.00  0.00     0.050 C 
ATOM     17  N   UNL A   1      31.789  26.254  26.817  1.00  0.00    -0.372 N 
ATOM     18  C   UNL A   1      30.991  25.640  22.865  1.00  0.00    -0.023 C 
ATOM     19  C   UNL A   1      30.989  27.166  24.656  1.00  0.00     0.038 C 
ATOM     20  H   UNL A   1      32.386  26.440  27.577  1.00  0.00     0.161 HD
ATOM     21  C   UNL A   1      31.934  26.549  22.592  1.00  0.00    -0.030 C 
ATOM     22  C   UNL A   1      32.229  27.404  23.786  1.00  0.00     0.034 C 
BRANCH  10  23
ATOM     23  N   UNL A   1      31.787  20.961  25.153  1.00  0.00    -0.322 N 
ATOM     24  O   UNL A   1      32.763  19.272  24.001  1.00  0.00    -0.269 OA
ATOM     25  C   UNL A   1      32.843  20.413  24.455  1.00  0.00     0.255 C 
ATOM     26  H   UNL A   1      31.061  20.336  25.379  1.00  0.00     0.170 HD
BRANCH  25  27
ATOM     27  C   UNL A   1      34.129  21.143  24.334  1.00  0.00     0.040 A 
ATOM     28  C   UNL A   1      35.281  20.708  25.005  1.00  0.00     0.014 A 
ATOM     29  C   UNL A   1      34.179  22.280  23.526  1.00  0.00     0.014 A 
ATOM     30  C   UNL A   1      36.454  21.457  24.932  1.00  0.00     0.001 A 
ATOM     31  C   UNL A   1      35.358  23.021  23.446  1.00  0.00     0.001 A 
ATOM     32  C   UNL A   1      36.489  22.618  24.159  1.00  0.00     0.000 A 
ENDBRANCH  25  27
ENDBRANCH  10  23
ENDBRANCH   7   9
ENDBRANCH   6   7
ENDBRANCH   5   6
ENDBRANCH   4   5
ENDBRANCH   3   4
ENDBRANCH   2   3
ENDBRANCH   1   2
BRANCH   1  33
ATOM     33  O   UNL A   1      34.732  33.884  29.496  1.00  0.00    -0.376 OA
BRANCH  33  34
ATOM     34  C   UNL A   1      34.620  32.572  30.059  1.00  0.00     0.202 C 
BRANCH  34  35
ATOM     35  C   UNL A   1      34.869  31.389  29.100  1.00  0.00     0.261 C 
BRANCH  35  36
ATOM     36  O   UNL A   1      36.098  31.462  28.347  1.00  0.00    -0.460 OA
BRANCH  36  37
ATOM     37  C   UNL A   1      37.159  30.756  28.804  1.00  0.00     0.338 C 
ATOM     38  O   UNL A   1      37.359  29.564  28.632  1.00  0.00    -0.246 OA
BRANCH  37  39
ATOM     39  C   UNL A   1      38.178  31.711  29.316  1.00  0.00     0.060 A 
ATOM     40  C   UNL A   1      39.345  31.186  29.892  1.00  0.00     0.016 A 
ATOM     41  C   UNL A   1      38.037  33.095  29.175  1.00  0.00     0.016 A 
ATOM     42  C   UNL A   1      40.340  32.039  30.373  1.00  0.00     0.010 A 
ATOM     43  C   UNL A   1      39.032  33.950  29.665  1.00  0.00     0.010 A 
ATOM     44  C   UNL A   1      40.172  33.428  30.303  1.00  0.00    -0.014 A 
BRANCH  44  45
ATOM     45  C   UNL A   1      41.076  34.323  31.071  1.00  0.00     0.031 A 
ATOM     46  C   UNL A   1      42.209  34.992  30.335  1.00  0.00     0.074 A 
ATOM     47  C   UNL A   1      40.907  34.557  32.386  1.00  0.00     0.049 A 
ATOM     48  N   UNL A   1      43.124  35.809  30.786  1.00  0.00    -0.248 NA
ATOM     49  C   UNL A   1      42.323  34.699  28.896  1.00  0.00     0.031 C 
ATOM     50  C   UNL A   1      39.860  33.978  33.224  1.00  0.00     0.029 A 
ATOM     51  N   UNL A   1      41.637  35.337  33.251  1.00  0.00    -0.354 N 
ATOM     52  C   UNL A   1      43.932  36.112  29.696  1.00  0.00     0.074 A 
ATOM     53  C   UNL A   1      43.412  35.377  28.565  1.00  0.00     0.031 C 
ATOM     54  C   UNL A   1      40.032  34.400  34.490  1.00  0.00     0.029 A 
ATOM     55  C   UNL A   1      41.209  35.266  34.556  1.00  0.00     0.049 A 
ATOM     56  H   UNL A   1      42.396  35.894  32.963  1.00  0.00     0.167 HD
ATOM     57  C   UNL A   1      44.998  36.944  29.631  1.00  0.00     0.034 A 
ATOM     58  C   UNL A   1      41.719  35.821  35.676  1.00  0.00     0.034 A 
ATOM     59  C   UNL A   1      45.516  37.691  30.742  1.00  0.00     0.049 A 
ATOM     60  C   UNL A   1      42.926  36.724  35.579  1.00  0.00     0.074 A 
ATOM     61  C   UNL A   1      46.572  38.586  30.758  1.00  0.00     0.029 A 
ATOM     62  N   UNL A   1      45.028  37.627  32.036  1.00  0.00    -0.354 N 
ATOM     63  N   UNL A   1      43.599  37.097  34.518  1.00  0.00    -0.248 NA
ATOM     64  C   UNL A   1      43.422  37.311  36.835  1.00  0.00     0.031 C 
ATOM     65  C   UNL A   1      46.738  39.045  32.068  1.00  0.00     0.029 A 
ATOM     66  C   UNL A   1      45.765  38.460  32.861  1.00  0.00     0.049 A 
ATOM     67  H   UNL A   1      44.269  37.072  32.327  1.00  0.00     0.167 HD
ATOM     68  C   UNL A   1      44.567  37.991  34.972  1.00  0.00     0.074 A 
ATOM     69  C   UNL A   1      44.379  38.119  36.401  1.00  0.00     0.031 C 
ATOM     70  C   UNL A   1      45.534  38.633  34.271  1.00  0.00     0.034 A 
BRANCH  57  71
ATOM     71  C   UNL A   1      45.664  37.116  28.292  1.00  0.00     0.023 A 
ATOM     72  C   UNL A   1      45.388  38.264  27.521  1.00  0.00     0.012 A 
ATOM     73  C   UNL A   1      46.607  36.179  27.828  1.00  0.00     0.148 A 
ATOM     74  C   UNL A   1      46.023  38.466  26.298  1.00  0.00     0.002 A 
ATOM     75  C   UNL A   1      47.267  36.409  26.627  1.00  0.00     0.091 A 
ATOM     76  F   UNL A   1      46.835  35.083  28.564  1.00  0.00    -0.205 F 
ATOM     77  C   UNL A   1      46.970  37.545  25.857  1.00  0.00     0.022 A 
BRANCH  75  78
ATOM     78  S   UNL A   1      48.559  35.325  26.008  1.00  0.00     0.127 S 
ATOM     79  O   UNL A   1      49.312  35.041  27.228  1.00  0.00    -0.237 OA
ATOM     80  O   UNL A   1      47.790  34.195  25.488  1.00  0.00    -0.237 OA
ATOM     81  O   UNL A   1      49.276  36.090  24.998  1.00  0.00    -0.744 OA
ENDBRANCH  75  78
ENDBRANCH  57  71
BRANCH  58  82
ATOM     82  C   UNL A   1      41.081  35.568  37.001  1.00  0.00     0.023 A 
ATOM     83  C   UNL A   1      40.111  36.464  37.493  1.00  0.00     0.012 A 
ATOM     84  C   UNL A   1      41.449  34.458  37.785  1.00  0.00     0.148 A 
ATOM     85  C   UNL A   1      39.550  36.283  38.759  1.00  0.00     0.002 A 
ATOM     86  C   UNL A   1      40.846  34.252  39.021  1.00  0.00     0.091 A 
ATOM     87  F   UNL A   1      42.390  33.630  37.312  1.00  0.00    -0.205 F 
ATOM     88  C   UNL A   1      39.910  35.173  39.518  1.00  0.00     0.022 A 
BRANCH  86  89
ATOM     89  S   UNL A   1      41.161  32.787  40.011  1.00  0.00     0.127 S 
ATOM     90  O   UNL A   1      41.876  33.346  41.155  1.00  0.00    -0.237 OA
ATOM     91  O   UNL A   1      39.804  32.320  40.299  1.00  0.00    -0.237 OA
ATOM     92  O   UNL A   1      41.932  31.895  39.154  1.00  0.00    -0.744 OA
ENDBRANCH  86  89
ENDBRANCH  58  82
BRANCH  70  93
ATOM     93  C   UNL A   1      46.442  39.577  35.020  1.00  0.00     0.023 A 
ATOM     94  C   UNL A   1      47.663  39.112  35.547  1.00  0.00     0.012 A 
ATOM     95  C   UNL A   1      46.118  40.945  35.135  1.00  0.00     0.148 A 
ATOM     96  C   UNL A   1      48.528  39.983  36.211  1.00  0.00     0.002 A 
ATOM     97  C   UNL A   1      47.009  41.816  35.753  1.00  0.00     0.091 A 
ATOM     98  F   UNL A   1      44.946  41.370  34.640  1.00  0.00    -0.205 F 
ATOM     99  C   UNL A   1      48.207  41.335  36.303  1.00  0.00     0.022 A 
BRANCH  97 100
ATOM    100  S   UNL A   1      46.723  43.589  35.832  1.00  0.00     0.127 S 
ATOM    101  O   UNL A   1      47.379  43.941  37.090  1.00  0.00    -0.237 OA
ATOM    102  O   UNL A   1      47.408  44.069  34.632  1.00  0.00    -0.237 OA
ATOM    103  O   UNL A   1      45.277  43.762  35.810  1.00  0.00    -0.744 OA
ENDBRANCH  97 100
ENDBRANCH  70  93
ENDBRANCH  44  45
ENDBRANCH  37  39
ENDBRANCH  36  37
ENDBRANCH  35  36
ENDBRANCH  34  35
ENDBRANCH  33  34
ENDBRANCH   1  33
TORSDOF 22
ENDMDL
