MODEL 1
REMARK VINA RESULT:      -8.0      0.000      0.000
REMARK SMILES Cc1ccc(Cn2c(C)c(C[NH2+]C[C@@H]3CCCO3)c(C(=O)OCCOCCOCCOC(=O)c3ccc(-c4c5nc(c(-c6cccc(S(=O)(=O)[O-])c6F)c6ccc([nH]6)c(-c6cccc(S(=O)(=O)[O-])c6F)c6nc(c(-c7cccc(S(=O)(=O)[O-])c7F)c7ccc4[nH]7)C=C6)C=C5)cc3)c2C)cc1
REMARK SMILES IDX 26 1 25 2 24 3 23 4 22 5 20 6 21 7 19 8 7 9 8 10 97 11 9 12
REMARK SMILES IDX 10 13 98 14 6 15 5 16 1 17 2 18 3 19 100 20 4 21 99 22 11 23
REMARK SMILES IDX 12 24 13 27 14 28 15 29 18 30 16 31 17 32 27 33 28 34 29 35
REMARK SMILES IDX 30 36 31 37 32 38 33 39 34 40 35 41 96 42 36 43 95 44 37 45
REMARK SMILES IDX 38 46 39 47 89 48 40 49 94 50 88 51 90 52 41 53 93 54 87 55
REMARK SMILES IDX 86 56 42 58 74 59 54 60 73 61 55 62 58 63 72 64 91 65 56 66
REMARK SMILES IDX 57 67 71 69 92 70 59 71 43 72 44 73 52 74 45 75 47 76 53 77
REMARK SMILES IDX 46 78 48 79 49 80 50 81 51 82 75 83 76 84 84 85 77 86 79 87
REMARK SMILES IDX 85 88 78 89 80 90 81 91 82 92 83 93 60 94 61 95 69 96 62 97
REMARK SMILES IDX 64 98 70 99 63 100 65 101 66 102 67 103 68 104
REMARK H PARENT 12 25 12 26 90 57 58 68
REMARK Flexibility Score: inf
ROOT
ATOM      1  C   UNL A   1      51.035  20.347  33.737  1.00  0.00     0.188 C 
ENDROOT
BRANCH   1   2
ATOM      2  O   UNL A   1      51.186  21.274  32.601  1.00  0.00    -0.376 OA
BRANCH   2   3
ATOM      3  C   UNL A   1      51.348  22.742  32.809  1.00  0.00     0.202 C 
BRANCH   3   4
ATOM      4  C   UNL A   1      52.797  23.475  33.559  1.00  0.00     0.261 C 
BRANCH   4   5
ATOM      5  O   UNL A   1      53.089  24.188  35.134  1.00  0.00    -0.460 OA
BRANCH   5   6
ATOM      6  C   UNL A   1      52.432  24.732  36.369  1.00  0.00     0.340 C 
ATOM      7  O   UNL A   1      52.643  24.376  37.522  1.00  0.00    -0.246 OA
BRANCH   6   8
ATOM      8  C   UNL A   1      51.309  25.683  36.288  1.00  0.00     0.089 A 
ATOM      9  N   UNL A   1      50.474  27.129  34.889  1.00  0.00    -0.343 N 
ATOM     10  C   UNL A   1      49.371  26.431  35.374  1.00  0.00     0.025 A 
ATOM     11  C   UNL A   1      51.523  26.942  35.771  1.00  0.00     0.030 A 
ATOM     12  C   UNL A   1      47.965  26.594  34.901  1.00  0.00     0.065 C 
ATOM     13  C   UNL A   1      49.831  25.460  36.277  1.00  0.00     0.042 A 
ATOM     14  C   UNL A   1      52.784  27.711  35.849  1.00  0.00     0.065 C 
BRANCH   9  15
ATOM     15  C   UNL A   1      50.537  27.951  33.670  1.00  0.00     0.157 C 
BRANCH  15  16
ATOM     16  C   UNL A   1      49.911  27.343  32.419  1.00  0.00    -0.028 A 
ATOM     17  C   UNL A   1      48.016  25.576  28.917  1.00  0.00     0.044 C 
ATOM     18  C   UNL A   1      48.661  26.155  30.146  1.00  0.00    -0.051 A 
ATOM     19  C   UNL A   1      48.192  27.357  30.668  1.00  0.00     0.004 A 
ATOM     20  C   UNL A   1      49.767  25.552  30.753  1.00  0.00     0.004 A 
ATOM     21  C   UNL A   1      48.780  27.910  31.810  1.00  0.00     0.006 A 
ATOM     22  C   UNL A   1      50.393  26.145  31.866  1.00  0.00     0.006 A 
ENDBRANCH  15  16
ENDBRANCH   9  15
BRANCH  13  23
ATOM     23  C   UNL A   1      48.881  24.338  36.866  1.00  0.00     0.300 C 
BRANCH  23  24
ATOM     24  N   UNL A   1      48.090  24.872  38.017  1.00  0.00    -0.340 N 
ATOM     25  H   UNL A   1      47.127  24.969  37.697  1.00  0.00     0.346 HD
ATOM     26  H   UNL A   1      48.582  25.730  38.268  1.00  0.00     0.346 HD
BRANCH  24  27
ATOM     27  C   UNL A   1      48.048  24.097  39.310  1.00  0.00     0.293 C 
BRANCH  27  28
ATOM     28  C   UNL A   1      49.184  24.495  40.308  1.00  0.00     0.173 C 
ATOM     29  C   UNL A   1      49.623  25.875  40.792  1.00  0.00     0.040 C 
ATOM     30  O   UNL A   1      50.447  23.908  39.926  1.00  0.00    -0.372 OA
ATOM     31  C   UNL A   1      50.849  25.489  41.642  1.00  0.00     0.031 C 
ATOM     32  C   UNL A   1      51.416  24.276  40.922  1.00  0.00     0.161 C 
ENDBRANCH  27  28
ENDBRANCH  24  27
ENDBRANCH  23  24
ENDBRANCH  13  23
ENDBRANCH   6   8
ENDBRANCH   5   6
ENDBRANCH   4   5
ENDBRANCH   3   4
ENDBRANCH   2   3
ENDBRANCH   1   2
BRANCH   1  33
ATOM     33  C   UNL A   1      49.591  20.393  34.396  1.00  0.00     0.188 C 
BRANCH  33  34
ATOM     34  O   UNL A   1      49.665  21.010  35.683  1.00  0.00    -0.376 OA
BRANCH  34  35
ATOM     35  C   UNL A   1      49.442  20.240  36.853  1.00  0.00     0.202 C 
BRANCH  35  36
ATOM     36  C   UNL A   1      48.037  20.238  37.500  1.00  0.00     0.261 C 
BRANCH  36  37
ATOM     37  O   UNL A   1      47.128  21.221  36.956  1.00  0.00    -0.460 OA
BRANCH  37  38
ATOM     38  C   UNL A   1      46.102  20.698  36.201  1.00  0.00     0.338 C 
ATOM     39  O   UNL A   1      45.906  19.501  36.087  1.00  0.00    -0.246 OA
BRANCH  38  40
ATOM     40  C   UNL A   1      45.349  21.793  35.534  1.00  0.00     0.060 A 
ATOM     41  C   UNL A   1      44.493  21.717  34.455  1.00  0.00     0.016 A 
ATOM     42  C   UNL A   1      45.626  23.051  35.916  1.00  0.00     0.016 A 
ATOM     43  C   UNL A   1      44.067  22.915  33.720  1.00  0.00     0.010 A 
ATOM     44  C   UNL A   1      45.392  24.095  35.002  1.00  0.00     0.010 A 
ATOM     45  C   UNL A   1      44.578  24.210  33.856  1.00  0.00    -0.014 A 
BRANCH  45  46
ATOM     46  C   UNL A   1      44.138  25.697  33.063  1.00  0.00     0.031 A 
ATOM     47  C   UNL A   1      43.282  27.143  33.674  1.00  0.00     0.074 A 
ATOM     48  C   UNL A   1      44.504  25.959  31.763  1.00  0.00     0.049 A 
ATOM     49  N   UNL A   1      43.017  28.224  32.953  1.00  0.00    -0.248 NA
ATOM     50  C   UNL A   1      42.724  27.470  35.032  1.00  0.00     0.031 C 
ATOM     51  C   UNL A   1      44.605  27.289  31.148  1.00  0.00     0.029 A 
ATOM     52  N   UNL A   1      44.801  25.168  30.658  1.00  0.00    -0.354 N 
ATOM     53  C   UNL A   1      42.544  29.274  33.752  1.00  0.00     0.074 A 
ATOM     54  C   UNL A   1      42.462  28.765  35.061  1.00  0.00     0.031 C 
ATOM     55  C   UNL A   1      44.494  27.183  29.823  1.00  0.00     0.029 A 
ATOM     56  C   UNL A   1      44.310  25.788  29.501  1.00  0.00     0.049 A 
ATOM     57  H   UNL A   1      45.281  24.308  30.684  1.00  0.00     0.167 HD
ATOM     58  C   UNL A   1      42.245  30.529  33.318  1.00  0.00     0.034 A 
ATOM     59  C   UNL A   1      43.524  25.309  28.487  1.00  0.00     0.034 A 
ATOM     60  C   UNL A   1      42.215  30.590  31.878  1.00  0.00     0.049 A 
ATOM     61  C   UNL A   1      42.284  26.183  28.297  1.00  0.00     0.074 A 
ATOM     62  C   UNL A   1      43.121  30.877  30.878  1.00  0.00     0.029 A 
ATOM     63  N   UNL A   1      41.134  29.993  31.272  1.00  0.00    -0.354 N 
ATOM     64  N   UNL A   1      42.200  27.453  28.589  1.00  0.00    -0.248 NA
ATOM     65  C   UNL A   1      40.987  25.647  27.854  1.00  0.00     0.031 C 
ATOM     66  C   UNL A   1      42.594  30.346  29.663  1.00  0.00     0.029 A 
ATOM     67  C   UNL A   1      41.363  29.770  29.931  1.00  0.00     0.049 A 
ATOM     68  H   UNL A   1      40.300  29.755  31.739  1.00  0.00     0.167 HD
ATOM     69  C   UNL A   1      40.873  27.806  28.640  1.00  0.00     0.074 A 
ATOM     70  C   UNL A   1      40.157  26.671  28.097  1.00  0.00     0.031 C 
ATOM     71  C   UNL A   1      40.403  28.955  29.207  1.00  0.00     0.034 A 
BRANCH  58  72
ATOM     72  C   UNL A   1      42.168  31.740  34.246  1.00  0.00     0.023 A 
ATOM     73  C   UNL A   1      43.387  32.394  34.530  1.00  0.00     0.012 A 
ATOM     74  C   UNL A   1      41.042  32.187  34.980  1.00  0.00     0.148 A 
ATOM     75  C   UNL A   1      43.514  33.320  35.574  1.00  0.00     0.002 A 
ATOM     76  C   UNL A   1      41.189  33.020  36.096  1.00  0.00     0.091 A 
ATOM     77  F   UNL A   1      39.806  31.871  34.569  1.00  0.00    -0.205 F 
ATOM     78  C   UNL A   1      42.429  33.586  36.398  1.00  0.00     0.022 A 
BRANCH  76  79
ATOM     79  S   UNL A   1      39.869  33.202  37.319  1.00  0.00     0.127 S 
ATOM     80  O   UNL A   1      40.609  33.504  38.548  1.00  0.00    -0.237 OA
ATOM     81  O   UNL A   1      39.086  34.318  36.799  1.00  0.00    -0.237 OA
ATOM     82  O   UNL A   1      39.197  31.905  37.351  1.00  0.00    -0.744 OA
ENDBRANCH  76  79
ENDBRANCH  58  72
BRANCH  59  83
ATOM     83  C   UNL A   1      43.605  23.862  28.144  1.00  0.00     0.023 A 
ATOM     84  C   UNL A   1      42.472  23.043  28.357  1.00  0.00     0.012 A 
ATOM     85  C   UNL A   1      44.574  23.361  27.296  1.00  0.00     0.148 A 
ATOM     86  C   UNL A   1      42.257  21.866  27.611  1.00  0.00     0.002 A 
ATOM     87  C   UNL A   1      44.128  22.486  26.308  1.00  0.00     0.091 A 
ATOM     88  F   UNL A   1      45.769  23.958  27.162  1.00  0.00    -0.205 F 
ATOM     89  C   UNL A   1      43.086  21.592  26.537  1.00  0.00     0.022 A 
BRANCH  87  90
ATOM     90  S   UNL A   1      43.702  23.528  24.870  1.00  0.00     0.127 S 
ATOM     91  O   UNL A   1      44.861  24.362  24.674  1.00  0.00    -0.237 OA
ATOM     92  O   UNL A   1      43.558  22.565  23.782  1.00  0.00    -0.237 OA
ATOM     93  O   UNL A   1      42.490  24.161  25.350  1.00  0.00    -0.744 OA
ENDBRANCH  87  90
ENDBRANCH  59  83
BRANCH  71  94
ATOM     94  C   UNL A   1      38.960  29.388  29.077  1.00  0.00     0.023 A 
ATOM     95  C   UNL A   1      38.436  29.609  27.786  1.00  0.00     0.012 A 
ATOM     96  C   UNL A   1      38.177  29.806  30.176  1.00  0.00     0.148 A 
ATOM     97  C   UNL A   1      37.200  30.230  27.594  1.00  0.00     0.002 A 
ATOM     98  C   UNL A   1      37.008  30.533  29.977  1.00  0.00     0.091 A 
ATOM     99  F   UNL A   1      38.538  29.461  31.419  1.00  0.00    -0.205 F 
ATOM    100  C   UNL A   1      36.505  30.729  28.688  1.00  0.00     0.022 A 
BRANCH  98 101
ATOM    101  S   UNL A   1      36.205  31.425  31.318  1.00  0.00     0.127 S 
ATOM    102  O   UNL A   1      35.041  32.003  30.641  1.00  0.00    -0.237 OA
ATOM    103  O   UNL A   1      35.891  30.347  32.253  1.00  0.00    -0.237 OA
ATOM    104  O   UNL A   1      37.179  32.406  31.773  1.00  0.00    -0.744 OA
ENDBRANCH  98 101
ENDBRANCH  71  94
ENDBRANCH  45  46
ENDBRANCH  38  40
ENDBRANCH  37  38
ENDBRANCH  36  37
ENDBRANCH  35  36
ENDBRANCH  34  35
ENDBRANCH  33  34
ENDBRANCH   1  33
TORSDOF 26
ENDMDL
MODEL 2
REMARK VINA RESULT:      -7.8      4.595     11.564
REMARK SMILES Cc1ccc(Cn2c(C)c(C[NH2+]C[C@@H]3CCCO3)c(C(=O)OCCOCCOCCOC(=O)c3ccc(-c4c5nc(c(-c6cccc(S(=O)(=O)[O-])c6F)c6ccc([nH]6)c(-c6cccc(S(=O)(=O)[O-])c6F)c6nc(c(-c7cccc(S(=O)(=O)[O-])c7F)c7ccc4[nH]7)C=C6)C=C5)cc3)c2C)cc1
REMARK SMILES IDX 26 1 25 2 24 3 23 4 22 5 20 6 21 7 19 8 7 9 8 10 97 11 9 12
REMARK SMILES IDX 10 13 98 14 6 15 5 16 1 17 2 18 3 19 100 20 4 21 99 22 11 23
REMARK SMILES IDX 12 24 13 27 14 28 15 29 18 30 16 31 17 32 27 33 28 34 29 35
REMARK SMILES IDX 30 36 31 37 32 38 33 39 34 40 35 41 96 42 36 43 95 44 37 45
REMARK SMILES IDX 38 46 39 47 89 48 40 49 94 50 88 51 90 52 41 53 93 54 87 55
REMARK SMILES IDX 86 56 42 58 74 59 54 60 73 61 55 62 58 63 72 64 91 65 56 66
REMARK SMILES IDX 57 67 71 69 92 70 59 71 43 72 44 73 52 74 45 75 47 76 53 77
REMARK SMILES IDX 46 78 48 79 49 80 50 81 51 82 75 83 76 84 84 85 77 86 79 87
REMARK SMILES IDX 85 88 78 89 80 90 81 91 82 92 83 93 60 94 61 95 69 96 62 97
REMARK SMILES IDX 64 98 70 99 63 100 65 101 66 102 67 103 68 104
REMARK H PARENT 12 25 12 26 90 57 58 68
REMARK Flexibility Score: inf
ROOT
ATOM      1  C   UNL A   1      39.756  28.551  29.582  1.00  0.00     0.188 C 
ENDROOT
BRANCH   1   2
ATOM      2  O   UNL A   1      41.029  28.210  28.922  1.00  0.00    -0.376 OA
BRANCH   2   3
ATOM      3  C   UNL A   1      42.334  28.721  29.434  1.00  0.00     0.202 C 
BRANCH   3   4
ATOM      4  C   UNL A   1      43.419  27.765  30.487  1.00  0.00     0.261 C 
BRANCH   4   5
ATOM      5  O   UNL A   1      44.609  26.522  30.152  1.00  0.00    -0.460 OA
BRANCH   5   6
ATOM      6  C   UNL A   1      44.924  25.331  29.293  1.00  0.00     0.340 C 
ATOM      7  O   UNL A   1      45.943  24.653  29.336  1.00  0.00    -0.246 OA
BRANCH   6   8
ATOM      8  C   UNL A   1      44.059  24.947  28.163  1.00  0.00     0.089 A 
ATOM      9  N   UNL A   1      41.937  24.774  27.699  1.00  0.00    -0.343 N 
ATOM     10  C   UNL A   1      42.491  25.403  26.587  1.00  0.00     0.025 A 
ATOM     11  C   UNL A   1      42.959  24.150  28.393  1.00  0.00     0.030 A 
ATOM     12  C   UNL A   1      41.727  25.937  25.423  1.00  0.00     0.065 C 
ATOM     13  C   UNL A   1      43.866  25.568  26.818  1.00  0.00     0.042 A 
ATOM     14  C   UNL A   1      42.834  23.122  29.450  1.00  0.00     0.065 C 
BRANCH   9  15
ATOM     15  C   UNL A   1      40.517  24.739  28.082  1.00  0.00     0.157 C 
BRANCH  15  16
ATOM     16  C   UNL A   1      39.618  23.839  27.241  1.00  0.00    -0.028 A 
ATOM     17  C   UNL A   1      37.139  21.275  24.740  1.00  0.00     0.044 C 
ATOM     18  C   UNL A   1      37.999  22.184  25.573  1.00  0.00    -0.051 A 
ATOM     19  C   UNL A   1      39.186  21.702  26.117  1.00  0.00     0.004 A 
ATOM     20  C   UNL A   1      37.613  23.494  25.875  1.00  0.00     0.004 A 
ATOM     21  C   UNL A   1      39.998  22.533  26.895  1.00  0.00     0.006 A 
ATOM     22  C   UNL A   1      38.404  24.307  26.710  1.00  0.00     0.006 A 
ENDBRANCH  15  16
ENDBRANCH   9  15
BRANCH  13  23
ATOM     23  C   UNL A   1      44.784  26.436  25.862  1.00  0.00     0.300 C 
BRANCH  23  24
ATOM     24  N   UNL A   1      45.666  25.553  25.040  1.00  0.00    -0.340 N 
ATOM     25  H   UNL A   1      46.438  26.130  24.708  1.00  0.00     0.346 HD
ATOM     26  H   UNL A   1      45.036  25.175  24.332  1.00  0.00     0.346 HD
BRANCH  24  27
ATOM     27  C   UNL A   1      46.274  24.323  25.665  1.00  0.00     0.293 C 
BRANCH  27  28
ATOM     28  C   UNL A   1      45.656  22.989  25.135  1.00  0.00     0.173 C 
ATOM     29  C   UNL A   1      44.306  22.345  25.440  1.00  0.00     0.040 C 
ATOM     30  O   UNL A   1      46.558  21.878  25.334  1.00  0.00    -0.372 OA
ATOM     31  C   UNL A   1      44.454  21.020  24.667  1.00  0.00     0.031 C 
ATOM     32  C   UNL A   1      45.939  20.709  24.770  1.00  0.00     0.161 C 
ENDBRANCH  27  28
ENDBRANCH  24  27
ENDBRANCH  23  24
ENDBRANCH  13  23
ENDBRANCH   6   8
ENDBRANCH   5   6
ENDBRANCH   4   5
ENDBRANCH   3   4
ENDBRANCH   2   3
ENDBRANCH   1   2
BRANCH   1  33
ATOM     33  C   UNL A   1      38.868  29.566  28.743  1.00  0.00     0.188 C 
BRANCH  33  34
ATOM     34  O   UNL A   1      37.490  29.403  29.090  1.00  0.00    -0.376 OA
BRANCH  34  35
ATOM     35  C   UNL A   1      37.132  28.995  30.400  1.00  0.00     0.202 C 
BRANCH  35  36
ATOM     36  C   UNL A   1      36.640  30.055  31.414  1.00  0.00     0.261 C 
BRANCH  36  37
ATOM     37  O   UNL A   1      37.302  30.005  32.698  1.00  0.00    -0.460 OA
BRANCH  37  38
ATOM     38  C   UNL A   1      37.672  31.232  33.201  1.00  0.00     0.338 C 
ATOM     39  O   UNL A   1      36.895  31.975  33.774  1.00  0.00    -0.246 OA
BRANCH  38  40
ATOM     40  C   UNL A   1      39.099  31.504  32.884  1.00  0.00     0.060 A 
ATOM     41  C   UNL A   1      39.683  31.718  31.653  1.00  0.00     0.016 A 
ATOM     42  C   UNL A   1      39.984  31.394  33.890  1.00  0.00     0.016 A 
ATOM     43  C   UNL A   1      41.139  31.669  31.468  1.00  0.00     0.010 A 
ATOM     44  C   UNL A   1      41.323  31.097  33.573  1.00  0.00     0.010 A 
ATOM     45  C   UNL A   1      42.089  31.232  32.396  1.00  0.00    -0.014 A 
BRANCH  45  46
ATOM     46  C   UNL A   1      43.826  31.152  32.297  1.00  0.00     0.031 A 
ATOM     47  C   UNL A   1      44.961  31.778  31.065  1.00  0.00     0.074 A 
ATOM     48  C   UNL A   1      44.583  30.594  33.301  1.00  0.00     0.049 A 
ATOM     49  N   UNL A   1      46.280  31.652  31.119  1.00  0.00    -0.248 NA
ATOM     50  C   UNL A   1      44.725  32.549  29.795  1.00  0.00     0.031 C 
ATOM     51  C   UNL A   1      46.004  30.862  33.560  1.00  0.00     0.029 A 
ATOM     52  N   UNL A   1      44.347  29.630  34.276  1.00  0.00    -0.354 N 
ATOM     53  C   UNL A   1      46.913  32.432  30.142  1.00  0.00     0.074 A 
ATOM     54  C   UNL A   1      45.886  33.038  29.396  1.00  0.00     0.031 C 
ATOM     55  C   UNL A   1      46.538  29.846  34.240  1.00  0.00     0.029 A 
ATOM     56  C   UNL A   1      45.504  28.862  34.457  1.00  0.00     0.049 A 
ATOM     57  H   UNL A   1      43.499  29.508  34.763  1.00  0.00     0.167 HD
ATOM     58  C   UNL A   1      48.259  32.564  29.983  1.00  0.00     0.034 A 
ATOM     59  C   UNL A   1      45.694  27.506  34.461  1.00  0.00     0.034 A 
ATOM     60  C   UNL A   1      48.976  31.595  30.772  1.00  0.00     0.049 A 
ATOM     61  C   UNL A   1      46.766  27.100  33.450  1.00  0.00     0.074 A 
ATOM     62  C   UNL A   1      49.519  31.554  32.040  1.00  0.00     0.029 A 
ATOM     63  N   UNL A   1      48.930  30.296  30.320  1.00  0.00    -0.354 N 
ATOM     64  N   UNL A   1      47.753  27.856  33.048  1.00  0.00    -0.248 NA
ATOM     65  C   UNL A   1      46.737  25.823  32.722  1.00  0.00     0.031 C 
ATOM     66  C   UNL A   1      49.709  30.180  32.376  1.00  0.00     0.029 A 
ATOM     67  C   UNL A   1      49.308  29.404  31.300  1.00  0.00     0.049 A 
ATOM     68  H   UNL A   1      48.660  30.037  29.409  1.00  0.00     0.167 HD
ATOM     69  C   UNL A   1      48.278  27.319  31.898  1.00  0.00     0.074 A 
ATOM     70  C   UNL A   1      47.668  26.012  31.776  1.00  0.00     0.031 C 
ATOM     71  C   UNL A   1      49.103  27.989  31.042  1.00  0.00     0.034 A 
BRANCH  58  72
ATOM     72  C   UNL A   1      48.902  33.729  29.232  1.00  0.00     0.023 A 
ATOM     73  C   UNL A   1      49.555  34.701  30.020  1.00  0.00     0.012 A 
ATOM     74  C   UNL A   1      48.782  34.030  27.853  1.00  0.00     0.148 A 
ATOM     75  C   UNL A   1      49.930  35.951  29.508  1.00  0.00     0.002 A 
ATOM     76  C   UNL A   1      49.047  35.316  27.367  1.00  0.00     0.091 A 
ATOM     77  F   UNL A   1      48.480  33.059  26.979  1.00  0.00    -0.205 F 
ATOM     78  C   UNL A   1      49.619  36.283  28.196  1.00  0.00     0.022 A 
BRANCH  76  79
ATOM     79  S   UNL A   1      48.445  35.856  25.749  1.00  0.00     0.127 S 
ATOM     80  O   UNL A   1      48.994  37.211  25.638  1.00  0.00    -0.237 OA
ATOM     81  O   UNL A   1      49.041  34.889  24.834  1.00  0.00    -0.237 OA
ATOM     82  O   UNL A   1      46.988  35.827  25.854  1.00  0.00    -0.744 OA
ENDBRANCH  76  79
ENDBRANCH  58  72
BRANCH  59  83
ATOM     83  C   UNL A   1      44.576  26.631  34.913  1.00  0.00     0.023 A 
ATOM     84  C   UNL A   1      43.993  25.733  33.989  1.00  0.00     0.012 A 
ATOM     85  C   UNL A   1      44.334  26.380  36.249  1.00  0.00     0.148 A 
ATOM     86  C   UNL A   1      43.352  24.549  34.408  1.00  0.00     0.002 A 
ATOM     87  C   UNL A   1      44.111  25.047  36.590  1.00  0.00     0.091 A 
ATOM     88  F   UNL A   1      44.676  27.259  37.204  1.00  0.00    -0.205 F 
ATOM     89  C   UNL A   1      43.437  24.176  35.738  1.00  0.00     0.022 A 
BRANCH  87  90
ATOM     90  S   UNL A   1      45.753  24.345  36.968  1.00  0.00     0.127 S 
ATOM     91  O   UNL A   1      45.705  23.008  36.431  1.00  0.00    -0.237 OA
ATOM     92  O   UNL A   1      46.669  25.185  36.203  1.00  0.00    -0.237 OA
ATOM     93  O   UNL A   1      45.780  24.490  38.410  1.00  0.00    -0.744 OA
ENDBRANCH  87  90
ENDBRANCH  59  83
BRANCH  71  94
ATOM     94  C   UNL A   1      49.801  27.302  29.890  1.00  0.00     0.023 A 
ATOM     95  C   UNL A   1      51.121  26.840  30.080  1.00  0.00     0.012 A 
ATOM     96  C   UNL A   1      49.296  27.303  28.570  1.00  0.00     0.148 A 
ATOM     97  C   UNL A   1      51.908  26.414  29.008  1.00  0.00     0.002 A 
ATOM     98  C   UNL A   1      50.124  26.995  27.495  1.00  0.00     0.091 A 
ATOM     99  F   UNL A   1      47.999  27.557  28.355  1.00  0.00    -0.205 F 
ATOM    100  C   UNL A   1      51.424  26.530  27.711  1.00  0.00     0.022 A 
BRANCH  98 101
ATOM    101  S   UNL A   1      49.654  27.369  25.799  1.00  0.00     0.127 S 
ATOM    102  O   UNL A   1      50.071  28.768  25.673  1.00  0.00    -0.237 OA
ATOM    103  O   UNL A   1      50.470  26.421  25.042  1.00  0.00    -0.237 OA
ATOM    104  O   UNL A   1      48.214  27.167  25.739  1.00  0.00    -0.744 OA
ENDBRANCH  98 101
ENDBRANCH  71  94
ENDBRANCH  45  46
ENDBRANCH  38  40
ENDBRANCH  37  38
ENDBRANCH  36  37
ENDBRANCH  35  36
ENDBRANCH  34  35
ENDBRANCH  33  34
ENDBRANCH   1  33
TORSDOF 26
ENDMDL
MODEL 3
REMARK VINA RESULT:      -7.8      1.803      3.408
REMARK SMILES Cc1ccc(Cn2c(C)c(C[NH2+]C[C@@H]3CCCO3)c(C(=O)OCCOCCOCCOC(=O)c3ccc(-c4c5nc(c(-c6cccc(S(=O)(=O)[O-])c6F)c6ccc([nH]6)c(-c6cccc(S(=O)(=O)[O-])c6F)c6nc(c(-c7cccc(S(=O)(=O)[O-])c7F)c7ccc4[nH]7)C=C6)C=C5)cc3)c2C)cc1
REMARK SMILES IDX 26 1 25 2 24 3 23 4 22 5 20 6 21 7 19 8 7 9 8 10 97 11 9 12
REMARK SMILES IDX 10 13 98 14 6 15 5 16 1 17 2 18 3 19 100 20 4 21 99 22 11 23
REMARK SMILES IDX 12 24 13 27 14 28 15 29 18 30 16 31 17 32 27 33 28 34 29 35
REMARK SMILES IDX 30 36 31 37 32 38 33 39 34 40 35 41 96 42 36 43 95 44 37 45
REMARK SMILES IDX 38 46 39 47 89 48 40 49 94 50 88 51 90 52 41 53 93 54 87 55
REMARK SMILES IDX 86 56 42 58 74 59 54 60 73 61 55 62 58 63 72 64 91 65 56 66
REMARK SMILES IDX 57 67 71 69 92 70 59 71 43 72 44 73 52 74 45 75 47 76 53 77
REMARK SMILES IDX 46 78 48 79 49 80 50 81 51 82 75 83 76 84 84 85 77 86 79 87
REMARK SMILES IDX 85 88 78 89 80 90 81 91 82 92 83 93 60 94 61 95 69 96 62 97
REMARK SMILES IDX 64 98 70 99 63 100 65 101 66 102 67 103 68 104
REMARK H PARENT 12 25 12 26 90 57 58 68
REMARK Flexibility Score: inf
ROOT
ATOM      1  C   UNL A   1      51.020  21.616  33.678  1.00  0.00     0.188 C 
ENDROOT
BRANCH   1   2
ATOM      2  O   UNL A   1      51.446  22.809  32.924  1.00  0.00    -0.376 OA
BRANCH   2   3
ATOM      3  C   UNL A   1      52.252  23.889  33.563  1.00  0.00     0.202 C 
BRANCH   3   4
ATOM      4  C   UNL A   1      51.562  25.088  34.698  1.00  0.00     0.261 C 
BRANCH   4   5
ATOM      5  O   UNL A   1      50.206  26.193  34.580  1.00  0.00    -0.460 OA
BRANCH   5   6
ATOM      6  C   UNL A   1      48.735  26.353  34.830  1.00  0.00     0.340 C 
ATOM      7  O   UNL A   1      47.831  26.097  34.044  1.00  0.00    -0.246 OA
BRANCH   6   8
ATOM      8  C   UNL A   1      48.228  27.008  36.049  1.00  0.00     0.089 A 
ATOM      9  N   UNL A   1      46.562  28.269  36.669  1.00  0.00    -0.343 N 
ATOM     10  C   UNL A   1      46.667  27.306  37.670  1.00  0.00     0.025 A 
ATOM     11  C   UNL A   1      47.760  28.302  35.978  1.00  0.00     0.030 A 
ATOM     12  C   UNL A   1      45.730  27.146  38.820  1.00  0.00     0.065 C 
ATOM     13  C   UNL A   1      47.716  26.437  37.331  1.00  0.00     0.042 A 
ATOM     14  C   UNL A   1      48.235  29.349  35.046  1.00  0.00     0.065 C 
BRANCH   9  15
ATOM     15  C   UNL A   1      45.405  29.132  36.387  1.00  0.00     0.157 C 
BRANCH  15  16
ATOM     16  C   UNL A   1      45.244  30.353  37.288  1.00  0.00    -0.028 A 
ATOM     17  C   UNL A   1      44.844  33.771  39.958  1.00  0.00     0.044 C 
ATOM     18  C   UNL A   1      44.969  32.569  39.064  1.00  0.00    -0.051 A 
ATOM     19  C   UNL A   1      46.217  32.205  38.568  1.00  0.00     0.004 A 
ATOM     20  C   UNL A   1      43.852  31.830  38.659  1.00  0.00     0.004 A 
ATOM     21  C   UNL A   1      46.351  31.090  37.735  1.00  0.00     0.006 A 
ATOM     22  C   UNL A   1      43.985  30.746  37.772  1.00  0.00     0.006 A 
ENDBRANCH  15  16
ENDBRANCH   9  15
BRANCH  13  23
ATOM     23  C   UNL A   1      47.990  25.096  38.128  1.00  0.00     0.300 C 
BRANCH  23  24
ATOM     24  N   UNL A   1      49.214  25.229  38.976  1.00  0.00    -0.340 N 
ATOM     25  H   UNL A   1      49.992  25.426  38.347  1.00  0.00     0.346 HD
ATOM     26  H   UNL A   1      49.248  24.348  39.490  1.00  0.00     0.346 HD
BRANCH  24  27
ATOM     27  C   UNL A   1      49.252  26.275  40.062  1.00  0.00     0.293 C 
BRANCH  27  28
ATOM     28  C   UNL A   1      50.073  27.546  39.668  1.00  0.00     0.173 C 
ATOM     29  C   UNL A   1      49.619  28.996  39.513  1.00  0.00     0.040 C 
ATOM     30  O   UNL A   1      50.803  27.338  38.440  1.00  0.00    -0.372 OA
ATOM     31  C   UNL A   1      50.924  29.636  38.999  1.00  0.00     0.031 C 
ATOM     32  C   UNL A   1      51.570  28.527  38.183  1.00  0.00     0.161 C 
ENDBRANCH  27  28
ENDBRANCH  24  27
ENDBRANCH  23  24
ENDBRANCH  13  23
ENDBRANCH   6   8
ENDBRANCH   5   6
ENDBRANCH   4   5
ENDBRANCH   3   4
ENDBRANCH   2   3
ENDBRANCH   1   2
BRANCH   1  33
ATOM     33  C   UNL A   1      49.582  21.771  34.335  1.00  0.00     0.188 C 
BRANCH  33  34
ATOM     34  O   UNL A   1      49.711  21.917  35.751  1.00  0.00    -0.376 OA
BRANCH  34  35
ATOM     35  C   UNL A   1      49.483  20.807  36.603  1.00  0.00     0.202 C 
BRANCH  35  36
ATOM     36  C   UNL A   1      48.126  20.681  37.334  1.00  0.00     0.261 C 
BRANCH  36  37
ATOM     37  O   UNL A   1      47.164  21.702  36.987  1.00  0.00    -0.460 OA
BRANCH  37  38
ATOM     38  C   UNL A   1      45.892  21.234  36.744  1.00  0.00     0.338 C 
ATOM     39  O   UNL A   1      45.520  20.123  37.075  1.00  0.00    -0.246 OA
BRANCH  38  40
ATOM     40  C   UNL A   1      45.110  22.249  35.988  1.00  0.00     0.060 A 
ATOM     41  C   UNL A   1      44.457  22.110  34.782  1.00  0.00     0.016 A 
ATOM     42  C   UNL A   1      45.143  23.513  36.442  1.00  0.00     0.016 A 
ATOM     43  C   UNL A   1      43.991  23.273  34.016  1.00  0.00     0.010 A 
ATOM     44  C   UNL A   1      44.915  24.559  35.528  1.00  0.00     0.010 A 
ATOM     45  C   UNL A   1      44.287  24.617  34.266  1.00  0.00    -0.014 A 
BRANCH  45  46
ATOM     46  C   UNL A   1      43.777  26.067  33.449  1.00  0.00     0.031 A 
ATOM     47  C   UNL A   1      42.832  27.471  34.030  1.00  0.00     0.074 A 
ATOM     48  C   UNL A   1      44.145  26.334  32.151  1.00  0.00     0.049 A 
ATOM     49  N   UNL A   1      42.517  28.527  33.292  1.00  0.00    -0.248 NA
ATOM     50  C   UNL A   1      42.238  27.782  35.376  1.00  0.00     0.031 C 
ATOM     51  C   UNL A   1      44.181  27.661  31.520  1.00  0.00     0.029 A 
ATOM     52  N   UNL A   1      44.502  25.549  31.060  1.00  0.00    -0.354 N 
ATOM     53  C   UNL A   1      41.975  29.558  34.071  1.00  0.00     0.074 A 
ATOM     54  C   UNL A   1      41.903  29.061  35.385  1.00  0.00     0.031 C 
ATOM     55  C   UNL A   1      44.095  27.533  30.195  1.00  0.00     0.029 A 
ATOM     56  C   UNL A   1      43.994  26.126  29.889  1.00  0.00     0.049 A 
ATOM     57  H   UNL A   1      45.029  24.717  31.103  1.00  0.00     0.167 HD
ATOM     58  C   UNL A   1      41.612  30.789  33.617  1.00  0.00     0.034 A 
ATOM     59  C   UNL A   1      43.250  25.592  28.870  1.00  0.00     0.034 A 
ATOM     60  C   UNL A   1      41.599  30.831  32.176  1.00  0.00     0.049 A 
ATOM     61  C   UNL A   1      41.966  26.392  28.652  1.00  0.00     0.074 A 
ATOM     62  C   UNL A   1      42.502  31.156  31.185  1.00  0.00     0.029 A 
ATOM     63  N   UNL A   1      40.562  30.167  31.562  1.00  0.00    -0.354 N 
ATOM     64  N   UNL A   1      41.807  27.659  28.927  1.00  0.00    -0.248 NA
ATOM     65  C   UNL A   1      40.708  25.779  28.199  1.00  0.00     0.031 C 
ATOM     66  C   UNL A   1      42.024  30.583  29.969  1.00  0.00     0.029 A 
ATOM     67  C   UNL A   1      40.823  29.941  30.227  1.00  0.00     0.049 A 
ATOM     68  H   UNL A   1      39.736  29.888  32.021  1.00  0.00     0.167 HD
ATOM     69  C   UNL A   1      40.462  27.938  28.955  1.00  0.00     0.074 A 
ATOM     70  C   UNL A   1      39.819  26.758  28.418  1.00  0.00     0.031 C 
ATOM     71  C   UNL A   1      39.920  29.065  29.501  1.00  0.00     0.034 A 
BRANCH  58  72
ATOM     72  C   UNL A   1      41.455  32.004  34.529  1.00  0.00     0.023 A 
ATOM     73  C   UNL A   1      42.630  32.731  34.817  1.00  0.00     0.012 A 
ATOM     74  C   UNL A   1      40.296  32.394  35.245  1.00  0.00     0.148 A 
ATOM     75  C   UNL A   1      42.691  33.676  35.850  1.00  0.00     0.002 A 
ATOM     76  C   UNL A   1      40.382  33.248  36.351  1.00  0.00     0.091 A 
ATOM     77  F   UNL A   1      39.085  32.002  34.824  1.00  0.00    -0.205 F 
ATOM     78  C   UNL A   1      41.583  33.889  36.659  1.00  0.00     0.022 A 
BRANCH  76  79
ATOM     79  S   UNL A   1      39.039  33.367  37.558  1.00  0.00     0.127 S 
ATOM     80  O   UNL A   1      38.755  31.961  37.862  1.00  0.00    -0.237 OA
ATOM     81  O   UNL A   1      39.647  34.109  38.657  1.00  0.00    -0.237 OA
ATOM     82  O   UNL A   1      37.951  34.040  36.853  1.00  0.00    -0.744 OA
ENDBRANCH  76  79
ENDBRANCH  58  72
BRANCH  59  83
ATOM     83  C   UNL A   1      43.418  24.147  28.547  1.00  0.00     0.023 A 
ATOM     84  C   UNL A   1      42.380  23.246  28.881  1.00  0.00     0.012 A 
ATOM     85  C   UNL A   1      44.341  23.704  27.619  1.00  0.00     0.148 A 
ATOM     86  C   UNL A   1      42.193  22.037  28.180  1.00  0.00     0.002 A 
ATOM     87  C   UNL A   1      43.877  22.772  26.693  1.00  0.00     0.091 A 
ATOM     88  F   UNL A   1      45.464  24.391  27.362  1.00  0.00    -0.205 F 
ATOM     89  C   UNL A   1      42.937  21.803  27.037  1.00  0.00     0.022 A 
BRANCH  87  90
ATOM     90  S   UNL A   1      43.234  23.739  25.285  1.00  0.00     0.127 S 
ATOM     91  O   UNL A   1      41.860  24.006  25.629  1.00  0.00    -0.237 OA
ATOM     92  O   UNL A   1      44.031  24.962  25.319  1.00  0.00    -0.237 OA
ATOM     93  O   UNL A   1      43.489  22.822  24.193  1.00  0.00    -0.744 OA
ENDBRANCH  87  90
ENDBRANCH  59  83
BRANCH  71  94
ATOM     94  C   UNL A   1      38.458  29.415  29.346  1.00  0.00     0.023 A 
ATOM     95  C   UNL A   1      37.843  29.204  28.094  1.00  0.00     0.012 A 
ATOM     96  C   UNL A   1      37.734  30.153  30.309  1.00  0.00     0.148 A 
ATOM     97  C   UNL A   1      36.576  29.716  27.805  1.00  0.00     0.002 A 
ATOM     98  C   UNL A   1      36.529  30.763  29.975  1.00  0.00     0.091 A 
ATOM     99  F   UNL A   1      38.187  30.228  31.567  1.00  0.00    -0.205 F 
ATOM    100  C   UNL A   1      35.936  30.529  28.732  1.00  0.00     0.022 A 
BRANCH  98 101
ATOM    101  S   UNL A   1      35.783  32.026  31.018  1.00  0.00     0.127 S 
ATOM    102  O   UNL A   1      34.583  32.376  30.255  1.00  0.00    -0.237 OA
ATOM    103  O   UNL A   1      35.525  31.287  32.252  1.00  0.00    -0.237 OA
ATOM    104  O   UNL A   1      36.770  33.093  31.104  1.00  0.00    -0.744 OA
ENDBRANCH  98 101
ENDBRANCH  71  94
ENDBRANCH  45  46
ENDBRANCH  38  40
ENDBRANCH  37  38
ENDBRANCH  36  37
ENDBRANCH  35  36
ENDBRANCH  34  35
ENDBRANCH  33  34
ENDBRANCH   1  33
TORSDOF 26
ENDMDL
