MODEL 1
REMARK VINA RESULT:     -11.6      0.000      0.000
REMARK SMILES Cc1ccnc(C(=O)c2[nH]c3ccc(F)cc3c2CC(=O)OCCOCCOCCOC(=O)c2ccc(-c3c4nc(c(-c5cccc(S(=O)(=O)[O-])c5F)c5ccc([nH]5)c(-c5cccc(S(=O)(=O)[O-])c5F)c5nc(c(-c6cccc(S(=O)(=O)[O-])c6F)c6ccc3[nH]6)C=C5)C=C4)cc2)c1
REMARK SMILES IDX 26 1 25 2 24 3 23 4 22 5 20 6 21 7 19 8 18 9 9 10 10 11
REMARK SMILES IDX 11 12 17 14 12 15 16 16 13 17 14 18 15 19 7 20 8 21 6 22
REMARK SMILES IDX 1 23 2 24 3 25 97 26 4 27 5 28 27 29 28 30 29 31 30 32 31 33
REMARK SMILES IDX 32 34 33 35 34 36 35 37 96 38 36 39 95 40 37 41 38 42 39 43
REMARK SMILES IDX 89 44 40 45 94 46 88 47 90 48 41 49 93 50 87 51 86 52 42 54
REMARK SMILES IDX 74 55 54 56 73 57 55 58 58 59 72 60 91 61 56 62 57 63 71 65
REMARK SMILES IDX 92 66 59 67 43 68 44 69 52 70 45 71 47 72 53 73 46 74 48 75
REMARK SMILES IDX 49 76 50 77 51 78 75 79 76 80 84 81 77 82 79 83 85 84 78 85
REMARK SMILES IDX 80 86 81 87 82 88 83 89 60 90 61 91 69 92 62 93 64 94 70 95
REMARK SMILES IDX 63 96 65 97 66 98 67 99 68 100
REMARK H PARENT 10 13 90 53 58 64
REMARK Flexibility Score: inf
ROOT
ATOM      1  C   UNL A   1      33.525  27.730  26.300  1.00  0.00     0.188 C 
ENDROOT
BRANCH   1   2
ATOM      2  O   UNL A   1      33.664  26.668  25.350  1.00  0.00    -0.376 OA
BRANCH   2   3
ATOM      3  C   UNL A   1      33.773  25.353  25.939  1.00  0.00     0.202 C 
BRANCH   3   4
ATOM      4  C   UNL A   1      34.915  24.481  25.394  1.00  0.00     0.261 C 
BRANCH   4   5
ATOM      5  O   UNL A   1      35.369  23.568  26.413  1.00  0.00    -0.463 OA
BRANCH   5   6
ATOM      6  C   UNL A   1      35.361  22.251  26.067  1.00  0.00     0.310 C 
ATOM      7  O   UNL A   1      36.316  21.666  25.572  1.00  0.00    -0.252 OA
BRANCH   6   8
ATOM      8  C   UNL A   1      34.032  21.590  26.331  1.00  0.00     0.161 C 
BRANCH   8   9
ATOM      9  C   UNL A   1      33.329  21.066  25.113  1.00  0.00     0.000 A 
ATOM     10  C   UNL A   1      32.347  21.694  24.358  1.00  0.00     0.093 A 
ATOM     11  N   UNL A   1      31.809  20.712  23.544  1.00  0.00    -0.352 N 
ATOM     12  C   UNL A   1      32.546  19.569  23.555  1.00  0.00     0.046 A 
ATOM     13  H   UNL A   1      30.986  20.827  23.016  1.00  0.00     0.167 HD
ATOM     14  C   UNL A   1      33.524  19.750  24.529  1.00  0.00     0.007 A 
ATOM     15  C   UNL A   1      32.384  18.404  22.797  1.00  0.00     0.030 A 
ATOM     16  C   UNL A   1      34.421  18.684  24.745  1.00  0.00     0.049 A 
ATOM     17  C   UNL A   1      33.293  17.374  23.020  1.00  0.00     0.041 A 
ATOM     18  C   UNL A   1      34.294  17.522  23.973  1.00  0.00     0.123 A 
ATOM     19  F   UNL A   1      35.164  16.519  24.154  1.00  0.00    -0.207 F 
BRANCH  10  20
ATOM     20  C   UNL A   1      31.691  22.982  24.256  1.00  0.00     0.227 C 
ATOM     21  O   UNL A   1      30.783  23.156  25.064  1.00  0.00    -0.285 OA
BRANCH  20  22
ATOM     22  C   UNL A   1      31.768  23.993  23.160  1.00  0.00     0.113 A 
ATOM     23  C   UNL A   1      30.384  27.526  22.917  1.00  0.00     0.044 C 
ATOM     24  C   UNL A   1      31.244  26.322  22.672  1.00  0.00    -0.047 A 
ATOM     25  C   UNL A   1      32.453  26.410  22.001  1.00  0.00     0.023 A 
ATOM     26  C   UNL A   1      30.918  25.091  23.249  1.00  0.00     0.036 A 
ATOM     27  C   UNL A   1      33.241  25.268  21.920  1.00  0.00     0.112 A 
ATOM     28  N   UNL A   1      32.937  24.067  22.485  1.00  0.00    -0.253 NA
ENDBRANCH  20  22
ENDBRANCH  10  20
ENDBRANCH   8   9
ENDBRANCH   6   8
ENDBRANCH   5   6
ENDBRANCH   4   5
ENDBRANCH   3   4
ENDBRANCH   2   3
ENDBRANCH   1   2
BRANCH   1  29
ATOM     29  C   UNL A   1      32.215  28.537  26.145  1.00  0.00     0.188 C 
BRANCH  29  30
ATOM     30  O   UNL A   1      32.449  29.872  25.655  1.00  0.00    -0.376 OA
BRANCH  30  31
ATOM     31  C   UNL A   1      31.853  30.914  26.448  1.00  0.00     0.202 C 
BRANCH  31  32
ATOM     32  C   UNL A   1      32.918  31.835  27.092  1.00  0.00     0.261 C 
BRANCH  32  33
ATOM     33  O   UNL A   1      32.426  33.155  27.451  1.00  0.00    -0.460 OA
BRANCH  33  34
ATOM     34  C   UNL A   1      33.245  33.937  28.218  1.00  0.00     0.338 C 
ATOM     35  O   UNL A   1      32.981  35.056  28.625  1.00  0.00    -0.246 OA
BRANCH  34  36
ATOM     36  C   UNL A   1      34.500  33.222  28.603  1.00  0.00     0.060 A 
ATOM     37  C   UNL A   1      34.399  32.176  29.531  1.00  0.00     0.016 A 
ATOM     38  C   UNL A   1      35.757  33.555  28.091  1.00  0.00     0.016 A 
ATOM     39  C   UNL A   1      35.504  31.379  29.839  1.00  0.00     0.010 A 
ATOM     40  C   UNL A   1      36.892  32.816  28.485  1.00  0.00     0.010 A 
ATOM     41  C   UNL A   1      36.772  31.710  29.348  1.00  0.00    -0.014 A 
BRANCH  41  42
ATOM     42  C   UNL A   1      37.958  31.039  29.957  1.00  0.00     0.031 A 
ATOM     43  C   UNL A   1      38.293  31.388  31.383  1.00  0.00     0.074 A 
ATOM     44  C   UNL A   1      38.690  30.100  29.326  1.00  0.00     0.049 A 
ATOM     45  N   UNL A   1      39.214  30.890  32.167  1.00  0.00    -0.248 NA
ATOM     46  C   UNL A   1      37.455  32.421  32.016  1.00  0.00     0.031 C 
ATOM     47  C   UNL A   1      38.448  29.594  27.979  1.00  0.00     0.029 A 
ATOM     48  N   UNL A   1      39.796  29.397  29.748  1.00  0.00    -0.354 N 
ATOM     49  C   UNL A   1      39.061  31.542  33.383  1.00  0.00     0.074 A 
ATOM     50  C   UNL A   1      37.962  32.471  33.237  1.00  0.00     0.031 C 
ATOM     51  C   UNL A   1      39.397  28.690  27.669  1.00  0.00     0.029 A 
ATOM     52  C   UNL A   1      40.314  28.544  28.799  1.00  0.00     0.049 A 
ATOM     53  H   UNL A   1      40.182  29.495  30.649  1.00  0.00     0.167 HD
ATOM     54  C   UNL A   1      39.762  31.387  34.529  1.00  0.00     0.034 A 
ATOM     55  C   UNL A   1      41.398  27.737  28.839  1.00  0.00     0.034 A 
ATOM     56  C   UNL A   1      40.879  30.503  34.692  1.00  0.00     0.049 A 
ATOM     57  C   UNL A   1      42.221  27.650  30.103  1.00  0.00     0.074 A 
ATOM     58  C   UNL A   1      41.670  30.317  35.812  1.00  0.00     0.029 A 
ATOM     59  N   UNL A   1      41.378  29.673  33.703  1.00  0.00    -0.354 N 
ATOM     60  N   UNL A   1      42.001  28.196  31.276  1.00  0.00    -0.248 NA
ATOM     61  C   UNL A   1      43.433  26.813  30.059  1.00  0.00     0.031 C 
ATOM     62  C   UNL A   1      42.662  29.385  35.493  1.00  0.00     0.029 A 
ATOM     63  C   UNL A   1      42.477  28.981  34.181  1.00  0.00     0.049 A 
ATOM     64  H   UNL A   1      41.007  29.587  32.796  1.00  0.00     0.167 HD
ATOM     65  C   UNL A   1      43.022  27.745  32.109  1.00  0.00     0.074 A 
ATOM     66  C   UNL A   1      43.851  26.863  31.317  1.00  0.00     0.031 C 
ATOM     67  C   UNL A   1      43.261  28.052  33.408  1.00  0.00     0.034 A 
BRANCH  54  68
ATOM     68  C   UNL A   1      39.321  32.215  35.701  1.00  0.00     0.023 A 
ATOM     69  C   UNL A   1      39.805  33.530  35.836  1.00  0.00     0.012 A 
ATOM     70  C   UNL A   1      38.447  31.688  36.669  1.00  0.00     0.148 A 
ATOM     71  C   UNL A   1      39.446  34.304  36.938  1.00  0.00     0.002 A 
ATOM     72  C   UNL A   1      38.070  32.476  37.749  1.00  0.00     0.091 A 
ATOM     73  F   UNL A   1      38.033  30.420  36.538  1.00  0.00    -0.205 F 
ATOM     74  C   UNL A   1      38.573  33.780  37.889  1.00  0.00     0.022 A 
BRANCH  72  75
ATOM     75  S   UNL A   1      36.918  31.896  38.996  1.00  0.00     0.127 S 
ATOM     76  O   UNL A   1      36.857  30.466  38.701  1.00  0.00    -0.237 OA
ATOM     77  O   UNL A   1      37.610  32.232  40.241  1.00  0.00    -0.237 OA
ATOM     78  O   UNL A   1      35.686  32.639  38.773  1.00  0.00    -0.744 OA
ENDBRANCH  72  75
ENDBRANCH  54  68
BRANCH  55  79
ATOM     79  C   UNL A   1      41.768  26.902  27.656  1.00  0.00     0.023 A 
ATOM     80  C   UNL A   1      42.348  27.515  26.527  1.00  0.00     0.012 A 
ATOM     81  C   UNL A   1      41.519  25.515  27.628  1.00  0.00     0.148 A 
ATOM     82  C   UNL A   1      42.642  26.771  25.382  1.00  0.00     0.002 A 
ATOM     83  C   UNL A   1      41.860  24.772  26.502  1.00  0.00     0.091 A 
ATOM     84  F   UNL A   1      40.935  24.953  28.693  1.00  0.00    -0.205 F 
ATOM     85  C   UNL A   1      42.407  25.398  25.372  1.00  0.00     0.022 A 
BRANCH  83  86
ATOM     86  S   UNL A   1      41.687  22.983  26.447  1.00  0.00     0.127 S 
ATOM     87  O   UNL A   1      40.236  22.822  26.458  1.00  0.00    -0.237 OA
ATOM     88  O   UNL A   1      42.334  22.652  25.177  1.00  0.00    -0.237 OA
ATOM     89  O   UNL A   1      42.392  22.489  27.622  1.00  0.00    -0.744 OA
ENDBRANCH  83  86
ENDBRANCH  55  79
BRANCH  67  90
ATOM     90  C   UNL A   1      44.456  27.431  34.083  1.00  0.00     0.023 A 
ATOM     91  C   UNL A   1      45.698  28.093  34.039  1.00  0.00     0.012 A 
ATOM     92  C   UNL A   1      44.325  26.262  34.861  1.00  0.00     0.148 A 
ATOM     93  C   UNL A   1      46.794  27.595  34.744  1.00  0.00     0.002 A 
ATOM     94  C   UNL A   1      45.410  25.794  35.593  1.00  0.00     0.091 A 
ATOM     95  F   UNL A   1      43.140  25.633  34.876  1.00  0.00    -0.205 F 
ATOM     96  C   UNL A   1      46.647  26.456  35.532  1.00  0.00     0.022 A 
BRANCH  94  97
ATOM     97  S   UNL A   1      45.281  24.390  36.708  1.00  0.00     0.127 S 
ATOM     98  O   UNL A   1      46.605  24.375  37.327  1.00  0.00    -0.237 OA
ATOM     99  O   UNL A   1      44.195  24.796  37.603  1.00  0.00    -0.237 OA
ATOM    100  O   UNL A   1      44.966  23.243  35.866  1.00  0.00    -0.744 OA
ENDBRANCH  94  97
ENDBRANCH  67  90
ENDBRANCH  41  42
ENDBRANCH  34  36
ENDBRANCH  33  34
ENDBRANCH  32  33
ENDBRANCH  31  32
ENDBRANCH  30  31
ENDBRANCH  29  30
ENDBRANCH   1  29
TORSDOF 23
ENDMDL
MODEL 2
REMARK VINA RESULT:     -11.2      3.219      5.829
REMARK SMILES Cc1ccnc(C(=O)c2[nH]c3ccc(F)cc3c2CC(=O)OCCOCCOCCOC(=O)c2ccc(-c3c4nc(c(-c5cccc(S(=O)(=O)[O-])c5F)c5ccc([nH]5)c(-c5cccc(S(=O)(=O)[O-])c5F)c5nc(c(-c6cccc(S(=O)(=O)[O-])c6F)c6ccc3[nH]6)C=C5)C=C4)cc2)c1
REMARK SMILES IDX 26 1 25 2 24 3 23 4 22 5 20 6 21 7 19 8 18 9 9 10 10 11
REMARK SMILES IDX 11 12 17 14 12 15 16 16 13 17 14 18 15 19 7 20 8 21 6 22
REMARK SMILES IDX 1 23 2 24 3 25 97 26 4 27 5 28 27 29 28 30 29 31 30 32 31 33
REMARK SMILES IDX 32 34 33 35 34 36 35 37 96 38 36 39 95 40 37 41 38 42 39 43
REMARK SMILES IDX 89 44 40 45 94 46 88 47 90 48 41 49 93 50 87 51 86 52 42 54
REMARK SMILES IDX 74 55 54 56 73 57 55 58 58 59 72 60 91 61 56 62 57 63 71 65
REMARK SMILES IDX 92 66 59 67 43 68 44 69 52 70 45 71 47 72 53 73 46 74 48 75
REMARK SMILES IDX 49 76 50 77 51 78 75 79 76 80 84 81 77 82 79 83 85 84 78 85
REMARK SMILES IDX 80 86 81 87 82 88 83 89 60 90 61 91 69 92 62 93 64 94 70 95
REMARK SMILES IDX 63 96 65 97 66 98 67 99 68 100
REMARK H PARENT 10 13 90 53 58 64
REMARK Flexibility Score: inf
ROOT
ATOM      1  C   UNL A   1      35.634  32.881  28.481  1.00  0.00     0.188 C 
ENDROOT
BRANCH   1   2
ATOM      2  O   UNL A   1      35.389  32.032  27.354  1.00  0.00    -0.376 OA
BRANCH   2   3
ATOM      3  C   UNL A   1      34.847  30.735  27.693  1.00  0.00     0.202 C 
BRANCH   3   4
ATOM      4  C   UNL A   1      33.506  30.390  27.028  1.00  0.00     0.261 C 
BRANCH   4   5
ATOM      5  O   UNL A   1      33.708  29.415  25.987  1.00  0.00    -0.463 OA
BRANCH   5   6
ATOM      6  C   UNL A   1      32.852  29.498  24.931  1.00  0.00     0.310 C 
ATOM      7  O   UNL A   1      33.208  29.529  23.759  1.00  0.00    -0.252 OA
BRANCH   6   8
ATOM      8  C   UNL A   1      31.408  29.579  25.359  1.00  0.00     0.161 C 
BRANCH   8   9
ATOM      9  C   UNL A   1      30.407  29.431  24.250  1.00  0.00     0.000 A 
ATOM     10  C   UNL A   1      30.022  28.267  23.598  1.00  0.00     0.093 A 
ATOM     11  N   UNL A   1      29.321  28.676  22.477  1.00  0.00    -0.352 N 
ATOM     12  C   UNL A   1      29.025  30.002  22.506  1.00  0.00     0.046 A 
ATOM     13  H   UNL A   1      29.065  28.074  21.740  1.00  0.00     0.167 HD
ATOM     14  C   UNL A   1      29.685  30.521  23.616  1.00  0.00     0.007 A 
ATOM     15  C   UNL A   1      28.253  30.758  21.616  1.00  0.00     0.030 A 
ATOM     16  C   UNL A   1      29.544  31.902  23.862  1.00  0.00     0.049 A 
ATOM     17  C   UNL A   1      28.119  32.115  21.891  1.00  0.00     0.041 A 
ATOM     18  C   UNL A   1      28.750  32.668  22.999  1.00  0.00     0.123 A 
ATOM     19  F   UNL A   1      28.589  33.974  23.247  1.00  0.00    -0.207 F 
BRANCH  10  20
ATOM     20  C   UNL A   1      30.220  26.835  23.691  1.00  0.00     0.227 C 
ATOM     21  O   UNL A   1      29.276  26.221  24.180  1.00  0.00    -0.285 OA
BRANCH  20  22
ATOM     22  C   UNL A   1      31.479  26.047  23.540  1.00  0.00     0.113 A 
ATOM     23  C   UNL A   1      32.070  22.299  23.288  1.00  0.00     0.044 C 
ATOM     24  C   UNL A   1      32.277  23.779  23.147  1.00  0.00    -0.047 A 
ATOM     25  C   UNL A   1      33.233  24.306  22.295  1.00  0.00     0.023 A 
ATOM     26  C   UNL A   1      31.402  24.676  23.766  1.00  0.00     0.036 A 
ATOM     27  C   UNL A   1      33.279  25.686  22.139  1.00  0.00     0.112 A 
ATOM     28  N   UNL A   1      32.427  26.569  22.729  1.00  0.00    -0.253 NA
ENDBRANCH  20  22
ENDBRANCH  10  20
ENDBRANCH   8   9
ENDBRANCH   6   8
ENDBRANCH   5   6
ENDBRANCH   4   5
ENDBRANCH   3   4
ENDBRANCH   2   3
ENDBRANCH   1   2
BRANCH   1  29
ATOM     29  C   UNL A   1      34.590  32.735  29.611  1.00  0.00     0.188 C 
BRANCH  29  30
ATOM     30  O   UNL A   1      33.416  33.537  29.378  1.00  0.00    -0.376 OA
BRANCH  30  31
ATOM     31  C   UNL A   1      33.680  34.838  28.824  1.00  0.00     0.202 C 
BRANCH  31  32
ATOM     32  C   UNL A   1      32.959  35.961  29.610  1.00  0.00     0.261 C 
BRANCH  32  33
ATOM     33  O   UNL A   1      32.245  35.499  30.789  1.00  0.00    -0.460 OA
BRANCH  33  34
ATOM     34  C   UNL A   1      32.698  35.937  32.003  1.00  0.00     0.338 C 
ATOM     35  O   UNL A   1      32.202  36.831  32.666  1.00  0.00    -0.246 OA
BRANCH  34  36
ATOM     36  C   UNL A   1      33.845  35.116  32.499  1.00  0.00     0.060 A 
ATOM     37  C   UNL A   1      35.142  35.592  32.261  1.00  0.00     0.016 A 
ATOM     38  C   UNL A   1      33.681  33.902  33.171  1.00  0.00     0.016 A 
ATOM     39  C   UNL A   1      36.256  34.948  32.807  1.00  0.00     0.010 A 
ATOM     40  C   UNL A   1      34.813  33.197  33.630  1.00  0.00     0.010 A 
ATOM     41  C   UNL A   1      36.109  33.723  33.468  1.00  0.00    -0.014 A 
BRANCH  41  42
ATOM     42  C   UNL A   1      37.338  32.921  33.740  1.00  0.00     0.031 A 
ATOM     43  C   UNL A   1      38.133  33.269  34.972  1.00  0.00     0.074 A 
ATOM     44  C   UNL A   1      37.727  31.873  32.988  1.00  0.00     0.049 A 
ATOM     45  N   UNL A   1      39.184  32.680  35.477  1.00  0.00    -0.248 NA
ATOM     46  C   UNL A   1      37.655  34.425  35.751  1.00  0.00     0.031 C 
ATOM     47  C   UNL A   1      37.027  31.359  31.816  1.00  0.00     0.029 A 
ATOM     48  N   UNL A   1      38.820  31.044  33.110  1.00  0.00    -0.354 N 
ATOM     49  C   UNL A   1      39.488  33.387  36.634  1.00  0.00     0.074 A 
ATOM     50  C   UNL A   1      38.513  34.447  36.757  1.00  0.00     0.031 C 
ATOM     51  C   UNL A   1      37.724  30.328  31.301  1.00  0.00     0.029 A 
ATOM     52  C   UNL A   1      38.919  30.098  32.112  1.00  0.00     0.049 A 
ATOM     53  H   UNL A   1      39.472  31.120  33.843  1.00  0.00     0.167 HD
ATOM     54  C   UNL A   1      40.483  33.178  37.525  1.00  0.00     0.034 A 
ATOM     55  C   UNL A   1      39.861  29.157  31.884  1.00  0.00     0.034 A 
ATOM     56  C   UNL A   1      41.486  32.159  37.409  1.00  0.00     0.049 A 
ATOM     57  C   UNL A   1      41.016  29.003  32.847  1.00  0.00     0.074 A 
ATOM     58  C   UNL A   1      42.554  31.907  38.251  1.00  0.00     0.029 A 
ATOM     59  N   UNL A   1      41.558  31.238  36.378  1.00  0.00    -0.354 N 
ATOM     60  N   UNL A   1      41.231  29.612  33.988  1.00  0.00    -0.248 NA
ATOM     61  C   UNL A   1      42.050  28.011  32.501  1.00  0.00     0.031 C 
ATOM     62  C   UNL A   1      43.286  30.841  37.718  1.00  0.00     0.029 A 
ATOM     63  C   UNL A   1      42.662  30.422  36.553  1.00  0.00     0.049 A 
ATOM     64  H   UNL A   1      40.919  31.172  35.633  1.00  0.00     0.167 HD
ATOM     65  C   UNL A   1      42.398  29.057  34.508  1.00  0.00     0.074 A 
ATOM     66  C   UNL A   1      42.837  28.047  33.570  1.00  0.00     0.031 C 
ATOM     67  C   UNL A   1      43.058  29.372  35.650  1.00  0.00     0.034 A 
BRANCH  54  68
ATOM     68  C   UNL A   1      40.522  34.095  38.712  1.00  0.00     0.023 A 
ATOM     69  C   UNL A   1      41.445  35.158  38.732  1.00  0.00     0.012 A 
ATOM     70  C   UNL A   1      39.661  33.896  39.807  1.00  0.00     0.148 A 
ATOM     71  C   UNL A   1      41.532  35.997  39.841  1.00  0.00     0.002 A 
ATOM     72  C   UNL A   1      39.734  34.754  40.896  1.00  0.00     0.091 A 
ATOM     73  F   UNL A   1      38.820  32.853  39.780  1.00  0.00    -0.205 F 
ATOM     74  C   UNL A   1      40.672  35.800  40.919  1.00  0.00     0.022 A 
BRANCH  72  75
ATOM     75  S   UNL A   1      38.635  34.599  42.307  1.00  0.00     0.127 S 
ATOM     76  O   UNL A   1      37.329  34.825  41.690  1.00  0.00    -0.237 OA
ATOM     77  O   UNL A   1      38.874  33.222  42.739  1.00  0.00    -0.237 OA
ATOM     78  O   UNL A   1      39.067  35.613  43.258  1.00  0.00    -0.744 OA
ENDBRANCH  72  75
ENDBRANCH  54  68
BRANCH  55  79
ATOM     79  C   UNL A   1      39.751  28.241  30.708  1.00  0.00     0.023 A 
ATOM     80  C   UNL A   1      38.899  27.121  30.777  1.00  0.00     0.012 A 
ATOM     81  C   UNL A   1      40.509  28.451  29.539  1.00  0.00     0.148 A 
ATOM     82  C   UNL A   1      38.827  26.211  29.719  1.00  0.00     0.002 A 
ATOM     83  C   UNL A   1      40.396  27.568  28.469  1.00  0.00     0.091 A 
ATOM     84  F   UNL A   1      41.342  29.500  29.501  1.00  0.00    -0.205 F 
ATOM     85  C   UNL A   1      39.568  26.439  28.562  1.00  0.00     0.022 A 
BRANCH  83  86
ATOM     86  S   UNL A   1      41.235  27.845  26.905  1.00  0.00     0.127 S 
ATOM     87  O   UNL A   1      42.639  27.788  27.302  1.00  0.00    -0.237 OA
ATOM     88  O   UNL A   1      40.775  26.709  26.105  1.00  0.00    -0.237 OA
ATOM     89  O   UNL A   1      40.759  29.138  26.432  1.00  0.00    -0.744 OA
ENDBRANCH  83  86
ENDBRANCH  55  79
BRANCH  67  90
ATOM     90  C   UNL A   1      44.321  28.621  35.979  1.00  0.00     0.023 A 
ATOM     91  C   UNL A   1      45.563  29.142  35.570  1.00  0.00     0.012 A 
ATOM     92  C   UNL A   1      44.291  27.470  36.794  1.00  0.00     0.148 A 
ATOM     93  C   UNL A   1      46.754  28.524  35.952  1.00  0.00     0.002 A 
ATOM     94  C   UNL A   1      45.482  26.883  37.205  1.00  0.00     0.091 A 
ATOM     95  F   UNL A   1      43.098  26.976  37.158  1.00  0.00    -0.205 F 
ATOM     96  C   UNL A   1      46.715  27.405  36.780  1.00  0.00     0.022 A 
BRANCH  94  97
ATOM     97  S   UNL A   1      45.523  25.497  38.349  1.00  0.00     0.127 S 
ATOM     98  O   UNL A   1      46.960  25.313  38.546  1.00  0.00    -0.237 OA
ATOM     99  O   UNL A   1      44.812  26.028  39.514  1.00  0.00    -0.237 OA
ATOM    100  O   UNL A   1      44.835  24.404  37.674  1.00  0.00    -0.744 OA
ENDBRANCH  94  97
ENDBRANCH  67  90
ENDBRANCH  41  42
ENDBRANCH  34  36
ENDBRANCH  33  34
ENDBRANCH  32  33
ENDBRANCH  31  32
ENDBRANCH  30  31
ENDBRANCH  29  30
ENDBRANCH   1  29
TORSDOF 23
ENDMDL
MODEL 3
REMARK VINA RESULT:     -10.9      2.829      4.390
REMARK SMILES Cc1ccnc(C(=O)c2[nH]c3ccc(F)cc3c2CC(=O)OCCOCCOCCOC(=O)c2ccc(-c3c4nc(c(-c5cccc(S(=O)(=O)[O-])c5F)c5ccc([nH]5)c(-c5cccc(S(=O)(=O)[O-])c5F)c5nc(c(-c6cccc(S(=O)(=O)[O-])c6F)c6ccc3[nH]6)C=C5)C=C4)cc2)c1
REMARK SMILES IDX 26 1 25 2 24 3 23 4 22 5 20 6 21 7 19 8 18 9 9 10 10 11
REMARK SMILES IDX 11 12 17 14 12 15 16 16 13 17 14 18 15 19 7 20 8 21 6 22
REMARK SMILES IDX 1 23 2 24 3 25 97 26 4 27 5 28 27 29 28 30 29 31 30 32 31 33
REMARK SMILES IDX 32 34 33 35 34 36 35 37 96 38 36 39 95 40 37 41 38 42 39 43
REMARK SMILES IDX 89 44 40 45 94 46 88 47 90 48 41 49 93 50 87 51 86 52 42 54
REMARK SMILES IDX 74 55 54 56 73 57 55 58 58 59 72 60 91 61 56 62 57 63 71 65
REMARK SMILES IDX 92 66 59 67 43 68 44 69 52 70 45 71 47 72 53 73 46 74 48 75
REMARK SMILES IDX 49 76 50 77 51 78 75 79 76 80 84 81 77 82 79 83 85 84 78 85
REMARK SMILES IDX 80 86 81 87 82 88 83 89 60 90 61 91 69 92 62 93 64 94 70 95
REMARK SMILES IDX 63 96 65 97 66 98 67 99 68 100
REMARK H PARENT 10 13 90 53 58 64
REMARK Flexibility Score: inf
ROOT
ATOM      1  C   UNL A   1      34.618  32.217  29.020  1.00  0.00     0.188 C 
ENDROOT
BRANCH   1   2
ATOM      2  O   UNL A   1      34.481  30.862  28.577  1.00  0.00    -0.376 OA
BRANCH   2   3
ATOM      3  C   UNL A   1      33.879  30.720  27.271  1.00  0.00     0.202 C 
BRANCH   3   4
ATOM      4  C   UNL A   1      33.699  29.275  26.784  1.00  0.00     0.261 C 
BRANCH   4   5
ATOM      5  O   UNL A   1      32.343  29.066  26.346  1.00  0.00    -0.463 OA
BRANCH   5   6
ATOM      6  C   UNL A   1      31.664  28.074  26.986  1.00  0.00     0.310 C 
ATOM      7  O   UNL A   1      31.539  28.004  28.203  1.00  0.00    -0.252 OA
BRANCH   6   8
ATOM      8  C   UNL A   1      31.105  27.046  26.036  1.00  0.00     0.161 C 
BRANCH   8   9
ATOM      9  C   UNL A   1      32.044  26.605  24.951  1.00  0.00     0.000 A 
ATOM     10  C   UNL A   1      32.217  27.165  23.692  1.00  0.00     0.093 A 
ATOM     11  N   UNL A   1      32.952  26.243  22.966  1.00  0.00    -0.352 N 
ATOM     12  C   UNL A   1      33.464  25.256  23.749  1.00  0.00     0.046 A 
ATOM     13  H   UNL A   1      33.090  26.296  21.993  1.00  0.00     0.167 HD
ATOM     14  C   UNL A   1      32.922  25.449  25.017  1.00  0.00     0.007 A 
ATOM     15  C   UNL A   1      34.331  24.212  23.405  1.00  0.00     0.030 A 
ATOM     16  C   UNL A   1      33.294  24.532  26.022  1.00  0.00     0.049 A 
ATOM     17  C   UNL A   1      34.693  23.333  24.420  1.00  0.00     0.041 A 
ATOM     18  C   UNL A   1      34.186  23.500  25.703  1.00  0.00     0.123 A 
ATOM     19  F   UNL A   1      34.566  22.646  26.662  1.00  0.00    -0.207 F 
BRANCH  10  20
ATOM     20  C   UNL A   1      31.787  28.320  22.932  1.00  0.00     0.227 C 
ATOM     21  O   UNL A   1      32.564  29.271  22.967  1.00  0.00    -0.285 OA
BRANCH  20  22
ATOM     22  C   UNL A   1      30.443  28.620  22.354  1.00  0.00     0.113 A 
ATOM     23  C   UNL A   1      26.946  28.098  23.752  1.00  0.00     0.044 C 
ATOM     24  C   UNL A   1      28.079  28.651  22.937  1.00  0.00    -0.047 A 
ATOM     25  C   UNL A   1      27.963  29.840  22.236  1.00  0.00     0.023 A 
ATOM     26  C   UNL A   1      29.340  28.052  22.983  1.00  0.00     0.036 A 
ATOM     27  C   UNL A   1      29.095  30.338  21.602  1.00  0.00     0.112 A 
ATOM     28  N   UNL A   1      30.331  29.768  21.648  1.00  0.00    -0.253 NA
ENDBRANCH  20  22
ENDBRANCH  10  20
ENDBRANCH   8   9
ENDBRANCH   6   8
ENDBRANCH   5   6
ENDBRANCH   4   5
ENDBRANCH   3   4
ENDBRANCH   2   3
ENDBRANCH   1   2
BRANCH   1  29
ATOM     29  C   UNL A   1      35.385  33.122  28.029  1.00  0.00     0.188 C 
BRANCH  29  30
ATOM     30  O   UNL A   1      34.709  34.374  27.797  1.00  0.00    -0.376 OA
BRANCH  30  31
ATOM     31  C   UNL A   1      33.320  34.384  28.171  1.00  0.00     0.202 C 
BRANCH  31  32
ATOM     32  C   UNL A   1      32.988  35.541  29.144  1.00  0.00     0.261 C 
BRANCH  32  33
ATOM     33  O   UNL A   1      32.384  35.114  30.395  1.00  0.00    -0.460 OA
BRANCH  33  34
ATOM     34  C   UNL A   1      32.895  35.645  31.548  1.00  0.00     0.338 C 
ATOM     35  O   UNL A   1      32.430  36.593  32.158  1.00  0.00    -0.246 OA
BRANCH  34  36
ATOM     36  C   UNL A   1      34.063  34.862  32.053  1.00  0.00     0.060 A 
ATOM     37  C   UNL A   1      35.334  35.193  31.564  1.00  0.00     0.016 A 
ATOM     38  C   UNL A   1      33.941  33.818  32.974  1.00  0.00     0.016 A 
ATOM     39  C   UNL A   1      36.484  34.595  32.087  1.00  0.00     0.010 A 
ATOM     40  C   UNL A   1      35.095  33.142  33.422  1.00  0.00     0.010 A 
ATOM     41  C   UNL A   1      36.378  33.537  32.997  1.00  0.00    -0.014 A 
BRANCH  41  42
ATOM     42  C   UNL A   1      37.598  32.723  33.271  1.00  0.00     0.031 A 
ATOM     43  C   UNL A   1      38.375  33.041  34.522  1.00  0.00     0.074 A 
ATOM     44  C   UNL A   1      37.994  31.689  32.504  1.00  0.00     0.049 A 
ATOM     45  N   UNL A   1      39.416  32.436  35.032  1.00  0.00    -0.248 NA
ATOM     46  C   UNL A   1      37.891  34.183  35.317  1.00  0.00     0.031 C 
ATOM     47  C   UNL A   1      37.310  31.203  31.310  1.00  0.00     0.029 A 
ATOM     48  N   UNL A   1      39.080  30.851  32.625  1.00  0.00    -0.354 N 
ATOM     49  C   UNL A   1      39.704  33.117  36.208  1.00  0.00     0.074 A 
ATOM     50  C   UNL A   1      38.733  34.180  36.337  1.00  0.00     0.031 C 
ATOM     51  C   UNL A   1      38.009  30.179  30.785  1.00  0.00     0.029 A 
ATOM     52  C   UNL A   1      39.191  29.926  31.610  1.00  0.00     0.049 A 
ATOM     53  H   UNL A   1      39.721  30.908  33.371  1.00  0.00     0.167 HD
ATOM     54  C   UNL A   1      40.684  32.884  37.110  1.00  0.00     0.034 A 
ATOM     55  C   UNL A   1      40.131  28.985  31.377  1.00  0.00     0.034 A 
ATOM     56  C   UNL A   1      41.683  31.862  36.988  1.00  0.00     0.049 A 
ATOM     57  C   UNL A   1      41.270  28.805  32.354  1.00  0.00     0.074 A 
ATOM     58  C   UNL A   1      42.737  31.587  37.841  1.00  0.00     0.029 A 
ATOM     59  N   UNL A   1      41.767  30.962  35.940  1.00  0.00    -0.354 N 
ATOM     60  N   UNL A   1      41.470  29.388  33.512  1.00  0.00    -0.248 NA
ATOM     61  C   UNL A   1      42.304  27.815  32.004  1.00  0.00     0.031 C 
ATOM     62  C   UNL A   1      43.471  30.528  37.298  1.00  0.00     0.029 A 
ATOM     63  C   UNL A   1      42.864  30.137  36.115  1.00  0.00     0.049 A 
ATOM     64  H   UNL A   1      41.140  30.916  35.183  1.00  0.00     0.167 HD
ATOM     65  C   UNL A   1      42.625  28.816  34.038  1.00  0.00     0.074 A 
ATOM     66  C   UNL A   1      43.074  27.824  33.086  1.00  0.00     0.031 C 
ATOM     67  C   UNL A   1      43.268  29.104  35.196  1.00  0.00     0.034 A 
BRANCH  54  68
ATOM     68  C   UNL A   1      40.708  33.776  38.317  1.00  0.00     0.023 A 
ATOM     69  C   UNL A   1      41.586  34.877  38.342  1.00  0.00     0.012 A 
ATOM     70  C   UNL A   1      39.880  33.517  39.424  1.00  0.00     0.148 A 
ATOM     71  C   UNL A   1      41.661  35.694  39.467  1.00  0.00     0.002 A 
ATOM     72  C   UNL A   1      39.939  34.353  40.530  1.00  0.00     0.091 A 
ATOM     73  F   UNL A   1      39.083  32.439  39.390  1.00  0.00    -0.205 F 
ATOM     74  C   UNL A   1      40.831  35.438  40.557  1.00  0.00     0.022 A 
BRANCH  72  75
ATOM     75  S   UNL A   1      38.877  34.121  41.958  1.00  0.00     0.127 S 
ATOM     76  O   UNL A   1      39.247  35.264  42.790  1.00  0.00    -0.237 OA
ATOM     77  O   UNL A   1      37.540  34.204  41.370  1.00  0.00    -0.237 OA
ATOM     78  O   UNL A   1      39.217  32.812  42.496  1.00  0.00    -0.744 OA
ENDBRANCH  72  75
ENDBRANCH  54  68
BRANCH  55  79
ATOM     79  C   UNL A   1      40.036  28.094  30.180  1.00  0.00     0.023 A 
ATOM     80  C   UNL A   1      39.171  26.981  30.210  1.00  0.00     0.012 A 
ATOM     81  C   UNL A   1      40.818  28.320  29.031  1.00  0.00     0.148 A 
ATOM     82  C   UNL A   1      39.111  26.094  29.132  1.00  0.00     0.002 A 
ATOM     83  C   UNL A   1      40.717  27.460  27.941  1.00  0.00     0.091 A 
ATOM     84  F   UNL A   1      41.662  29.361  29.030  1.00  0.00    -0.205 F 
ATOM     85  C   UNL A   1      39.876  26.338  27.995  1.00  0.00     0.022 A 
BRANCH  83  86
ATOM     86  S   UNL A   1      41.590  27.761  26.399  1.00  0.00     0.127 S 
ATOM     87  O   UNL A   1      41.149  26.635  25.580  1.00  0.00    -0.237 OA
ATOM     88  O   UNL A   1      41.056  29.062  25.994  1.00  0.00    -0.237 OA
ATOM     89  O   UNL A   1      43.003  27.779  26.750  1.00  0.00    -0.744 OA
ENDBRANCH  83  86
ENDBRANCH  55  79
BRANCH  67  90
ATOM     90  C   UNL A   1      44.523  28.339  35.530  1.00  0.00     0.023 A 
ATOM     91  C   UNL A   1      45.773  28.853  35.134  1.00  0.00     0.012 A 
ATOM     92  C   UNL A   1      44.476  27.183  36.336  1.00  0.00     0.148 A 
ATOM     93  C   UNL A   1      46.955  28.221  35.521  1.00  0.00     0.002 A 
ATOM     94  C   UNL A   1      45.659  26.582  36.751  1.00  0.00     0.091 A 
ATOM     95  F   UNL A   1      43.276  26.696  36.687  1.00  0.00    -0.205 F 
ATOM     96  C   UNL A   1      46.900  27.096  36.340  1.00  0.00     0.022 A 
BRANCH  94  97
ATOM     97  S   UNL A   1      45.679  25.188  37.886  1.00  0.00     0.127 S 
ATOM     98  O   UNL A   1      44.295  24.724  37.815  1.00  0.00    -0.237 OA
ATOM     99  O   UNL A   1      46.655  24.290  37.265  1.00  0.00    -0.237 OA
ATOM    100  O   UNL A   1      46.097  25.729  39.172  1.00  0.00    -0.744 OA
ENDBRANCH  94  97
ENDBRANCH  67  90
ENDBRANCH  41  42
ENDBRANCH  34  36
ENDBRANCH  33  34
ENDBRANCH  32  33
ENDBRANCH  31  32
ENDBRANCH  30  31
ENDBRANCH  29  30
ENDBRANCH   1  29
TORSDOF 23
ENDMDL
