MODEL 1
REMARK VINA RESULT:     -10.3      0.000      0.000
REMARK SMILES C[C@@H]1CC[C@@]1(SC1CCCCC1)C(=O)OCCOCCOCCOC(=O)c1ccc(-c2c3nc(c(-c4cccc(S(=O)(=O)[O-])c4F)c4ccc([nH]4)c(-c4cccc(S(=O)(=O)[O-])c4F)c4nc(c(-c5cccc(S(=O)(=O)[O-])c5F)c5ccc2[nH]5)C=C4)C=C3)cc1
REMARK SMILES IDX 20 1 19 2 18 3 17 4 16 5 15 6 13 7 14 8 5 9 1 10 2 11 3 12
REMARK SMILES IDX 4 13 6 14 7 15 8 16 12 17 9 18 11 19 10 20 21 21 22 22 23 23
REMARK SMILES IDX 24 24 25 25 26 26 27 27 28 28 89 29 29 30 88 31 30 32 31 33
REMARK SMILES IDX 32 34 82 35 33 36 87 37 81 38 83 39 34 40 86 41 80 42 79 43
REMARK SMILES IDX 35 45 67 46 47 47 66 48 48 49 51 50 65 51 84 52 49 53 50 54
REMARK SMILES IDX 64 56 85 57 52 58 36 59 37 60 45 61 38 62 40 63 46 64 39 65
REMARK SMILES IDX 41 66 42 67 43 68 44 69 68 70 69 71 77 72 70 73 72 74 78 75
REMARK SMILES IDX 71 76 73 77 74 78 75 79 76 80 53 81 54 82 62 83 55 84 57 85
REMARK SMILES IDX 63 86 56 87 58 88 59 89 60 90 61 91
REMARK H PARENT 83 44 51 55
REMARK Flexibility Score: inf
ROOT
ATOM      1  C   UNL A   1      31.104  27.741  24.888  1.00  0.00     0.188 C 
ENDROOT
BRANCH   1   2
ATOM      2  C   UNL A   1      30.019  27.240  23.913  1.00  0.00     0.188 C 
BRANCH   2   3
ATOM      3  O   UNL A   1      30.382  26.139  23.121  1.00  0.00    -0.376 OA
BRANCH   3   4
ATOM      4  C   UNL A   1      30.516  24.843  23.655  1.00  0.00     0.202 C 
BRANCH   4   5
ATOM      5  C   UNL A   1      31.804  24.218  24.210  1.00  0.00     0.261 C 
BRANCH   5   6
ATOM      6  O   UNL A   1      31.860  22.817  24.476  1.00  0.00    -0.462 OA
BRANCH   6   7
ATOM      7  C   UNL A   1      33.031  22.171  24.169  1.00  0.00     0.322 C 
ATOM      8  O   UNL A   1      33.332  21.908  23.007  1.00  0.00    -0.251 OA
BRANCH   7   9
ATOM      9  C   UNL A   1      33.872  21.823  25.472  1.00  0.00     0.116 C 
ATOM     10  C   UNL A   1      36.014  23.485  25.989  1.00  0.00     0.010 C 
ATOM     11  C   UNL A   1      34.556  23.091  26.146  1.00  0.00     0.013 C 
ATOM     12  C   UNL A   1      34.179  22.532  27.527  1.00  0.00     0.007 C 
ATOM     13  C   UNL A   1      33.161  21.604  26.849  1.00  0.00     0.030 C 
BRANCH   9  14
ATOM     14  S   UNL A   1      35.107  20.466  25.135  1.00  0.00    -0.140 SA
BRANCH  14  15
ATOM     15  C   UNL A   1      34.089  19.016  24.651  1.00  0.00     0.048 C 
ATOM     16  C   UNL A   1      34.974  17.850  24.199  1.00  0.00     0.014 C 
ATOM     17  C   UNL A   1      33.013  18.535  25.628  1.00  0.00     0.014 C 
ATOM     18  C   UNL A   1      34.136  16.709  23.625  1.00  0.00     0.001 C 
ATOM     19  C   UNL A   1      32.189  17.376  25.070  1.00  0.00     0.001 C 
ATOM     20  C   UNL A   1      33.095  16.230  24.632  1.00  0.00     0.000 C 
ENDBRANCH  14  15
ENDBRANCH   9  14
ENDBRANCH   7   9
ENDBRANCH   6   7
ENDBRANCH   5   6
ENDBRANCH   4   5
ENDBRANCH   3   4
ENDBRANCH   2   3
ENDBRANCH   1   2
BRANCH   1  21
ATOM     21  O   UNL A   1      32.320  28.269  24.381  1.00  0.00    -0.376 OA
BRANCH  21  22
ATOM     22  C   UNL A   1      32.824  29.464  24.958  1.00  0.00     0.202 C 
BRANCH  22  23
ATOM     23  C   UNL A   1      31.870  30.359  25.767  1.00  0.00     0.261 C 
BRANCH  23  24
ATOM     24  O   UNL A   1      32.284  30.647  27.117  1.00  0.00    -0.460 OA
BRANCH  24  25
ATOM     25  C   UNL A   1      32.986  31.792  27.305  1.00  0.00     0.338 C 
ATOM     26  O   UNL A   1      32.546  32.935  27.249  1.00  0.00    -0.246 OA
BRANCH  25  27
ATOM     27  C   UNL A   1      34.352  31.495  27.797  1.00  0.00     0.060 A 
ATOM     28  C   UNL A   1      34.662  30.179  28.172  1.00  0.00     0.016 A 
ATOM     29  C   UNL A   1      35.306  32.502  27.946  1.00  0.00     0.016 A 
ATOM     30  C   UNL A   1      35.918  29.867  28.701  1.00  0.00     0.010 A 
ATOM     31  C   UNL A   1      36.556  32.192  28.503  1.00  0.00     0.010 A 
ATOM     32  C   UNL A   1      36.865  30.877  28.902  1.00  0.00    -0.014 A 
BRANCH  32  33
ATOM     33  C   UNL A   1      38.118  30.587  29.652  1.00  0.00     0.031 A 
ATOM     34  C   UNL A   1      39.132  29.653  29.050  1.00  0.00     0.074 A 
ATOM     35  C   UNL A   1      38.358  31.137  30.857  1.00  0.00     0.049 A 
ATOM     36  N   UNL A   1      40.238  29.183  29.566  1.00  0.00    -0.248 NA
ATOM     37  C   UNL A   1      38.862  29.189  27.680  1.00  0.00     0.031 C 
ATOM     38  C   UNL A   1      37.487  32.087  31.542  1.00  0.00     0.029 A 
ATOM     39  N   UNL A   1      39.400  30.940  31.735  1.00  0.00    -0.354 N 
ATOM     40  C   UNL A   1      40.772  28.330  28.608  1.00  0.00     0.074 A 
ATOM     41  C   UNL A   1      39.874  28.359  27.473  1.00  0.00     0.031 C 
ATOM     42  C   UNL A   1      38.005  32.358  32.752  1.00  0.00     0.029 A 
ATOM     43  C   UNL A   1      39.221  31.568  32.945  1.00  0.00     0.049 A 
ATOM     44  H   UNL A   1      40.196  30.402  31.516  1.00  0.00     0.167 HD
ATOM     45  C   UNL A   1      41.905  27.588  28.664  1.00  0.00     0.034 A 
ATOM     46  C   UNL A   1      39.925  31.481  34.093  1.00  0.00     0.034 A 
ATOM     47  C   UNL A   1      42.809  27.569  29.784  1.00  0.00     0.049 A 
ATOM     48  C   UNL A   1      41.156  30.611  34.151  1.00  0.00     0.074 A 
ATOM     49  C   UNL A   1      44.007  26.887  29.906  1.00  0.00     0.029 A 
ATOM     50  N   UNL A   1      42.606  28.235  30.981  1.00  0.00    -0.354 N 
ATOM     51  N   UNL A   1      41.705  29.889  33.204  1.00  0.00    -0.248 NA
ATOM     52  C   UNL A   1      41.879  30.562  35.433  1.00  0.00     0.031 C 
ATOM     53  C   UNL A   1      44.504  27.102  31.196  1.00  0.00     0.029 A 
ATOM     54  C   UNL A   1      43.640  27.956  31.860  1.00  0.00     0.049 A 
ATOM     55  H   UNL A   1      41.839  28.821  31.178  1.00  0.00     0.167 HD
ATOM     56  C   UNL A   1      42.845  29.321  33.765  1.00  0.00     0.074 A 
ATOM     57  C   UNL A   1      42.924  29.803  35.128  1.00  0.00     0.031 C 
ATOM     58  C   UNL A   1      43.737  28.466  33.205  1.00  0.00     0.034 A 
BRANCH  45  59
ATOM     59  C   UNL A   1      42.223  26.713  27.481  1.00  0.00     0.023 A 
ATOM     60  C   UNL A   1      42.909  27.242  26.370  1.00  0.00     0.012 A 
ATOM     61  C   UNL A   1      41.876  25.347  27.493  1.00  0.00     0.148 A 
ATOM     62  C   UNL A   1      43.211  26.436  25.272  1.00  0.00     0.002 A 
ATOM     63  C   UNL A   1      42.223  24.538  26.418  1.00  0.00     0.091 A 
ATOM     64  F   UNL A   1      41.206  24.866  28.550  1.00  0.00    -0.205 F 
ATOM     65  C   UNL A   1      42.877  25.084  25.300  1.00  0.00     0.022 A 
BRANCH  63  66
ATOM     66  S   UNL A   1      41.907  22.771  26.395  1.00  0.00     0.127 S 
ATOM     67  O   UNL A   1      42.561  22.339  27.629  1.00  0.00    -0.237 OA
ATOM     68  O   UNL A   1      40.445  22.719  26.428  1.00  0.00    -0.237 OA
ATOM     69  O   UNL A   1      42.504  22.272  25.164  1.00  0.00    -0.744 OA
ENDBRANCH  63  66
ENDBRANCH  45  59
BRANCH  46  70
ATOM     70  C   UNL A   1      39.467  32.226  35.301  1.00  0.00     0.023 A 
ATOM     71  C   UNL A   1      38.648  31.589  36.253  1.00  0.00     0.012 A 
ATOM     72  C   UNL A   1      39.852  33.565  35.514  1.00  0.00     0.148 A 
ATOM     73  C   UNL A   1      38.202  32.278  37.382  1.00  0.00     0.002 A 
ATOM     74  C   UNL A   1      39.455  34.227  36.668  1.00  0.00     0.091 A 
ATOM     75  F   UNL A   1      40.612  34.161  34.583  1.00  0.00    -0.205 F 
ATOM     76  C   UNL A   1      38.615  33.592  37.595  1.00  0.00     0.022 A 
BRANCH  74  77
ATOM     77  S   UNL A   1      40.034  35.875  37.085  1.00  0.00     0.127 S 
ATOM     78  O   UNL A   1      39.139  36.239  38.182  1.00  0.00    -0.237 OA
ATOM     79  O   UNL A   1      41.419  35.614  37.481  1.00  0.00    -0.237 OA
ATOM     80  O   UNL A   1      39.891  36.666  35.870  1.00  0.00    -0.744 OA
ENDBRANCH  74  77
ENDBRANCH  46  70
BRANCH  58  81
ATOM     81  C   UNL A   1      44.904  28.006  34.047  1.00  0.00     0.023 A 
ATOM     82  C   UNL A   1      46.113  28.729  34.028  1.00  0.00     0.012 A 
ATOM     83  C   UNL A   1      44.775  26.904  34.915  1.00  0.00     0.148 A 
ATOM     84  C   UNL A   1      47.185  28.344  34.835  1.00  0.00     0.002 A 
ATOM     85  C   UNL A   1      45.828  26.556  35.754  1.00  0.00     0.091 A 
ATOM     86  F   UNL A   1      43.622  26.219  34.911  1.00  0.00    -0.205 F 
ATOM     87  C   UNL A   1      47.038  27.266  35.705  1.00  0.00     0.022 A 
BRANCH  85  88
ATOM     88  S   UNL A   1      45.701  25.245  36.977  1.00  0.00     0.127 S 
ATOM     89  O   UNL A   1      45.876  24.050  36.152  1.00  0.00    -0.237 OA
ATOM     90  O   UNL A   1      46.824  25.542  37.867  1.00  0.00    -0.237 OA
ATOM     91  O   UNL A   1      44.387  25.390  37.590  1.00  0.00    -0.744 OA
ENDBRANCH  85  88
ENDBRANCH  58  81
ENDBRANCH  32  33
ENDBRANCH  25  27
ENDBRANCH  24  25
ENDBRANCH  23  24
ENDBRANCH  22  23
ENDBRANCH  21  22
ENDBRANCH   1  21
TORSDOF 22
ENDMDL
MODEL 2
REMARK VINA RESULT:     -10.0      1.646      2.112
REMARK SMILES C[C@@H]1CC[C@@]1(SC1CCCCC1)C(=O)OCCOCCOCCOC(=O)c1ccc(-c2c3nc(c(-c4cccc(S(=O)(=O)[O-])c4F)c4ccc([nH]4)c(-c4cccc(S(=O)(=O)[O-])c4F)c4nc(c(-c5cccc(S(=O)(=O)[O-])c5F)c5ccc2[nH]5)C=C4)C=C3)cc1
REMARK SMILES IDX 20 1 19 2 18 3 17 4 16 5 15 6 13 7 14 8 5 9 1 10 2 11 3 12
REMARK SMILES IDX 4 13 6 14 7 15 8 16 12 17 9 18 11 19 10 20 21 21 22 22 23 23
REMARK SMILES IDX 24 24 25 25 26 26 27 27 28 28 89 29 29 30 88 31 30 32 31 33
REMARK SMILES IDX 32 34 82 35 33 36 87 37 81 38 83 39 34 40 86 41 80 42 79 43
REMARK SMILES IDX 35 45 67 46 47 47 66 48 48 49 51 50 65 51 84 52 49 53 50 54
REMARK SMILES IDX 64 56 85 57 52 58 36 59 37 60 45 61 38 62 40 63 46 64 39 65
REMARK SMILES IDX 41 66 42 67 43 68 44 69 68 70 69 71 77 72 70 73 72 74 78 75
REMARK SMILES IDX 71 76 73 77 74 78 75 79 76 80 53 81 54 82 62 83 55 84 57 85
REMARK SMILES IDX 63 86 56 87 58 88 59 89 60 90 61 91
REMARK H PARENT 83 44 51 55
REMARK Flexibility Score: inf
ROOT
ATOM      1  C   UNL A   1      31.246  26.579  24.924  1.00  0.00     0.188 C 
ENDROOT
BRANCH   1   2
ATOM      2  C   UNL A   1      31.273  26.390  26.455  1.00  0.00     0.188 C 
BRANCH   2   3
ATOM      3  O   UNL A   1      30.876  25.124  26.912  1.00  0.00    -0.376 OA
BRANCH   3   4
ATOM      4  C   UNL A   1      30.739  24.023  26.045  1.00  0.00     0.202 C 
BRANCH   4   5
ATOM      5  C   UNL A   1      31.815  22.970  25.738  1.00  0.00     0.261 C 
BRANCH   5   6
ATOM      6  O   UNL A   1      33.131  23.120  26.270  1.00  0.00    -0.462 OA
BRANCH   6   7
ATOM      7  C   UNL A   1      33.839  21.970  26.514  1.00  0.00     0.322 C 
ATOM      8  O   UNL A   1      33.818  21.428  27.617  1.00  0.00    -0.251 OA
BRANCH   7   9
ATOM      9  C   UNL A   1      34.652  21.495  25.235  1.00  0.00     0.116 C 
ATOM     10  C   UNL A   1      34.788  23.313  23.163  1.00  0.00     0.010 C 
ATOM     11  C   UNL A   1      35.334  22.687  24.434  1.00  0.00     0.013 C 
ATOM     12  C   UNL A   1      36.585  21.814  24.244  1.00  0.00     0.007 C 
ATOM     13  C   UNL A   1      36.095  20.904  25.378  1.00  0.00     0.030 C 
BRANCH   9  14
ATOM     14  S   UNL A   1      33.600  20.426  24.125  1.00  0.00    -0.140 SA
BRANCH  14  15
ATOM     15  C   UNL A   1      33.778  18.729  24.804  1.00  0.00     0.048 C 
ATOM     16  C   UNL A   1      32.408  18.083  25.033  1.00  0.00     0.014 C 
ATOM     17  C   UNL A   1      34.720  17.761  24.082  1.00  0.00     0.014 C 
ATOM     18  C   UNL A   1      32.539  16.748  25.764  1.00  0.00     0.001 C 
ATOM     19  C   UNL A   1      34.836  16.415  24.794  1.00  0.00     0.001 C 
ATOM     20  C   UNL A   1      33.458  15.795  25.006  1.00  0.00     0.000 C 
ENDBRANCH  14  15
ENDBRANCH   9  14
ENDBRANCH   7   9
ENDBRANCH   6   7
ENDBRANCH   5   6
ENDBRANCH   4   5
ENDBRANCH   3   4
ENDBRANCH   2   3
ENDBRANCH   1   2
BRANCH   1  21
ATOM     21  O   UNL A   1      30.895  27.840  24.374  1.00  0.00    -0.376 OA
BRANCH  21  22
ATOM     22  C   UNL A   1      31.941  28.698  23.945  1.00  0.00     0.202 C 
BRANCH  22  23
ATOM     23  C   UNL A   1      32.269  29.947  24.780  1.00  0.00     0.261 C 
BRANCH  23  24
ATOM     24  O   UNL A   1      32.616  29.701  26.157  1.00  0.00    -0.460 OA
BRANCH  24  25
ATOM     25  C   UNL A   1      32.965  30.783  26.897  1.00  0.00     0.338 C 
ATOM     26  O   UNL A   1      32.229  31.706  27.231  1.00  0.00    -0.246 OA
BRANCH  25  27
ATOM     27  C   UNL A   1      34.333  30.627  27.443  1.00  0.00     0.060 A 
ATOM     28  C   UNL A   1      34.840  29.332  27.631  1.00  0.00     0.016 A 
ATOM     29  C   UNL A   1      35.095  31.732  27.823  1.00  0.00     0.016 A 
ATOM     30  C   UNL A   1      36.101  29.138  28.203  1.00  0.00     0.010 A 
ATOM     31  C   UNL A   1      36.348  31.534  28.422  1.00  0.00     0.010 A 
ATOM     32  C   UNL A   1      36.853  30.236  28.634  1.00  0.00    -0.014 A 
BRANCH  32  33
ATOM     33  C   UNL A   1      38.095  30.026  29.426  1.00  0.00     0.031 A 
ATOM     34  C   UNL A   1      39.150  29.091  28.900  1.00  0.00     0.074 A 
ATOM     35  C   UNL A   1      38.291  30.648  30.604  1.00  0.00     0.049 A 
ATOM     36  N   UNL A   1      40.256  28.684  29.466  1.00  0.00    -0.248 NA
ATOM     37  C   UNL A   1      38.926  28.544  27.553  1.00  0.00     0.031 C 
ATOM     38  C   UNL A   1      37.377  31.608  31.215  1.00  0.00     0.029 A 
ATOM     39  N   UNL A   1      39.317  30.532  31.514  1.00  0.00    -0.354 N 
ATOM     40  C   UNL A   1      40.837  27.795  28.569  1.00  0.00     0.074 A 
ATOM     41  C   UNL A   1      39.965  27.735  27.415  1.00  0.00     0.031 C 
ATOM     42  C   UNL A   1      37.857  31.961  32.420  1.00  0.00     0.029 A 
ATOM     43  C   UNL A   1      39.090  31.220  32.683  1.00  0.00     0.049 A 
ATOM     44  H   UNL A   1      40.132  30.007  31.344  1.00  0.00     0.167 HD
ATOM     45  C   UNL A   1      41.989  27.092  28.692  1.00  0.00     0.034 A 
ATOM     46  C   UNL A   1      39.770  31.217  33.850  1.00  0.00     0.034 A 
ATOM     47  C   UNL A   1      42.867  27.162  29.831  1.00  0.00     0.049 A 
ATOM     48  C   UNL A   1      41.023  30.389  33.983  1.00  0.00     0.074 A 
ATOM     49  C   UNL A   1      44.081  26.524  30.017  1.00  0.00     0.029 A 
ATOM     50  N   UNL A   1      42.616  27.886  30.984  1.00  0.00    -0.354 N 
ATOM     51  N   UNL A   1      41.615  29.633  33.091  1.00  0.00    -0.248 NA
ATOM     52  C   UNL A   1      41.717  30.432  35.282  1.00  0.00     0.031 C 
ATOM     53  C   UNL A   1      44.540  26.825  31.304  1.00  0.00     0.029 A 
ATOM     54  C   UNL A   1      43.637  27.688  31.900  1.00  0.00     0.049 A 
ATOM     55  H   UNL A   1      41.828  28.459  31.131  1.00  0.00     0.167 HD
ATOM     56  C   UNL A   1      42.757  29.131  33.708  1.00  0.00     0.074 A 
ATOM     57  C   UNL A   1      42.790  29.690  35.043  1.00  0.00     0.031 C 
ATOM     58  C   UNL A   1      43.687  28.274  33.216  1.00  0.00     0.034 A 
BRANCH  45  59
ATOM     59  C   UNL A   1      42.361  26.163  27.567  1.00  0.00     0.023 A 
ATOM     60  C   UNL A   1      43.191  26.611  26.521  1.00  0.00     0.012 A 
ATOM     61  C   UNL A   1      41.916  24.826  27.573  1.00  0.00     0.148 A 
ATOM     62  C   UNL A   1      43.542  25.754  25.478  1.00  0.00     0.002 A 
ATOM     63  C   UNL A   1      42.309  23.964  26.556  1.00  0.00     0.091 A 
ATOM     64  F   UNL A   1      41.110  24.424  28.566  1.00  0.00    -0.205 F 
ATOM     65  C   UNL A   1      43.110  24.430  25.500  1.00  0.00     0.022 A 
BRANCH  63  66
ATOM     66  S   UNL A   1      41.870  22.223  26.540  1.00  0.00     0.127 S 
ATOM     67  O   UNL A   1      40.423  22.286  26.344  1.00  0.00    -0.237 OA
ATOM     68  O   UNL A   1      42.622  21.728  25.386  1.00  0.00    -0.237 OA
ATOM     69  O   UNL A   1      42.304  21.686  27.822  1.00  0.00    -0.744 OA
ENDBRANCH  63  66
ENDBRANCH  45  59
BRANCH  46  70
ATOM     70  C   UNL A   1      39.262  32.014  35.004  1.00  0.00     0.023 A 
ATOM     71  C   UNL A   1      38.272  31.476  35.849  1.00  0.00     0.012 A 
ATOM     72  C   UNL A   1      39.767  33.301  35.272  1.00  0.00     0.148 A 
ATOM     73  C   UNL A   1      37.779  32.216  36.925  1.00  0.00     0.002 A 
ATOM     74  C   UNL A   1      39.316  34.008  36.379  1.00  0.00     0.091 A 
ATOM     75  F   UNL A   1      40.691  33.805  34.440  1.00  0.00    -0.205 F 
ATOM     76  C   UNL A   1      38.309  33.475  37.197  1.00  0.00     0.022 A 
BRANCH  74  77
ATOM     77  S   UNL A   1      40.024  35.583  36.875  1.00  0.00     0.127 S 
ATOM     78  O   UNL A   1      39.647  36.447  35.758  1.00  0.00    -0.237 OA
ATOM     79  O   UNL A   1      39.313  35.849  38.126  1.00  0.00    -0.237 OA
ATOM     80  O   UNL A   1      41.453  35.345  37.030  1.00  0.00    -0.744 OA
ENDBRANCH  74  77
ENDBRANCH  46  70
BRANCH  58  81
ATOM     81  C   UNL A   1      44.845  27.896  34.108  1.00  0.00     0.023 A 
ATOM     82  C   UNL A   1      44.722  26.814  35.003  1.00  0.00     0.012 A 
ATOM     83  C   UNL A   1      46.083  28.563  34.003  1.00  0.00     0.148 A 
ATOM     84  C   UNL A   1      45.798  26.423  35.800  1.00  0.00     0.002 A 
ATOM     85  C   UNL A   1      47.166  28.136  34.763  1.00  0.00     0.091 A 
ATOM     86  F   UNL A   1      46.180  29.599  33.156  1.00  0.00    -0.205 F 
ATOM     87  C   UNL A   1      47.022  27.076  35.672  1.00  0.00     0.022 A 
BRANCH  85  88
ATOM     88  S   UNL A   1      48.807  28.850  34.596  1.00  0.00     0.127 S 
ATOM     89  O   UNL A   1      48.508  30.281  34.567  1.00  0.00    -0.237 OA
ATOM     90  O   UNL A   1      49.470  28.391  35.818  1.00  0.00    -0.237 OA
ATOM     91  O   UNL A   1      49.362  28.306  33.365  1.00  0.00    -0.744 OA
ENDBRANCH  85  88
ENDBRANCH  58  81
ENDBRANCH  32  33
ENDBRANCH  25  27
ENDBRANCH  24  25
ENDBRANCH  23  24
ENDBRANCH  22  23
ENDBRANCH  21  22
ENDBRANCH   1  21
TORSDOF 22
ENDMDL
MODEL 3
REMARK VINA RESULT:      -9.0      5.218     10.090
REMARK SMILES C[C@@H]1CC[C@@]1(SC1CCCCC1)C(=O)OCCOCCOCCOC(=O)c1ccc(-c2c3nc(c(-c4cccc(S(=O)(=O)[O-])c4F)c4ccc([nH]4)c(-c4cccc(S(=O)(=O)[O-])c4F)c4nc(c(-c5cccc(S(=O)(=O)[O-])c5F)c5ccc2[nH]5)C=C4)C=C3)cc1
REMARK SMILES IDX 20 1 19 2 18 3 17 4 16 5 15 6 13 7 14 8 5 9 1 10 2 11 3 12
REMARK SMILES IDX 4 13 6 14 7 15 8 16 12 17 9 18 11 19 10 20 21 21 22 22 23 23
REMARK SMILES IDX 24 24 25 25 26 26 27 27 28 28 89 29 29 30 88 31 30 32 31 33
REMARK SMILES IDX 32 34 82 35 33 36 87 37 81 38 83 39 34 40 86 41 80 42 79 43
REMARK SMILES IDX 35 45 67 46 47 47 66 48 48 49 51 50 65 51 84 52 49 53 50 54
REMARK SMILES IDX 64 56 85 57 52 58 36 59 37 60 45 61 38 62 40 63 46 64 39 65
REMARK SMILES IDX 41 66 42 67 43 68 44 69 68 70 69 71 77 72 70 73 72 74 78 75
REMARK SMILES IDX 71 76 73 77 74 78 75 79 76 80 53 81 54 82 62 83 55 84 57 85
REMARK SMILES IDX 63 86 56 87 58 88 59 89 60 90 61 91
REMARK H PARENT 83 44 51 55
REMARK Flexibility Score: inf
ROOT
ATOM      1  C   UNL A   1      41.409  19.614  26.836  1.00  0.00     0.188 C 
ENDROOT
BRANCH   1   2
ATOM      2  C   UNL A   1      41.109  21.074  27.233  1.00  0.00     0.188 C 
BRANCH   2   3
ATOM      3  O   UNL A   1      39.852  21.559  26.838  1.00  0.00    -0.376 OA
BRANCH   3   4
ATOM      4  C   UNL A   1      39.548  22.934  26.830  1.00  0.00     0.202 C 
BRANCH   4   5
ATOM      5  C   UNL A   1      40.210  24.015  27.697  1.00  0.00     0.261 C 
BRANCH   5   6
ATOM      6  O   UNL A   1      39.612  25.307  27.806  1.00  0.00    -0.462 OA
BRANCH   6   7
ATOM      7  C   UNL A   1      40.128  26.300  27.012  1.00  0.00     0.322 C 
ATOM      8  O   UNL A   1      40.442  26.087  25.843  1.00  0.00    -0.251 OA
BRANCH   7   9
ATOM      9  C   UNL A   1      40.265  27.673  27.798  1.00  0.00     0.116 C 
ATOM     10  C   UNL A   1      41.956  27.636  29.979  1.00  0.00     0.010 C 
ATOM     11  C   UNL A   1      41.677  27.865  28.504  1.00  0.00     0.013 C 
ATOM     12  C   UNL A   1      41.672  29.338  28.064  1.00  0.00     0.007 C 
ATOM     13  C   UNL A   1      40.582  29.004  27.037  1.00  0.00     0.030 C 
BRANCH   9  14
ATOM     14  S   UNL A   1      38.854  27.910  28.995  1.00  0.00    -0.140 SA
BRANCH  14  15
ATOM     15  C   UNL A   1      38.165  29.562  28.588  1.00  0.00     0.048 C 
ATOM     16  C   UNL A   1      36.667  29.473  28.281  1.00  0.00     0.014 C 
ATOM     17  C   UNL A   1      38.455  30.719  29.549  1.00  0.00     0.014 C 
ATOM     18  C   UNL A   1      36.126  30.805  27.766  1.00  0.00     0.001 C 
ATOM     19  C   UNL A   1      37.894  32.049  29.052  1.00  0.00     0.001 C 
ATOM     20  C   UNL A   1      36.402  31.931  28.758  1.00  0.00     0.000 C 
ENDBRANCH  14  15
ENDBRANCH   9  14
ENDBRANCH   7   9
ENDBRANCH   6   7
ENDBRANCH   5   6
ENDBRANCH   4   5
ENDBRANCH   3   4
ENDBRANCH   2   3
ENDBRANCH   1   2
BRANCH   1  21
ATOM     21  O   UNL A   1      41.922  19.324  25.545  1.00  0.00    -0.376 OA
BRANCH  21  22
ATOM     22  C   UNL A   1      43.324  19.155  25.404  1.00  0.00     0.202 C 
BRANCH  22  23
ATOM     23  C   UNL A   1      44.206  20.397  25.187  1.00  0.00     0.261 C 
BRANCH  23  24
ATOM     24  O   UNL A   1      43.520  21.569  24.703  1.00  0.00    -0.460 OA
BRANCH  24  25
ATOM     25  C   UNL A   1      44.291  22.535  24.145  1.00  0.00     0.338 C 
ATOM     26  O   UNL A   1      44.670  22.585  22.980  1.00  0.00    -0.246 OA
BRANCH  25  27
ATOM     27  C   UNL A   1      44.473  23.668  25.083  1.00  0.00     0.060 A 
ATOM     28  C   UNL A   1      45.775  24.025  25.466  1.00  0.00     0.016 A 
ATOM     29  C   UNL A   1      43.380  24.341  25.630  1.00  0.00     0.016 A 
ATOM     30  C   UNL A   1      45.988  25.046  26.397  1.00  0.00     0.010 A 
ATOM     31  C   UNL A   1      43.596  25.346  26.586  1.00  0.00     0.010 A 
ATOM     32  C   UNL A   1      44.899  25.693  26.990  1.00  0.00    -0.014 A 
BRANCH  32  33
ATOM     33  C   UNL A   1      45.116  26.629  28.127  1.00  0.00     0.031 A 
ATOM     34  C   UNL A   1      45.142  26.084  29.530  1.00  0.00     0.074 A 
ATOM     35  C   UNL A   1      45.283  27.949  27.928  1.00  0.00     0.049 A 
ATOM     36  N   UNL A   1      45.216  26.723  30.668  1.00  0.00    -0.248 NA
ATOM     37  C   UNL A   1      45.079  24.621  29.664  1.00  0.00     0.031 C 
ATOM     38  C   UNL A   1      45.321  28.610  26.626  1.00  0.00     0.029 A 
ATOM     39  N   UNL A   1      45.416  28.978  28.833  1.00  0.00    -0.354 N 
ATOM     40  C   UNL A   1      45.157  25.748  31.656  1.00  0.00     0.074 A 
ATOM     41  C   UNL A   1      45.056  24.472  30.980  1.00  0.00     0.031 C 
ATOM     42  C   UNL A   1      45.422  29.937  26.814  1.00  0.00     0.029 A 
ATOM     43  C   UNL A   1      45.412  30.223  28.248  1.00  0.00     0.049 A 
ATOM     44  H   UNL A   1      45.505  28.835  29.803  1.00  0.00     0.167 HD
ATOM     45  C   UNL A   1      45.184  25.897  33.003  1.00  0.00     0.034 A 
ATOM     46  C   UNL A   1      45.358  31.453  28.802  1.00  0.00     0.034 A 
ATOM     47  C   UNL A   1      45.301  27.163  33.679  1.00  0.00     0.049 A 
ATOM     48  C   UNL A   1      45.339  31.597  30.303  1.00  0.00     0.074 A 
ATOM     49  C   UNL A   1      45.388  27.403  35.039  1.00  0.00     0.029 A 
ATOM     50  N   UNL A   1      45.318  28.399  33.053  1.00  0.00    -0.354 N 
ATOM     51  N   UNL A   1      45.387  30.667  31.225  1.00  0.00    -0.248 NA
ATOM     52  C   UNL A   1      45.281  32.967  30.842  1.00  0.00     0.031 C 
ATOM     53  C   UNL A   1      45.409  28.787  35.238  1.00  0.00     0.029 A 
ATOM     54  C   UNL A   1      45.383  29.409  34.001  1.00  0.00     0.049 A 
ATOM     55  H   UNL A   1      45.288  28.540  32.079  1.00  0.00     0.167 HD
ATOM     56  C   UNL A   1      45.388  31.334  32.446  1.00  0.00     0.074 A 
ATOM     57  C   UNL A   1      45.364  32.750  32.148  1.00  0.00     0.031 C 
ATOM     58  C   UNL A   1      45.395  30.819  33.701  1.00  0.00     0.034 A 
BRANCH  45  59
ATOM     59  C   UNL A   1      45.063  24.654  33.844  1.00  0.00     0.023 A 
ATOM     60  C   UNL A   1      43.795  24.110  34.129  1.00  0.00     0.012 A 
ATOM     61  C   UNL A   1      46.218  24.000  34.316  1.00  0.00     0.148 A 
ATOM     62  C   UNL A   1      43.677  22.956  34.904  1.00  0.00     0.002 A 
ATOM     63  C   UNL A   1      46.095  22.825  35.047  1.00  0.00     0.091 A 
ATOM     64  F   UNL A   1      47.415  24.544  34.052  1.00  0.00    -0.205 F 
ATOM     65  C   UNL A   1      44.825  22.310  35.354  1.00  0.00     0.022 A 
BRANCH  63  66
ATOM     66  S   UNL A   1      47.515  21.877  35.601  1.00  0.00     0.127 S 
ATOM     67  O   UNL A   1      46.873  20.753  36.280  1.00  0.00    -0.237 OA
ATOM     68  O   UNL A   1      48.169  21.534  34.337  1.00  0.00    -0.237 OA
ATOM     69  O   UNL A   1      48.284  22.769  36.459  1.00  0.00    -0.744 OA
ENDBRANCH  63  66
ENDBRANCH  45  59
BRANCH  46  70
ATOM     70  C   UNL A   1      45.294  32.658  27.925  1.00  0.00     0.023 A 
ATOM     71  C   UNL A   1      44.047  33.221  27.592  1.00  0.00     0.012 A 
ATOM     72  C   UNL A   1      46.470  33.254  27.428  1.00  0.00     0.148 A 
ATOM     73  C   UNL A   1      43.972  34.340  26.762  1.00  0.00     0.002 A 
ATOM     74  C   UNL A   1      46.392  34.403  26.651  1.00  0.00     0.091 A 
ATOM     75  F   UNL A   1      47.646  32.688  27.736  1.00  0.00    -0.205 F 
ATOM     76  C   UNL A   1      45.143  34.938  26.303  1.00  0.00     0.022 A 
BRANCH  74  77
ATOM     77  S   UNL A   1      47.848  35.308  26.115  1.00  0.00     0.127 S 
ATOM     78  O   UNL A   1      47.263  36.553  25.622  1.00  0.00    -0.237 OA
ATOM     79  O   UNL A   1      48.599  35.433  27.365  1.00  0.00    -0.237 OA
ATOM     80  O   UNL A   1      48.487  34.472  25.107  1.00  0.00    -0.744 OA
ENDBRANCH  74  77
ENDBRANCH  46  70
BRANCH  58  81
ATOM     81  C   UNL A   1      45.404  31.782  34.864  1.00  0.00     0.023 A 
ATOM     82  C   UNL A   1      44.189  32.187  35.452  1.00  0.00     0.012 A 
ATOM     83  C   UNL A   1      46.620  32.224  35.424  1.00  0.00     0.148 A 
ATOM     84  C   UNL A   1      44.182  33.040  36.557  1.00  0.00     0.002 A 
ATOM     85  C   UNL A   1      46.607  33.032  36.555  1.00  0.00     0.091 A 
ATOM     86  F   UNL A   1      47.767  31.840  34.845  1.00  0.00    -0.205 F 
ATOM     87  C   UNL A   1      45.390  33.452  37.114  1.00  0.00     0.022 A 
BRANCH  85  88
ATOM     88  S   UNL A   1      48.110  33.535  37.403  1.00  0.00     0.127 S 
ATOM     89  O   UNL A   1      48.722  34.429  36.419  1.00  0.00    -0.237 OA
ATOM     90  O   UNL A   1      47.585  34.207  38.593  1.00  0.00    -0.237 OA
ATOM     91  O   UNL A   1      48.851  32.311  37.675  1.00  0.00    -0.744 OA
ENDBRANCH  85  88
ENDBRANCH  58  81
ENDBRANCH  32  33
ENDBRANCH  25  27
ENDBRANCH  24  25
ENDBRANCH  23  24
ENDBRANCH  22  23
ENDBRANCH  21  22
ENDBRANCH   1  21
TORSDOF 22
ENDMDL
