MODEL 1
REMARK VINA RESULT:     -10.4      0.000      0.000
REMARK SMILES O=C(C[C@H](NC(=O)[C@]12C[C@H]3C[C@H](C[C@H](C3)C1)C2)c1cccc([N+](=O)[O-])c1)OCCOCCOCCOC(=O)c1ccc(-c2c3nc(c(-c4cccc(S(=O)(=O)[O-])c4F)c4ccc([nH]4)c(-c4cccc(S(=O)(=O)[O-])c4F)c4nc(c(-c5cccc(S(=O)(=O)[O-])c5F)c5ccc2[nH]5)C=C4)C=C3)cc1
REMARK SMILES IDX 31 1 30 2 29 3 28 4 27 5 2 6 1 7 3 8 4 9 18 10 19 11 26 12
REMARK SMILES IDX 20 13 22 14 21 15 23 16 24 17 25 18 5 19 6 20 7 22 8 23 9 24
REMARK SMILES IDX 16 25 17 26 10 27 14 28 12 29 11 30 15 31 13 32 32 33 33 34
REMARK SMILES IDX 34 35 35 36 36 37 37 38 38 39 39 40 40 41 101 42 41 43
REMARK SMILES IDX 100 44 42 45 43 46 44 47 94 48 45 49 99 50 93 51 95 52 46 53
REMARK SMILES IDX 98 54 92 55 91 56 47 58 79 59 59 60 78 61 60 62 63 63 77 64
REMARK SMILES IDX 96 65 61 66 62 67 76 69 97 70 64 71 48 72 49 73 57 74 50 75
REMARK SMILES IDX 52 76 58 77 51 78 53 79 54 80 55 81 56 82 80 83 81 84 89 85
REMARK SMILES IDX 82 86 84 87 90 88 83 89 85 90 86 91 87 92 88 93 65 94 66 95
REMARK SMILES IDX 74 96 67 97 69 98 75 99 68 100 70 101 71 102 72 103 73 104
REMARK H PARENT 5 21 95 57 63 68
REMARK Flexibility Score: inf
ROOT
ATOM      1  C   UNL A   1      36.237  31.205  28.043  1.00  0.00     0.188 C 
ENDROOT
BRANCH   1   2
ATOM      2  O   UNL A   1      34.890  30.937  28.401  1.00  0.00    -0.376 OA
BRANCH   2   3
ATOM      3  C   UNL A   1      33.907  31.277  27.447  1.00  0.00     0.202 C 
BRANCH   3   4
ATOM      4  C   UNL A   1      32.946  30.104  27.220  1.00  0.00     0.261 C 
BRANCH   4   5
ATOM      5  O   UNL A   1      32.166  30.185  26.009  1.00  0.00    -0.463 OA
BRANCH   5   6
ATOM      6  C   UNL A   1      31.757  29.035  25.413  1.00  0.00     0.308 C 
ATOM      7  O   UNL A   1      31.441  28.052  26.065  1.00  0.00    -0.252 OA
BRANCH   6   8
ATOM      8  C   UNL A   1      31.929  29.041  23.918  1.00  0.00     0.152 C 
BRANCH   8   9
ATOM      9  C   UNL A   1      30.902  28.195  23.184  1.00  0.00     0.123 C 
BRANCH   9  10
ATOM     10  C   UNL A   1      29.673  29.064  22.903  1.00  0.00    -0.018 A 
ATOM     11  C   UNL A   1      28.391  28.473  23.036  1.00  0.00     0.006 A 
ATOM     12  C   UNL A   1      29.742  30.433  22.625  1.00  0.00     0.091 A 
ATOM     13  C   UNL A   1      27.220  29.226  22.961  1.00  0.00     0.007 A 
ATOM     14  C   UNL A   1      28.558  31.184  22.533  1.00  0.00     0.269 A 
ATOM     15  C   UNL A   1      27.300  30.591  22.712  1.00  0.00     0.085 A 
BRANCH  14  16
ATOM     16  N   UNL A   1      28.632  32.628  22.301  1.00  0.00     0.062 N 
ATOM     17  O   UNL A   1      27.888  33.091  21.426  1.00  0.00    -0.258 OA
ATOM     18  O   UNL A   1      29.396  33.272  23.031  1.00  0.00    -0.258 OA
ENDBRANCH  14  16
ENDBRANCH   9  10
BRANCH   9  19
ATOM     19  N   UNL A   1      31.351  27.369  22.053  1.00  0.00    -0.348 N 
ATOM     20  C   UNL A   1      31.941  26.185  21.758  1.00  0.00     0.226 C 
ATOM     21  H   UNL A   1      31.152  27.843  21.215  1.00  0.00     0.164 HD
ATOM     22  O   UNL A   1      32.077  25.997  20.540  1.00  0.00    -0.274 OA
BRANCH  20  23
ATOM     23  C   UNL A   1      32.387  25.091  22.750  1.00  0.00     0.050 C 
ATOM     24  C   UNL A   1      33.451  25.611  23.738  1.00  0.00     0.020 C 
ATOM     25  C   UNL A   1      33.080  23.917  21.967  1.00  0.00     0.020 C 
ATOM     26  C   UNL A   1      31.177  24.422  23.444  1.00  0.00     0.020 C 
ATOM     27  C   UNL A   1      33.873  24.508  24.717  1.00  0.00    -0.010 C 
ATOM     28  C   UNL A   1      33.537  22.791  22.924  1.00  0.00    -0.010 C 
ATOM     29  C   UNL A   1      31.637  23.363  24.457  1.00  0.00    -0.010 C 
ATOM     30  C   UNL A   1      32.633  23.979  25.450  1.00  0.00     0.007 C 
ATOM     31  C   UNL A   1      34.536  23.364  23.939  1.00  0.00     0.007 C 
ATOM     32  C   UNL A   1      32.329  22.229  23.690  1.00  0.00     0.007 C 
ENDBRANCH  20  23
ENDBRANCH   9  19
ENDBRANCH   8   9
ENDBRANCH   6   8
ENDBRANCH   5   6
ENDBRANCH   4   5
ENDBRANCH   3   4
ENDBRANCH   2   3
ENDBRANCH   1   2
BRANCH   1  33
ATOM     33  C   UNL A   1      37.092  29.931  27.993  1.00  0.00     0.188 C 
BRANCH  33  34
ATOM     34  O   UNL A   1      38.452  29.970  28.407  1.00  0.00    -0.376 OA
BRANCH  34  35
ATOM     35  C   UNL A   1      39.043  28.810  28.969  1.00  0.00     0.202 C 
BRANCH  35  36
ATOM     36  C   UNL A   1      38.410  28.203  30.225  1.00  0.00     0.261 C 
BRANCH  36  37
ATOM     37  O   UNL A   1      37.807  29.126  31.153  1.00  0.00    -0.460 OA
BRANCH  37  38
ATOM     38  C   UNL A   1      38.019  28.815  32.458  1.00  0.00     0.338 C 
ATOM     39  O   UNL A   1      37.629  27.809  33.028  1.00  0.00    -0.246 OA
BRANCH  38  40
ATOM     40  C   UNL A   1      38.880  29.806  33.148  1.00  0.00     0.060 A 
ATOM     41  C   UNL A   1      38.294  31.037  33.466  1.00  0.00     0.016 A 
ATOM     42  C   UNL A   1      40.255  29.626  33.333  1.00  0.00     0.016 A 
ATOM     43  C   UNL A   1      39.078  32.106  33.903  1.00  0.00     0.010 A 
ATOM     44  C   UNL A   1      41.048  30.710  33.756  1.00  0.00     0.010 A 
ATOM     45  C   UNL A   1      40.468  31.968  33.999  1.00  0.00    -0.014 A 
BRANCH  45  46
ATOM     46  C   UNL A   1      41.290  33.207  34.104  1.00  0.00     0.031 A 
ATOM     47  C   UNL A   1      41.804  33.827  32.827  1.00  0.00     0.074 A 
ATOM     48  C   UNL A   1      41.536  33.820  35.278  1.00  0.00     0.049 A 
ATOM     49  N   UNL A   1      42.409  34.972  32.643  1.00  0.00    -0.248 NA
ATOM     50  C   UNL A   1      41.597  33.051  31.593  1.00  0.00     0.031 C 
ATOM     51  C   UNL A   1      41.116  33.341  36.591  1.00  0.00     0.029 A 
ATOM     52  N   UNL A   1      42.209  34.988  35.545  1.00  0.00    -0.354 N 
ATOM     53  C   UNL A   1      42.656  35.054  31.278  1.00  0.00     0.074 A 
ATOM     54  C   UNL A   1      42.146  33.839  30.681  1.00  0.00     0.031 C 
ATOM     55  C   UNL A   1      41.542  34.207  37.529  1.00  0.00     0.029 A 
ATOM     56  C   UNL A   1      42.275  35.297  36.885  1.00  0.00     0.049 A 
ATOM     57  H   UNL A   1      42.608  35.552  34.843  1.00  0.00     0.167 HD
ATOM     58  C   UNL A   1      43.244  36.051  30.573  1.00  0.00     0.034 A 
ATOM     59  C   UNL A   1      42.861  36.338  37.515  1.00  0.00     0.034 A 
ATOM     60  C   UNL A   1      43.780  37.253  31.151  1.00  0.00     0.049 A 
ATOM     61  C   UNL A   1      43.546  37.416  36.708  1.00  0.00     0.074 A 
ATOM     62  C   UNL A   1      44.379  38.321  30.507  1.00  0.00     0.029 A 
ATOM     63  N   UNL A   1      43.810  37.534  32.505  1.00  0.00    -0.354 N 
ATOM     64  N   UNL A   1      43.631  37.554  35.407  1.00  0.00    -0.248 NA
ATOM     65  C   UNL A   1      44.186  38.507  37.464  1.00  0.00     0.031 C 
ATOM     66  C   UNL A   1      44.798  39.237  31.478  1.00  0.00     0.029 A 
ATOM     67  C   UNL A   1      44.431  38.752  32.723  1.00  0.00     0.049 A 
ATOM     68  H   UNL A   1      43.443  36.954  33.212  1.00  0.00     0.167 HD
ATOM     69  C   UNL A   1      44.290  38.763  35.191  1.00  0.00     0.074 A 
ATOM     70  C   UNL A   1      44.568  39.327  36.494  1.00  0.00     0.031 C 
ATOM     71  C   UNL A   1      44.644  39.345  34.018  1.00  0.00     0.034 A 
BRANCH  58  72
ATOM     72  C   UNL A   1      43.329  35.879  29.081  1.00  0.00     0.023 A 
ATOM     73  C   UNL A   1      42.293  36.377  28.265  1.00  0.00     0.012 A 
ATOM     74  C   UNL A   1      44.445  35.259  28.487  1.00  0.00     0.148 A 
ATOM     75  C   UNL A   1      42.351  36.232  26.879  1.00  0.00     0.002 A 
ATOM     76  C   UNL A   1      44.513  35.153  27.103  1.00  0.00     0.091 A 
ATOM     77  F   UNL A   1      45.405  34.770  29.284  1.00  0.00    -0.205 F 
ATOM     78  C   UNL A   1      43.463  35.628  26.299  1.00  0.00     0.022 A 
BRANCH  76  79
ATOM     79  S   UNL A   1      45.934  34.448  26.261  1.00  0.00     0.127 S 
ATOM     80  O   UNL A   1      47.004  35.352  26.681  1.00  0.00    -0.237 OA
ATOM     81  O   UNL A   1      46.004  33.108  26.843  1.00  0.00    -0.237 OA
ATOM     82  O   UNL A   1      45.612  34.475  24.841  1.00  0.00    -0.744 OA
ENDBRANCH  76  79
ENDBRANCH  58  72
BRANCH  59  83
ATOM     83  C   UNL A   1      42.791  36.455  39.002  1.00  0.00     0.023 A 
ATOM     84  C   UNL A   1      43.752  35.794  39.794  1.00  0.00     0.012 A 
ATOM     85  C   UNL A   1      41.762  37.179  39.634  1.00  0.00     0.148 A 
ATOM     86  C   UNL A   1      43.668  35.819  41.187  1.00  0.00     0.002 A 
ATOM     87  C   UNL A   1      41.710  37.239  41.023  1.00  0.00     0.091 A 
ATOM     88  F   UNL A   1      40.846  37.781  38.864  1.00  0.00    -0.205 F 
ATOM     89  C   UNL A   1      42.652  36.546  41.801  1.00  0.00     0.022 A 
BRANCH  87  90
ATOM     90  S   UNL A   1      40.484  38.206  41.911  1.00  0.00     0.127 S 
ATOM     91  O   UNL A   1      40.809  37.895  43.301  1.00  0.00    -0.237 OA
ATOM     92  O   UNL A   1      40.816  39.568  41.493  1.00  0.00    -0.237 OA
ATOM     93  O   UNL A   1      39.189  37.724  41.451  1.00  0.00    -0.744 OA
ENDBRANCH  87  90
ENDBRANCH  59  83
BRANCH  71  94
ATOM     94  C   UNL A   1      45.328  40.690  34.066  1.00  0.00     0.023 A 
ATOM     95  C   UNL A   1      46.734  40.767  34.120  1.00  0.00     0.012 A 
ATOM     96  C   UNL A   1      44.578  41.881  33.975  1.00  0.00     0.148 A 
ATOM     97  C   UNL A   1      47.379  42.004  34.117  1.00  0.00     0.002 A 
ATOM     98  C   UNL A   1      45.231  43.109  33.921  1.00  0.00     0.091 A 
ATOM     99  F   UNL A   1      43.240  41.796  33.944  1.00  0.00    -0.205 F 
ATOM    100  C   UNL A   1      46.630  43.173  34.005  1.00  0.00     0.022 A 
BRANCH  98 101
ATOM    101  S   UNL A   1      44.345  44.654  33.674  1.00  0.00     0.127 S 
ATOM    102  O   UNL A   1      45.248  45.619  34.296  1.00  0.00    -0.237 OA
ATOM    103  O   UNL A   1      44.268  44.742  32.215  1.00  0.00    -0.237 OA
ATOM    104  O   UNL A   1      43.057  44.481  34.333  1.00  0.00    -0.744 OA
ENDBRANCH  98 101
ENDBRANCH  71  94
ENDBRANCH  45  46
ENDBRANCH  38  40
ENDBRANCH  37  38
ENDBRANCH  36  37
ENDBRANCH  35  36
ENDBRANCH  34  35
ENDBRANCH  33  34
ENDBRANCH   1  33
TORSDOF 25
ENDMDL
MODEL 2
REMARK VINA RESULT:      -9.7      3.260      5.311
REMARK SMILES O=C(C[C@H](NC(=O)[C@]12C[C@H]3C[C@H](C[C@H](C3)C1)C2)c1cccc([N+](=O)[O-])c1)OCCOCCOCCOC(=O)c1ccc(-c2c3nc(c(-c4cccc(S(=O)(=O)[O-])c4F)c4ccc([nH]4)c(-c4cccc(S(=O)(=O)[O-])c4F)c4nc(c(-c5cccc(S(=O)(=O)[O-])c5F)c5ccc2[nH]5)C=C4)C=C3)cc1
REMARK SMILES IDX 31 1 30 2 29 3 28 4 27 5 2 6 1 7 3 8 4 9 18 10 19 11 26 12
REMARK SMILES IDX 20 13 22 14 21 15 23 16 24 17 25 18 5 19 6 20 7 22 8 23 9 24
REMARK SMILES IDX 16 25 17 26 10 27 14 28 12 29 11 30 15 31 13 32 32 33 33 34
REMARK SMILES IDX 34 35 35 36 36 37 37 38 38 39 39 40 40 41 101 42 41 43
REMARK SMILES IDX 100 44 42 45 43 46 44 47 94 48 45 49 99 50 93 51 95 52 46 53
REMARK SMILES IDX 98 54 92 55 91 56 47 58 79 59 59 60 78 61 60 62 63 63 77 64
REMARK SMILES IDX 96 65 61 66 62 67 76 69 97 70 64 71 48 72 49 73 57 74 50 75
REMARK SMILES IDX 52 76 58 77 51 78 53 79 54 80 55 81 56 82 80 83 81 84 89 85
REMARK SMILES IDX 82 86 84 87 90 88 83 89 85 90 86 91 87 92 88 93 65 94 66 95
REMARK SMILES IDX 74 96 67 97 69 98 75 99 68 100 70 101 71 102 72 103 73 104
REMARK H PARENT 5 21 95 57 63 68
REMARK Flexibility Score: inf
ROOT
ATOM      1  C   UNL A   1      32.502  31.415  27.169  1.00  0.00     0.188 C 
ENDROOT
BRANCH   1   2
ATOM      2  O   UNL A   1      33.845  31.025  26.930  1.00  0.00    -0.376 OA
BRANCH   2   3
ATOM      3  C   UNL A   1      34.198  29.716  27.324  1.00  0.00     0.202 C 
BRANCH   3   4
ATOM      4  C   UNL A   1      33.503  28.678  26.436  1.00  0.00     0.261 C 
BRANCH   4   5
ATOM      5  O   UNL A   1      34.165  28.411  25.183  1.00  0.00    -0.463 OA
BRANCH   5   6
ATOM      6  C   UNL A   1      33.539  28.747  24.025  1.00  0.00     0.308 C 
ATOM      7  O   UNL A   1      34.166  29.065  23.026  1.00  0.00    -0.252 OA
BRANCH   6   8
ATOM      8  C   UNL A   1      32.046  28.877  24.166  1.00  0.00     0.152 C 
BRANCH   8   9
ATOM      9  C   UNL A   1      31.265  27.912  23.290  1.00  0.00     0.123 C 
BRANCH   9  10
ATOM     10  C   UNL A   1      29.952  28.585  22.883  1.00  0.00    -0.018 A 
ATOM     11  C   UNL A   1      28.736  27.937  23.219  1.00  0.00     0.006 A 
ATOM     12  C   UNL A   1      29.884  29.849  22.291  1.00  0.00     0.091 A 
ATOM     13  C   UNL A   1      27.498  28.552  23.034  1.00  0.00     0.007 A 
ATOM     14  C   UNL A   1      28.632  30.457  22.091  1.00  0.00     0.269 A 
ATOM     15  C   UNL A   1      27.442  29.820  22.470  1.00  0.00     0.085 A 
BRANCH  14  16
ATOM     16  N   UNL A   1      28.564  31.806  21.526  1.00  0.00     0.062 N 
ATOM     17  O   UNL A   1      29.022  32.724  22.218  1.00  0.00    -0.258 OA
ATOM     18  O   UNL A   1      28.097  31.910  20.385  1.00  0.00    -0.258 OA
ENDBRANCH  14  16
ENDBRANCH   9  10
BRANCH   9  19
ATOM     19  N   UNL A   1      31.972  27.218  22.204  1.00  0.00    -0.348 N 
ATOM     20  C   UNL A   1      32.548  26.034  21.883  1.00  0.00     0.226 C 
ATOM     21  H   UNL A   1      32.057  27.830  21.439  1.00  0.00     0.164 HD
ATOM     22  O   UNL A   1      33.022  26.014  20.738  1.00  0.00    -0.274 OA
BRANCH  20  23
ATOM     23  C   UNL A   1      32.615  24.762  22.754  1.00  0.00     0.050 C 
ATOM     24  C   UNL A   1      31.229  24.370  23.305  1.00  0.00     0.020 C 
ATOM     25  C   UNL A   1      33.508  25.033  24.019  1.00  0.00     0.020 C 
ATOM     26  C   UNL A   1      33.336  23.606  22.021  1.00  0.00     0.020 C 
ATOM     27  C   UNL A   1      31.320  23.100  24.162  1.00  0.00    -0.010 C 
ATOM     28  C   UNL A   1      33.610  23.779  24.920  1.00  0.00    -0.010 C 
ATOM     29  C   UNL A   1      33.362  22.336  22.885  1.00  0.00    -0.010 C 
ATOM     30  C   UNL A   1      31.938  21.969  23.327  1.00  0.00     0.007 C 
ATOM     31  C   UNL A   1      32.204  23.376  25.385  1.00  0.00     0.007 C 
ATOM     32  C   UNL A   1      34.218  22.612  24.127  1.00  0.00     0.007 C 
ENDBRANCH  20  23
ENDBRANCH   9  19
ENDBRANCH   8   9
ENDBRANCH   6   8
ENDBRANCH   5   6
ENDBRANCH   4   5
ENDBRANCH   3   4
ENDBRANCH   2   3
ENDBRANCH   1   2
BRANCH   1  33
ATOM     33  C   UNL A   1      32.312  32.937  27.080  1.00  0.00     0.188 C 
BRANCH  33  34
ATOM     34  O   UNL A   1      32.677  33.765  28.176  1.00  0.00    -0.376 OA
BRANCH  34  35
ATOM     35  C   UNL A   1      33.891  34.495  28.124  1.00  0.00     0.202 C 
BRANCH  35  36
ATOM     36  C   UNL A   1      35.173  33.819  28.622  1.00  0.00     0.261 C 
BRANCH  36  37
ATOM     37  O   UNL A   1      35.040  32.948  29.763  1.00  0.00    -0.460 OA
BRANCH  37  38
ATOM     38  C   UNL A   1      36.176  32.275  30.079  1.00  0.00     0.338 C 
ATOM     39  O   UNL A   1      36.830  31.575  29.322  1.00  0.00    -0.246 OA
BRANCH  38  40
ATOM     40  C   UNL A   1      36.631  32.544  31.466  1.00  0.00     0.060 A 
ATOM     41  C   UNL A   1      36.639  33.882  31.878  1.00  0.00     0.016 A 
ATOM     42  C   UNL A   1      37.192  31.562  32.290  1.00  0.00     0.016 A 
ATOM     43  C   UNL A   1      37.260  34.254  33.071  1.00  0.00     0.010 A 
ATOM     44  C   UNL A   1      37.834  31.941  33.484  1.00  0.00     0.010 A 
ATOM     45  C   UNL A   1      37.911  33.295  33.857  1.00  0.00    -0.014 A 
BRANCH  45  46
ATOM     46  C   UNL A   1      38.860  33.772  34.902  1.00  0.00     0.031 A 
ATOM     47  C   UNL A   1      40.114  34.483  34.450  1.00  0.00     0.074 A 
ATOM     48  C   UNL A   1      38.614  33.647  36.220  1.00  0.00     0.049 A 
ATOM     49  N   UNL A   1      41.014  35.113  35.159  1.00  0.00    -0.248 NA
ATOM     50  C   UNL A   1      40.378  34.486  33.001  1.00  0.00     0.031 C 
ATOM     51  C   UNL A   1      37.457  32.981  36.809  1.00  0.00     0.029 A 
ATOM     52  N   UNL A   1      39.339  34.082  37.303  1.00  0.00    -0.354 N 
ATOM     53  C   UNL A   1      41.950  35.587  34.248  1.00  0.00     0.074 A 
ATOM     54  C   UNL A   1      41.515  35.162  32.934  1.00  0.00     0.031 C 
ATOM     55  C   UNL A   1      37.548  33.051  38.150  1.00  0.00     0.029 A 
ATOM     56  C   UNL A   1      38.778  33.755  38.516  1.00  0.00     0.049 A 
ATOM     57  H   UNL A   1      40.183  34.583  37.220  1.00  0.00     0.167 HD
ATOM     58  C   UNL A   1      43.067  36.319  34.471  1.00  0.00     0.034 A 
ATOM     59  C   UNL A   1      39.207  33.995  39.773  1.00  0.00     0.034 A 
ATOM     60  C   UNL A   1      43.528  36.729  35.769  1.00  0.00     0.049 A 
ATOM     61  C   UNL A   1      40.479  34.781  39.996  1.00  0.00     0.074 A 
ATOM     62  C   UNL A   1      44.643  37.487  36.084  1.00  0.00     0.029 A 
ATOM     63  N   UNL A   1      42.922  36.393  36.966  1.00  0.00    -0.354 N 
ATOM     64  N   UNL A   1      41.266  35.355  39.119  1.00  0.00    -0.248 NA
ATOM     65  C   UNL A   1      40.900  34.981  41.393  1.00  0.00     0.031 C 
ATOM     66  C   UNL A   1      44.726  37.583  37.478  1.00  0.00     0.029 A 
ATOM     67  C   UNL A   1      43.645  36.912  38.026  1.00  0.00     0.049 A 
ATOM     68  H   UNL A   1      42.096  35.862  37.053  1.00  0.00     0.167 HD
ATOM     69  C   UNL A   1      42.244  36.019  39.857  1.00  0.00     0.074 A 
ATOM     70  C   UNL A   1      41.941  35.790  41.253  1.00  0.00     0.031 C 
ATOM     71  C   UNL A   1      43.303  36.742  39.416  1.00  0.00     0.034 A 
BRANCH  58  72
ATOM     72  C   UNL A   1      43.868  36.734  33.267  1.00  0.00     0.023 A 
ATOM     73  C   UNL A   1      44.778  35.825  32.691  1.00  0.00     0.012 A 
ATOM     74  C   UNL A   1      43.697  38.007  32.689  1.00  0.00     0.148 A 
ATOM     75  C   UNL A   1      45.530  36.187  31.573  1.00  0.00     0.002 A 
ATOM     76  C   UNL A   1      44.422  38.346  31.552  1.00  0.00     0.091 A 
ATOM     77  F   UNL A   1      42.846  38.864  33.270  1.00  0.00    -0.205 F 
ATOM     78  C   UNL A   1      45.346  37.443  31.001  1.00  0.00     0.022 A 
BRANCH  76  79
ATOM     79  S   UNL A   1      44.207  39.915  30.706  1.00  0.00     0.127 S 
ATOM     80  O   UNL A   1      43.639  39.486  29.429  1.00  0.00    -0.237 OA
ATOM     81  O   UNL A   1      43.270  40.614  31.586  1.00  0.00    -0.237 OA
ATOM     82  O   UNL A   1      45.531  40.516  30.634  1.00  0.00    -0.744 OA
ENDBRANCH  76  79
ENDBRANCH  58  72
BRANCH  59  83
ATOM     83  C   UNL A   1      38.405  33.533  40.946  1.00  0.00     0.023 A 
ATOM     84  C   UNL A   1      37.372  34.353  41.443  1.00  0.00     0.012 A 
ATOM     85  C   UNL A   1      38.685  32.314  41.591  1.00  0.00     0.148 A 
ATOM     86  C   UNL A   1      36.658  33.986  42.585  1.00  0.00     0.002 A 
ATOM     87  C   UNL A   1      37.938  31.932  42.702  1.00  0.00     0.091 A 
ATOM     88  F   UNL A   1      39.685  31.560  41.116  1.00  0.00    -0.205 F 
ATOM     89  C   UNL A   1      36.936  32.774  43.209  1.00  0.00     0.022 A 
BRANCH  87  90
ATOM     90  S   UNL A   1      38.170  30.358  43.535  1.00  0.00     0.127 S 
ATOM     91  O   UNL A   1      36.962  30.272  44.352  1.00  0.00    -0.237 OA
ATOM     92  O   UNL A   1      38.217  29.425  42.409  1.00  0.00    -0.237 OA
ATOM     93  O   UNL A   1      39.416  30.481  44.278  1.00  0.00    -0.744 OA
ENDBRANCH  87  90
ENDBRANCH  59  83
BRANCH  71  94
ATOM     94  C   UNL A   1      44.200  37.393  40.440  1.00  0.00     0.023 A 
ATOM     95  C   UNL A   1      45.304  36.689  40.963  1.00  0.00     0.012 A 
ATOM     96  C   UNL A   1      43.997  38.735  40.824  1.00  0.00     0.148 A 
ATOM     97  C   UNL A   1      46.168  37.297  41.875  1.00  0.00     0.002 A 
ATOM     98  C   UNL A   1      44.891  39.349  41.695  1.00  0.00     0.091 A 
ATOM     99  F   UNL A   1      42.933  39.388  40.336  1.00  0.00    -0.205 F 
ATOM    100  C   UNL A   1      45.970  38.628  42.231  1.00  0.00     0.022 A 
BRANCH  98 101
ATOM    101  S   UNL A   1      44.766  41.091  42.124  1.00  0.00     0.127 S 
ATOM    102  O   UNL A   1      45.879  41.251  43.057  1.00  0.00    -0.237 OA
ATOM    103  O   UNL A   1      44.956  41.748  40.830  1.00  0.00    -0.237 OA
ATOM    104  O   UNL A   1      43.436  41.263  42.694  1.00  0.00    -0.744 OA
ENDBRANCH  98 101
ENDBRANCH  71  94
ENDBRANCH  45  46
ENDBRANCH  38  40
ENDBRANCH  37  38
ENDBRANCH  36  37
ENDBRANCH  35  36
ENDBRANCH  34  35
ENDBRANCH  33  34
ENDBRANCH   1  33
TORSDOF 25
ENDMDL
MODEL 3
REMARK VINA RESULT:      -9.7      5.596     10.517
REMARK SMILES O=C(C[C@H](NC(=O)[C@]12C[C@H]3C[C@H](C[C@H](C3)C1)C2)c1cccc([N+](=O)[O-])c1)OCCOCCOCCOC(=O)c1ccc(-c2c3nc(c(-c4cccc(S(=O)(=O)[O-])c4F)c4ccc([nH]4)c(-c4cccc(S(=O)(=O)[O-])c4F)c4nc(c(-c5cccc(S(=O)(=O)[O-])c5F)c5ccc2[nH]5)C=C4)C=C3)cc1
REMARK SMILES IDX 31 1 30 2 29 3 28 4 27 5 2 6 1 7 3 8 4 9 18 10 19 11 26 12
REMARK SMILES IDX 20 13 22 14 21 15 23 16 24 17 25 18 5 19 6 20 7 22 8 23 9 24
REMARK SMILES IDX 16 25 17 26 10 27 14 28 12 29 11 30 15 31 13 32 32 33 33 34
REMARK SMILES IDX 34 35 35 36 36 37 37 38 38 39 39 40 40 41 101 42 41 43
REMARK SMILES IDX 100 44 42 45 43 46 44 47 94 48 45 49 99 50 93 51 95 52 46 53
REMARK SMILES IDX 98 54 92 55 91 56 47 58 79 59 59 60 78 61 60 62 63 63 77 64
REMARK SMILES IDX 96 65 61 66 62 67 76 69 97 70 64 71 48 72 49 73 57 74 50 75
REMARK SMILES IDX 52 76 58 77 51 78 53 79 54 80 55 81 56 82 80 83 81 84 89 85
REMARK SMILES IDX 82 86 84 87 90 88 83 89 85 90 86 91 87 92 88 93 65 94 66 95
REMARK SMILES IDX 74 96 67 97 69 98 75 99 68 100 70 101 71 102 72 103 73 104
REMARK H PARENT 5 21 95 57 63 68
REMARK Flexibility Score: inf
ROOT
ATOM      1  C   UNL A   1      34.509  30.051  26.940  1.00  0.00     0.188 C 
ENDROOT
BRANCH   1   2
ATOM      2  O   UNL A   1      33.770  29.035  27.599  1.00  0.00    -0.376 OA
BRANCH   2   3
ATOM      3  C   UNL A   1      32.527  28.690  27.025  1.00  0.00     0.202 C 
BRANCH   3   4
ATOM      4  C   UNL A   1      32.440  27.177  26.795  1.00  0.00     0.261 C 
BRANCH   4   5
ATOM      5  O   UNL A   1      31.131  26.607  27.003  1.00  0.00    -0.463 OA
BRANCH   5   6
ATOM      6  C   UNL A   1      30.659  25.702  26.107  1.00  0.00     0.308 C 
ATOM      7  O   UNL A   1      29.536  25.231  26.201  1.00  0.00    -0.252 OA
BRANCH   6   8
ATOM      8  C   UNL A   1      31.706  25.209  25.144  1.00  0.00     0.152 C 
BRANCH   8   9
ATOM      9  C   UNL A   1      31.312  25.363  23.685  1.00  0.00     0.123 C 
BRANCH   9  10
ATOM     10  C   UNL A   1      31.169  26.857  23.379  1.00  0.00    -0.018 A 
ATOM     11  C   UNL A   1      32.351  27.618  23.193  1.00  0.00     0.006 A 
ATOM     12  C   UNL A   1      29.938  27.487  23.170  1.00  0.00     0.091 A 
ATOM     13  C   UNL A   1      32.314  28.940  22.752  1.00  0.00     0.007 A 
ATOM     14  C   UNL A   1      29.907  28.826  22.742  1.00  0.00     0.269 A 
ATOM     15  C   UNL A   1      31.088  29.550  22.521  1.00  0.00     0.085 A 
BRANCH  14  16
ATOM     16  N   UNL A   1      28.621  29.469  22.466  1.00  0.00     0.062 N 
ATOM     17  O   UNL A   1      27.922  29.761  23.445  1.00  0.00    -0.258 OA
ATOM     18  O   UNL A   1      28.361  29.709  21.281  1.00  0.00    -0.258 OA
ENDBRANCH  14  16
ENDBRANCH   9  10
BRANCH   9  19
ATOM     19  N   UNL A   1      32.044  24.588  22.673  1.00  0.00    -0.348 N 
ATOM     20  C   UNL A   1      33.143  23.813  22.503  1.00  0.00     0.226 C 
ATOM     21  H   UNL A   1      31.568  24.656  21.815  1.00  0.00     0.164 HD
ATOM     22  O   UNL A   1      33.271  23.392  21.344  1.00  0.00    -0.274 OA
BRANCH  20  23
ATOM     23  C   UNL A   1      34.164  23.393  23.581  1.00  0.00     0.050 C 
ATOM     24  C   UNL A   1      34.531  24.566  24.513  1.00  0.00     0.020 C 
ATOM     25  C   UNL A   1      35.512  22.966  22.895  1.00  0.00     0.020 C 
ATOM     26  C   UNL A   1      33.705  22.125  24.338  1.00  0.00     0.020 C 
ATOM     27  C   UNL A   1      35.542  24.122  25.579  1.00  0.00    -0.010 C 
ATOM     28  C   UNL A   1      36.566  22.528  23.939  1.00  0.00    -0.010 C 
ATOM     29  C   UNL A   1      34.712  21.741  25.433  1.00  0.00    -0.010 C 
ATOM     30  C   UNL A   1      34.963  22.936  26.363  1.00  0.00     0.007 C 
ATOM     31  C   UNL A   1      36.847  23.697  24.894  1.00  0.00     0.007 C 
ATOM     32  C   UNL A   1      36.031  21.342  24.759  1.00  0.00     0.007 C 
ENDBRANCH  20  23
ENDBRANCH   9  19
ENDBRANCH   8   9
ENDBRANCH   6   8
ENDBRANCH   5   6
ENDBRANCH   4   5
ENDBRANCH   3   4
ENDBRANCH   2   3
ENDBRANCH   1   2
BRANCH   1  33
ATOM     33  C   UNL A   1      35.545  30.711  27.862  1.00  0.00     0.188 C 
BRANCH  33  34
ATOM     34  O   UNL A   1      35.424  32.086  28.199  1.00  0.00    -0.376 OA
BRANCH  34  35
ATOM     35  C   UNL A   1      34.490  32.482  29.190  1.00  0.00     0.202 C 
BRANCH  35  36
ATOM     36  C   UNL A   1      34.935  32.483  30.656  1.00  0.00     0.261 C 
BRANCH  36  37
ATOM     37  O   UNL A   1      35.784  31.395  31.072  1.00  0.00    -0.460 OA
BRANCH  37  38
ATOM     38  C   UNL A   1      36.677  31.729  32.039  1.00  0.00     0.338 C 
ATOM     39  O   UNL A   1      36.426  31.889  33.223  1.00  0.00    -0.246 OA
BRANCH  38  40
ATOM     40  C   UNL A   1      38.068  31.803  31.530  1.00  0.00     0.060 A 
ATOM     41  C   UNL A   1      38.231  31.798  30.139  1.00  0.00     0.016 A 
ATOM     42  C   UNL A   1      39.191  31.709  32.360  1.00  0.00     0.016 A 
ATOM     43  C   UNL A   1      39.496  31.634  29.573  1.00  0.00     0.010 A 
ATOM     44  C   UNL A   1      40.465  31.525  31.788  1.00  0.00     0.010 A 
ATOM     45  C   UNL A   1      40.617  31.441  30.391  1.00  0.00    -0.014 A 
BRANCH  45  46
ATOM     46  C   UNL A   1      41.859  30.907  29.765  1.00  0.00     0.031 A 
ATOM     47  C   UNL A   1      42.944  31.889  29.394  1.00  0.00     0.074 A 
ATOM     48  C   UNL A   1      42.071  29.591  29.578  1.00  0.00     0.049 A 
ATOM     49  N   UNL A   1      44.163  31.664  28.976  1.00  0.00    -0.248 NA
ATOM     50  C   UNL A   1      42.606  33.317  29.520  1.00  0.00     0.031 C 
ATOM     51  C   UNL A   1      41.120  28.525  29.877  1.00  0.00     0.029 A 
ATOM     52  N   UNL A   1      43.170  28.931  29.082  1.00  0.00    -0.354 N 
ATOM     53  C   UNL A   1      44.736  32.915  28.788  1.00  0.00     0.074 A 
ATOM     54  C   UNL A   1      43.729  33.898  29.126  1.00  0.00     0.031 C 
ATOM     55  C   UNL A   1      41.675  27.341  29.558  1.00  0.00     0.029 A 
ATOM     56  C   UNL A   1      43.018  27.564  29.020  1.00  0.00     0.049 A 
ATOM     57  H   UNL A   1      43.992  29.393  28.797  1.00  0.00     0.167 HD
ATOM     58  C   UNL A   1      45.990  33.230  28.382  1.00  0.00     0.034 A 
ATOM     59  C   UNL A   1      43.862  26.608  28.580  1.00  0.00     0.034 A 
ATOM     60  C   UNL A   1      46.995  32.269  28.017  1.00  0.00     0.049 A 
ATOM     61  C   UNL A   1      45.242  26.989  28.094  1.00  0.00     0.074 A 
ATOM     62  C   UNL A   1      48.296  32.502  27.609  1.00  0.00     0.029 A 
ATOM     63  N   UNL A   1      46.805  30.899  27.987  1.00  0.00    -0.354 N 
ATOM     64  N   UNL A   1      45.820  28.165  28.072  1.00  0.00    -0.248 NA
ATOM     65  C   UNL A   1      46.099  25.897  27.603  1.00  0.00     0.031 C 
ATOM     66  C   UNL A   1      48.885  31.270  27.303  1.00  0.00     0.029 A 
ATOM     67  C   UNL A   1      47.959  30.271  27.552  1.00  0.00     0.049 A 
ATOM     68  H   UNL A   1      45.972  30.438  28.238  1.00  0.00     0.167 HD
ATOM     69  C   UNL A   1      47.118  27.947  27.613  1.00  0.00     0.074 A 
ATOM     70  C   UNL A   1      47.246  26.524  27.383  1.00  0.00     0.031 C 
ATOM     71  C   UNL A   1      48.108  28.847  27.389  1.00  0.00     0.034 A 
BRANCH  58  72
ATOM     72  C   UNL A   1      46.345  34.690  28.321  1.00  0.00     0.023 A 
ATOM     73  C   UNL A   1      46.110  35.414  27.134  1.00  0.00     0.012 A 
ATOM     74  C   UNL A   1      46.879  35.352  29.443  1.00  0.00     0.148 A 
ATOM     75  C   UNL A   1      46.430  36.769  27.055  1.00  0.00     0.002 A 
ATOM     76  C   UNL A   1      47.159  36.711  29.369  1.00  0.00     0.091 A 
ATOM     77  F   UNL A   1      47.120  34.638  30.552  1.00  0.00    -0.205 F 
ATOM     78  C   UNL A   1      46.946  37.418  28.173  1.00  0.00     0.022 A 
BRANCH  76  79
ATOM     79  S   UNL A   1      47.766  37.648  30.775  1.00  0.00     0.127 S 
ATOM     80  O   UNL A   1      47.916  38.983  30.198  1.00  0.00    -0.237 OA
ATOM     81  O   UNL A   1      46.667  37.516  31.731  1.00  0.00    -0.237 OA
ATOM     82  O   UNL A   1      49.004  36.999  31.184  1.00  0.00    -0.744 OA
ENDBRANCH  76  79
ENDBRANCH  58  72
BRANCH  59  83
ATOM     83  C   UNL A   1      43.460  25.170  28.619  1.00  0.00     0.023 A 
ATOM     84  C   UNL A   1      43.668  24.425  29.797  1.00  0.00     0.012 A 
ATOM     85  C   UNL A   1      42.914  24.530  27.490  1.00  0.00     0.148 A 
ATOM     86  C   UNL A   1      43.377  23.061  29.839  1.00  0.00     0.002 A 
ATOM     87  C   UNL A   1      42.582  23.180  27.553  1.00  0.00     0.091 A 
ATOM     88  F   UNL A   1      42.745  25.251  26.373  1.00  0.00    -0.205 F 
ATOM     89  C   UNL A   1      42.828  22.441  28.721  1.00  0.00     0.022 A 
BRANCH  87  90
ATOM     90  S   UNL A   1      41.806  22.304  26.190  1.00  0.00     0.127 S 
ATOM     91  O   UNL A   1      41.782  20.933  26.692  1.00  0.00    -0.237 OA
ATOM     92  O   UNL A   1      40.497  22.955  26.122  1.00  0.00    -0.237 OA
ATOM     93  O   UNL A   1      42.661  22.530  25.034  1.00  0.00    -0.744 OA
ENDBRANCH  87  90
ENDBRANCH  59  83
BRANCH  71  94
ATOM     94  C   UNL A   1      49.446  28.334  26.918  1.00  0.00     0.023 A 
ATOM     95  C   UNL A   1      50.414  27.918  27.854  1.00  0.00     0.012 A 
ATOM     96  C   UNL A   1      49.715  28.185  25.541  1.00  0.00     0.148 A 
ATOM     97  C   UNL A   1      51.637  27.397  27.429  1.00  0.00     0.002 A 
ATOM     98  C   UNL A   1      50.916  27.619  25.126  1.00  0.00     0.091 A 
ATOM     99  F   UNL A   1      48.794  28.603  24.659  1.00  0.00    -0.205 F 
ATOM    100  C   UNL A   1      51.883  27.236  26.068  1.00  0.00     0.022 A 
BRANCH  98 101
ATOM    101  S   UNL A   1      51.268  27.282  23.395  1.00  0.00     0.127 S 
ATOM    102  O   UNL A   1      50.060  26.577  22.975  1.00  0.00    -0.237 OA
ATOM    103  O   UNL A   1      51.415  28.627  22.836  1.00  0.00    -0.237 OA
ATOM    104  O   UNL A   1      52.493  26.494  23.387  1.00  0.00    -0.744 OA
ENDBRANCH  98 101
ENDBRANCH  71  94
ENDBRANCH  45  46
ENDBRANCH  38  40
ENDBRANCH  37  38
ENDBRANCH  36  37
ENDBRANCH  35  36
ENDBRANCH  34  35
ENDBRANCH  33  34
ENDBRANCH   1  33
TORSDOF 25
ENDMDL
