MODEL 1
REMARK VINA RESULT:     -10.9      0.000      0.000
REMARK SMILES CC1(C)CC2=NC(=O)[C@H](C(=O)OCCOCCOCCOC(=O)c3ccc(-c4c5nc(c(-c6cccc(S(=O)(=O)[O-])c6F)c6ccc([nH]6)c(-c6cccc(S(=O)(=O)[O-])c6F)c6nc(c(-c7cccc(S(=O)(=O)[O-])c7F)c7ccc4[nH]7)C=C6)C=C5)cc3)C=C2CS1
REMARK SMILES IDX 18 1 17 2 16 3 15 4 14 5 13 6 12 7 10 8 11 9 9 10 1 11 2 12
REMARK SMILES IDX 3 13 4 14 90 15 5 16 89 17 6 18 88 19 7 20 87 21 8 22 19 23
REMARK SMILES IDX 20 24 21 25 22 26 23 27 24 28 25 29 86 30 26 31 85 32 27 33
REMARK SMILES IDX 28 34 29 35 79 36 30 37 84 38 78 39 80 40 31 41 83 42 77 43
REMARK SMILES IDX 76 44 32 46 64 47 44 48 63 49 45 50 48 51 62 52 81 53 46 54
REMARK SMILES IDX 47 55 61 57 82 58 49 59 33 60 34 61 42 62 35 63 37 64 43 65
REMARK SMILES IDX 36 66 38 67 39 68 40 69 41 70 65 71 66 72 74 73 67 74 69 75
REMARK SMILES IDX 75 76 68 77 70 78 71 79 72 80 73 81 50 82 51 83 59 84 52 85
REMARK SMILES IDX 54 86 60 87 53 88 55 89 56 90 57 91 58 92
REMARK H PARENT 80 45 48 56
REMARK Flexibility Score: inf
ROOT
ATOM      1  O   UNL A   1      35.196  19.263  24.673  1.00  0.00    -0.376 OA
ENDROOT
BRANCH   1   2
ATOM      2  C   UNL A   1      34.498  18.075  24.356  1.00  0.00     0.188 C 
BRANCH   2   3
ATOM      3  C   UNL A   1      33.108  17.969  25.014  1.00  0.00     0.188 C 
BRANCH   3   4
ATOM      4  O   UNL A   1      32.166  19.030  24.868  1.00  0.00    -0.376 OA
BRANCH   4   5
ATOM      5  C   UNL A   1      32.280  19.925  23.777  1.00  0.00     0.202 C 
BRANCH   5   6
ATOM      6  C   UNL A   1      32.145  21.426  24.075  1.00  0.00     0.261 C 
BRANCH   6   7
ATOM      7  O   UNL A   1      33.377  22.102  24.413  1.00  0.00    -0.462 OA
BRANCH   7   8
ATOM      8  C   UNL A   1      33.260  23.231  25.151  1.00  0.00     0.322 C 
ATOM      9  O   UNL A   1      34.218  23.769  25.705  1.00  0.00    -0.251 OA
BRANCH   8  10
ATOM     10  C   UNL A   1      31.858  23.795  25.303  1.00  0.00     0.213 C 
ATOM     11  C   UNL A   1      32.133  30.324  26.696  1.00  0.00     0.023 C 
ATOM     12  C   UNL A   1      32.430  28.941  26.082  1.00  0.00     0.016 C 
ATOM     13  C   UNL A   1      33.949  28.710  26.082  1.00  0.00     0.023 C 
ATOM     14  C   UNL A   1      31.716  27.846  26.872  1.00  0.00     0.074 C 
ATOM     15  S   UNL A   1      31.714  28.975  24.395  1.00  0.00    -0.150 SA
ATOM     16  C   UNL A   1      31.749  26.438  26.279  1.00  0.00     0.049 C 
ATOM     17  C   UNL A   1      32.176  27.336  23.842  1.00  0.00     0.107 C 
ATOM     18  N   UNL A   1      31.567  25.476  27.129  1.00  0.00    -0.217 NA
ATOM     19  C   UNL A   1      31.856  26.246  24.805  1.00  0.00    -0.019 C 
ATOM     20  C   UNL A   1      31.339  24.199  26.665  1.00  0.00     0.264 C 
ATOM     21  C   UNL A   1      31.809  24.975  24.377  1.00  0.00     0.004 C 
ATOM     22  O   UNL A   1      30.654  23.411  27.317  1.00  0.00    -0.271 OA
ENDBRANCH   8  10
ENDBRANCH   7   8
ENDBRANCH   6   7
ENDBRANCH   5   6
ENDBRANCH   4   5
ENDBRANCH   3   4
ENDBRANCH   2   3
ENDBRANCH   1   2
BRANCH   1  23
ATOM     23  C   UNL A   1      36.573  19.107  24.950  1.00  0.00     0.202 C 
BRANCH  23  24
ATOM     24  C   UNL A   1      37.395  20.351  24.600  1.00  0.00     0.261 C 
BRANCH  24  25
ATOM     25  O   UNL A   1      37.871  21.111  25.728  1.00  0.00    -0.460 OA
BRANCH  25  26
ATOM     26  C   UNL A   1      39.148  20.896  26.120  1.00  0.00     0.338 C 
ATOM     27  O   UNL A   1      39.804  19.883  25.932  1.00  0.00    -0.246 OA
BRANCH  26  28
ATOM     28  C   UNL A   1      39.688  22.173  26.646  1.00  0.00     0.060 A 
ATOM     29  C   UNL A   1      39.148  23.388  26.199  1.00  0.00     0.016 A 
ATOM     30  C   UNL A   1      40.720  22.169  27.587  1.00  0.00     0.016 A 
ATOM     31  C   UNL A   1      39.667  24.601  26.665  1.00  0.00     0.010 A 
ATOM     32  C   UNL A   1      41.247  23.384  28.039  1.00  0.00     0.010 A 
ATOM     33  C   UNL A   1      40.748  24.607  27.555  1.00  0.00    -0.014 A 
BRANCH  33  34
ATOM     34  C   UNL A   1      41.483  25.866  27.849  1.00  0.00     0.031 A 
ATOM     35  C   UNL A   1      40.771  26.949  28.617  1.00  0.00     0.074 A 
ATOM     36  C   UNL A   1      42.742  26.074  27.418  1.00  0.00     0.049 A 
ATOM     37  N   UNL A   1      41.170  28.158  28.914  1.00  0.00    -0.248 NA
ATOM     38  C   UNL A   1      39.422  26.623  29.109  1.00  0.00     0.031 C 
ATOM     39  C   UNL A   1      43.550  25.116  26.670  1.00  0.00     0.029 A 
ATOM     40  N   UNL A   1      43.545  27.185  27.521  1.00  0.00    -0.354 N 
ATOM     41  C   UNL A   1      40.110  28.751  29.589  1.00  0.00     0.074 A 
ATOM     42  C   UNL A   1      39.049  27.770  29.655  1.00  0.00     0.031 C 
ATOM     43  C   UNL A   1      44.722  25.692  26.348  1.00  0.00     0.029 A 
ATOM     44  C   UNL A   1      44.735  27.069  26.841  1.00  0.00     0.049 A 
ATOM     45  H   UNL A   1      43.293  27.988  28.033  1.00  0.00     0.167 HD
ATOM     46  C   UNL A   1      40.025  29.996  30.117  1.00  0.00     0.034 A 
ATOM     47  C   UNL A   1      45.707  27.978  26.613  1.00  0.00     0.034 A 
ATOM     48  C   UNL A   1      41.083  30.969  30.071  1.00  0.00     0.049 A 
ATOM     49  C   UNL A   1      45.581  29.367  27.191  1.00  0.00     0.074 A 
ATOM     50  C   UNL A   1      41.109  32.235  30.630  1.00  0.00     0.029 A 
ATOM     51  N   UNL A   1      42.291  30.797  29.416  1.00  0.00    -0.354 N 
ATOM     52  N   UNL A   1      44.623  29.874  27.929  1.00  0.00    -0.248 NA
ATOM     53  C   UNL A   1      46.688  30.301  26.928  1.00  0.00     0.031 C 
ATOM     54  C   UNL A   1      42.317  32.844  30.276  1.00  0.00     0.029 A 
ATOM     55  C   UNL A   1      43.063  31.940  29.539  1.00  0.00     0.049 A 
ATOM     56  H   UNL A   1      42.561  29.981  28.933  1.00  0.00     0.167 HD
ATOM     57  C   UNL A   1      45.028  31.166  28.250  1.00  0.00     0.074 A 
ATOM     58  C   UNL A   1      46.328  31.360  27.642  1.00  0.00     0.031 C 
ATOM     59  C   UNL A   1      44.379  32.110  28.976  1.00  0.00     0.034 A 
BRANCH  46  60
ATOM     60  C   UNL A   1      38.741  30.379  30.804  1.00  0.00     0.023 A 
ATOM     61  C   UNL A   1      38.566  30.103  32.174  1.00  0.00     0.012 A 
ATOM     62  C   UNL A   1      37.730  31.066  30.102  1.00  0.00     0.148 A 
ATOM     63  C   UNL A   1      37.392  30.476  32.828  1.00  0.00     0.002 A 
ATOM     64  C   UNL A   1      36.585  31.476  30.770  1.00  0.00     0.091 A 
ATOM     65  F   UNL A   1      37.907  31.298  28.793  1.00  0.00    -0.205 F 
ATOM     66  C   UNL A   1      36.408  31.172  32.130  1.00  0.00     0.022 A 
BRANCH  64  67
ATOM     67  S   UNL A   1      35.299  32.451  29.982  1.00  0.00     0.127 S 
ATOM     68  O   UNL A   1      34.356  32.640  31.084  1.00  0.00    -0.237 OA
ATOM     69  O   UNL A   1      36.026  33.658  29.589  1.00  0.00    -0.237 OA
ATOM     70  O   UNL A   1      34.807  31.648  28.872  1.00  0.00    -0.744 OA
ENDBRANCH  64  67
ENDBRANCH  46  60
BRANCH  47  71
ATOM     71  C   UNL A   1      46.906  27.603  25.809  1.00  0.00     0.023 A 
ATOM     72  C   UNL A   1      46.916  27.836  24.419  1.00  0.00     0.012 A 
ATOM     73  C   UNL A   1      48.034  27.013  26.413  1.00  0.00     0.148 A 
ATOM     74  C   UNL A   1      48.012  27.460  23.642  1.00  0.00     0.002 A 
ATOM     75  C   UNL A   1      49.146  26.696  25.643  1.00  0.00     0.091 A 
ATOM     76  F   UNL A   1      47.997  26.782  27.733  1.00  0.00    -0.205 F 
ATOM     77  C   UNL A   1      49.130  26.901  24.255  1.00  0.00     0.022 A 
BRANCH  75  78
ATOM     78  S   UNL A   1      50.675  26.083  26.358  1.00  0.00     0.127 S 
ATOM     79  O   UNL A   1      51.518  25.928  25.175  1.00  0.00    -0.237 OA
ATOM     80  O   UNL A   1      51.052  27.186  27.243  1.00  0.00    -0.237 OA
ATOM     81  O   UNL A   1      50.323  24.850  27.048  1.00  0.00    -0.744 OA
ENDBRANCH  75  78
ENDBRANCH  47  71
BRANCH  59  82
ATOM     82  C   UNL A   1      45.071  33.430  29.209  1.00  0.00     0.023 A 
ATOM     83  C   UNL A   1      45.967  33.581  30.286  1.00  0.00     0.012 A 
ATOM     84  C   UNL A   1      44.893  34.499  28.307  1.00  0.00     0.148 A 
ATOM     85  C   UNL A   1      46.645  34.784  30.483  1.00  0.00     0.002 A 
ATOM     86  C   UNL A   1      45.611  35.677  28.478  1.00  0.00     0.091 A 
ATOM     87  F   UNL A   1      44.026  34.343  27.295  1.00  0.00    -0.205 F 
ATOM     88  C   UNL A   1      46.477  35.826  29.573  1.00  0.00     0.022 A 
BRANCH  86  89
ATOM     89  S   UNL A   1      45.535  37.035  27.303  1.00  0.00     0.127 S 
ATOM     90  O   UNL A   1      46.132  38.126  28.071  1.00  0.00    -0.237 OA
ATOM     91  O   UNL A   1      46.361  36.539  26.203  1.00  0.00    -0.237 OA
ATOM     92  O   UNL A   1      44.126  37.204  26.974  1.00  0.00    -0.744 OA
ENDBRANCH  86  89
ENDBRANCH  59  82
ENDBRANCH  33  34
ENDBRANCH  26  28
ENDBRANCH  25  26
ENDBRANCH  24  25
ENDBRANCH  23  24
ENDBRANCH   1  23
TORSDOF 20
ENDMDL
MODEL 2
REMARK VINA RESULT:     -10.8      0.499      7.708
REMARK SMILES CC1(C)CC2=NC(=O)[C@H](C(=O)OCCOCCOCCOC(=O)c3ccc(-c4c5nc(c(-c6cccc(S(=O)(=O)[O-])c6F)c6ccc([nH]6)c(-c6cccc(S(=O)(=O)[O-])c6F)c6nc(c(-c7cccc(S(=O)(=O)[O-])c7F)c7ccc4[nH]7)C=C6)C=C5)cc3)C=C2CS1
REMARK SMILES IDX 18 1 17 2 16 3 15 4 14 5 13 6 12 7 10 8 11 9 9 10 1 11 2 12
REMARK SMILES IDX 3 13 4 14 90 15 5 16 89 17 6 18 88 19 7 20 87 21 8 22 19 23
REMARK SMILES IDX 20 24 21 25 22 26 23 27 24 28 25 29 86 30 26 31 85 32 27 33
REMARK SMILES IDX 28 34 29 35 79 36 30 37 84 38 78 39 80 40 31 41 83 42 77 43
REMARK SMILES IDX 76 44 32 46 64 47 44 48 63 49 45 50 48 51 62 52 81 53 46 54
REMARK SMILES IDX 47 55 61 57 82 58 49 59 33 60 34 61 42 62 35 63 37 64 43 65
REMARK SMILES IDX 36 66 38 67 39 68 40 69 41 70 65 71 66 72 74 73 67 74 69 75
REMARK SMILES IDX 75 76 68 77 70 78 71 79 72 80 73 81 50 82 51 83 59 84 52 85
REMARK SMILES IDX 54 86 60 87 53 88 55 89 56 90 57 91 58 92
REMARK H PARENT 80 45 48 56
REMARK Flexibility Score: inf
ROOT
ATOM      1  O   UNL A   1      35.445  19.147  24.673  1.00  0.00    -0.376 OA
ENDROOT
BRANCH   1   2
ATOM      2  C   UNL A   1      34.685  18.022  24.276  1.00  0.00     0.188 C 
BRANCH   2   3
ATOM      3  C   UNL A   1      33.378  17.836  25.071  1.00  0.00     0.188 C 
BRANCH   3   4
ATOM      4  O   UNL A   1      32.298  18.751  24.894  1.00  0.00    -0.376 OA
BRANCH   4   5
ATOM      5  C   UNL A   1      32.204  19.505  23.699  1.00  0.00     0.202 C 
BRANCH   5   6
ATOM      6  C   UNL A   1      32.342  21.030  23.810  1.00  0.00     0.261 C 
BRANCH   6   7
ATOM      7  O   UNL A   1      33.096  21.500  24.951  1.00  0.00    -0.462 OA
BRANCH   7   8
ATOM      8  C   UNL A   1      33.016  22.825  25.218  1.00  0.00     0.322 C 
ATOM      9  O   UNL A   1      34.008  23.530  25.402  1.00  0.00    -0.251 OA
BRANCH   8  10
ATOM     10  C   UNL A   1      31.619  23.410  25.322  1.00  0.00     0.213 C 
ATOM     11  C   UNL A   1      31.939  30.036  26.120  1.00  0.00     0.023 C 
ATOM     12  C   UNL A   1      32.226  28.602  25.632  1.00  0.00     0.016 C 
ATOM     13  C   UNL A   1      33.743  28.361  25.650  1.00  0.00     0.023 C 
ATOM     14  C   UNL A   1      31.507  27.586  26.520  1.00  0.00     0.074 C 
ATOM     15  S   UNL A   1      31.505  28.488  23.951  1.00  0.00    -0.150 SA
ATOM     16  C   UNL A   1      31.530  26.131  26.056  1.00  0.00     0.049 C 
ATOM     17  C   UNL A   1      31.954  26.803  23.547  1.00  0.00     0.107 C 
ATOM     18  N   UNL A   1      31.344  25.251  26.990  1.00  0.00    -0.217 NA
ATOM     19  C   UNL A   1      31.631  25.807  24.605  1.00  0.00    -0.019 C 
ATOM     20  C   UNL A   1      31.107  23.938  26.643  1.00  0.00     0.264 C 
ATOM     21  C   UNL A   1      31.574  24.502  24.294  1.00  0.00     0.004 C 
ATOM     22  O   UNL A   1      30.419  23.217  27.366  1.00  0.00    -0.271 OA
ENDBRANCH   8  10
ENDBRANCH   7   8
ENDBRANCH   6   7
ENDBRANCH   5   6
ENDBRANCH   4   5
ENDBRANCH   3   4
ENDBRANCH   2   3
ENDBRANCH   1   2
BRANCH   1  23
ATOM     23  C   UNL A   1      36.796  18.889  24.994  1.00  0.00     0.202 C 
BRANCH  23  24
ATOM     24  C   UNL A   1      37.728  20.049  24.631  1.00  0.00     0.261 C 
BRANCH  24  25
ATOM     25  O   UNL A   1      38.061  20.933  25.719  1.00  0.00    -0.460 OA
BRANCH  25  26
ATOM     26  C   UNL A   1      39.332  20.888  26.181  1.00  0.00     0.338 C 
ATOM     27  O   UNL A   1      40.108  19.950  26.080  1.00  0.00    -0.246 OA
BRANCH  26  28
ATOM     28  C   UNL A   1      39.695  22.243  26.662  1.00  0.00     0.060 A 
ATOM     29  C   UNL A   1      38.992  23.357  26.182  1.00  0.00     0.016 A 
ATOM     30  C   UNL A   1      40.722  22.410  27.594  1.00  0.00     0.016 A 
ATOM     31  C   UNL A   1      39.342  24.644  26.605  1.00  0.00     0.010 A 
ATOM     32  C   UNL A   1      41.079  23.699  28.003  1.00  0.00     0.010 A 
ATOM     33  C   UNL A   1      40.416  24.827  27.485  1.00  0.00    -0.014 A 
BRANCH  33  34
ATOM     34  C   UNL A   1      40.973  26.183  27.733  1.00  0.00     0.031 A 
ATOM     35  C   UNL A   1      42.374  26.479  27.265  1.00  0.00     0.074 A 
ATOM     36  C   UNL A   1      40.278  27.131  28.390  1.00  0.00     0.049 A 
ATOM     37  N   UNL A   1      43.103  27.549  27.444  1.00  0.00    -0.248 NA
ATOM     38  C   UNL A   1      43.046  25.415  26.500  1.00  0.00     0.031 C 
ATOM     39  C   UNL A   1      38.914  26.986  28.893  1.00  0.00     0.029 A 
ATOM     40  N   UNL A   1      40.647  28.398  28.776  1.00  0.00    -0.354 N 
ATOM     41  C   UNL A   1      44.330  27.275  26.851  1.00  0.00     0.074 A 
ATOM     42  C   UNL A   1      44.249  25.936  26.311  1.00  0.00     0.031 C 
ATOM     43  C   UNL A   1      38.574  28.106  29.555  1.00  0.00     0.029 A 
ATOM     44  C   UNL A   1      39.704  29.034  29.549  1.00  0.00     0.049 A 
ATOM     45  H   UNL A   1      41.504  28.811  28.524  1.00  0.00     0.167 HD
ATOM     46  C   UNL A   1      45.425  28.067  26.754  1.00  0.00     0.034 A 
ATOM     47  C   UNL A   1      39.757  30.214  30.203  1.00  0.00     0.034 A 
ATOM     48  C   UNL A   1      45.505  29.406  27.273  1.00  0.00     0.049 A 
ATOM     49  C   UNL A   1      40.996  31.069  30.101  1.00  0.00     0.074 A 
ATOM     50  C   UNL A   1      46.553  30.304  27.170  1.00  0.00     0.029 A 
ATOM     51  N   UNL A   1      44.512  30.033  28.007  1.00  0.00    -0.354 N 
ATOM     52  N   UNL A   1      42.105  30.846  29.437  1.00  0.00    -0.248 NA
ATOM     53  C   UNL A   1      40.980  32.356  30.816  1.00  0.00     0.031 C 
ATOM     54  C   UNL A   1      46.209  31.460  27.878  1.00  0.00     0.029 A 
ATOM     55  C   UNL A   1      44.928  31.300  28.380  1.00  0.00     0.049 A 
ATOM     56  H   UNL A   1      43.638  29.636  28.230  1.00  0.00     0.167 HD
ATOM     57  C   UNL A   1      42.897  31.975  29.621  1.00  0.00     0.074 A 
ATOM     58  C   UNL A   1      42.135  32.891  30.444  1.00  0.00     0.031 C 
ATOM     59  C   UNL A   1      44.146  32.229  29.156  1.00  0.00     0.034 A 
BRANCH  46  60
ATOM     60  C   UNL A   1      46.632  27.508  26.049  1.00  0.00     0.023 A 
ATOM     61  C   UNL A   1      46.758  27.644  24.652  1.00  0.00     0.012 A 
ATOM     62  C   UNL A   1      47.671  26.898  26.781  1.00  0.00     0.148 A 
ATOM     63  C   UNL A   1      47.884  27.154  23.991  1.00  0.00     0.002 A 
ATOM     64  C   UNL A   1      48.810  26.456  26.121  1.00  0.00     0.091 A 
ATOM     65  F   UNL A   1      47.522  26.758  28.106  1.00  0.00    -0.205 F 
ATOM     66  C   UNL A   1      48.913  26.571  24.725  1.00  0.00     0.022 A 
BRANCH  64  67
ATOM     67  S   UNL A   1      50.226  25.768  26.986  1.00  0.00     0.127 S 
ATOM     68  O   UNL A   1      51.274  25.886  25.974  1.00  0.00    -0.237 OA
ATOM     69  O   UNL A   1      50.367  26.684  28.119  1.00  0.00    -0.237 OA
ATOM     70  O   UNL A   1      49.857  24.407  27.345  1.00  0.00    -0.744 OA
ENDBRANCH  64  67
ENDBRANCH  46  60
BRANCH  47  71
ATOM     71  C   UNL A   1      38.589  30.675  31.008  1.00  0.00     0.023 A 
ATOM     72  C   UNL A   1      38.563  30.443  32.398  1.00  0.00     0.012 A 
ATOM     73  C   UNL A   1      37.502  31.337  30.404  1.00  0.00     0.148 A 
ATOM     74  C   UNL A   1      37.464  30.833  33.165  1.00  0.00     0.002 A 
ATOM     75  C   UNL A   1      36.438  31.776  31.181  1.00  0.00     0.091 A 
ATOM     76  F   UNL A   1      37.537  31.531  29.078  1.00  0.00    -0.205 F 
ATOM     77  C   UNL A   1      36.408  31.508  32.559  1.00  0.00     0.022 A 
BRANCH  75  78
ATOM     78  S   UNL A   1      35.090  32.758  30.513  1.00  0.00     0.127 S 
ATOM     79  O   UNL A   1      34.178  32.828  31.651  1.00  0.00    -0.237 OA
ATOM     80  O   UNL A   1      35.770  34.013  30.190  1.00  0.00    -0.237 OA
ATOM     81  O   UNL A   1      34.601  32.021  29.357  1.00  0.00    -0.744 OA
ENDBRANCH  75  78
ENDBRANCH  47  71
BRANCH  59  82
ATOM     82  C   UNL A   1      44.766  33.567  29.474  1.00  0.00     0.023 A 
ATOM     83  C   UNL A   1      45.537  33.732  30.642  1.00  0.00     0.012 A 
ATOM     84  C   UNL A   1      44.648  34.642  28.569  1.00  0.00     0.148 A 
ATOM     85  C   UNL A   1      46.150  34.954  30.922  1.00  0.00     0.002 A 
ATOM     86  C   UNL A   1      45.305  35.840  28.828  1.00  0.00     0.091 A 
ATOM     87  F   UNL A   1      43.899  34.472  27.469  1.00  0.00    -0.205 F 
ATOM     88  C   UNL A   1      46.044  36.002  30.010  1.00  0.00     0.022 A 
BRANCH  86  89
ATOM     89  S   UNL A   1      45.307  37.211  27.665  1.00  0.00     0.127 S 
ATOM     90  O   UNL A   1      45.871  38.288  28.478  1.00  0.00    -0.237 OA
ATOM     91  O   UNL A   1      46.190  36.719  26.608  1.00  0.00    -0.237 OA
ATOM     92  O   UNL A   1      43.921  37.397  27.259  1.00  0.00    -0.744 OA
ENDBRANCH  86  89
ENDBRANCH  59  82
ENDBRANCH  33  34
ENDBRANCH  26  28
ENDBRANCH  25  26
ENDBRANCH  24  25
ENDBRANCH  23  24
ENDBRANCH   1  23
TORSDOF 20
ENDMDL
MODEL 3
REMARK VINA RESULT:     -10.8      4.966      8.491
REMARK SMILES CC1(C)CC2=NC(=O)[C@H](C(=O)OCCOCCOCCOC(=O)c3ccc(-c4c5nc(c(-c6cccc(S(=O)(=O)[O-])c6F)c6ccc([nH]6)c(-c6cccc(S(=O)(=O)[O-])c6F)c6nc(c(-c7cccc(S(=O)(=O)[O-])c7F)c7ccc4[nH]7)C=C6)C=C5)cc3)C=C2CS1
REMARK SMILES IDX 18 1 17 2 16 3 15 4 14 5 13 6 12 7 10 8 11 9 9 10 1 11 2 12
REMARK SMILES IDX 3 13 4 14 90 15 5 16 89 17 6 18 88 19 7 20 87 21 8 22 19 23
REMARK SMILES IDX 20 24 21 25 22 26 23 27 24 28 25 29 86 30 26 31 85 32 27 33
REMARK SMILES IDX 28 34 29 35 79 36 30 37 84 38 78 39 80 40 31 41 83 42 77 43
REMARK SMILES IDX 76 44 32 46 64 47 44 48 63 49 45 50 48 51 62 52 81 53 46 54
REMARK SMILES IDX 47 55 61 57 82 58 49 59 33 60 34 61 42 62 35 63 37 64 43 65
REMARK SMILES IDX 36 66 38 67 39 68 40 69 41 70 65 71 66 72 74 73 67 74 69 75
REMARK SMILES IDX 75 76 68 77 70 78 71 79 72 80 73 81 50 82 51 83 59 84 52 85
REMARK SMILES IDX 54 86 60 87 53 88 55 89 56 90 57 91 58 92
REMARK H PARENT 80 45 48 56
REMARK Flexibility Score: inf
ROOT
ATOM      1  O   UNL A   1      32.691  30.576  26.419  1.00  0.00    -0.376 OA
ENDROOT
BRANCH   1   2
ATOM      2  C   UNL A   1      32.622  29.409  27.215  1.00  0.00     0.188 C 
BRANCH   2   3
ATOM      3  C   UNL A   1      33.518  28.258  26.719  1.00  0.00     0.188 C 
BRANCH   3   4
ATOM      4  O   UNL A   1      32.953  26.973  26.461  1.00  0.00    -0.376 OA
BRANCH   4   5
ATOM      5  C   UNL A   1      31.548  26.801  26.507  1.00  0.00     0.202 C 
BRANCH   5   6
ATOM      6  C   UNL A   1      30.983  25.456  26.029  1.00  0.00     0.261 C 
BRANCH   6   7
ATOM      7  O   UNL A   1      31.745  24.800  24.990  1.00  0.00    -0.462 OA
BRANCH   7   8
ATOM      8  C   UNL A   1      31.123  24.643  23.798  1.00  0.00     0.322 C 
ATOM      9  O   UNL A   1      30.010  25.109  23.559  1.00  0.00    -0.251 OA
BRANCH   8  10
ATOM     10  C   UNL A   1      31.857  23.815  22.758  1.00  0.00     0.213 C 
ATOM     11  C   UNL A   1      37.748  21.776  25.162  1.00  0.00     0.023 C 
ATOM     12  C   UNL A   1      36.254  22.142  25.057  1.00  0.00     0.016 C 
ATOM     13  C   UNL A   1      35.855  22.974  26.285  1.00  0.00     0.023 C 
ATOM     14  C   UNL A   1      35.989  22.919  23.768  1.00  0.00     0.074 C 
ATOM     15  S   UNL A   1      35.352  20.550  24.950  1.00  0.00    -0.150 SA
ATOM     16  C   UNL A   1      34.526  23.188  23.417  1.00  0.00     0.049 C 
ATOM     17  C   UNL A   1      33.672  21.164  24.868  1.00  0.00     0.107 C 
ATOM     18  N   UNL A   1      34.324  24.195  22.626  1.00  0.00    -0.217 NA
ATOM     19  C   UNL A   1      33.460  22.251  23.873  1.00  0.00    -0.019 C 
ATOM     20  C   UNL A   1      33.080  24.371  22.062  1.00  0.00     0.264 C 
ATOM     21  C   UNL A   1      32.217  22.537  23.457  1.00  0.00     0.004 C 
ATOM     22  O   UNL A   1      32.965  24.910  20.960  1.00  0.00    -0.271 OA
ENDBRANCH   8  10
ENDBRANCH   7   8
ENDBRANCH   6   7
ENDBRANCH   5   6
ENDBRANCH   4   5
ENDBRANCH   3   4
ENDBRANCH   2   3
ENDBRANCH   1   2
BRANCH   1  23
ATOM     23  C   UNL A   1      31.494  31.321  26.322  1.00  0.00     0.202 C 
BRANCH  23  24
ATOM     24  C   UNL A   1      31.631  32.743  26.873  1.00  0.00     0.261 C 
BRANCH  24  25
ATOM     25  O   UNL A   1      32.960  33.296  26.826  1.00  0.00    -0.460 OA
BRANCH  25  26
ATOM     26  C   UNL A   1      33.449  33.824  27.972  1.00  0.00     0.338 C 
ATOM     27  O   UNL A   1      32.934  34.708  28.640  1.00  0.00    -0.246 OA
BRANCH  26  28
ATOM     28  C   UNL A   1      34.617  33.015  28.391  1.00  0.00     0.060 A 
ATOM     29  C   UNL A   1      34.417  31.720  28.893  1.00  0.00     0.016 A 
ATOM     30  C   UNL A   1      35.911  33.530  28.278  1.00  0.00     0.016 A 
ATOM     31  C   UNL A   1      35.509  30.955  29.319  1.00  0.00     0.010 A 
ATOM     32  C   UNL A   1      36.998  32.768  28.719  1.00  0.00     0.010 A 
ATOM     33  C   UNL A   1      36.802  31.490  29.274  1.00  0.00    -0.014 A 
BRANCH  33  34
ATOM     34  C   UNL A   1      37.930  30.810  29.964  1.00  0.00     0.031 A 
ATOM     35  C   UNL A   1      38.247  31.208  31.382  1.00  0.00     0.074 A 
ATOM     36  C   UNL A   1      38.689  29.884  29.348  1.00  0.00     0.049 A 
ATOM     37  N   UNL A   1      39.230  30.824  32.155  1.00  0.00    -0.248 NA
ATOM     38  C   UNL A   1      37.334  32.179  32.009  1.00  0.00     0.031 C 
ATOM     39  C   UNL A   1      38.495  29.401  27.984  1.00  0.00     0.029 A 
ATOM     40  N   UNL A   1      39.805  29.213  29.789  1.00  0.00    -0.354 N 
ATOM     41  C   UNL A   1      39.079  31.534  33.340  1.00  0.00     0.074 A 
ATOM     42  C   UNL A   1      37.912  32.374  33.185  1.00  0.00     0.031 C 
ATOM     43  C   UNL A   1      39.481  28.537  27.684  1.00  0.00     0.029 A 
ATOM     44  C   UNL A   1      40.392  28.429  28.823  1.00  0.00     0.049 A 
ATOM     45  H   UNL A   1      40.151  29.285  30.707  1.00  0.00     0.167 HD
ATOM     46  C   UNL A   1      39.834  31.486  34.463  1.00  0.00     0.034 A 
ATOM     47  C   UNL A   1      41.548  27.732  28.842  1.00  0.00     0.034 A 
ATOM     48  C   UNL A   1      40.984  30.639  34.631  1.00  0.00     0.049 A 
ATOM     49  C   UNL A   1      42.387  27.712  30.097  1.00  0.00     0.074 A 
ATOM     50  C   UNL A   1      41.777  30.481  35.755  1.00  0.00     0.029 A 
ATOM     51  N   UNL A   1      41.519  29.823  33.648  1.00  0.00    -0.354 N 
ATOM     52  N   UNL A   1      42.167  28.296  31.250  1.00  0.00    -0.248 NA
ATOM     53  C   UNL A   1      43.622  26.912  30.061  1.00  0.00     0.031 C 
ATOM     54  C   UNL A   1      42.816  29.601  35.437  1.00  0.00     0.029 A 
ATOM     55  C   UNL A   1      42.642  29.174  34.131  1.00  0.00     0.049 A 
ATOM     56  H   UNL A   1      41.154  29.721  32.739  1.00  0.00     0.167 HD
ATOM     57  C   UNL A   1      43.209  27.903  32.085  1.00  0.00     0.074 A 
ATOM     58  C   UNL A   1      44.052  27.016  31.312  1.00  0.00     0.031 C 
ATOM     59  C   UNL A   1      43.449  28.251  33.374  1.00  0.00     0.034 A 
BRANCH  46  60
ATOM     60  C   UNL A   1      39.436  32.375  35.612  1.00  0.00     0.023 A 
ATOM     61  C   UNL A   1      38.646  31.860  36.660  1.00  0.00     0.012 A 
ATOM     62  C   UNL A   1      39.896  33.705  35.682  1.00  0.00     0.148 A 
ATOM     63  C   UNL A   1      38.292  32.664  37.742  1.00  0.00     0.002 A 
ATOM     64  C   UNL A   1      39.580  34.485  36.787  1.00  0.00     0.091 A 
ATOM     65  F   UNL A   1      40.628  34.182  34.665  1.00  0.00    -0.205 F 
ATOM     66  C   UNL A   1      38.768  33.971  37.811  1.00  0.00     0.022 A 
BRANCH  64  67
ATOM     67  S   UNL A   1      40.212  36.151  37.010  1.00  0.00     0.127 S 
ATOM     68  O   UNL A   1      41.651  35.908  37.111  1.00  0.00    -0.237 OA
ATOM     69  O   UNL A   1      39.791  36.808  35.772  1.00  0.00    -0.237 OA
ATOM     70  O   UNL A   1      39.581  36.664  38.217  1.00  0.00    -0.744 OA
ENDBRANCH  64  67
ENDBRANCH  46  60
BRANCH  47  71
ATOM     71  C   UNL A   1      41.983  26.972  27.634  1.00  0.00     0.023 A 
ATOM     72  C   UNL A   1      42.582  27.655  26.557  1.00  0.00     0.012 A 
ATOM     73  C   UNL A   1      41.802  25.578  27.546  1.00  0.00     0.148 A 
ATOM     74  C   UNL A   1      42.963  26.969  25.403  1.00  0.00     0.002 A 
ATOM     75  C   UNL A   1      42.237  24.892  26.419  1.00  0.00     0.091 A 
ATOM     76  F   UNL A   1      41.213  24.949  28.573  1.00  0.00    -0.205 F 
ATOM     77  C   UNL A   1      42.801  25.588  25.338  1.00  0.00     0.022 A 
BRANCH  75  78
ATOM     78  S   UNL A   1      42.181  23.101  26.293  1.00  0.00     0.127 S 
ATOM     79  O   UNL A   1      40.749  22.838  26.410  1.00  0.00    -0.237 OA
ATOM     80  O   UNL A   1      42.741  22.879  24.960  1.00  0.00    -0.237 OA
ATOM     81  O   UNL A   1      43.005  22.602  27.385  1.00  0.00    -0.744 OA
ENDBRANCH  75  78
ENDBRANCH  47  71
BRANCH  59  82
ATOM     82  C   UNL A   1      44.644  27.640  34.065  1.00  0.00     0.023 A 
ATOM     83  C   UNL A   1      45.899  28.276  34.007  1.00  0.00     0.012 A 
ATOM     84  C   UNL A   1      44.499  26.471  34.841  1.00  0.00     0.148 A 
ATOM     85  C   UNL A   1      46.999  27.742  34.679  1.00  0.00     0.002 A 
ATOM     86  C   UNL A   1      45.586  25.973  35.551  1.00  0.00     0.091 A 
ATOM     87  F   UNL A   1      43.301  25.870  34.875  1.00  0.00    -0.205 F 
ATOM     88  C   UNL A   1      46.839  26.599  35.460  1.00  0.00     0.022 A 
BRANCH  86  89
ATOM     89  S   UNL A   1      45.452  24.565  36.660  1.00  0.00     0.127 S 
ATOM     90  O   UNL A   1      46.738  24.611  37.354  1.00  0.00    -0.237 OA
ATOM     91  O   UNL A   1      44.301  24.929  37.485  1.00  0.00    -0.237 OA
ATOM     92  O   UNL A   1      45.245  23.401  35.810  1.00  0.00    -0.744 OA
ENDBRANCH  86  89
ENDBRANCH  59  82
ENDBRANCH  33  34
ENDBRANCH  26  28
ENDBRANCH  25  26
ENDBRANCH  24  25
ENDBRANCH  23  24
ENDBRANCH   1  23
TORSDOF 20
ENDMDL
