MODEL 1
REMARK VINA RESULT:     -11.3      0.000      0.000
REMARK SMILES Nc1ccc(-c2cc(Cl)cc3c2O[C@H](C(F)(F)F)C(C(=O)OCCOCCOCCOC(=O)c2ccc(-c4c5nc(c(-c6cccc(S(=O)(=O)[O-])c6F)c6ccc([nH]6)c(-c6cccc(S(=O)(=O)[O-])c6F)c6nc(c(-c7cccc(S(=O)(=O)[O-])c7F)c7ccc4[nH]7)C=C6)C=C5)cc2)=C3)cc1
REMARK SMILES IDX 27 1 26 2 25 3 24 4 23 5 22 6 20 7 21 8 19 9 6 10 7 11 12 12
REMARK SMILES IDX 8 13 11 14 13 15 9 16 10 17 97 18 14 19 5 20 2 21 3 22 99 23
REMARK SMILES IDX 4 24 98 25 1 26 15 29 16 30 17 31 18 32 28 33 29 34 30 35
REMARK SMILES IDX 31 36 32 37 33 38 34 39 35 40 96 41 36 42 95 43 37 44 38 45
REMARK SMILES IDX 39 46 89 47 40 48 94 49 88 50 90 51 41 52 93 53 87 54 86 55
REMARK SMILES IDX 42 57 74 58 54 59 73 60 55 61 58 62 72 63 91 64 56 65 57 66
REMARK SMILES IDX 71 68 92 69 59 70 43 71 44 72 52 73 45 74 47 75 53 76 46 77
REMARK SMILES IDX 48 78 49 79 50 80 51 81 75 82 76 83 84 84 77 85 79 86 85 87
REMARK SMILES IDX 78 88 80 89 81 90 82 91 83 92 60 93 61 94 69 95 62 96 64 97
REMARK SMILES IDX 70 98 63 99 65 100 66 101 67 102 68 103
REMARK H PARENT 1 27 1 28 90 56 58 67
REMARK Flexibility Score: inf
ROOT
ATOM      1  C   UNL A   1      32.547  29.794  27.176  1.00  0.00     0.188 C 
ENDROOT
BRANCH   1   2
ATOM      2  C   UNL A   1      32.458  28.322  26.719  1.00  0.00     0.188 C 
BRANCH   2   3
ATOM      3  O   UNL A   1      31.375  28.081  25.849  1.00  0.00    -0.376 OA
BRANCH   3   4
ATOM      4  C   UNL A   1      31.540  28.214  24.452  1.00  0.00     0.202 C 
BRANCH   4   5
ATOM      5  C   UNL A   1      31.853  27.029  23.519  1.00  0.00     0.261 C 
BRANCH   5   6
ATOM      6  O   UNL A   1      32.775  26.046  23.996  1.00  0.00    -0.460 OA
BRANCH   6   7
ATOM      7  C   UNL A   1      33.576  25.467  23.073  1.00  0.00     0.338 C 
ATOM      8  O   UNL A   1      33.917  25.947  22.005  1.00  0.00    -0.246 OA
BRANCH   7   9
ATOM      9  C   UNL A   1      34.073  24.186  23.616  1.00  0.00     0.087 C 
ATOM     10  C   UNL A   1      35.534  20.479  24.936  1.00  0.00     0.026 A 
ATOM     11  C   UNL A   1      36.899  20.380  25.256  1.00  0.00     0.033 A 
ATOM     12  C   UNL A   1      35.029  21.748  24.569  1.00  0.00     0.135 A 
ATOM     13  C   UNL A   1      37.730  21.498  25.195  1.00  0.00     0.042 A 
ATOM     14  C   UNL A   1      35.879  22.857  24.457  1.00  0.00     0.019 A 
ATOM     15  O   UNL A   1      33.679  21.837  24.348  1.00  0.00    -0.475 OA
ATOM     16  Cl  UNL A   1      39.397  21.337  25.588  1.00  0.00    -0.084 Cl
ATOM     17  C   UNL A   1      37.232  22.731  24.788  1.00  0.00     0.032 A 
ATOM     18  C   UNL A   1      35.370  24.121  23.944  1.00  0.00     0.027 C 
ATOM     19  C   UNL A   1      33.106  23.050  23.804  1.00  0.00     0.316 C 
BRANCH  10  20
ATOM     20  C   UNL A   1      34.696  19.261  24.923  1.00  0.00    -0.014 A 
ATOM     21  C   UNL A   1      33.126  16.894  24.915  1.00  0.00     0.031 A 
ATOM     22  C   UNL A   1      34.451  16.868  24.487  1.00  0.00     0.026 A 
ATOM     23  C   UNL A   1      32.604  18.096  25.394  1.00  0.00     0.026 A 
ATOM     24  C   UNL A   1      35.223  18.034  24.487  1.00  0.00     0.011 A 
ATOM     25  C   UNL A   1      33.372  19.269  25.385  1.00  0.00     0.011 A 
BRANCH  21  26
ATOM     26  N   UNL A   1      32.388  15.722  24.986  1.00  0.00    -0.399 N 
ATOM     27  H   UNL A   1      31.711  15.608  25.691  1.00  0.00     0.156 HD
ATOM     28  H   UNL A   1      32.542  15.002  24.331  1.00  0.00     0.156 HD
ENDBRANCH  21  26
ENDBRANCH  10  20
BRANCH  19  29
ATOM     29  C   UNL A   1      32.364  22.681  22.512  1.00  0.00     0.430 C 
ATOM     30  F   UNL A   1      33.108  22.974  21.416  1.00  0.00    -0.167 F 
ATOM     31  F   UNL A   1      32.090  21.357  22.444  1.00  0.00    -0.167 F 
ATOM     32  F   UNL A   1      31.192  23.345  22.390  1.00  0.00    -0.167 F 
ENDBRANCH  19  29
ENDBRANCH   7   9
ENDBRANCH   6   7
ENDBRANCH   5   6
ENDBRANCH   4   5
ENDBRANCH   3   4
ENDBRANCH   2   3
ENDBRANCH   1   2
BRANCH   1  33
ATOM     33  O   UNL A   1      32.222  30.833  26.257  1.00  0.00    -0.376 OA
BRANCH  33  34
ATOM     34  C   UNL A   1      31.298  31.843  26.655  1.00  0.00     0.202 C 
BRANCH  34  35
ATOM     35  C   UNL A   1      31.807  33.271  26.892  1.00  0.00     0.261 C 
BRANCH  35  36
ATOM     36  O   UNL A   1      33.158  33.346  27.375  1.00  0.00    -0.460 OA
BRANCH  36  37
ATOM     37  C   UNL A   1      33.371  34.219  28.394  1.00  0.00     0.338 C 
ATOM     38  O   UNL A   1      32.639  35.124  28.753  1.00  0.00    -0.246 OA
BRANCH  37  39
ATOM     39  C   UNL A   1      34.555  33.774  29.160  1.00  0.00     0.060 A 
ATOM     40  C   UNL A   1      34.421  32.944  30.274  1.00  0.00     0.016 A 
ATOM     41  C   UNL A   1      35.821  34.215  28.749  1.00  0.00     0.016 A 
ATOM     42  C   UNL A   1      35.566  32.540  30.967  1.00  0.00     0.010 A 
ATOM     43  C   UNL A   1      36.960  33.827  29.458  1.00  0.00     0.010 A 
ATOM     44  C   UNL A   1      36.841  32.972  30.561  1.00  0.00    -0.014 A 
BRANCH  44  45
ATOM     45  C   UNL A   1      38.052  32.385  31.185  1.00  0.00     0.031 A 
ATOM     46  C   UNL A   1      38.642  32.929  32.450  1.00  0.00     0.074 A 
ATOM     47  C   UNL A   1      38.631  31.339  30.566  1.00  0.00     0.049 A 
ATOM     48  N   UNL A   1      39.627  32.445  33.161  1.00  0.00    -0.248 NA
ATOM     49  C   UNL A   1      38.063  34.169  32.987  1.00  0.00     0.031 C 
ATOM     50  C   UNL A   1      38.184  30.767  29.295  1.00  0.00     0.029 A 
ATOM     51  N   UNL A   1      39.716  30.577  30.915  1.00  0.00    -0.354 N 
ATOM     52  C   UNL A   1      39.791  33.313  34.232  1.00  0.00     0.074 A 
ATOM     53  C   UNL A   1      38.813  34.371  34.066  1.00  0.00     0.031 C 
ATOM     54  C   UNL A   1      38.981  29.737  28.975  1.00  0.00     0.029 A 
ATOM     55  C   UNL A   1      39.994  29.576  30.016  1.00  0.00     0.049 A 
ATOM     56  H   UNL A   1      40.244  30.733  31.731  1.00  0.00     0.167 HD
ATOM     57  C   UNL A   1      40.658  33.218  35.268  1.00  0.00     0.034 A 
ATOM     58  C   UNL A   1      40.944  28.623  30.031  1.00  0.00     0.034 A 
ATOM     59  C   UNL A   1      41.616  32.156  35.434  1.00  0.00     0.049 A 
ATOM     60  C   UNL A   1      41.879  28.530  31.200  1.00  0.00     0.074 A 
ATOM     61  C   UNL A   1      42.482  31.942  36.494  1.00  0.00     0.029 A 
ATOM     62  N   UNL A   1      41.850  31.143  34.519  1.00  0.00    -0.354 N 
ATOM     63  N   UNL A   1      41.912  29.266  32.283  1.00  0.00    -0.248 NA
ATOM     64  C   UNL A   1      42.884  27.458  31.168  1.00  0.00     0.031 C 
ATOM     65  C   UNL A   1      43.247  30.807  36.214  1.00  0.00     0.029 A 
ATOM     66  C   UNL A   1      42.852  30.306  34.984  1.00  0.00     0.049 A 
ATOM     67  H   UNL A   1      41.374  31.032  33.664  1.00  0.00     0.167 HD
ATOM     68  C   UNL A   1      42.925  28.736  33.072  1.00  0.00     0.074 A 
ATOM     69  C   UNL A   1      43.473  27.607  32.349  1.00  0.00     0.031 C 
ATOM     70  C   UNL A   1      43.366  29.160  34.280  1.00  0.00     0.034 A 
BRANCH  57  71
ATOM     71  C   UNL A   1      40.575  34.244  36.364  1.00  0.00     0.023 A 
ATOM     72  C   UNL A   1      39.497  34.183  37.269  1.00  0.00     0.012 A 
ATOM     73  C   UNL A   1      41.619  35.163  36.587  1.00  0.00     0.148 A 
ATOM     74  C   UNL A   1      39.457  35.023  38.380  1.00  0.00     0.002 A 
ATOM     75  C   UNL A   1      41.585  35.979  37.712  1.00  0.00     0.091 A 
ATOM     76  F   UNL A   1      42.630  35.205  35.708  1.00  0.00    -0.205 F 
ATOM     77  C   UNL A   1      40.504  35.912  38.608  1.00  0.00     0.022 A 
BRANCH  75  78
ATOM     78  S   UNL A   1      42.910  37.117  38.133  1.00  0.00     0.127 S 
ATOM     79  O   UNL A   1      43.157  37.769  36.846  1.00  0.00    -0.237 OA
ATOM     80  O   UNL A   1      42.274  37.972  39.137  1.00  0.00    -0.237 OA
ATOM     81  O   UNL A   1      44.005  36.297  38.632  1.00  0.00    -0.744 OA
ENDBRANCH  75  78
ENDBRANCH  57  71
BRANCH  58  82
ATOM     82  C   UNL A   1      40.980  27.627  28.929  1.00  0.00     0.023 A 
ATOM     83  C   UNL A   1      40.001  26.618  28.886  1.00  0.00     0.012 A 
ATOM     84  C   UNL A   1      41.916  27.732  27.883  1.00  0.00     0.148 A 
ATOM     85  C   UNL A   1      39.956  25.721  27.818  1.00  0.00     0.002 A 
ATOM     86  C   UNL A   1      41.843  26.860  26.804  1.00  0.00     0.091 A 
ATOM     87  F   UNL A   1      42.836  28.706  27.952  1.00  0.00    -0.205 F 
ATOM     88  C   UNL A   1      40.869  25.849  26.774  1.00  0.00     0.022 A 
BRANCH  86  89
ATOM     89  S   UNL A   1      42.904  27.010  25.364  1.00  0.00     0.127 S 
ATOM     90  O   UNL A   1      42.692  25.724  24.703  1.00  0.00    -0.237 OA
ATOM     91  O   UNL A   1      42.314  28.160  24.678  1.00  0.00    -0.237 OA
ATOM     92  O   UNL A   1      44.247  27.233  25.880  1.00  0.00    -0.744 OA
ENDBRANCH  86  89
ENDBRANCH  58  82
BRANCH  70  93
ATOM     93  C   UNL A   1      44.502  28.412  34.921  1.00  0.00     0.023 A 
ATOM     94  C   UNL A   1      45.817  28.893  34.768  1.00  0.00     0.012 A 
ATOM     95  C   UNL A   1      44.257  27.311  35.765  1.00  0.00     0.148 A 
ATOM     96  C   UNL A   1      46.875  28.284  35.441  1.00  0.00     0.002 A 
ATOM     97  C   UNL A   1      45.313  26.730  36.458  1.00  0.00     0.091 A 
ATOM     98  F   UNL A   1      42.998  26.867  35.885  1.00  0.00    -0.205 F 
ATOM     99  C   UNL A   1      46.622  27.212  36.294  1.00  0.00     0.022 A 
BRANCH  97 100
ATOM    100  S   UNL A   1      45.081  25.390  37.634  1.00  0.00     0.127 S 
ATOM    101  O   UNL A   1      46.217  25.585  38.534  1.00  0.00    -0.237 OA
ATOM    102  O   UNL A   1      43.779  25.712  38.216  1.00  0.00    -0.237 OA
ATOM    103  O   UNL A   1      45.113  24.159  36.857  1.00  0.00    -0.744 OA
ENDBRANCH  97 100
ENDBRANCH  70  93
ENDBRANCH  44  45
ENDBRANCH  37  39
ENDBRANCH  36  37
ENDBRANCH  35  36
ENDBRANCH  34  35
ENDBRANCH  33  34
ENDBRANCH   1  33
TORSDOF 23
ENDMDL
MODEL 2
REMARK VINA RESULT:     -11.2      1.595      2.165
REMARK SMILES Nc1ccc(-c2cc(Cl)cc3c2O[C@H](C(F)(F)F)C(C(=O)OCCOCCOCCOC(=O)c2ccc(-c4c5nc(c(-c6cccc(S(=O)(=O)[O-])c6F)c6ccc([nH]6)c(-c6cccc(S(=O)(=O)[O-])c6F)c6nc(c(-c7cccc(S(=O)(=O)[O-])c7F)c7ccc4[nH]7)C=C6)C=C5)cc2)=C3)cc1
REMARK SMILES IDX 27 1 26 2 25 3 24 4 23 5 22 6 20 7 21 8 19 9 6 10 7 11 12 12
REMARK SMILES IDX 8 13 11 14 13 15 9 16 10 17 97 18 14 19 5 20 2 21 3 22 99 23
REMARK SMILES IDX 4 24 98 25 1 26 15 29 16 30 17 31 18 32 28 33 29 34 30 35
REMARK SMILES IDX 31 36 32 37 33 38 34 39 35 40 96 41 36 42 95 43 37 44 38 45
REMARK SMILES IDX 39 46 89 47 40 48 94 49 88 50 90 51 41 52 93 53 87 54 86 55
REMARK SMILES IDX 42 57 74 58 54 59 73 60 55 61 58 62 72 63 91 64 56 65 57 66
REMARK SMILES IDX 71 68 92 69 59 70 43 71 44 72 52 73 45 74 47 75 53 76 46 77
REMARK SMILES IDX 48 78 49 79 50 80 51 81 75 82 76 83 84 84 77 85 79 86 85 87
REMARK SMILES IDX 78 88 80 89 81 90 82 91 83 92 60 93 61 94 69 95 62 96 64 97
REMARK SMILES IDX 70 98 63 99 65 100 66 101 67 102 68 103
REMARK H PARENT 1 27 1 28 90 56 58 67
REMARK Flexibility Score: inf
ROOT
ATOM      1  C   UNL A   1      30.231  29.973  23.471  1.00  0.00     0.188 C 
ENDROOT
BRANCH   1   2
ATOM      2  C   UNL A   1      29.337  28.902  22.808  1.00  0.00     0.188 C 
BRANCH   2   3
ATOM      3  O   UNL A   1      30.050  28.057  21.932  1.00  0.00    -0.376 OA
BRANCH   3   4
ATOM      4  C   UNL A   1      31.251  27.445  22.354  1.00  0.00     0.202 C 
BRANCH   4   5
ATOM      5  C   UNL A   1      31.295  26.156  23.195  1.00  0.00     0.261 C 
BRANCH   5   6
ATOM      6  O   UNL A   1      32.543  25.810  23.800  1.00  0.00    -0.460 OA
BRANCH   6   7
ATOM      7  C   UNL A   1      33.502  25.324  22.980  1.00  0.00     0.338 C 
ATOM      8  O   UNL A   1      33.961  25.875  21.993  1.00  0.00    -0.246 OA
BRANCH   7   9
ATOM      9  C   UNL A   1      33.998  24.048  23.536  1.00  0.00     0.087 C 
ATOM     10  C   UNL A   1      35.451  20.352  24.894  1.00  0.00     0.026 A 
ATOM     11  C   UNL A   1      36.817  20.252  25.209  1.00  0.00     0.033 A 
ATOM     12  C   UNL A   1      34.948  21.618  24.514  1.00  0.00     0.135 A 
ATOM     13  C   UNL A   1      37.652  21.365  25.131  1.00  0.00     0.042 A 
ATOM     14  C   UNL A   1      35.803  22.723  24.385  1.00  0.00     0.019 A 
ATOM     15  O   UNL A   1      33.598  21.709  24.298  1.00  0.00    -0.475 OA
ATOM     16  Cl  UNL A   1      39.320  21.203  25.520  1.00  0.00    -0.084 Cl
ATOM     17  C   UNL A   1      37.156  22.596  24.712  1.00  0.00     0.032 A 
ATOM     18  C   UNL A   1      35.295  23.982  23.859  1.00  0.00     0.027 C 
ATOM     19  C   UNL A   1      33.027  22.917  23.742  1.00  0.00     0.316 C 
BRANCH  10  20
ATOM     20  C   UNL A   1      34.608  19.136  24.899  1.00  0.00    -0.014 A 
ATOM     21  C   UNL A   1      33.030  16.775  24.924  1.00  0.00     0.031 A 
ATOM     22  C   UNL A   1      34.335  16.751  24.438  1.00  0.00     0.026 A 
ATOM     23  C   UNL A   1      32.535  17.971  25.444  1.00  0.00     0.026 A 
ATOM     24  C   UNL A   1      35.111  17.915  24.421  1.00  0.00     0.011 A 
ATOM     25  C   UNL A   1      33.306  19.141  25.420  1.00  0.00     0.011 A 
BRANCH  21  26
ATOM     26  N   UNL A   1      32.292  15.604  25.009  1.00  0.00    -0.399 N 
ATOM     27  H   UNL A   1      32.699  14.745  24.752  1.00  0.00     0.156 HD
ATOM     28  H   UNL A   1      31.360  15.632  25.326  1.00  0.00     0.156 HD
ENDBRANCH  21  26
ENDBRANCH  10  20
BRANCH  19  29
ATOM     29  C   UNL A   1      32.279  22.537  22.458  1.00  0.00     0.430 C 
ATOM     30  F   UNL A   1      32.931  22.985  21.356  1.00  0.00    -0.167 F 
ATOM     31  F   UNL A   1      32.167  21.195  22.314  1.00  0.00    -0.167 F 
ATOM     32  F   UNL A   1      31.030  23.054  22.422  1.00  0.00    -0.167 F 
ENDBRANCH  19  29
ENDBRANCH   7   9
ENDBRANCH   6   7
ENDBRANCH   5   6
ENDBRANCH   4   5
ENDBRANCH   3   4
ENDBRANCH   2   3
ENDBRANCH   1   2
BRANCH   1  33
ATOM     33  O   UNL A   1      30.474  29.912  24.873  1.00  0.00    -0.376 OA
BRANCH  33  34
ATOM     34  C   UNL A   1      31.820  29.869  25.339  1.00  0.00     0.202 C 
BRANCH  34  35
ATOM     35  C   UNL A   1      32.203  30.666  26.594  1.00  0.00     0.261 C 
BRANCH  35  36
ATOM     36  O   UNL A   1      33.602  30.623  26.918  1.00  0.00    -0.460 OA
BRANCH  36  37
ATOM     37  C   UNL A   1      34.085  31.706  27.582  1.00  0.00     0.338 C 
ATOM     38  O   UNL A   1      33.526  32.775  27.752  1.00  0.00    -0.246 OA
BRANCH  37  39
ATOM     39  C   UNL A   1      35.339  31.324  28.266  1.00  0.00     0.060 A 
ATOM     40  C   UNL A   1      36.419  32.205  28.332  1.00  0.00     0.016 A 
ATOM     41  C   UNL A   1      35.425  30.047  28.839  1.00  0.00     0.016 A 
ATOM     42  C   UNL A   1      37.585  31.808  28.994  1.00  0.00     0.010 A 
ATOM     43  C   UNL A   1      36.599  29.647  29.480  1.00  0.00     0.010 A 
ATOM     44  C   UNL A   1      37.681  30.531  29.577  1.00  0.00    -0.014 A 
BRANCH  44  45
ATOM     45  C   UNL A   1      38.843  30.198  30.435  1.00  0.00     0.031 A 
ATOM     46  C   UNL A   1      39.028  30.795  31.796  1.00  0.00     0.074 A 
ATOM     47  C   UNL A   1      39.758  29.339  29.945  1.00  0.00     0.049 A 
ATOM     48  N   UNL A   1      39.935  30.507  32.694  1.00  0.00    -0.248 NA
ATOM     49  C   UNL A   1      38.086  31.846  32.207  1.00  0.00     0.031 C 
ATOM     50  C   UNL A   1      39.717  28.747  28.607  1.00  0.00     0.029 A 
ATOM     51  N   UNL A   1      40.896  28.821  30.508  1.00  0.00    -0.354 N 
ATOM     52  C   UNL A   1      39.678  31.335  33.778  1.00  0.00     0.074 A 
ATOM     53  C   UNL A   1      38.539  32.155  33.418  1.00  0.00     0.031 C 
ATOM     54  C   UNL A   1      40.776  27.937  28.455  1.00  0.00     0.029 A 
ATOM     55  C   UNL A   1      41.569  27.954  29.682  1.00  0.00     0.049 A 
ATOM     56  H   UNL A   1      41.200  29.049  31.416  1.00  0.00     0.167 HD
ATOM     57  C   UNL A   1      40.319  31.383  34.971  1.00  0.00     0.034 A 
ATOM     58  C   UNL A   1      42.689  27.237  29.889  1.00  0.00     0.034 A 
ATOM     59  C   UNL A   1      41.441  30.554  35.327  1.00  0.00     0.049 A 
ATOM     60  C   UNL A   1      43.367  27.295  31.226  1.00  0.00     0.074 A 
ATOM     61  C   UNL A   1      42.103  30.484  36.542  1.00  0.00     0.029 A 
ATOM     62  N   UNL A   1      42.079  29.665  34.477  1.00  0.00    -0.354 N 
ATOM     63  N   UNL A   1      43.014  27.965  32.295  1.00  0.00    -0.248 NA
ATOM     64  C   UNL A   1      44.576  26.477  31.398  1.00  0.00     0.031 C 
ATOM     65  C   UNL A   1      43.148  29.564  36.422  1.00  0.00     0.029 A 
ATOM     66  C   UNL A   1      43.131  29.050  35.135  1.00  0.00     0.049 A 
ATOM     67  H   UNL A   1      41.822  29.495  33.541  1.00  0.00     0.167 HD
ATOM     68  C   UNL A   1      43.942  27.635  33.275  1.00  0.00     0.074 A 
ATOM     69  C   UNL A   1      44.867  26.693  32.676  1.00  0.00     0.031 C 
ATOM     70  C   UNL A   1      44.024  28.085  34.549  1.00  0.00     0.034 A 
BRANCH  57  71
ATOM     71  C   UNL A   1      39.787  32.308  36.030  1.00  0.00     0.023 A 
ATOM     72  C   UNL A   1      38.730  31.863  36.849  1.00  0.00     0.012 A 
ATOM     73  C   UNL A   1      40.414  33.538  36.309  1.00  0.00     0.148 A 
ATOM     74  C   UNL A   1      38.303  32.630  37.931  1.00  0.00     0.002 A 
ATOM     75  C   UNL A   1      39.998  34.284  37.407  1.00  0.00     0.091 A 
ATOM     76  F   UNL A   1      41.412  33.941  35.512  1.00  0.00    -0.205 F 
ATOM     77  C   UNL A   1      38.943  33.833  38.217  1.00  0.00     0.022 A 
BRANCH  75  78
ATOM     78  S   UNL A   1      40.792  35.819  37.900  1.00  0.00     0.127 S 
ATOM     79  O   UNL A   1      39.825  36.813  37.432  1.00  0.00    -0.237 OA
ATOM     80  O   UNL A   1      40.862  35.675  39.354  1.00  0.00    -0.237 OA
ATOM     81  O   UNL A   1      42.081  35.844  37.223  1.00  0.00    -0.744 OA
ENDBRANCH  75  78
ENDBRANCH  57  71
BRANCH  58  82
ATOM     82  C   UNL A   1      43.171  26.331  28.815  1.00  0.00     0.023 A 
ATOM     83  C   UNL A   1      42.583  25.060  28.675  1.00  0.00     0.012 A 
ATOM     84  C   UNL A   1      44.135  26.756  27.883  1.00  0.00     0.148 A 
ATOM     85  C   UNL A   1      42.953  24.221  27.624  1.00  0.00     0.002 A 
ATOM     86  C   UNL A   1      44.473  25.932  26.817  1.00  0.00     0.091 A 
ATOM     87  F   UNL A   1      44.676  27.973  28.042  1.00  0.00    -0.205 F 
ATOM     88  C   UNL A   1      43.888  24.661  26.690  1.00  0.00     0.022 A 
BRANCH  86  89
ATOM     89  S   UNL A   1      45.586  26.448  25.506  1.00  0.00     0.127 S 
ATOM     90  O   UNL A   1      45.620  25.259  24.659  1.00  0.00    -0.237 OA
ATOM     91  O   UNL A   1      44.867  27.589  24.938  1.00  0.00    -0.237 OA
ATOM     92  O   UNL A   1      46.842  26.786  26.161  1.00  0.00    -0.744 OA
ENDBRANCH  86  89
ENDBRANCH  58  82
BRANCH  70  93
ATOM     93  C   UNL A   1      45.149  27.577  35.407  1.00  0.00     0.023 A 
ATOM     94  C   UNL A   1      46.366  28.284  35.436  1.00  0.00     0.012 A 
ATOM     95  C   UNL A   1      44.961  26.477  36.269  1.00  0.00     0.148 A 
ATOM     96  C   UNL A   1      47.386  27.900  36.306  1.00  0.00     0.002 A 
ATOM     97  C   UNL A   1      45.970  26.121  37.156  1.00  0.00     0.091 A 
ATOM     98  F   UNL A   1      43.796  25.817  36.214  1.00  0.00    -0.205 F 
ATOM     99  C   UNL A   1      47.184  26.827  37.173  1.00  0.00     0.022 A 
BRANCH  97 100
ATOM    100  S   UNL A   1      45.781  24.801  38.361  1.00  0.00     0.127 S 
ATOM    101  O   UNL A   1      45.386  23.678  37.512  1.00  0.00    -0.237 OA
ATOM    102  O   UNL A   1      47.128  24.699  38.921  1.00  0.00    -0.237 OA
ATOM    103  O   UNL A   1      44.764  25.253  39.301  1.00  0.00    -0.744 OA
ENDBRANCH  97 100
ENDBRANCH  70  93
ENDBRANCH  44  45
ENDBRANCH  37  39
ENDBRANCH  36  37
ENDBRANCH  35  36
ENDBRANCH  34  35
ENDBRANCH  33  34
ENDBRANCH   1  33
TORSDOF 23
ENDMDL
MODEL 3
REMARK VINA RESULT:     -11.2      0.714      7.130
REMARK SMILES Nc1ccc(-c2cc(Cl)cc3c2O[C@H](C(F)(F)F)C(C(=O)OCCOCCOCCOC(=O)c2ccc(-c4c5nc(c(-c6cccc(S(=O)(=O)[O-])c6F)c6ccc([nH]6)c(-c6cccc(S(=O)(=O)[O-])c6F)c6nc(c(-c7cccc(S(=O)(=O)[O-])c7F)c7ccc4[nH]7)C=C6)C=C5)cc2)=C3)cc1
REMARK SMILES IDX 27 1 26 2 25 3 24 4 23 5 22 6 20 7 21 8 19 9 6 10 7 11 12 12
REMARK SMILES IDX 8 13 11 14 13 15 9 16 10 17 97 18 14 19 5 20 2 21 3 22 99 23
REMARK SMILES IDX 4 24 98 25 1 26 15 29 16 30 17 31 18 32 28 33 29 34 30 35
REMARK SMILES IDX 31 36 32 37 33 38 34 39 35 40 96 41 36 42 95 43 37 44 38 45
REMARK SMILES IDX 39 46 89 47 40 48 94 49 88 50 90 51 41 52 93 53 87 54 86 55
REMARK SMILES IDX 42 57 74 58 54 59 73 60 55 61 58 62 72 63 91 64 56 65 57 66
REMARK SMILES IDX 71 68 92 69 59 70 43 71 44 72 52 73 45 74 47 75 53 76 46 77
REMARK SMILES IDX 48 78 49 79 50 80 51 81 75 82 76 83 84 84 77 85 79 86 85 87
REMARK SMILES IDX 78 88 80 89 81 90 82 91 83 92 60 93 61 94 69 95 62 96 64 97
REMARK SMILES IDX 70 98 63 99 65 100 66 101 67 102 68 103
REMARK H PARENT 1 27 1 28 90 56 58 67
REMARK Flexibility Score: inf
ROOT
ATOM      1  C   UNL A   1      32.394  29.280  27.078  1.00  0.00     0.188 C 
ENDROOT
BRANCH   1   2
ATOM      2  C   UNL A   1      31.638  28.306  26.148  1.00  0.00     0.188 C 
BRANCH   2   3
ATOM      3  O   UNL A   1      31.254  28.898  24.928  1.00  0.00    -0.376 OA
BRANCH   3   4
ATOM      4  C   UNL A   1      31.603  28.291  23.700  1.00  0.00     0.202 C 
BRANCH   4   5
ATOM      5  C   UNL A   1      31.643  26.766  23.490  1.00  0.00     0.261 C 
BRANCH   5   6
ATOM      6  O   UNL A   1      32.790  26.067  23.979  1.00  0.00    -0.460 OA
BRANCH   6   7
ATOM      7  C   UNL A   1      33.579  25.473  23.055  1.00  0.00     0.338 C 
ATOM      8  O   UNL A   1      33.922  25.944  21.984  1.00  0.00    -0.246 OA
BRANCH   7   9
ATOM      9  C   UNL A   1      34.060  24.188  23.600  1.00  0.00     0.087 C 
ATOM     10  C   UNL A   1      35.475  20.465  24.928  1.00  0.00     0.026 A 
ATOM     11  C   UNL A   1      36.839  20.350  25.248  1.00  0.00     0.033 A 
ATOM     12  C   UNL A   1      34.986  21.740  24.558  1.00  0.00     0.135 A 
ATOM     13  C   UNL A   1      37.684  21.458  25.185  1.00  0.00     0.042 A 
ATOM     14  C   UNL A   1      35.850  22.838  24.444  1.00  0.00     0.019 A 
ATOM     15  O   UNL A   1      33.637  21.845  24.337  1.00  0.00    -0.475 OA
ATOM     16  Cl  UNL A   1      39.349  21.277  25.580  1.00  0.00    -0.084 Cl
ATOM     17  C   UNL A   1      37.201  22.697  24.776  1.00  0.00     0.032 A 
ATOM     18  C   UNL A   1      35.356  24.107  23.929  1.00  0.00     0.027 C 
ATOM     19  C   UNL A   1      33.079  23.063  23.791  1.00  0.00     0.316 C 
BRANCH  10  20
ATOM     20  C   UNL A   1      34.622  19.258  24.917  1.00  0.00    -0.014 A 
ATOM     21  C   UNL A   1      33.025  16.909  24.908  1.00  0.00     0.031 A 
ATOM     22  C   UNL A   1      34.311  16.894  24.375  1.00  0.00     0.026 A 
ATOM     23  C   UNL A   1      32.559  18.088  25.492  1.00  0.00     0.026 A 
ATOM     24  C   UNL A   1      35.097  18.052  24.375  1.00  0.00     0.011 A 
ATOM     25  C   UNL A   1      33.340  19.252  25.485  1.00  0.00     0.011 A 
BRANCH  21  26
ATOM     26  N   UNL A   1      32.280  15.742  24.976  1.00  0.00    -0.399 N 
ATOM     27  H   UNL A   1      32.308  15.096  24.234  1.00  0.00     0.156 HD
ATOM     28  H   UNL A   1      31.721  15.559  25.767  1.00  0.00     0.156 HD
ENDBRANCH  21  26
ENDBRANCH  10  20
BRANCH  19  29
ATOM     29  C   UNL A   1      32.334  22.702  22.499  1.00  0.00     0.430 C 
ATOM     30  F   UNL A   1      33.064  23.023  21.402  1.00  0.00    -0.167 F 
ATOM     31  F   UNL A   1      32.082  21.374  22.413  1.00  0.00    -0.167 F 
ATOM     32  F   UNL A   1      31.150  23.347  22.396  1.00  0.00    -0.167 F 
ENDBRANCH  19  29
ENDBRANCH   7   9
ENDBRANCH   6   7
ENDBRANCH   5   6
ENDBRANCH   4   5
ENDBRANCH   3   4
ENDBRANCH   2   3
ENDBRANCH   1   2
BRANCH   1  33
ATOM     33  O   UNL A   1      33.016  30.436  26.524  1.00  0.00    -0.376 OA
BRANCH  33  34
ATOM     34  C   UNL A   1      33.409  31.493  27.395  1.00  0.00     0.202 C 
BRANCH  34  35
ATOM     35  C   UNL A   1      32.573  32.780  27.434  1.00  0.00     0.261 C 
BRANCH  35  36
ATOM     36  O   UNL A   1      33.347  33.989  27.484  1.00  0.00    -0.460 OA
BRANCH  36  37
ATOM     37  C   UNL A   1      33.385  34.614  28.690  1.00  0.00     0.338 C 
ATOM     38  O   UNL A   1      32.571  35.402  29.136  1.00  0.00    -0.246 OA
BRANCH  37  39
ATOM     39  C   UNL A   1      34.479  34.028  29.494  1.00  0.00     0.060 A 
ATOM     40  C   UNL A   1      34.208  33.275  30.637  1.00  0.00     0.016 A 
ATOM     41  C   UNL A   1      35.802  34.256  29.089  1.00  0.00     0.016 A 
ATOM     42  C   UNL A   1      35.270  32.732  31.367  1.00  0.00     0.010 A 
ATOM     43  C   UNL A   1      36.860  33.730  29.833  1.00  0.00     0.010 A 
ATOM     44  C   UNL A   1      36.601  32.950  30.967  1.00  0.00    -0.014 A 
BRANCH  44  45
ATOM     45  C   UNL A   1      37.701  32.214  31.635  1.00  0.00     0.031 A 
ATOM     46  C   UNL A   1      38.399  31.059  30.984  1.00  0.00     0.074 A 
ATOM     47  C   UNL A   1      38.056  32.606  32.873  1.00  0.00     0.049 A 
ATOM     48  N   UNL A   1      39.448  30.400  31.407  1.00  0.00    -0.248 NA
ATOM     49  C   UNL A   1      37.859  30.576  29.705  1.00  0.00     0.031 C 
ATOM     50  C   UNL A   1      37.403  33.674  33.631  1.00  0.00     0.029 A 
ATOM     51  N   UNL A   1      39.042  32.153  33.711  1.00  0.00    -0.354 N 
ATOM     52  C   UNL A   1      39.700  29.426  30.451  1.00  0.00     0.074 A 
ATOM     53  C   UNL A   1      38.679  29.566  29.432  1.00  0.00     0.031 C 
ATOM     54  C   UNL A   1      38.013  33.802  34.819  1.00  0.00     0.029 A 
ATOM     55  C   UNL A   1      39.097  32.827  34.906  1.00  0.00     0.049 A 
ATOM     56  H   UNL A   1      39.652  31.416  33.477  1.00  0.00     0.167 HD
ATOM     57  C   UNL A   1      40.707  28.520  30.418  1.00  0.00     0.034 A 
ATOM     58  C   UNL A   1      39.934  32.692  35.951  1.00  0.00     0.034 A 
ATOM     59  C   UNL A   1      41.727  28.398  31.427  1.00  0.00     0.049 A 
ATOM     60  C   UNL A   1      41.052  31.694  35.880  1.00  0.00     0.074 A 
ATOM     61  C   UNL A   1      42.828  27.557  31.434  1.00  0.00     0.029 A 
ATOM     62  N   UNL A   1      41.769  29.117  32.610  1.00  0.00    -0.354 N 
ATOM     63  N   UNL A   1      41.370  30.891  34.894  1.00  0.00    -0.248 NA
ATOM     64  C   UNL A   1      41.944  31.604  37.044  1.00  0.00     0.031 C 
ATOM     65  C   UNL A   1      43.528  27.759  32.627  1.00  0.00     0.029 A 
ATOM     66  C   UNL A   1      42.870  28.734  33.359  1.00  0.00     0.049 A 
ATOM     67  H   UNL A   1      41.113  29.801  32.880  1.00  0.00     0.167 HD
ATOM     68  C   UNL A   1      42.511  30.215  35.309  1.00  0.00     0.074 A 
ATOM     69  C   UNL A   1      42.837  30.713  36.630  1.00  0.00     0.031 C 
ATOM     70  C   UNL A   1      43.213  29.260  34.654  1.00  0.00     0.034 A 
BRANCH  57  71
ATOM     71  C   UNL A   1      40.822  27.626  29.215  1.00  0.00     0.023 A 
ATOM     72  C   UNL A   1      39.937  26.536  29.093  1.00  0.00     0.012 A 
ATOM     73  C   UNL A   1      41.691  27.938  28.151  1.00  0.00     0.148 A 
ATOM     74  C   UNL A   1      39.915  25.768  27.931  1.00  0.00     0.002 A 
ATOM     75  C   UNL A   1      41.644  27.183  26.984  1.00  0.00     0.091 A 
ATOM     76  F   UNL A   1      42.528  28.975  28.294  1.00  0.00    -0.205 F 
ATOM     77  C   UNL A   1      40.759  26.098  26.874  1.00  0.00     0.022 A 
BRANCH  75  78
ATOM     78  S   UNL A   1      42.645  27.556  25.539  1.00  0.00     0.127 S 
ATOM     79  O   UNL A   1      41.988  28.760  25.030  1.00  0.00    -0.237 OA
ATOM     80  O   UNL A   1      43.964  27.784  26.129  1.00  0.00    -0.237 OA
ATOM     81  O   UNL A   1      42.554  26.389  24.673  1.00  0.00    -0.744 OA
ENDBRANCH  75  78
ENDBRANCH  57  71
BRANCH  58  82
ATOM     82  C   UNL A   1      39.785  33.605  37.114  1.00  0.00     0.023 A 
ATOM     83  C   UNL A   1      38.835  33.302  38.107  1.00  0.00     0.012 A 
ATOM     84  C   UNL A   1      40.638  34.712  37.283  1.00  0.00     0.148 A 
ATOM     85  C   UNL A   1      38.732  34.092  39.251  1.00  0.00     0.002 A 
ATOM     86  C   UNL A   1      40.556  35.473  38.443  1.00  0.00     0.091 A 
ATOM     87  F   UNL A   1      41.534  34.975  36.320  1.00  0.00    -0.205 F 
ATOM     88  C   UNL A   1      39.598  35.169  39.424  1.00  0.00     0.022 A 
BRANCH  86  89
ATOM     89  S   UNL A   1      41.694  36.813  38.806  1.00  0.00     0.127 S 
ATOM     90  O   UNL A   1      42.793  36.102  39.454  1.00  0.00    -0.237 OA
ATOM     91  O   UNL A   1      41.993  37.320  37.466  1.00  0.00    -0.237 OA
ATOM     92  O   UNL A   1      40.960  37.739  39.656  1.00  0.00    -0.744 OA
ENDBRANCH  86  89
ENDBRANCH  58  82
BRANCH  70  93
ATOM     93  C   UNL A   1      44.414  28.670  35.341  1.00  0.00     0.023 A 
ATOM     94  C   UNL A   1      45.690  29.201  35.072  1.00  0.00     0.012 A 
ATOM     95  C   UNL A   1      44.265  27.680  36.332  1.00  0.00     0.148 A 
ATOM     96  C   UNL A   1      46.806  28.749  35.776  1.00  0.00     0.002 A 
ATOM     97  C   UNL A   1      45.377  27.258  37.052  1.00  0.00     0.091 A 
ATOM     98  F   UNL A   1      43.040  27.186  36.562  1.00  0.00    -0.205 F 
ATOM     99  C   UNL A   1      46.648  27.787  36.772  1.00  0.00     0.022 A 
BRANCH  97 100
ATOM    100  S   UNL A   1      45.268  26.078  38.403  1.00  0.00     0.127 S 
ATOM    101  O   UNL A   1      45.459  24.808  37.704  1.00  0.00    -0.237 OA
ATOM    102  O   UNL A   1      46.387  26.479  39.255  1.00  0.00    -0.237 OA
ATOM    103  O   UNL A   1      43.952  26.264  38.998  1.00  0.00    -0.744 OA
ENDBRANCH  97 100
ENDBRANCH  70  93
ENDBRANCH  44  45
ENDBRANCH  37  39
ENDBRANCH  36  37
ENDBRANCH  35  36
ENDBRANCH  34  35
ENDBRANCH  33  34
ENDBRANCH   1  33
TORSDOF 23
ENDMDL
