MODEL 1
REMARK VINA RESULT:     -10.2      0.000      0.000
REMARK SMILES C[C@@H](Sc1nncn1C)[C@@H](C)C(=O)OCCOCCOCCOC(=O)c1ccc(-c2c3nc(c(-c4cccc(S(=O)(=O)[O-])c4F)c4ccc([nH]4)c(-c4cccc(S(=O)(=O)[O-])c4F)c4nc(c(-c5cccc(S(=O)(=O)[O-])c5F)c5ccc2[nH]5)C=C4)C=C3)cc1
REMARK SMILES IDX 18 1 17 2 16 3 15 4 14 5 12 6 13 7 10 8 11 9 2 10 1 11 3 12
REMARK SMILES IDX 4 13 5 14 8 15 6 16 7 17 9 18 19 19 20 20 21 21 22 22 23 23
REMARK SMILES IDX 24 24 25 25 26 26 27 27 88 28 28 29 87 30 29 31 30 32 31 33
REMARK SMILES IDX 81 34 32 35 86 36 80 37 82 38 33 39 85 40 79 41 78 42 34 44
REMARK SMILES IDX 66 45 46 46 65 47 47 48 50 49 64 50 83 51 48 52 49 53 63 55
REMARK SMILES IDX 84 56 51 57 35 58 36 59 44 60 37 61 39 62 45 63 38 64 40 65
REMARK SMILES IDX 41 66 42 67 43 68 67 69 68 70 76 71 69 72 71 73 77 74 70 75
REMARK SMILES IDX 72 76 73 77 74 78 75 79 52 80 53 81 61 82 54 83 56 84 62 85
REMARK SMILES IDX 55 86 57 87 58 88 59 89 60 90
REMARK H PARENT 82 43 50 54
REMARK Flexibility Score: inf
ROOT
ATOM      1  C   UNL A   1      30.895  27.975  24.868  1.00  0.00     0.188 C 
ENDROOT
BRANCH   1   2
ATOM      2  O   UNL A   1      30.052  27.289  23.943  1.00  0.00    -0.376 OA
BRANCH   2   3
ATOM      3  C   UNL A   1      30.256  27.460  22.553  1.00  0.00     0.202 C 
BRANCH   3   4
ATOM      4  C   UNL A   1      31.463  26.726  21.966  1.00  0.00     0.261 C 
BRANCH   4   5
ATOM      5  O   UNL A   1      31.819  25.490  22.620  1.00  0.00    -0.463 OA
BRANCH   5   6
ATOM      6  C   UNL A   1      33.150  25.313  22.843  1.00  0.00     0.309 C 
ATOM      7  O   UNL A   1      34.026  25.535  22.015  1.00  0.00    -0.252 OA
BRANCH   6   8
ATOM      8  C   UNL A   1      33.454  24.608  24.159  1.00  0.00     0.109 C 
ATOM      9  C   UNL A   1      34.384  25.558  24.923  1.00  0.00     0.021 C 
BRANCH   8  10
ATOM     10  C   UNL A   1      33.973  23.147  24.054  1.00  0.00     0.065 C 
ATOM     11  C   UNL A   1      35.466  23.055  23.712  1.00  0.00     0.021 C 
BRANCH  10  12
ATOM     12  S   UNL A   1      33.765  22.307  25.686  1.00  0.00    -0.082 SA
BRANCH  12  13
ATOM     13  C   UNL A   1      33.307  20.713  25.199  1.00  0.00     0.191 A 
ATOM     14  N   UNL A   1      32.083  20.290  24.991  1.00  0.00    -0.124 NA
ATOM     15  N   UNL A   1      34.188  19.691  24.986  1.00  0.00    -0.312 N 
ATOM     16  N   UNL A   1      32.153  18.950  24.673  1.00  0.00    -0.138 NA
ATOM     17  C   UNL A   1      33.421  18.603  24.693  1.00  0.00     0.226 A 
ATOM     18  C   UNL A   1      35.626  19.731  24.980  1.00  0.00     0.153 C 
ENDBRANCH  12  13
ENDBRANCH  10  12
ENDBRANCH   8  10
ENDBRANCH   6   8
ENDBRANCH   5   6
ENDBRANCH   4   5
ENDBRANCH   3   4
ENDBRANCH   2   3
ENDBRANCH   1   2
BRANCH   1  19
ATOM     19  C   UNL A   1      31.481  29.343  24.503  1.00  0.00     0.188 C 
BRANCH  19  20
ATOM     20  O   UNL A   1      31.794  30.119  25.658  1.00  0.00    -0.376 OA
BRANCH  20  21
ATOM     21  C   UNL A   1      30.953  31.256  25.830  1.00  0.00     0.202 C 
BRANCH  21  22
ATOM     22  C   UNL A   1      31.675  32.303  26.679  1.00  0.00     0.261 C 
BRANCH  22  23
ATOM     23  O   UNL A   1      32.862  31.791  27.308  1.00  0.00    -0.460 OA
BRANCH  23  24
ATOM     24  C   UNL A   1      33.717  32.727  27.773  1.00  0.00     0.338 C 
ATOM     25  O   UNL A   1      33.458  33.900  28.021  1.00  0.00    -0.246 OA
BRANCH  24  26
ATOM     26  C   UNL A   1      35.009  32.094  28.075  1.00  0.00     0.060 A 
ATOM     27  C   UNL A   1      35.049  30.705  28.228  1.00  0.00     0.016 A 
ATOM     28  C   UNL A   1      36.153  32.864  28.284  1.00  0.00     0.016 A 
ATOM     29  C   UNL A   1      36.227  30.082  28.642  1.00  0.00     0.010 A 
ATOM     30  C   UNL A   1      37.330  32.242  28.712  1.00  0.00     0.010 A 
ATOM     31  C   UNL A   1      37.360  30.853  28.935  1.00  0.00    -0.014 A 
BRANCH  31  32
ATOM     32  C   UNL A   1      38.511  30.235  29.642  1.00  0.00     0.031 A 
ATOM     33  C   UNL A   1      38.818  30.675  31.051  1.00  0.00     0.074 A 
ATOM     34  C   UNL A   1      39.270  29.292  29.054  1.00  0.00     0.049 A 
ATOM     35  N   UNL A   1      39.776  30.284  31.852  1.00  0.00    -0.248 NA
ATOM     36  C   UNL A   1      37.926  31.691  31.632  1.00  0.00     0.031 C 
ATOM     37  C   UNL A   1      39.081  28.777  27.700  1.00  0.00     0.029 A 
ATOM     38  N   UNL A   1      40.367  28.613  29.525  1.00  0.00    -0.354 N 
ATOM     39  C   UNL A   1      39.622  31.028  33.016  1.00  0.00     0.074 A 
ATOM     40  C   UNL A   1      38.486  31.900  32.814  1.00  0.00     0.031 C 
ATOM     41  C   UNL A   1      40.044  27.876  27.440  1.00  0.00     0.029 A 
ATOM     42  C   UNL A   1      40.926  27.763  28.601  1.00  0.00     0.049 A 
ATOM     43  H   UNL A   1      40.719  28.725  30.437  1.00  0.00     0.167 HD
ATOM     44  C   UNL A   1      40.347  30.979  34.159  1.00  0.00     0.034 A 
ATOM     45  C   UNL A   1      42.029  26.992  28.681  1.00  0.00     0.034 A 
ATOM     46  C   UNL A   1      41.460  30.097  34.377  1.00  0.00     0.049 A 
ATOM     47  C   UNL A   1      42.819  26.955  29.965  1.00  0.00     0.074 A 
ATOM     48  C   UNL A   1      42.236  29.953  35.515  1.00  0.00     0.029 A 
ATOM     49  N   UNL A   1      41.963  29.211  33.437  1.00  0.00    -0.354 N 
ATOM     50  N   UNL A   1      42.591  27.578  31.096  1.00  0.00    -0.248 NA
ATOM     51  C   UNL A   1      43.999  26.077  29.995  1.00  0.00     0.031 C 
ATOM     52  C   UNL A   1      43.213  28.984  35.259  1.00  0.00     0.029 A 
ATOM     53  C   UNL A   1      43.036  28.514  33.968  1.00  0.00     0.049 A 
ATOM     54  H   UNL A   1      41.609  29.093  32.526  1.00  0.00     0.167 HD
ATOM     55  C   UNL A   1      43.575  27.143  31.978  1.00  0.00     0.074 A 
ATOM     56  C   UNL A   1      44.386  26.184  31.259  1.00  0.00     0.031 C 
ATOM     57  C   UNL A   1      43.797  27.515  33.264  1.00  0.00     0.034 A 
BRANCH  44  58
ATOM     58  C   UNL A   1      39.929  31.890  35.283  1.00  0.00     0.023 A 
ATOM     59  C   UNL A   1      40.449  33.200  35.342  1.00  0.00     0.012 A 
ATOM     60  C   UNL A   1      38.997  31.471  36.251  1.00  0.00     0.148 A 
ATOM     61  C   UNL A   1      40.072  34.067  36.366  1.00  0.00     0.002 A 
ATOM     62  C   UNL A   1      38.595  32.356  37.245  1.00  0.00     0.091 A 
ATOM     63  F   UNL A   1      38.535  30.214  36.193  1.00  0.00    -0.205 F 
ATOM     64  C   UNL A   1      39.138  33.649  37.311  1.00  0.00     0.022 A 
BRANCH  62  65
ATOM     65  S   UNL A   1      37.343  31.933  38.462  1.00  0.00     0.127 S 
ATOM     66  O   UNL A   1      36.278  32.879  38.131  1.00  0.00    -0.237 OA
ATOM     67  O   UNL A   1      37.044  30.540  38.126  1.00  0.00    -0.237 OA
ATOM     68  O   UNL A   1      37.969  32.120  39.762  1.00  0.00    -0.744 OA
ENDBRANCH  62  65
ENDBRANCH  44  58
BRANCH  45  69
ATOM     69  C   UNL A   1      42.428  26.140  27.524  1.00  0.00     0.023 A 
ATOM     70  C   UNL A   1      43.232  26.688  26.506  1.00  0.00     0.012 A 
ATOM     71  C   UNL A   1      42.023  24.794  27.430  1.00  0.00     0.148 A 
ATOM     72  C   UNL A   1      43.602  25.920  25.400  1.00  0.00     0.002 A 
ATOM     73  C   UNL A   1      42.438  24.021  26.353  1.00  0.00     0.091 A 
ATOM     74  F   UNL A   1      41.236  24.298  28.396  1.00  0.00    -0.205 F 
ATOM     75  C   UNL A   1      43.215  24.585  25.330  1.00  0.00     0.022 A 
BRANCH  73  76
ATOM     76  S   UNL A   1      42.082  22.264  26.237  1.00  0.00     0.127 S 
ATOM     77  O   UNL A   1      40.624  22.259  26.156  1.00  0.00    -0.237 OA
ATOM     78  O   UNL A   1      42.770  21.896  24.998  1.00  0.00    -0.237 OA
ATOM     79  O   UNL A   1      42.653  21.671  27.439  1.00  0.00    -0.744 OA
ENDBRANCH  73  76
ENDBRANCH  45  69
BRANCH  57  80
ATOM     80  C   UNL A   1      44.941  26.860  33.995  1.00  0.00     0.023 A 
ATOM     81  C   UNL A   1      46.252  27.348  33.827  1.00  0.00     0.012 A 
ATOM     82  C   UNL A   1      44.711  25.799  34.894  1.00  0.00     0.148 A 
ATOM     83  C   UNL A   1      47.320  26.768  34.513  1.00  0.00     0.002 A 
ATOM     84  C   UNL A   1      45.774  25.255  35.608  1.00  0.00     0.091 A 
ATOM     85  F   UNL A   1      43.462  25.330  35.028  1.00  0.00    -0.205 F 
ATOM     86  C   UNL A   1      47.080  25.730  35.410  1.00  0.00     0.022 A 
BRANCH  84  87
ATOM     87  S   UNL A   1      45.529  23.979  36.848  1.00  0.00     0.127 S 
ATOM     88  O   UNL A   1      46.890  23.769  37.338  1.00  0.00    -0.237 OA
ATOM     89  O   UNL A   1      44.632  24.631  37.803  1.00  0.00    -0.237 OA
ATOM     90  O   UNL A   1      44.931  22.854  36.140  1.00  0.00    -0.744 OA
ENDBRANCH  84  87
ENDBRANCH  57  80
ENDBRANCH  31  32
ENDBRANCH  24  26
ENDBRANCH  23  24
ENDBRANCH  22  23
ENDBRANCH  21  22
ENDBRANCH  20  21
ENDBRANCH  19  20
ENDBRANCH   1  19
TORSDOF 23
ENDMDL
MODEL 2
REMARK VINA RESULT:      -9.7      1.883      2.255
REMARK SMILES C[C@@H](Sc1nncn1C)[C@@H](C)C(=O)OCCOCCOCCOC(=O)c1ccc(-c2c3nc(c(-c4cccc(S(=O)(=O)[O-])c4F)c4ccc([nH]4)c(-c4cccc(S(=O)(=O)[O-])c4F)c4nc(c(-c5cccc(S(=O)(=O)[O-])c5F)c5ccc2[nH]5)C=C4)C=C3)cc1
REMARK SMILES IDX 18 1 17 2 16 3 15 4 14 5 12 6 13 7 10 8 11 9 2 10 1 11 3 12
REMARK SMILES IDX 4 13 5 14 8 15 6 16 7 17 9 18 19 19 20 20 21 21 22 22 23 23
REMARK SMILES IDX 24 24 25 25 26 26 27 27 88 28 28 29 87 30 29 31 30 32 31 33
REMARK SMILES IDX 81 34 32 35 86 36 80 37 82 38 33 39 85 40 79 41 78 42 34 44
REMARK SMILES IDX 66 45 46 46 65 47 47 48 50 49 64 50 83 51 48 52 49 53 63 55
REMARK SMILES IDX 84 56 51 57 35 58 36 59 44 60 37 61 39 62 45 63 38 64 40 65
REMARK SMILES IDX 41 66 42 67 43 68 67 69 68 70 76 71 69 72 71 73 77 74 70 75
REMARK SMILES IDX 72 76 73 77 74 78 75 79 52 80 53 81 61 82 54 83 56 84 62 85
REMARK SMILES IDX 55 86 57 87 58 88 59 89 60 90
REMARK H PARENT 82 43 50 54
REMARK Flexibility Score: inf
ROOT
ATOM      1  C   UNL A   1      31.200  28.071  24.896  1.00  0.00     0.188 C 
ENDROOT
BRANCH   1   2
ATOM      2  O   UNL A   1      30.269  27.679  23.887  1.00  0.00    -0.376 OA
BRANCH   2   3
ATOM      3  C   UNL A   1      30.608  27.840  22.523  1.00  0.00     0.202 C 
BRANCH   3   4
ATOM      4  C   UNL A   1      31.685  26.893  21.992  1.00  0.00     0.261 C 
BRANCH   4   5
ATOM      5  O   UNL A   1      31.442  25.488  22.214  1.00  0.00    -0.463 OA
BRANCH   5   6
ATOM      6  C   UNL A   1      32.556  24.712  22.299  1.00  0.00     0.309 C 
ATOM      7  O   UNL A   1      33.279  24.432  21.350  1.00  0.00    -0.252 OA
BRANCH   6   8
ATOM      8  C   UNL A   1      32.721  24.038  23.655  1.00  0.00     0.109 C 
ATOM      9  C   UNL A   1      31.392  24.263  24.386  1.00  0.00     0.021 C 
BRANCH   8  10
ATOM     10  C   UNL A   1      33.981  24.437  24.474  1.00  0.00     0.065 C 
ATOM     11  C   UNL A   1      33.993  25.915  24.889  1.00  0.00     0.021 C 
BRANCH  10  12
ATOM     12  S   UNL A   1      34.023  23.461  26.042  1.00  0.00    -0.082 SA
BRANCH  12  13
ATOM     13  C   UNL A   1      34.866  22.037  25.539  1.00  0.00     0.191 A 
ATOM     14  N   UNL A   1      34.331  20.858  25.325  1.00  0.00    -0.124 NA
ATOM     15  N   UNL A   1      36.212  21.977  25.319  1.00  0.00    -0.312 N 
ATOM     16  N   UNL A   1      35.352  19.991  24.995  1.00  0.00    -0.138 NA
ATOM     17  C   UNL A   1      36.475  20.675  25.015  1.00  0.00     0.226 A 
ATOM     18  C   UNL A   1      37.171  23.050  25.316  1.00  0.00     0.153 C 
ENDBRANCH  12  13
ENDBRANCH  10  12
ENDBRANCH   8  10
ENDBRANCH   6   8
ENDBRANCH   5   6
ENDBRANCH   4   5
ENDBRANCH   3   4
ENDBRANCH   2   3
ENDBRANCH   1   2
BRANCH   1  19
ATOM     19  C   UNL A   1      32.000  29.369  24.737  1.00  0.00     0.188 C 
BRANCH  19  20
ATOM     20  O   UNL A   1      31.999  30.150  25.931  1.00  0.00    -0.376 OA
BRANCH  20  21
ATOM     21  C   UNL A   1      31.024  31.189  25.934  1.00  0.00     0.202 C 
BRANCH  21  22
ATOM     22  C   UNL A   1      31.643  32.468  26.503  1.00  0.00     0.261 C 
BRANCH  22  23
ATOM     23  O   UNL A   1      32.544  32.216  27.593  1.00  0.00    -0.460 OA
BRANCH  23  24
ATOM     24  C   UNL A   1      33.520  33.135  27.757  1.00  0.00     0.338 C 
ATOM     25  O   UNL A   1      33.388  34.354  27.758  1.00  0.00    -0.246 OA
BRANCH  24  26
ATOM     26  C   UNL A   1      34.781  32.450  28.077  1.00  0.00     0.060 A 
ATOM     27  C   UNL A   1      34.745  31.076  28.333  1.00  0.00     0.016 A 
ATOM     28  C   UNL A   1      35.973  33.163  28.201  1.00  0.00     0.016 A 
ATOM     29  C   UNL A   1      35.895  30.415  28.767  1.00  0.00     0.010 A 
ATOM     30  C   UNL A   1      37.123  32.505  28.649  1.00  0.00     0.010 A 
ATOM     31  C   UNL A   1      37.079  31.137  28.975  1.00  0.00    -0.014 A 
BRANCH  31  32
ATOM     32  C   UNL A   1      38.210  30.505  29.701  1.00  0.00     0.031 A 
ATOM     33  C   UNL A   1      38.469  30.906  31.131  1.00  0.00     0.074 A 
ATOM     34  C   UNL A   1      38.993  29.583  29.111  1.00  0.00     0.049 A 
ATOM     35  N   UNL A   1      39.403  30.498  31.950  1.00  0.00    -0.248 NA
ATOM     36  C   UNL A   1      37.552  31.901  31.711  1.00  0.00     0.031 C 
ATOM     37  C   UNL A   1      38.850  29.106  27.738  1.00  0.00     0.029 A 
ATOM     38  N   UNL A   1      40.079  28.897  29.598  1.00  0.00    -0.354 N 
ATOM     39  C   UNL A   1      39.208  31.207  33.130  1.00  0.00     0.074 A 
ATOM     40  C   UNL A   1      38.073  32.078  32.917  1.00  0.00     0.031 C 
ATOM     41  C   UNL A   1      39.827  28.218  27.483  1.00  0.00     0.029 A 
ATOM     42  C   UNL A   1      40.672  28.076  28.669  1.00  0.00     0.049 A 
ATOM     43  H   UNL A   1      40.401  28.985  30.524  1.00  0.00     0.167 HD
ATOM     44  C   UNL A   1      39.896  31.130  34.294  1.00  0.00     0.034 A 
ATOM     45  C   UNL A   1      41.777  27.309  28.761  1.00  0.00     0.034 A 
ATOM     46  C   UNL A   1      41.008  30.248  34.522  1.00  0.00     0.049 A 
ATOM     47  C   UNL A   1      42.525  27.240  30.069  1.00  0.00     0.074 A 
ATOM     48  C   UNL A   1      41.747  30.075  35.680  1.00  0.00     0.029 A 
ATOM     49  N   UNL A   1      41.545  29.391  33.574  1.00  0.00    -0.354 N 
ATOM     50  N   UNL A   1      42.258  27.830  31.209  1.00  0.00    -0.248 NA
ATOM     51  C   UNL A   1      43.710  26.368  30.111  1.00  0.00     0.031 C 
ATOM     52  C   UNL A   1      42.738  29.119  35.428  1.00  0.00     0.029 A 
ATOM     53  C   UNL A   1      42.605  28.685  34.119  1.00  0.00     0.049 A 
ATOM     54  H   UNL A   1      41.221  29.297  32.650  1.00  0.00     0.167 HD
ATOM     55  C   UNL A   1      43.216  27.374  32.110  1.00  0.00     0.074 A 
ATOM     56  C   UNL A   1      44.055  26.440  31.389  1.00  0.00     0.031 C 
ATOM     57  C   UNL A   1      43.395  27.711  33.412  1.00  0.00     0.034 A 
BRANCH  44  58
ATOM     58  C   UNL A   1      39.437  32.005  35.429  1.00  0.00     0.023 A 
ATOM     59  C   UNL A   1      38.530  31.490  36.378  1.00  0.00     0.012 A 
ATOM     60  C   UNL A   1      39.931  33.314  35.583  1.00  0.00     0.148 A 
ATOM     61  C   UNL A   1      38.097  32.276  37.445  1.00  0.00     0.002 A 
ATOM     62  C   UNL A   1      39.526  34.077  36.674  1.00  0.00     0.091 A 
ATOM     63  F   UNL A   1      40.772  33.796  34.657  1.00  0.00    -0.205 F 
ATOM     64  C   UNL A   1      38.602  33.565  37.598  1.00  0.00     0.022 A 
BRANCH  62  65
ATOM     65  S   UNL A   1      40.178  35.720  36.995  1.00  0.00     0.127 S 
ATOM     66  O   UNL A   1      39.651  36.475  35.859  1.00  0.00    -0.237 OA
ATOM     67  O   UNL A   1      39.564  36.050  38.282  1.00  0.00    -0.237 OA
ATOM     68  O   UNL A   1      41.626  35.574  37.036  1.00  0.00    -0.744 OA
ENDBRANCH  62  65
ENDBRANCH  44  58
BRANCH  45  69
ATOM     69  C   UNL A   1      42.218  26.493  27.594  1.00  0.00     0.023 A 
ATOM     70  C   UNL A   1      42.998  27.092  26.587  1.00  0.00     0.012 A 
ATOM     71  C   UNL A   1      41.875  25.132  27.480  1.00  0.00     0.148 A 
ATOM     72  C   UNL A   1      43.407  26.358  25.471  1.00  0.00     0.002 A 
ATOM     73  C   UNL A   1      42.329  24.393  26.394  1.00  0.00     0.091 A 
ATOM     74  F   UNL A   1      41.110  24.586  28.437  1.00  0.00    -0.205 F 
ATOM     75  C   UNL A   1      43.081  25.007  25.381  1.00  0.00     0.022 A 
BRANCH  73  76
ATOM     76  S   UNL A   1      42.055  22.623  26.253  1.00  0.00     0.127 S 
ATOM     77  O   UNL A   1      40.597  22.547  26.235  1.00  0.00    -0.237 OA
ATOM     78  O   UNL A   1      42.704  22.316  24.977  1.00  0.00    -0.237 OA
ATOM     79  O   UNL A   1      42.707  22.034  27.414  1.00  0.00    -0.744 OA
ENDBRANCH  73  76
ENDBRANCH  45  69
BRANCH  57  80
ATOM     80  C   UNL A   1      44.519  27.041  34.160  1.00  0.00     0.023 A 
ATOM     81  C   UNL A   1      44.286  25.826  34.835  1.00  0.00     0.012 A 
ATOM     82  C   UNL A   1      45.820  27.583  34.146  1.00  0.00     0.148 A 
ATOM     83  C   UNL A   1      45.321  25.181  35.514  1.00  0.00     0.002 A 
ATOM     84  C   UNL A   1      46.856  26.911  34.788  1.00  0.00     0.091 A 
ATOM     85  F   UNL A   1      46.023  28.751  33.518  1.00  0.00    -0.205 F 
ATOM     86  C   UNL A   1      46.606  25.717  35.481  1.00  0.00     0.022 A 
BRANCH  84  87
ATOM     87  S   UNL A   1      48.554  27.493  34.711  1.00  0.00     0.127 S 
ATOM     88  O   UNL A   1      48.568  28.518  35.753  1.00  0.00    -0.237 OA
ATOM     89  O   UNL A   1      49.319  26.288  35.032  1.00  0.00    -0.237 OA
ATOM     90  O   UNL A   1      48.742  27.974  33.348  1.00  0.00    -0.744 OA
ENDBRANCH  84  87
ENDBRANCH  57  80
ENDBRANCH  31  32
ENDBRANCH  24  26
ENDBRANCH  23  24
ENDBRANCH  22  23
ENDBRANCH  21  22
ENDBRANCH  20  21
ENDBRANCH  19  20
ENDBRANCH   1  19
TORSDOF 23
ENDMDL
MODEL 3
REMARK VINA RESULT:      -9.5      1.443      7.762
REMARK SMILES C[C@@H](Sc1nncn1C)[C@@H](C)C(=O)OCCOCCOCCOC(=O)c1ccc(-c2c3nc(c(-c4cccc(S(=O)(=O)[O-])c4F)c4ccc([nH]4)c(-c4cccc(S(=O)(=O)[O-])c4F)c4nc(c(-c5cccc(S(=O)(=O)[O-])c5F)c5ccc2[nH]5)C=C4)C=C3)cc1
REMARK SMILES IDX 18 1 17 2 16 3 15 4 14 5 12 6 13 7 10 8 11 9 2 10 1 11 3 12
REMARK SMILES IDX 4 13 5 14 8 15 6 16 7 17 9 18 19 19 20 20 21 21 22 22 23 23
REMARK SMILES IDX 24 24 25 25 26 26 27 27 88 28 28 29 87 30 29 31 30 32 31 33
REMARK SMILES IDX 81 34 32 35 86 36 80 37 82 38 33 39 85 40 79 41 78 42 34 44
REMARK SMILES IDX 66 45 46 46 65 47 47 48 50 49 64 50 83 51 48 52 49 53 63 55
REMARK SMILES IDX 84 56 51 57 35 58 36 59 44 60 37 61 39 62 45 63 38 64 40 65
REMARK SMILES IDX 41 66 42 67 43 68 67 69 68 70 76 71 69 72 71 73 77 74 70 75
REMARK SMILES IDX 72 76 73 77 74 78 75 79 52 80 53 81 61 82 54 83 56 84 62 85
REMARK SMILES IDX 55 86 57 87 58 88 59 89 60 90
REMARK H PARENT 82 43 50 54
REMARK Flexibility Score: inf
ROOT
ATOM      1  C   UNL A   1      31.204  28.055  24.789  1.00  0.00     0.188 C 
ENDROOT
BRANCH   1   2
ATOM      2  O   UNL A   1      30.329  27.658  23.734  1.00  0.00    -0.376 OA
BRANCH   2   3
ATOM      3  C   UNL A   1      30.766  27.751  22.391  1.00  0.00     0.202 C 
BRANCH   3   4
ATOM      4  C   UNL A   1      31.835  26.740  21.972  1.00  0.00     0.261 C 
BRANCH   4   5
ATOM      5  O   UNL A   1      31.533  25.359  22.261  1.00  0.00    -0.463 OA
BRANCH   5   6
ATOM      6  C   UNL A   1      32.610  24.574  22.536  1.00  0.00     0.309 C 
ATOM      7  O   UNL A   1      33.692  24.659  21.965  1.00  0.00    -0.252 OA
BRANCH   6   8
ATOM      8  C   UNL A   1      32.294  23.424  23.483  1.00  0.00     0.109 C 
ATOM      9  C   UNL A   1      30.862  23.679  23.969  1.00  0.00     0.021 C 
BRANCH   8  10
ATOM     10  C   UNL A   1      33.323  23.166  24.620  1.00  0.00     0.065 C 
ATOM     11  C   UNL A   1      33.428  24.328  25.618  1.00  0.00     0.021 C 
BRANCH  10  12
ATOM     12  S   UNL A   1      32.793  21.692  25.598  1.00  0.00    -0.082 SA
BRANCH  12  13
ATOM     13  C   UNL A   1      34.057  20.568  25.241  1.00  0.00     0.191 A 
ATOM     14  N   UNL A   1      35.345  20.816  25.279  1.00  0.00    -0.124 NA
ATOM     15  N   UNL A   1      33.850  19.274  24.855  1.00  0.00    -0.312 N 
ATOM     16  N   UNL A   1      36.001  19.674  24.871  1.00  0.00    -0.138 NA
ATOM     17  C   UNL A   1      35.089  18.766  24.604  1.00  0.00     0.226 A 
ATOM     18  C   UNL A   1      32.614  18.542  24.795  1.00  0.00     0.153 C 
ENDBRANCH  12  13
ENDBRANCH  10  12
ENDBRANCH   8  10
ENDBRANCH   6   8
ENDBRANCH   5   6
ENDBRANCH   4   5
ENDBRANCH   3   4
ENDBRANCH   2   3
ENDBRANCH   1   2
BRANCH   1  19
ATOM     19  C   UNL A   1      32.003  29.358  24.674  1.00  0.00     0.188 C 
BRANCH  19  20
ATOM     20  O   UNL A   1      31.985  30.107  25.888  1.00  0.00    -0.376 OA
BRANCH  20  21
ATOM     21  C   UNL A   1      30.982  31.117  25.923  1.00  0.00     0.202 C 
BRANCH  21  22
ATOM     22  C   UNL A   1      31.618  32.457  26.298  1.00  0.00     0.261 C 
BRANCH  22  23
ATOM     23  O   UNL A   1      32.385  32.392  27.512  1.00  0.00    -0.460 OA
BRANCH  23  24
ATOM     24  C   UNL A   1      33.348  33.330  27.635  1.00  0.00     0.338 C 
ATOM     25  O   UNL A   1      33.210  34.544  27.528  1.00  0.00    -0.246 OA
BRANCH  24  26
ATOM     26  C   UNL A   1      34.600  32.685  28.059  1.00  0.00     0.060 A 
ATOM     27  C   UNL A   1      34.555  31.348  28.462  1.00  0.00     0.016 A 
ATOM     28  C   UNL A   1      35.789  33.409  28.135  1.00  0.00     0.016 A 
ATOM     29  C   UNL A   1      35.692  30.739  28.994  1.00  0.00     0.010 A 
ATOM     30  C   UNL A   1      36.927  32.805  28.680  1.00  0.00     0.010 A 
ATOM     31  C   UNL A   1      36.872  31.481  29.152  1.00  0.00    -0.014 A 
BRANCH  31  32
ATOM     32  C   UNL A   1      37.983  30.933  29.970  1.00  0.00     0.031 A 
ATOM     33  C   UNL A   1      38.920  29.932  29.345  1.00  0.00     0.074 A 
ATOM     34  C   UNL A   1      38.170  31.320  31.245  1.00  0.00     0.049 A 
ATOM     35  N   UNL A   1      39.946  29.314  29.872  1.00  0.00    -0.248 NA
ATOM     36  C   UNL A   1      38.664  29.580  27.939  1.00  0.00     0.031 C 
ATOM     37  C   UNL A   1      37.340  32.280  31.969  1.00  0.00     0.029 A 
ATOM     38  N   UNL A   1      39.117  30.932  32.162  1.00  0.00    -0.354 N 
ATOM     39  C   UNL A   1      40.437  28.479  28.875  1.00  0.00     0.074 A 
ATOM     40  C   UNL A   1      39.591  28.661  27.715  1.00  0.00     0.031 C 
ATOM     41  C   UNL A   1      37.801  32.392  33.227  1.00  0.00     0.029 A 
ATOM     42  C   UNL A   1      38.947  31.500  33.402  1.00  0.00     0.049 A 
ATOM     43  H   UNL A   1      39.847  30.307  31.951  1.00  0.00     0.167 HD
ATOM     44  C   UNL A   1      41.506  27.648  28.910  1.00  0.00     0.034 A 
ATOM     45  C   UNL A   1      39.631  31.313  34.549  1.00  0.00     0.034 A 
ATOM     46  C   UNL A   1      42.367  27.481  30.049  1.00  0.00     0.049 A 
ATOM     47  C   UNL A   1      40.818  30.383  34.562  1.00  0.00     0.074 A 
ATOM     48  C   UNL A   1      43.495  26.687  30.168  1.00  0.00     0.029 A 
ATOM     49  N   UNL A   1      42.196  28.116  31.269  1.00  0.00    -0.354 N 
ATOM     50  N   UNL A   1      41.339  29.690  33.578  1.00  0.00    -0.248 NA
ATOM     51  C   UNL A   1      41.536  30.239  35.838  1.00  0.00     0.031 C 
ATOM     52  C   UNL A   1      44.000  26.835  31.465  1.00  0.00     0.029 A 
ATOM     53  C   UNL A   1      43.197  27.734  32.147  1.00  0.00     0.049 A 
ATOM     54  H   UNL A   1      41.470  28.746  31.481  1.00  0.00     0.167 HD
ATOM     55  C   UNL A   1      42.460  29.057  34.106  1.00  0.00     0.074 A 
ATOM     56  C   UNL A   1      42.559  29.469  35.490  1.00  0.00     0.031 C 
ATOM     57  C   UNL A   1      43.322  28.200  33.505  1.00  0.00     0.034 A 
BRANCH  44  58
ATOM     58  C   UNL A   1      41.826  26.877  27.657  1.00  0.00     0.023 A 
ATOM     59  C   UNL A   1      42.327  27.564  26.531  1.00  0.00     0.012 A 
ATOM     60  C   UNL A   1      41.675  25.479  27.604  1.00  0.00     0.148 A 
ATOM     61  C   UNL A   1      42.642  26.873  25.361  1.00  0.00     0.002 A 
ATOM     62  C   UNL A   1      42.030  24.793  26.448  1.00  0.00     0.091 A 
ATOM     63  F   UNL A   1      41.172  24.848  28.675  1.00  0.00    -0.205 F 
ATOM     64  C   UNL A   1      42.503  25.488  25.323  1.00  0.00     0.022 A 
BRANCH  62  65
ATOM     65  S   UNL A   1      41.955  23.002  26.330  1.00  0.00     0.127 S 
ATOM     66  O   UNL A   1      40.516  22.759  26.421  1.00  0.00    -0.237 OA
ATOM     67  O   UNL A   1      42.530  22.755  25.006  1.00  0.00    -0.237 OA
ATOM     68  O   UNL A   1      42.751  22.495  27.438  1.00  0.00    -0.744 OA
ENDBRANCH  62  65
ENDBRANCH  44  58
BRANCH  45  69
ATOM     69  C   UNL A   1      39.248  32.066  35.777  1.00  0.00     0.023 A 
ATOM     70  C   UNL A   1      38.339  31.492  36.685  1.00  0.00     0.012 A 
ATOM     71  C   UNL A   1      39.782  33.340  36.052  1.00  0.00     0.148 A 
ATOM     72  C   UNL A   1      37.945  32.183  37.833  1.00  0.00     0.002 A 
ATOM     73  C   UNL A   1      39.426  34.001  37.222  1.00  0.00     0.091 A 
ATOM     74  F   UNL A   1      40.627  33.881  35.162  1.00  0.00    -0.205 F 
ATOM     75  C   UNL A   1      38.497  33.432  38.105  1.00  0.00     0.022 A 
BRANCH  73  76
ATOM     76  S   UNL A   1      40.173  35.560  37.710  1.00  0.00     0.127 S 
ATOM     77  O   UNL A   1      39.475  35.847  38.960  1.00  0.00    -0.237 OA
ATOM     78  O   UNL A   1      41.581  35.188  37.863  1.00  0.00    -0.237 OA
ATOM     79  O   UNL A   1      39.912  36.479  36.612  1.00  0.00    -0.744 OA
ENDBRANCH  73  76
ENDBRANCH  45  69
BRANCH  57  80
ATOM     80  C   UNL A   1      44.473  27.673  34.324  1.00  0.00     0.023 A 
ATOM     81  C   UNL A   1      45.649  28.437  34.453  1.00  0.00     0.012 A 
ATOM     82  C   UNL A   1      44.367  26.450  35.015  1.00  0.00     0.148 A 
ATOM     83  C   UNL A   1      46.716  27.976  35.225  1.00  0.00     0.002 A 
ATOM     84  C   UNL A   1      45.417  26.016  35.819  1.00  0.00     0.091 A 
ATOM     85  F   UNL A   1      43.250  25.722  34.866  1.00  0.00    -0.205 F 
ATOM     86  C   UNL A   1      46.595  26.772  35.916  1.00  0.00     0.022 A 
BRANCH  84  87
ATOM     87  S   UNL A   1      45.297  24.523  36.811  1.00  0.00     0.127 S 
ATOM     88  O   UNL A   1      46.669  24.371  37.292  1.00  0.00    -0.237 OA
ATOM     89  O   UNL A   1      44.329  24.901  37.841  1.00  0.00    -0.237 OA
ATOM     90  O   UNL A   1      44.828  23.486  35.902  1.00  0.00    -0.744 OA
ENDBRANCH  84  87
ENDBRANCH  57  80
ENDBRANCH  31  32
ENDBRANCH  24  26
ENDBRANCH  23  24
ENDBRANCH  22  23
ENDBRANCH  21  22
ENDBRANCH  20  21
ENDBRANCH  19  20
ENDBRANCH   1  19
TORSDOF 23
ENDMDL
