MODEL 1
REMARK VINA RESULT:     -10.2      0.000      0.000
REMARK SMILES CCc1cc(C(=O)c2[nH]c3cc(Cl)ccc3c2CC(=O)OCCOCCOCCOC(=O)c2ccc(-c3c4nc(c(-c5cccc(S(=O)(=O)[O-])c5F)c5ccc([nH]5)c(-c5cccc(S(=O)(=O)[O-])c5F)c5nc(c(-c6cccc(S(=O)(=O)[O-])c6F)c6ccc3[nH]6)C=C5)C=C4)cc2)ncc1Cl
REMARK SMILES IDX 25 1 24 2 23 3 22 4 21 5 19 6 20 7 18 8 17 9 8 10 9 11 10 12
REMARK SMILES IDX 16 14 11 15 15 16 12 17 14 18 13 19 6 20 7 21 5 22 3 23 4 24
REMARK SMILES IDX 98 25 97 26 99 27 96 28 2 29 1 30 26 31 27 32 28 33 29 34
REMARK SMILES IDX 30 35 31 36 32 37 33 38 34 39 95 40 35 41 94 42 36 43 37 44
REMARK SMILES IDX 38 45 88 46 39 47 93 48 87 49 89 50 40 51 92 52 86 53 85 54
REMARK SMILES IDX 41 56 73 57 53 58 72 59 54 60 57 61 71 62 90 63 55 64 56 65
REMARK SMILES IDX 70 67 91 68 58 69 42 70 43 71 51 72 44 73 46 74 52 75 45 76
REMARK SMILES IDX 47 77 48 78 49 79 50 80 74 81 75 82 83 83 76 84 78 85 84 86
REMARK SMILES IDX 77 87 79 88 80 89 81 90 82 91 59 92 60 93 68 94 61 95 63 96
REMARK SMILES IDX 69 97 62 98 64 99 65 100 66 101 67 102
REMARK H PARENT 9 13 89 55 57 66
REMARK Flexibility Score: inf
ROOT
ATOM      1  C   UNL A   1      32.847  28.611  23.683  1.00  0.00     0.188 C 
ENDROOT
BRANCH   1   2
ATOM      2  O   UNL A   1      33.242  28.373  22.336  1.00  0.00    -0.376 OA
BRANCH   2   3
ATOM      3  C   UNL A   1      33.637  27.054  21.986  1.00  0.00     0.202 C 
BRANCH   3   4
ATOM      4  C   UNL A   1      32.786  25.935  22.588  1.00  0.00     0.261 C 
BRANCH   4   5
ATOM      5  O   UNL A   1      32.884  24.709  21.827  1.00  0.00    -0.463 OA
BRANCH   5   6
ATOM      6  C   UNL A   1      33.455  23.672  22.487  1.00  0.00     0.310 C 
ATOM      7  O   UNL A   1      34.637  23.358  22.344  1.00  0.00    -0.252 OA
BRANCH   6   8
ATOM      8  C   UNL A   1      32.576  22.942  23.485  1.00  0.00     0.161 C 
BRANCH   8   9
ATOM      9  C   UNL A   1      33.126  21.803  24.318  1.00  0.00     0.000 A 
ATOM     10  C   UNL A   1      34.137  21.864  25.288  1.00  0.00     0.093 A 
ATOM     11  N   UNL A   1      34.284  20.596  25.802  1.00  0.00    -0.351 N 
ATOM     12  C   UNL A   1      33.697  19.682  24.964  1.00  0.00     0.048 A 
ATOM     13  H   UNL A   1      34.743  20.378  26.644  1.00  0.00     0.167 HD
ATOM     14  C   UNL A   1      32.936  20.404  24.044  1.00  0.00     0.004 A 
ATOM     15  C   UNL A   1      33.812  18.287  24.938  1.00  0.00     0.047 A 
ATOM     16  C   UNL A   1      32.253  19.692  23.038  1.00  0.00     0.012 A 
ATOM     17  C   UNL A   1      33.173  17.617  23.892  1.00  0.00     0.043 A 
ATOM     18  C   UNL A   1      32.403  18.301  22.956  1.00  0.00     0.021 A 
ATOM     19  Cl  UNL A   1      33.377  15.913  23.741  1.00  0.00    -0.084 Cl
BRANCH  10  20
ATOM     20  C   UNL A   1      34.900  23.017  25.725  1.00  0.00     0.227 C 
ATOM     21  O   UNL A   1      34.356  24.046  26.117  1.00  0.00    -0.285 OA
BRANCH  20  22
ATOM     22  C   UNL A   1      36.397  23.002  25.674  1.00  0.00     0.113 A 
ATOM     23  C   UNL A   1      38.539  23.778  26.481  1.00  0.00    -0.026 A 
ATOM     24  C   UNL A   1      37.160  24.005  26.265  1.00  0.00     0.037 A 
ATOM     25  C   UNL A   1      39.059  22.521  26.142  1.00  0.00     0.062 A 
ATOM     26  C   UNL A   1      38.237  21.630  25.472  1.00  0.00     0.132 A 
ATOM     27  Cl  UNL A   1      40.638  21.994  26.578  1.00  0.00    -0.082 Cl
ATOM     28  N   UNL A   1      36.933  21.860  25.197  1.00  0.00    -0.251 NA
BRANCH  23  29
ATOM     29  C   UNL A   1      39.376  24.859  27.129  1.00  0.00     0.034 C 
ATOM     30  C   UNL A   1      40.479  25.406  26.225  1.00  0.00     0.009 C 
ENDBRANCH  23  29
ENDBRANCH  20  22
ENDBRANCH  10  20
ENDBRANCH   8   9
ENDBRANCH   6   8
ENDBRANCH   5   6
ENDBRANCH   4   5
ENDBRANCH   3   4
ENDBRANCH   2   3
ENDBRANCH   1   2
BRANCH   1  31
ATOM     31  C   UNL A   1      31.404  29.090  23.946  1.00  0.00     0.188 C 
BRANCH  31  32
ATOM     32  O   UNL A   1      31.033  29.469  25.267  1.00  0.00    -0.376 OA
BRANCH  32  33
ATOM     33  C   UNL A   1      31.765  30.533  25.860  1.00  0.00     0.202 C 
BRANCH  33  34
ATOM     34  C   UNL A   1      32.395  30.186  27.205  1.00  0.00     0.261 C 
BRANCH  34  35
ATOM     35  O   UNL A   1      33.660  30.853  27.360  1.00  0.00    -0.460 OA
BRANCH  35  36
ATOM     36  C   UNL A   1      34.736  30.041  27.269  1.00  0.00     0.338 C 
ATOM     37  O   UNL A   1      34.918  29.157  26.448  1.00  0.00    -0.246 OA
BRANCH  36  38
ATOM     38  C   UNL A   1      35.726  30.355  28.314  1.00  0.00     0.060 A 
ATOM     39  C   UNL A   1      36.856  31.102  27.994  1.00  0.00     0.016 A 
ATOM     40  C   UNL A   1      35.667  29.676  29.527  1.00  0.00     0.016 A 
ATOM     41  C   UNL A   1      37.995  31.027  28.796  1.00  0.00     0.010 A 
ATOM     42  C   UNL A   1      36.774  29.692  30.383  1.00  0.00     0.010 A 
ATOM     43  C   UNL A   1      37.982  30.296  29.989  1.00  0.00    -0.014 A 
BRANCH  43  44
ATOM     44  C   UNL A   1      39.235  30.076  30.768  1.00  0.00     0.031 A 
ATOM     45  C   UNL A   1      40.259  29.066  30.297  1.00  0.00     0.074 A 
ATOM     46  C   UNL A   1      39.482  30.783  31.890  1.00  0.00     0.049 A 
ATOM     47  N   UNL A   1      41.339  28.635  30.899  1.00  0.00    -0.248 NA
ATOM     48  C   UNL A   1      40.048  28.468  28.968  1.00  0.00     0.031 C 
ATOM     49  C   UNL A   1      38.626  31.838  32.434  1.00  0.00     0.029 A 
ATOM     50  N   UNL A   1      40.516  30.699  32.793  1.00  0.00    -0.354 N 
ATOM     51  C   UNL A   1      41.909  27.697  30.044  1.00  0.00     0.074 A 
ATOM     52  C   UNL A   1      41.059  27.618  28.878  1.00  0.00     0.031 C 
ATOM     53  C   UNL A   1      39.159  32.294  33.576  1.00  0.00     0.029 A 
ATOM     54  C   UNL A   1      40.340  31.502  33.896  1.00  0.00     0.049 A 
ATOM     55  H   UNL A   1      41.304  30.123  32.662  1.00  0.00     0.167 HD
ATOM     56  C   UNL A   1      43.036  26.964  30.210  1.00  0.00     0.034 A 
ATOM     57  C   UNL A   1      41.003  31.550  35.069  1.00  0.00     0.034 A 
ATOM     58  C   UNL A   1      43.878  27.026  31.373  1.00  0.00     0.049 A 
ATOM     59  C   UNL A   1      42.171  30.631  35.288  1.00  0.00     0.074 A 
ATOM     60  C   UNL A   1      45.029  26.306  31.642  1.00  0.00     0.029 A 
ATOM     61  N   UNL A   1      43.647  27.836  32.472  1.00  0.00    -0.354 N 
ATOM     62  N   UNL A   1      42.722  29.785  34.453  1.00  0.00    -0.248 NA
ATOM     63  C   UNL A   1      42.813  30.678  36.609  1.00  0.00     0.031 C 
ATOM     64  C   UNL A   1      45.468  26.651  32.926  1.00  0.00     0.029 A 
ATOM     65  C   UNL A   1      44.613  27.613  33.438  1.00  0.00     0.049 A 
ATOM     66  H   UNL A   1      42.904  28.478  32.555  1.00  0.00     0.167 HD
ATOM     67  C   UNL A   1      43.791  29.218  35.137  1.00  0.00     0.074 A 
ATOM     68  C   UNL A   1      43.822  29.834  36.447  1.00  0.00     0.031 C 
ATOM     69  C   UNL A   1      44.659  28.263  34.722  1.00  0.00     0.034 A 
BRANCH  56  70
ATOM     70  C   UNL A   1      43.418  26.013  29.105  1.00  0.00     0.023 A 
ATOM     71  C   UNL A   1      42.959  24.682  29.134  1.00  0.00     0.012 A 
ATOM     72  C   UNL A   1      44.198  26.454  28.016  1.00  0.00     0.148 A 
ATOM     73  C   UNL A   1      43.288  23.796  28.108  1.00  0.00     0.002 A 
ATOM     74  C   UNL A   1      44.495  25.574  26.982  1.00  0.00     0.091 A 
ATOM     75  F   UNL A   1      44.643  27.717  28.020  1.00  0.00    -0.205 F 
ATOM     76  C   UNL A   1      44.047  24.243  27.030  1.00  0.00     0.022 A 
BRANCH  74  77
ATOM     77  S   UNL A   1      45.428  26.067  25.528  1.00  0.00     0.127 S 
ATOM     78  O   UNL A   1      45.325  24.871  24.693  1.00  0.00    -0.237 OA
ATOM     79  O   UNL A   1      44.660  27.215  25.046  1.00  0.00    -0.237 OA
ATOM     80  O   UNL A   1      46.768  26.386  25.998  1.00  0.00    -0.744 OA
ENDBRANCH  74  77
ENDBRANCH  56  70
BRANCH  57  81
ATOM     81  C   UNL A   1      40.543  32.481  36.139  1.00  0.00     0.023 A 
ATOM     82  C   UNL A   1      41.155  33.740  36.282  1.00  0.00     0.012 A 
ATOM     83  C   UNL A   1      39.473  32.137  36.991  1.00  0.00     0.148 A 
ATOM     84  C   UNL A   1      40.720  34.633  37.263  1.00  0.00     0.002 A 
ATOM     85  C   UNL A   1      39.002  33.056  37.920  1.00  0.00     0.091 A 
ATOM     86  F   UNL A   1      38.924  30.921  36.863  1.00  0.00    -0.205 F 
ATOM     87  C   UNL A   1      39.634  34.298  38.070  1.00  0.00     0.022 A 
BRANCH  85  88
ATOM     88  S   UNL A   1      37.521  32.757  38.892  1.00  0.00     0.127 S 
ATOM     89  O   UNL A   1      37.539  33.884  39.819  1.00  0.00    -0.237 OA
ATOM     90  O   UNL A   1      36.472  32.815  37.873  1.00  0.00    -0.237 OA
ATOM     91  O   UNL A   1      37.703  31.440  39.487  1.00  0.00    -0.744 OA
ENDBRANCH  85  88
ENDBRANCH  57  81
BRANCH  69  92
ATOM     92  C   UNL A   1      45.743  27.843  35.679  1.00  0.00     0.023 A 
ATOM     93  C   UNL A   1      46.973  28.528  35.689  1.00  0.00     0.012 A 
ATOM     94  C   UNL A   1      45.514  26.814  36.613  1.00  0.00     0.148 A 
ATOM     95  C   UNL A   1      47.973  28.174  36.596  1.00  0.00     0.002 A 
ATOM     96  C   UNL A   1      46.495  26.501  37.546  1.00  0.00     0.091 A 
ATOM     97  F   UNL A   1      44.344  26.160  36.573  1.00  0.00    -0.205 F 
ATOM     98  C   UNL A   1      47.729  27.171  37.532  1.00  0.00     0.022 A 
BRANCH  96  99
ATOM     99  S   UNL A   1      46.228  25.293  38.849  1.00  0.00     0.127 S 
ATOM    100  O   UNL A   1      45.797  24.123  38.087  1.00  0.00    -0.237 OA
ATOM    101  O   UNL A   1      47.560  25.177  39.444  1.00  0.00    -0.237 OA
ATOM    102  O   UNL A   1      45.223  25.872  39.731  1.00  0.00    -0.744 OA
ENDBRANCH  96  99
ENDBRANCH  69  92
ENDBRANCH  43  44
ENDBRANCH  36  38
ENDBRANCH  35  36
ENDBRANCH  34  35
ENDBRANCH  33  34
ENDBRANCH  32  33
ENDBRANCH  31  32
ENDBRANCH   1  31
TORSDOF 24
ENDMDL
MODEL 2
REMARK VINA RESULT:      -9.5      2.552      7.770
REMARK SMILES CCc1cc(C(=O)c2[nH]c3cc(Cl)ccc3c2CC(=O)OCCOCCOCCOC(=O)c2ccc(-c3c4nc(c(-c5cccc(S(=O)(=O)[O-])c5F)c5ccc([nH]5)c(-c5cccc(S(=O)(=O)[O-])c5F)c5nc(c(-c6cccc(S(=O)(=O)[O-])c6F)c6ccc3[nH]6)C=C5)C=C4)cc2)ncc1Cl
REMARK SMILES IDX 25 1 24 2 23 3 22 4 21 5 19 6 20 7 18 8 17 9 8 10 9 11 10 12
REMARK SMILES IDX 16 14 11 15 15 16 12 17 14 18 13 19 6 20 7 21 5 22 3 23 4 24
REMARK SMILES IDX 98 25 97 26 99 27 96 28 2 29 1 30 26 31 27 32 28 33 29 34
REMARK SMILES IDX 30 35 31 36 32 37 33 38 34 39 95 40 35 41 94 42 36 43 37 44
REMARK SMILES IDX 38 45 88 46 39 47 93 48 87 49 89 50 40 51 92 52 86 53 85 54
REMARK SMILES IDX 41 56 73 57 53 58 72 59 54 60 57 61 71 62 90 63 55 64 56 65
REMARK SMILES IDX 70 67 91 68 58 69 42 70 43 71 51 72 44 73 46 74 52 75 45 76
REMARK SMILES IDX 47 77 48 78 49 79 50 80 74 81 75 82 83 83 76 84 78 85 84 86
REMARK SMILES IDX 77 87 79 88 80 89 81 90 82 91 59 92 60 93 68 94 61 95 63 96
REMARK SMILES IDX 69 97 62 98 64 99 65 100 66 101 67 102
REMARK H PARENT 9 13 89 55 57 66
REMARK Flexibility Score: inf
ROOT
ATOM      1  C   UNL A   1      33.221  29.034  23.938  1.00  0.00     0.188 C 
ENDROOT
BRANCH   1   2
ATOM      2  O   UNL A   1      33.676  28.669  22.639  1.00  0.00    -0.376 OA
BRANCH   2   3
ATOM      3  C   UNL A   1      33.156  27.479  22.066  1.00  0.00     0.202 C 
BRANCH   3   4
ATOM      4  C   UNL A   1      33.648  26.178  22.700  1.00  0.00     0.261 C 
BRANCH   4   5
ATOM      5  O   UNL A   1      32.741  25.077  22.455  1.00  0.00    -0.463 OA
BRANCH   5   6
ATOM      6  C   UNL A   1      33.252  23.849  22.720  1.00  0.00     0.310 C 
ATOM      7  O   UNL A   1      33.980  23.244  21.933  1.00  0.00    -0.252 OA
BRANCH   6   8
ATOM      8  C   UNL A   1      32.938  23.269  24.086  1.00  0.00     0.161 C 
BRANCH   8   9
ATOM      9  C   UNL A   1      33.696  22.069  24.615  1.00  0.00     0.000 A 
ATOM     10  C   UNL A   1      34.964  22.055  25.213  1.00  0.00     0.093 A 
ATOM     11  N   UNL A   1      35.237  20.752  25.559  1.00  0.00    -0.351 N 
ATOM     12  C   UNL A   1      34.391  19.905  24.887  1.00  0.00     0.048 A 
ATOM     13  H   UNL A   1      35.934  20.469  26.193  1.00  0.00     0.167 HD
ATOM     14  C   UNL A   1      33.395  20.695  24.313  1.00  0.00     0.004 A 
ATOM     15  C   UNL A   1      34.458  18.516  24.723  1.00  0.00     0.047 A 
ATOM     16  C   UNL A   1      32.411  20.062  23.528  1.00  0.00     0.012 A 
ATOM     17  C   UNL A   1      33.504  17.929  23.890  1.00  0.00     0.043 A 
ATOM     18  C   UNL A   1      32.494  18.683  23.301  1.00  0.00     0.021 A 
ATOM     19  Cl  UNL A   1      33.608  16.241  23.557  1.00  0.00    -0.084 Cl
BRANCH  10  20
ATOM     20  C   UNL A   1      35.854  23.172  25.468  1.00  0.00     0.227 C 
ATOM     21  O   UNL A   1      35.446  24.328  25.528  1.00  0.00    -0.285 OA
BRANCH  20  22
ATOM     22  C   UNL A   1      37.326  22.948  25.630  1.00  0.00     0.113 A 
ATOM     23  C   UNL A   1      39.451  23.548  26.614  1.00  0.00    -0.026 A 
ATOM     24  C   UNL A   1      38.159  23.921  26.177  1.00  0.00     0.037 A 
ATOM     25  C   UNL A   1      39.809  22.195  26.529  1.00  0.00     0.062 A 
ATOM     26  C   UNL A   1      38.944  21.327  25.882  1.00  0.00     0.132 A 
ATOM     27  Cl  UNL A   1      41.225  21.536  27.252  1.00  0.00    -0.082 Cl
ATOM     28  N   UNL A   1      37.733  21.684  25.396  1.00  0.00    -0.251 NA
BRANCH  23  29
ATOM     29  C   UNL A   1      40.362  24.595  27.215  1.00  0.00     0.034 C 
ATOM     30  C   UNL A   1      40.549  25.827  26.332  1.00  0.00     0.009 C 
ENDBRANCH  23  29
ENDBRANCH  20  22
ENDBRANCH  10  20
ENDBRANCH   8   9
ENDBRANCH   6   8
ENDBRANCH   5   6
ENDBRANCH   4   5
ENDBRANCH   3   4
ENDBRANCH   2   3
ENDBRANCH   1   2
BRANCH   1  31
ATOM     31  C   UNL A   1      31.726  28.840  24.267  1.00  0.00     0.188 C 
BRANCH  31  32
ATOM     32  O   UNL A   1      31.145  29.607  25.316  1.00  0.00    -0.376 OA
BRANCH  32  33
ATOM     33  C   UNL A   1      31.964  30.606  25.911  1.00  0.00     0.202 C 
BRANCH  33  34
ATOM     34  C   UNL A   1      32.469  30.253  27.305  1.00  0.00     0.261 C 
BRANCH  34  35
ATOM     35  O   UNL A   1      33.798  30.767  27.510  1.00  0.00    -0.460 OA
BRANCH  35  36
ATOM     36  C   UNL A   1      34.759  29.820  27.581  1.00  0.00     0.338 C 
ATOM     37  O   UNL A   1      34.807  28.776  26.951  1.00  0.00    -0.246 OA
BRANCH  36  38
ATOM     38  C   UNL A   1      35.808  30.202  28.543  1.00  0.00     0.060 A 
ATOM     39  C   UNL A   1      36.881  30.980  28.121  1.00  0.00     0.016 A 
ATOM     40  C   UNL A   1      35.861  29.559  29.775  1.00  0.00     0.016 A 
ATOM     41  C   UNL A   1      38.077  30.972  28.841  1.00  0.00     0.010 A 
ATOM     42  C   UNL A   1      37.025  29.642  30.548  1.00  0.00     0.010 A 
ATOM     43  C   UNL A   1      38.178  30.278  30.051  1.00  0.00    -0.014 A 
BRANCH  43  44
ATOM     44  C   UNL A   1      39.491  30.128  30.744  1.00  0.00     0.031 A 
ATOM     45  C   UNL A   1      39.901  31.109  31.821  1.00  0.00     0.074 A 
ATOM     46  C   UNL A   1      40.320  29.110  30.435  1.00  0.00     0.049 A 
ATOM     47  N   UNL A   1      41.048  31.229  32.441  1.00  0.00    -0.248 NA
ATOM     48  C   UNL A   1      38.885  32.077  32.268  1.00  0.00     0.031 C 
ATOM     49  C   UNL A   1      40.038  28.047  29.470  1.00  0.00     0.029 A 
ATOM     50  N   UNL A   1      41.588  28.821  30.883  1.00  0.00    -0.354 N 
ATOM     51  C   UNL A   1      40.901  32.300  33.317  1.00  0.00     0.074 A 
ATOM     52  C   UNL A   1      39.555  32.799  33.153  1.00  0.00     0.031 C 
ATOM     53  C   UNL A   1      41.098  27.232  29.389  1.00  0.00     0.029 A 
ATOM     54  C   UNL A   1      42.169  27.764  30.220  1.00  0.00     0.049 A 
ATOM     55  H   UNL A   1      42.035  29.319  31.606  1.00  0.00     0.167 HD
ATOM     56  C   UNL A   1      41.802  32.826  34.182  1.00  0.00     0.034 A 
ATOM     57  C   UNL A   1      43.440  27.314  30.218  1.00  0.00     0.034 A 
ATOM     58  C   UNL A   1      43.147  32.346  34.340  1.00  0.00     0.049 A 
ATOM     59  C   UNL A   1      44.461  27.998  31.083  1.00  0.00     0.074 A 
ATOM     60  C   UNL A   1      44.141  32.827  35.174  1.00  0.00     0.029 A 
ATOM     61  N   UNL A   1      43.697  31.290  33.632  1.00  0.00    -0.354 N 
ATOM     62  N   UNL A   1      44.294  28.978  31.937  1.00  0.00    -0.248 NA
ATOM     63  C   UNL A   1      45.844  27.509  30.990  1.00  0.00     0.031 C 
ATOM     64  C   UNL A   1      45.305  32.088  34.936  1.00  0.00     0.029 A 
ATOM     65  C   UNL A   1      45.025  31.122  33.984  1.00  0.00     0.049 A 
ATOM     66  H   UNL A   1      43.213  30.737  32.975  1.00  0.00     0.167 HD
ATOM     67  C   UNL A   1      45.544  29.206  32.502  1.00  0.00     0.074 A 
ATOM     68  C   UNL A   1      46.452  28.246  31.908  1.00  0.00     0.031 C 
ATOM     69  C   UNL A   1      45.908  30.137  33.417  1.00  0.00     0.034 A 
BRANCH  56  70
ATOM     70  C   UNL A   1      41.363  34.001  35.017  1.00  0.00     0.023 A 
ATOM     71  C   UNL A   1      41.589  35.313  34.557  1.00  0.00     0.012 A 
ATOM     72  C   UNL A   1      40.688  33.801  36.238  1.00  0.00     0.148 A 
ATOM     73  C   UNL A   1      41.171  36.411  35.311  1.00  0.00     0.002 A 
ATOM     74  C   UNL A   1      40.246  34.899  36.968  1.00  0.00     0.091 A 
ATOM     75  F   UNL A   1      40.504  32.545  36.668  1.00  0.00    -0.205 F 
ATOM     76  C   UNL A   1      40.492  36.203  36.509  1.00  0.00     0.022 A 
BRANCH  74  77
ATOM     77  S   UNL A   1      39.324  34.735  38.501  1.00  0.00     0.127 S 
ATOM     78  O   UNL A   1      39.100  36.135  38.860  1.00  0.00    -0.237 OA
ATOM     79  O   UNL A   1      38.125  34.019  38.063  1.00  0.00    -0.237 OA
ATOM     80  O   UNL A   1      40.181  33.988  39.409  1.00  0.00    -0.744 OA
ENDBRANCH  74  77
ENDBRANCH  56  70
BRANCH  57  81
ATOM     81  C   UNL A   1      43.819  26.177  29.331  1.00  0.00     0.023 A 
ATOM     82  C   UNL A   1      43.769  24.859  29.823  1.00  0.00     0.012 A 
ATOM     83  C   UNL A   1      44.191  26.395  27.989  1.00  0.00     0.148 A 
ATOM     84  C   UNL A   1      44.097  23.781  28.998  1.00  0.00     0.002 A 
ATOM     85  C   UNL A   1      44.451  25.314  27.156  1.00  0.00     0.091 A 
ATOM     86  F   UNL A   1      44.266  27.658  27.547  1.00  0.00    -0.205 F 
ATOM     87  C   UNL A   1      44.421  24.007  27.662  1.00  0.00     0.022 A 
BRANCH  85  88
ATOM     88  S   UNL A   1      44.732  25.513  25.392  1.00  0.00     0.127 S 
ATOM     89  O   UNL A   1      44.619  24.139  24.915  1.00  0.00    -0.237 OA
ATOM     90  O   UNL A   1      43.627  26.392  25.006  1.00  0.00    -0.237 OA
ATOM     91  O   UNL A   1      46.049  26.123  25.273  1.00  0.00    -0.744 OA
ENDBRANCH  85  88
ENDBRANCH  57  81
BRANCH  69  92
ATOM     92  C   UNL A   1      47.345  30.146  33.867  1.00  0.00     0.023 A 
ATOM     93  C   UNL A   1      47.752  29.321  34.933  1.00  0.00     0.012 A 
ATOM     94  C   UNL A   1      48.303  30.922  33.186  1.00  0.00     0.148 A 
ATOM     95  C   UNL A   1      49.088  29.292  35.335  1.00  0.00     0.002 A 
ATOM     96  C   UNL A   1      49.640  30.849  33.559  1.00  0.00     0.091 A 
ATOM     97  F   UNL A   1      47.892  31.717  32.188  1.00  0.00    -0.205 F 
ATOM     98  C   UNL A   1      50.032  30.045  34.641  1.00  0.00     0.022 A 
BRANCH  96  99
ATOM     99  S   UNL A   1      50.935  31.708  32.658  1.00  0.00     0.127 S 
ATOM    100  O   UNL A   1      50.527  33.103  32.806  1.00  0.00    -0.237 OA
ATOM    101  O   UNL A   1      52.135  31.340  33.411  1.00  0.00    -0.237 OA
ATOM    102  O   UNL A   1      50.892  31.182  31.300  1.00  0.00    -0.744 OA
ENDBRANCH  96  99
ENDBRANCH  69  92
ENDBRANCH  43  44
ENDBRANCH  36  38
ENDBRANCH  35  36
ENDBRANCH  34  35
ENDBRANCH  33  34
ENDBRANCH  32  33
ENDBRANCH  31  32
ENDBRANCH   1  31
TORSDOF 24
ENDMDL
MODEL 3
REMARK VINA RESULT:      -9.4      3.585      8.999
REMARK SMILES CCc1cc(C(=O)c2[nH]c3cc(Cl)ccc3c2CC(=O)OCCOCCOCCOC(=O)c2ccc(-c3c4nc(c(-c5cccc(S(=O)(=O)[O-])c5F)c5ccc([nH]5)c(-c5cccc(S(=O)(=O)[O-])c5F)c5nc(c(-c6cccc(S(=O)(=O)[O-])c6F)c6ccc3[nH]6)C=C5)C=C4)cc2)ncc1Cl
REMARK SMILES IDX 25 1 24 2 23 3 22 4 21 5 19 6 20 7 18 8 17 9 8 10 9 11 10 12
REMARK SMILES IDX 16 14 11 15 15 16 12 17 14 18 13 19 6 20 7 21 5 22 3 23 4 24
REMARK SMILES IDX 98 25 97 26 99 27 96 28 2 29 1 30 26 31 27 32 28 33 29 34
REMARK SMILES IDX 30 35 31 36 32 37 33 38 34 39 95 40 35 41 94 42 36 43 37 44
REMARK SMILES IDX 38 45 88 46 39 47 93 48 87 49 89 50 40 51 92 52 86 53 85 54
REMARK SMILES IDX 41 56 73 57 53 58 72 59 54 60 57 61 71 62 90 63 55 64 56 65
REMARK SMILES IDX 70 67 91 68 58 69 42 70 43 71 51 72 44 73 46 74 52 75 45 76
REMARK SMILES IDX 47 77 48 78 49 79 50 80 74 81 75 82 83 83 76 84 78 85 84 86
REMARK SMILES IDX 77 87 79 88 80 89 81 90 82 91 59 92 60 93 68 94 61 95 63 96
REMARK SMILES IDX 69 97 62 98 64 99 65 100 66 101 67 102
REMARK H PARENT 9 13 89 55 57 66
REMARK Flexibility Score: inf
ROOT
ATOM      1  C   UNL A   1      35.165  30.645  28.513  1.00  0.00     0.188 C 
ENDROOT
BRANCH   1   2
ATOM      2  O   UNL A   1      34.557  29.587  27.778  1.00  0.00    -0.376 OA
BRANCH   2   3
ATOM      3  C   UNL A   1      34.608  29.653  26.360  1.00  0.00     0.202 C 
BRANCH   3   4
ATOM      4  C   UNL A   1      33.421  29.021  25.633  1.00  0.00     0.261 C 
BRANCH   4   5
ATOM      5  O   UNL A   1      33.582  27.593  25.469  1.00  0.00    -0.463 OA
BRANCH   5   6
ATOM      6  C   UNL A   1      32.898  26.835  26.362  1.00  0.00     0.310 C 
ATOM      7  O   UNL A   1      31.940  27.264  27.006  1.00  0.00    -0.252 OA
BRANCH   6   8
ATOM      8  C   UNL A   1      33.328  25.386  26.485  1.00  0.00     0.161 C 
BRANCH   8   9
ATOM      9  C   UNL A   1      32.813  24.337  25.521  1.00  0.00     0.000 A 
ATOM     10  C   UNL A   1      31.553  24.286  24.908  1.00  0.00     0.093 A 
ATOM     11  N   UNL A   1      31.541  23.175  24.096  1.00  0.00    -0.351 N 
ATOM     12  C   UNL A   1      32.567  22.333  24.443  1.00  0.00     0.048 A 
ATOM     13  H   UNL A   1      30.893  23.010  23.374  1.00  0.00     0.167 HD
ATOM     14  C   UNL A   1      33.400  23.042  25.308  1.00  0.00     0.004 A 
ATOM     15  C   UNL A   1      32.793  21.000  24.081  1.00  0.00     0.047 A 
ATOM     16  C   UNL A   1      34.522  22.380  25.846  1.00  0.00     0.012 A 
ATOM     17  C   UNL A   1      33.878  20.355  24.678  1.00  0.00     0.043 A 
ATOM     18  C   UNL A   1      34.734  21.029  25.545  1.00  0.00     0.021 A 
ATOM     19  Cl  UNL A   1      34.136  18.681  24.362  1.00  0.00    -0.084 Cl
BRANCH  10  20
ATOM     20  C   UNL A   1      30.443  25.210  25.046  1.00  0.00     0.227 C 
ATOM     21  O   UNL A   1      29.690  25.182  26.015  1.00  0.00    -0.285 OA
BRANCH  20  22
ATOM     22  C   UNL A   1      30.154  26.215  23.974  1.00  0.00     0.113 A 
ATOM     23  C   UNL A   1      28.806  28.012  23.080  1.00  0.00    -0.026 A 
ATOM     24  C   UNL A   1      28.919  26.850  23.879  1.00  0.00     0.037 A 
ATOM     25  C   UNL A   1      29.968  28.503  22.467  1.00  0.00     0.062 A 
ATOM     26  C   UNL A   1      31.123  27.743  22.547  1.00  0.00     0.132 A 
ATOM     27  Cl  UNL A   1      30.060  30.034  21.687  1.00  0.00    -0.082 Cl
ATOM     28  N   UNL A   1      31.228  26.592  23.251  1.00  0.00    -0.251 NA
BRANCH  23  29
ATOM     29  C   UNL A   1      27.470  28.714  22.975  1.00  0.00     0.034 C 
ATOM     30  C   UNL A   1      26.349  28.018  23.743  1.00  0.00     0.009 C 
ENDBRANCH  23  29
ENDBRANCH  20  22
ENDBRANCH  10  20
ENDBRANCH   8   9
ENDBRANCH   6   8
ENDBRANCH   5   6
ENDBRANCH   4   5
ENDBRANCH   3   4
ENDBRANCH   2   3
ENDBRANCH   1   2
BRANCH   1  31
ATOM     31  C   UNL A   1      35.355  32.005  27.810  1.00  0.00     0.188 C 
BRANCH  31  32
ATOM     32  O   UNL A   1      34.342  32.997  27.940  1.00  0.00    -0.376 OA
BRANCH  32  33
ATOM     33  C   UNL A   1      34.683  34.173  28.663  1.00  0.00     0.202 C 
BRANCH  33  34
ATOM     34  C   UNL A   1      33.503  35.098  28.943  1.00  0.00     0.261 C 
BRANCH  34  35
ATOM     35  O   UNL A   1      32.789  34.668  30.117  1.00  0.00    -0.460 OA
BRANCH  35  36
ATOM     36  C   UNL A   1      32.873  35.516  31.166  1.00  0.00     0.338 C 
ATOM     37  O   UNL A   1      32.248  36.552  31.321  1.00  0.00    -0.246 OA
BRANCH  36  38
ATOM     38  C   UNL A   1      33.845  35.030  32.161  1.00  0.00     0.060 A 
ATOM     39  C   UNL A   1      35.107  35.610  32.235  1.00  0.00     0.016 A 
ATOM     40  C   UNL A   1      33.596  33.829  32.818  1.00  0.00     0.016 A 
ATOM     41  C   UNL A   1      36.168  34.909  32.809  1.00  0.00     0.010 A 
ATOM     42  C   UNL A   1      34.639  33.179  33.487  1.00  0.00     0.010 A 
ATOM     43  C   UNL A   1      35.957  33.667  33.418  1.00  0.00    -0.014 A 
BRANCH  43  44
ATOM     44  C   UNL A   1      37.104  32.837  33.888  1.00  0.00     0.031 A 
ATOM     45  C   UNL A   1      37.832  33.196  35.165  1.00  0.00     0.074 A 
ATOM     46  C   UNL A   1      37.496  31.749  33.194  1.00  0.00     0.049 A 
ATOM     47  N   UNL A   1      38.928  32.686  35.667  1.00  0.00    -0.248 NA
ATOM     48  C   UNL A   1      37.245  34.263  35.993  1.00  0.00     0.031 C 
ATOM     49  C   UNL A   1      36.853  31.235  31.984  1.00  0.00     0.029 A 
ATOM     50  N   UNL A   1      38.554  30.892  33.395  1.00  0.00    -0.354 N 
ATOM     51  C   UNL A   1      39.178  33.390  36.842  1.00  0.00     0.074 A 
ATOM     52  C   UNL A   1      38.121  34.365  36.982  1.00  0.00     0.031 C 
ATOM     53  C   UNL A   1      37.531  30.166  31.544  1.00  0.00     0.029 A 
ATOM     54  C   UNL A   1      38.708  29.975  32.381  1.00  0.00     0.049 A 
ATOM     55  H   UNL A   1      39.141  30.931  34.185  1.00  0.00     0.167 HD
ATOM     56  C   UNL A   1      40.194  33.243  37.726  1.00  0.00     0.034 A 
ATOM     57  C   UNL A   1      39.717  29.123  32.107  1.00  0.00     0.034 A 
ATOM     58  C   UNL A   1      41.257  32.286  37.586  1.00  0.00     0.049 A 
ATOM     59  C   UNL A   1      40.903  29.071  33.027  1.00  0.00     0.074 A 
ATOM     60  C   UNL A   1      42.342  32.077  38.418  1.00  0.00     0.029 A 
ATOM     61  N   UNL A   1      41.383  31.395  36.532  1.00  0.00    -0.354 N 
ATOM     62  N   UNL A   1      41.101  29.710  34.154  1.00  0.00    -0.248 NA
ATOM     63  C   UNL A   1      42.002  28.175  32.642  1.00  0.00     0.031 C 
ATOM     64  C   UNL A   1      43.149  31.088  37.842  1.00  0.00     0.029 A 
ATOM     65  C   UNL A   1      42.544  30.655  36.673  1.00  0.00     0.049 A 
ATOM     66  H   UNL A   1      40.740  31.301  35.792  1.00  0.00     0.167 HD
ATOM     67  C   UNL A   1      42.333  29.275  34.627  1.00  0.00     0.074 A 
ATOM     68  C   UNL A   1      42.826  28.301  33.674  1.00  0.00     0.031 C 
ATOM     69  C   UNL A   1      43.003  29.659  35.741  1.00  0.00     0.034 A 
BRANCH  56  70
ATOM     70  C   UNL A   1      40.213  34.156  38.924  1.00  0.00     0.023 A 
ATOM     71  C   UNL A   1      41.073  35.272  38.943  1.00  0.00     0.012 A 
ATOM     72  C   UNL A   1      39.345  33.932  40.012  1.00  0.00     0.148 A 
ATOM     73  C   UNL A   1      41.087  36.137  40.038  1.00  0.00     0.002 A 
ATOM     74  C   UNL A   1      39.342  34.816  41.084  1.00  0.00     0.091 A 
ATOM     75  F   UNL A   1      38.551  32.852  39.983  1.00  0.00    -0.205 F 
ATOM     76  C   UNL A   1      40.216  35.915  41.102  1.00  0.00     0.022 A 
BRANCH  74  77
ATOM     77  S   UNL A   1      38.226  34.641  42.481  1.00  0.00     0.127 S 
ATOM     78  O   UNL A   1      38.524  35.850  43.248  1.00  0.00    -0.237 OA
ATOM     79  O   UNL A   1      36.916  34.640  41.830  1.00  0.00    -0.237 OA
ATOM     80  O   UNL A   1      38.584  33.388  43.129  1.00  0.00    -0.744 OA
ENDBRANCH  74  77
ENDBRANCH  56  70
BRANCH  57  81
ATOM     81  C   UNL A   1      39.657  28.281  30.877  1.00  0.00     0.023 A 
ATOM     82  C   UNL A   1      38.943  27.068  30.894  1.00  0.00     0.012 A 
ATOM     83  C   UNL A   1      40.275  28.697  29.680  1.00  0.00     0.148 A 
ATOM     84  C   UNL A   1      38.857  26.280  29.744  1.00  0.00     0.002 A 
ATOM     85  C   UNL A   1      40.129  27.942  28.524  1.00  0.00     0.091 A 
ATOM     86  F   UNL A   1      40.979  29.838  29.692  1.00  0.00    -0.205 F 
ATOM     87  C   UNL A   1      39.435  26.724  28.557  1.00  0.00     0.022 A 
BRANCH  85  88
ATOM     88  S   UNL A   1      40.718  28.517  26.927  1.00  0.00     0.127 S 
ATOM     89  O   UNL A   1      39.652  29.430  26.526  1.00  0.00    -0.237 OA
ATOM     90  O   UNL A   1      41.982  29.164  27.283  1.00  0.00    -0.237 OA
ATOM     91  O   UNL A   1      40.870  27.319  26.112  1.00  0.00    -0.744 OA
ENDBRANCH  85  88
ENDBRANCH  57  81
BRANCH  69  92
ATOM     92  C   UNL A   1      44.329  29.002  36.017  1.00  0.00     0.023 A 
ATOM     93  C   UNL A   1      44.372  27.745  36.650  1.00  0.00     0.012 A 
ATOM     94  C   UNL A   1      45.529  29.603  35.586  1.00  0.00     0.148 A 
ATOM     95  C   UNL A   1      45.592  27.108  36.878  1.00  0.00     0.002 A 
ATOM     96  C   UNL A   1      46.735  28.939  35.772  1.00  0.00     0.091 A 
ATOM     97  F   UNL A   1      45.469  30.809  35.005  1.00  0.00    -0.205 F 
ATOM     98  C   UNL A   1      46.771  27.698  36.428  1.00  0.00     0.022 A 
BRANCH  96  99
ATOM     99  S   UNL A   1      48.289  29.580  35.136  1.00  0.00     0.127 S 
ATOM    100  O   UNL A   1      48.442  30.811  35.907  1.00  0.00    -0.237 OA
ATOM    101  O   UNL A   1      49.232  28.517  35.488  1.00  0.00    -0.237 OA
ATOM    102  O   UNL A   1      48.091  29.757  33.703  1.00  0.00    -0.744 OA
ENDBRANCH  96  99
ENDBRANCH  69  92
ENDBRANCH  43  44
ENDBRANCH  36  38
ENDBRANCH  35  36
ENDBRANCH  34  35
ENDBRANCH  33  34
ENDBRANCH  32  33
ENDBRANCH  31  32
ENDBRANCH   1  31
TORSDOF 24
ENDMDL
