MODEL 1
REMARK VINA RESULT:     -11.0      0.000      0.000
REMARK SMILES O=C(OCCOCCOCCOC(=O)c1ccc(N[C@@H]2CCCS(=O)(=O)C2)c(F)c1F)c1ccc(-c2c3nc(c(-c4cccc(S(=O)(=O)[O-])c4F)c4ccc([nH]4)c(-c4cccc(S(=O)(=O)[O-])c4F)c4nc(c(-c5cccc(S(=O)(=O)[O-])c5F)c5ccc2[nH]5)C=C4)C=C3)cc1
REMARK SMILES IDX 7 1 6 2 5 3 4 4 3 5 2 6 1 7 32 8 33 9 94 10 34 11 93 12
REMARK SMILES IDX 35 13 36 14 37 15 87 16 38 17 92 18 86 19 88 20 39 21 91 22
REMARK SMILES IDX 85 23 84 24 40 26 72 27 52 28 71 29 53 30 56 31 70 32 89 33
REMARK SMILES IDX 54 34 55 35 69 37 90 38 57 39 41 40 42 41 50 42 43 43 45 44
REMARK SMILES IDX 51 45 44 46 46 47 47 48 48 49 49 50 73 51 74 52 82 53 75 54
REMARK SMILES IDX 77 55 83 56 76 57 78 58 79 59 80 60 81 61 58 62 59 63 67 64
REMARK SMILES IDX 60 65 62 66 68 67 61 68 63 69 64 70 65 71 66 72 8 73 9 74
REMARK SMILES IDX 10 75 11 76 12 77 13 78 14 79 15 80 16 81 30 82 17 83 28 84
REMARK SMILES IDX 31 85 18 86 29 87 19 88 20 90 21 91 27 92 22 93 24 94 23 95
REMARK SMILES IDX 25 96 26 97
REMARK H PARENT 88 25 56 36 19 89
REMARK Flexibility Score: inf
ROOT
ATOM      1  C   UNL A   1      36.628  23.664  24.827  1.00  0.00     0.188 C 
ENDROOT
BRANCH   1   2
ATOM      2  O   UNL A   1      36.736  22.304  24.430  1.00  0.00    -0.376 OA
BRANCH   2   3
ATOM      3  C   UNL A   1      37.064  21.348  25.439  1.00  0.00     0.202 C 
BRANCH   3   4
ATOM      4  C   UNL A   1      37.761  20.028  25.052  1.00  0.00     0.261 C 
BRANCH   4   5
ATOM      5  O   UNL A   1      39.191  19.921  25.247  1.00  0.00    -0.460 OA
BRANCH   5   6
ATOM      6  C   UNL A   1      40.039  20.249  26.249  1.00  0.00     0.338 C 
ATOM      7  O   UNL A   1      40.651  19.346  26.814  1.00  0.00    -0.246 OA
BRANCH   6   8
ATOM      8  C   UNL A   1      40.262  21.645  26.709  1.00  0.00     0.060 A 
ATOM      9  C   UNL A   1      39.819  22.767  26.025  1.00  0.00     0.016 A 
ATOM     10  C   UNL A   1      40.912  21.848  27.934  1.00  0.00     0.016 A 
ATOM     11  C   UNL A   1      40.193  24.048  26.393  1.00  0.00     0.010 A 
ATOM     12  C   UNL A   1      41.213  23.145  28.374  1.00  0.00     0.010 A 
ATOM     13  C   UNL A   1      40.933  24.246  27.549  1.00  0.00    -0.014 A 
BRANCH  13  14
ATOM     14  C   UNL A   1      41.611  25.551  27.724  1.00  0.00     0.031 A 
ATOM     15  C   UNL A   1      40.860  26.605  28.497  1.00  0.00     0.074 A 
ATOM     16  C   UNL A   1      42.901  25.730  27.372  1.00  0.00     0.049 A 
ATOM     17  N   UNL A   1      41.224  27.819  28.801  1.00  0.00    -0.248 NA
ATOM     18  C   UNL A   1      39.538  26.229  29.042  1.00  0.00     0.031 C 
ATOM     19  C   UNL A   1      43.787  24.688  26.849  1.00  0.00     0.029 A 
ATOM     20  N   UNL A   1      43.715  26.835  27.438  1.00  0.00    -0.354 N 
ATOM     21  C   UNL A   1      40.164  28.361  29.518  1.00  0.00     0.074 A 
ATOM     22  C   UNL A   1      39.138  27.353  29.610  1.00  0.00     0.031 C 
ATOM     23  C   UNL A   1      45.011  25.209  26.656  1.00  0.00     0.029 A 
ATOM     24  C   UNL A   1      44.978  26.633  26.913  1.00  0.00     0.049 A 
ATOM     25  H   UNL A   1      43.426  27.693  27.824  1.00  0.00     0.167 HD
ATOM     26  C   UNL A   1      40.065  29.596  30.057  1.00  0.00     0.034 A 
ATOM     27  C   UNL A   1      45.967  27.516  26.652  1.00  0.00     0.034 A 
ATOM     28  C   UNL A   1      41.116  30.567  29.967  1.00  0.00     0.049 A 
ATOM     29  C   UNL A   1      45.765  28.906  27.165  1.00  0.00     0.074 A 
ATOM     30  C   UNL A   1      41.143  31.857  30.460  1.00  0.00     0.029 A 
ATOM     31  N   UNL A   1      42.324  30.352  29.322  1.00  0.00    -0.354 N 
ATOM     32  N   UNL A   1      44.731  29.411  27.792  1.00  0.00    -0.248 NA
ATOM     33  C   UNL A   1      46.911  29.811  27.031  1.00  0.00     0.031 C 
ATOM     34  C   UNL A   1      42.347  32.443  30.056  1.00  0.00     0.029 A 
ATOM     35  C   UNL A   1      43.095  31.495  29.376  1.00  0.00     0.049 A 
ATOM     36  H   UNL A   1      42.592  29.508  28.889  1.00  0.00     0.167 HD
ATOM     37  C   UNL A   1      45.116  30.687  28.163  1.00  0.00     0.074 A 
ATOM     38  C   UNL A   1      46.476  30.868  27.694  1.00  0.00     0.031 C 
ATOM     39  C   UNL A   1      44.426  31.626  28.851  1.00  0.00     0.034 A 
BRANCH  26  40
ATOM     40  C   UNL A   1      38.764  29.972  30.712  1.00  0.00     0.023 A 
ATOM     41  C   UNL A   1      38.462  29.565  32.026  1.00  0.00     0.012 A 
ATOM     42  C   UNL A   1      37.831  30.745  29.996  1.00  0.00     0.148 A 
ATOM     43  C   UNL A   1      37.234  29.891  32.604  1.00  0.00     0.002 A 
ATOM     44  C   UNL A   1      36.633  31.111  30.595  1.00  0.00     0.091 A 
ATOM     45  F   UNL A   1      38.122  31.090  28.734  1.00  0.00    -0.205 F 
ATOM     46  C   UNL A   1      36.325  30.672  31.893  1.00  0.00     0.022 A 
BRANCH  44  47
ATOM     47  S   UNL A   1      35.436  32.174  29.785  1.00  0.00     0.127 S 
ATOM     48  O   UNL A   1      34.467  32.397  30.858  1.00  0.00    -0.237 OA
ATOM     49  O   UNL A   1      36.248  33.341  29.445  1.00  0.00    -0.237 OA
ATOM     50  O   UNL A   1      34.934  31.423  28.644  1.00  0.00    -0.744 OA
ENDBRANCH  44  47
ENDBRANCH  26  40
BRANCH  27  51
ATOM     51  C   UNL A   1      47.260  27.186  25.969  1.00  0.00     0.023 A 
ATOM     52  C   UNL A   1      47.380  27.389  24.583  1.00  0.00     0.012 A 
ATOM     53  C   UNL A   1      48.324  26.546  26.658  1.00  0.00     0.148 A 
ATOM     54  C   UNL A   1      48.538  27.000  23.901  1.00  0.00     0.002 A 
ATOM     55  C   UNL A   1      49.497  26.196  25.976  1.00  0.00     0.091 A 
ATOM     56  F   UNL A   1      48.165  26.300  27.966  1.00  0.00    -0.205 F 
ATOM     57  C   UNL A   1      49.598  26.422  24.596  1.00  0.00     0.022 A 
BRANCH  55  58
ATOM     58  S   UNL A   1      50.993  25.549  26.771  1.00  0.00     0.127 S 
ATOM     59  O   UNL A   1      51.422  26.694  27.575  1.00  0.00    -0.237 OA
ATOM     60  O   UNL A   1      50.469  24.432  27.568  1.00  0.00    -0.237 OA
ATOM     61  O   UNL A   1      51.918  25.188  25.704  1.00  0.00    -0.744 OA
ENDBRANCH  55  58
ENDBRANCH  27  51
BRANCH  39  62
ATOM     62  C   UNL A   1      45.155  32.905  29.118  1.00  0.00     0.023 A 
ATOM     63  C   UNL A   1      46.060  32.993  30.193  1.00  0.00     0.012 A 
ATOM     64  C   UNL A   1      44.933  34.019  28.289  1.00  0.00     0.148 A 
ATOM     65  C   UNL A   1      46.696  34.197  30.473  1.00  0.00     0.002 A 
ATOM     66  C   UNL A   1      45.623  35.194  28.534  1.00  0.00     0.091 A 
ATOM     67  F   UNL A   1      44.040  33.911  27.294  1.00  0.00    -0.205 F 
ATOM     68  C   UNL A   1      46.488  35.292  29.637  1.00  0.00     0.022 A 
BRANCH  66  69
ATOM     69  S   UNL A   1      45.501  36.610  27.442  1.00  0.00     0.127 S 
ATOM     70  O   UNL A   1      45.390  35.970  26.132  1.00  0.00    -0.237 OA
ATOM     71  O   UNL A   1      44.275  37.255  27.914  1.00  0.00    -0.237 OA
ATOM     72  O   UNL A   1      46.713  37.390  27.653  1.00  0.00    -0.744 OA
ENDBRANCH  66  69
ENDBRANCH  39  62
ENDBRANCH  13  14
ENDBRANCH   6   8
ENDBRANCH   5   6
ENDBRANCH   4   5
ENDBRANCH   3   4
ENDBRANCH   2   3
ENDBRANCH   1   2
BRANCH   1  73
ATOM     73  C   UNL A   1      35.466  23.997  25.763  1.00  0.00     0.188 C 
BRANCH  73  74
ATOM     74  O   UNL A   1      34.158  24.056  25.212  1.00  0.00    -0.376 OA
BRANCH  74  75
ATOM     75  C   UNL A   1      33.364  22.877  25.266  1.00  0.00     0.202 C 
BRANCH  75  76
ATOM     76  C   UNL A   1      32.553  22.452  24.030  1.00  0.00     0.261 C 
BRANCH  76  77
ATOM     77  O   UNL A   1      31.778  23.478  23.395  1.00  0.00    -0.460 OA
BRANCH  77  78
ATOM     78  C   UNL A   1      32.467  24.224  22.503  1.00  0.00     0.341 C 
ATOM     79  O   UNL A   1      33.406  23.883  21.803  1.00  0.00    -0.246 OA
BRANCH  78  80
ATOM     80  C   UNL A   1      32.043  25.613  22.588  1.00  0.00     0.099 A 
ATOM     81  C   UNL A   1      30.775  25.804  23.109  1.00  0.00     0.021 A 
ATOM     82  C   UNL A   1      32.893  26.693  22.372  1.00  0.00     0.175 A 
ATOM     83  C   UNL A   1      30.386  27.085  23.453  1.00  0.00     0.030 A 
ATOM     84  C   UNL A   1      32.460  27.985  22.674  1.00  0.00     0.182 A 
ATOM     85  F   UNL A   1      34.140  26.510  21.918  1.00  0.00    -0.203 F 
ATOM     86  C   UNL A   1      31.192  28.214  23.225  1.00  0.00     0.074 A 
ATOM     87  F   UNL A   1      33.284  29.025  22.463  1.00  0.00    -0.201 F 
BRANCH  86  88
ATOM     88  N   UNL A   1      30.779  29.500  23.561  1.00  0.00    -0.379 N 
ATOM     89  H   UNL A   1      31.428  30.093  24.003  1.00  0.00     0.160 HD
BRANCH  88  90
ATOM     90  C   UNL A   1      29.427  30.032  23.294  1.00  0.00     0.094 C 
ATOM     91  C   UNL A   1      29.073  29.738  21.814  1.00  0.00     0.027 C 
ATOM     92  C   UNL A   1      29.343  31.445  23.853  1.00  0.00     0.161 C 
ATOM     93  C   UNL A   1      27.977  30.577  21.175  1.00  0.00     0.018 C 
ATOM     94  S   UNL A   1      28.241  32.502  23.010  1.00  0.00     0.152 S 
ATOM     95  C   UNL A   1      28.269  32.044  21.312  1.00  0.00     0.137 C 
ATOM     96  O   UNL A   1      28.777  33.842  23.057  1.00  0.00    -0.229 OA
ATOM     97  O   UNL A   1      26.959  32.117  23.551  1.00  0.00    -0.229 OA
ENDBRANCH  88  90
ENDBRANCH  86  88
ENDBRANCH  78  80
ENDBRANCH  77  78
ENDBRANCH  76  77
ENDBRANCH  75  76
ENDBRANCH  74  75
ENDBRANCH  73  74
ENDBRANCH   1  73
TORSDOF 22
ENDMDL
MODEL 2
REMARK VINA RESULT:     -11.0      1.881      2.483
REMARK SMILES O=C(OCCOCCOCCOC(=O)c1ccc(N[C@@H]2CCCS(=O)(=O)C2)c(F)c1F)c1ccc(-c2c3nc(c(-c4cccc(S(=O)(=O)[O-])c4F)c4ccc([nH]4)c(-c4cccc(S(=O)(=O)[O-])c4F)c4nc(c(-c5cccc(S(=O)(=O)[O-])c5F)c5ccc2[nH]5)C=C4)C=C3)cc1
REMARK SMILES IDX 7 1 6 2 5 3 4 4 3 5 2 6 1 7 32 8 33 9 94 10 34 11 93 12
REMARK SMILES IDX 35 13 36 14 37 15 87 16 38 17 92 18 86 19 88 20 39 21 91 22
REMARK SMILES IDX 85 23 84 24 40 26 72 27 52 28 71 29 53 30 56 31 70 32 89 33
REMARK SMILES IDX 54 34 55 35 69 37 90 38 57 39 41 40 42 41 50 42 43 43 45 44
REMARK SMILES IDX 51 45 44 46 46 47 47 48 48 49 49 50 73 51 74 52 82 53 75 54
REMARK SMILES IDX 77 55 83 56 76 57 78 58 79 59 80 60 81 61 58 62 59 63 67 64
REMARK SMILES IDX 60 65 62 66 68 67 61 68 63 69 64 70 65 71 66 72 8 73 9 74
REMARK SMILES IDX 10 75 11 76 12 77 13 78 14 79 15 80 16 81 30 82 17 83 28 84
REMARK SMILES IDX 31 85 18 86 29 87 19 88 20 90 21 91 27 92 22 93 24 94 23 95
REMARK SMILES IDX 25 96 26 97
REMARK H PARENT 88 25 56 36 19 89
REMARK Flexibility Score: inf
ROOT
ATOM      1  C   UNL A   1      36.397  23.187  24.587  1.00  0.00     0.188 C 
ENDROOT
BRANCH   1   2
ATOM      2  O   UNL A   1      36.474  21.806  24.263  1.00  0.00    -0.376 OA
BRANCH   2   3
ATOM      3  C   UNL A   1      36.912  20.912  25.288  1.00  0.00     0.202 C 
BRANCH   3   4
ATOM      4  C   UNL A   1      37.919  19.793  24.956  1.00  0.00     0.261 C 
BRANCH   4   5
ATOM      5  O   UNL A   1      39.317  20.015  25.253  1.00  0.00    -0.460 OA
BRANCH   5   6
ATOM      6  C   UNL A   1      40.012  20.323  26.372  1.00  0.00     0.338 C 
ATOM      7  O   UNL A   1      40.461  19.404  27.052  1.00  0.00    -0.246 OA
BRANCH   6   8
ATOM      8  C   UNL A   1      40.252  21.718  26.830  1.00  0.00     0.060 A 
ATOM      9  C   UNL A   1      39.742  22.840  26.195  1.00  0.00     0.016 A 
ATOM     10  C   UNL A   1      40.994  21.917  28.002  1.00  0.00     0.016 A 
ATOM     11  C   UNL A   1      40.127  24.122  26.547  1.00  0.00     0.010 A 
ATOM     12  C   UNL A   1      41.311  23.213  28.432  1.00  0.00     0.010 A 
ATOM     13  C   UNL A   1      40.953  24.319  27.644  1.00  0.00    -0.014 A 
BRANCH  13  14
ATOM     14  C   UNL A   1      41.625  25.632  27.780  1.00  0.00     0.031 A 
ATOM     15  C   UNL A   1      40.887  26.693  28.555  1.00  0.00     0.074 A 
ATOM     16  C   UNL A   1      42.905  25.814  27.391  1.00  0.00     0.049 A 
ATOM     17  N   UNL A   1      41.249  27.914  28.829  1.00  0.00    -0.248 NA
ATOM     18  C   UNL A   1      39.582  26.316  29.140  1.00  0.00     0.031 C 
ATOM     19  C   UNL A   1      43.785  24.770  26.863  1.00  0.00     0.029 A 
ATOM     20  N   UNL A   1      43.712  26.925  27.418  1.00  0.00    -0.354 N 
ATOM     21  C   UNL A   1      40.204  28.460  29.565  1.00  0.00     0.074 A 
ATOM     22  C   UNL A   1      39.188  27.447  29.699  1.00  0.00     0.031 C 
ATOM     23  C   UNL A   1      45.000  25.296  26.630  1.00  0.00     0.029 A 
ATOM     24  C   UNL A   1      44.962  26.724  26.864  1.00  0.00     0.049 A 
ATOM     25  H   UNL A   1      43.426  27.788  27.798  1.00  0.00     0.167 HD
ATOM     26  C   UNL A   1      40.110  29.703  30.086  1.00  0.00     0.034 A 
ATOM     27  C   UNL A   1      45.937  27.609  26.563  1.00  0.00     0.034 A 
ATOM     28  C   UNL A   1      41.150  30.680  29.953  1.00  0.00     0.049 A 
ATOM     29  C   UNL A   1      45.738  29.007  27.058  1.00  0.00     0.074 A 
ATOM     30  C   UNL A   1      41.181  31.979  30.423  1.00  0.00     0.029 A 
ATOM     31  N   UNL A   1      42.343  30.463  29.280  1.00  0.00    -0.354 N 
ATOM     32  N   UNL A   1      44.717  29.515  27.704  1.00  0.00    -0.248 NA
ATOM     33  C   UNL A   1      46.874  29.917  26.880  1.00  0.00     0.031 C 
ATOM     34  C   UNL A   1      42.369  32.566  29.979  1.00  0.00     0.029 A 
ATOM     35  C   UNL A   1      43.107  31.613  29.295  1.00  0.00     0.049 A 
ATOM     36  H   UNL A   1      42.606  29.614  28.854  1.00  0.00     0.167 HD
ATOM     37  C   UNL A   1      45.101  30.799  28.043  1.00  0.00     0.074 A 
ATOM     38  C   UNL A   1      46.448  30.982  27.537  1.00  0.00     0.031 C 
ATOM     39  C   UNL A   1      44.422  31.745  28.734  1.00  0.00     0.034 A 
BRANCH  26  40
ATOM     40  C   UNL A   1      38.823  30.081  30.768  1.00  0.00     0.023 A 
ATOM     41  C   UNL A   1      38.570  29.715  32.104  1.00  0.00     0.012 A 
ATOM     42  C   UNL A   1      37.854  30.813  30.055  1.00  0.00     0.148 A 
ATOM     43  C   UNL A   1      37.354  30.042  32.709  1.00  0.00     0.002 A 
ATOM     44  C   UNL A   1      36.670  31.179  30.678  1.00  0.00     0.091 A 
ATOM     45  F   UNL A   1      38.101  31.118  28.773  1.00  0.00    -0.205 F 
ATOM     46  C   UNL A   1      36.410  30.782  32.000  1.00  0.00     0.022 A 
BRANCH  44  47
ATOM     47  S   UNL A   1      35.430  32.194  29.871  1.00  0.00     0.127 S 
ATOM     48  O   UNL A   1      36.213  33.368  29.488  1.00  0.00    -0.237 OA
ATOM     49  O   UNL A   1      35.021  31.342  28.755  1.00  0.00    -0.237 OA
ATOM     50  O   UNL A   1      34.395  32.436  30.866  1.00  0.00    -0.744 OA
ENDBRANCH  44  47
ENDBRANCH  26  40
BRANCH  27  51
ATOM     51  C   UNL A   1      47.215  27.278  25.852  1.00  0.00     0.023 A 
ATOM     52  C   UNL A   1      48.306  26.784  26.588  1.00  0.00     0.012 A 
ATOM     53  C   UNL A   1      47.401  27.577  24.477  1.00  0.00     0.148 A 
ATOM     54  C   UNL A   1      49.541  26.558  25.972  1.00  0.00     0.002 A 
ATOM     55  C   UNL A   1      48.629  27.311  23.856  1.00  0.00     0.091 A 
ATOM     56  F   UNL A   1      46.370  28.110  23.806  1.00  0.00    -0.205 F 
ATOM     57  C   UNL A   1      49.698  26.804  24.609  1.00  0.00     0.022 A 
BRANCH  55  58
ATOM     58  S   UNL A   1      48.937  27.470  22.076  1.00  0.00     0.127 S 
ATOM     59  O   UNL A   1      48.596  26.131  21.595  1.00  0.00    -0.237 OA
ATOM     60  O   UNL A   1      47.971  28.503  21.680  1.00  0.00    -0.237 OA
ATOM     61  O   UNL A   1      50.343  27.822  21.918  1.00  0.00    -0.744 OA
ENDBRANCH  55  58
ENDBRANCH  27  51
BRANCH  39  62
ATOM     62  C   UNL A   1      45.148  33.033  28.961  1.00  0.00     0.023 A 
ATOM     63  C   UNL A   1      46.008  33.176  30.066  1.00  0.00     0.012 A 
ATOM     64  C   UNL A   1      44.968  34.101  28.064  1.00  0.00     0.148 A 
ATOM     65  C   UNL A   1      46.641  34.390  30.306  1.00  0.00     0.002 A 
ATOM     66  C   UNL A   1      45.655  35.284  28.273  1.00  0.00     0.091 A 
ATOM     67  F   UNL A   1      44.116  33.942  27.040  1.00  0.00    -0.205 F 
ATOM     68  C   UNL A   1      46.475  35.439  29.404  1.00  0.00     0.022 A 
BRANCH  66  69
ATOM     69  S   UNL A   1      45.588  36.639  27.101  1.00  0.00     0.127 S 
ATOM     70  O   UNL A   1      46.340  37.678  27.801  1.00  0.00    -0.237 OA
ATOM     71  O   UNL A   1      46.267  36.069  25.936  1.00  0.00    -0.237 OA
ATOM     72  O   UNL A   1      44.174  36.925  26.894  1.00  0.00    -0.744 OA
ENDBRANCH  66  69
ENDBRANCH  39  62
ENDBRANCH  13  14
ENDBRANCH   6   8
ENDBRANCH   5   6
ENDBRANCH   4   5
ENDBRANCH   3   4
ENDBRANCH   2   3
ENDBRANCH   1   2
BRANCH   1  73
ATOM     73  C   UNL A   1      36.144  23.515  26.059  1.00  0.00     0.188 C 
BRANCH  73  74
ATOM     74  O   UNL A   1      34.799  23.677  26.487  1.00  0.00    -0.376 OA
BRANCH  74  75
ATOM     75  C   UNL A   1      34.293  22.753  27.443  1.00  0.00     0.202 C 
BRANCH  75  76
ATOM     76  C   UNL A   1      33.971  21.313  27.011  1.00  0.00     0.261 C 
BRANCH  76  77
ATOM     77  O   UNL A   1      32.670  21.096  26.447  1.00  0.00    -0.460 OA
BRANCH  77  78
ATOM     78  C   UNL A   1      32.601  21.301  25.112  1.00  0.00     0.341 C 
ATOM     79  O   UNL A   1      33.255  20.764  24.234  1.00  0.00    -0.246 OA
BRANCH  78  80
ATOM     80  C   UNL A   1      31.717  22.421  24.830  1.00  0.00     0.099 A 
ATOM     81  C   UNL A   1      31.091  22.963  25.939  1.00  0.00     0.021 A 
ATOM     82  C   UNL A   1      31.647  23.056  23.594  1.00  0.00     0.175 A 
ATOM     83  C   UNL A   1      30.432  24.170  25.804  1.00  0.00     0.030 A 
ATOM     84  C   UNL A   1      30.929  24.246  23.466  1.00  0.00     0.182 A 
ATOM     85  F   UNL A   1      32.295  22.565  22.528  1.00  0.00    -0.203 F 
ATOM     86  C   UNL A   1      30.302  24.835  24.572  1.00  0.00     0.074 A 
ATOM     87  F   UNL A   1      30.863  24.854  22.270  1.00  0.00    -0.201 F 
BRANCH  86  88
ATOM     88  N   UNL A   1      29.619  26.042  24.449  1.00  0.00    -0.379 N 
ATOM     89  H   UNL A   1      28.746  26.125  24.894  1.00  0.00     0.160 HD
BRANCH  88  90
ATOM     90  C   UNL A   1      30.124  27.206  23.694  1.00  0.00     0.094 C 
ATOM     91  C   UNL A   1      31.115  27.980  24.600  1.00  0.00     0.027 C 
ATOM     92  C   UNL A   1      28.943  27.912  23.044  1.00  0.00     0.161 C 
ATOM     93  C   UNL A   1      31.396  29.433  24.251  1.00  0.00     0.018 C 
ATOM     94  S   UNL A   1      29.150  29.629  22.815  1.00  0.00     0.152 S 
ATOM     95  C   UNL A   1      30.122  30.223  24.155  1.00  0.00     0.137 C 
ATOM     96  O   UNL A   1      27.861  30.262  22.962  1.00  0.00    -0.229 OA
ATOM     97  O   UNL A   1      29.958  29.691  21.620  1.00  0.00    -0.229 OA
ENDBRANCH  88  90
ENDBRANCH  86  88
ENDBRANCH  78  80
ENDBRANCH  77  78
ENDBRANCH  76  77
ENDBRANCH  75  76
ENDBRANCH  74  75
ENDBRANCH  73  74
ENDBRANCH   1  73
TORSDOF 22
ENDMDL
MODEL 3
REMARK VINA RESULT:     -10.9      1.229      7.743
REMARK SMILES O=C(OCCOCCOCCOC(=O)c1ccc(N[C@@H]2CCCS(=O)(=O)C2)c(F)c1F)c1ccc(-c2c3nc(c(-c4cccc(S(=O)(=O)[O-])c4F)c4ccc([nH]4)c(-c4cccc(S(=O)(=O)[O-])c4F)c4nc(c(-c5cccc(S(=O)(=O)[O-])c5F)c5ccc2[nH]5)C=C4)C=C3)cc1
REMARK SMILES IDX 7 1 6 2 5 3 4 4 3 5 2 6 1 7 32 8 33 9 94 10 34 11 93 12
REMARK SMILES IDX 35 13 36 14 37 15 87 16 38 17 92 18 86 19 88 20 39 21 91 22
REMARK SMILES IDX 85 23 84 24 40 26 72 27 52 28 71 29 53 30 56 31 70 32 89 33
REMARK SMILES IDX 54 34 55 35 69 37 90 38 57 39 41 40 42 41 50 42 43 43 45 44
REMARK SMILES IDX 51 45 44 46 46 47 47 48 48 49 49 50 73 51 74 52 82 53 75 54
REMARK SMILES IDX 77 55 83 56 76 57 78 58 79 59 80 60 81 61 58 62 59 63 67 64
REMARK SMILES IDX 60 65 62 66 68 67 61 68 63 69 64 70 65 71 66 72 8 73 9 74
REMARK SMILES IDX 10 75 11 76 12 77 13 78 14 79 15 80 16 81 30 82 17 83 28 84
REMARK SMILES IDX 31 85 18 86 29 87 19 88 20 90 21 91 27 92 22 93 24 94 23 95
REMARK SMILES IDX 25 96 26 97
REMARK H PARENT 88 25 56 36 19 89
REMARK Flexibility Score: inf
ROOT
ATOM      1  C   UNL A   1      37.182  21.924  24.187  1.00  0.00     0.188 C 
ENDROOT
BRANCH   1   2
ATOM      2  O   UNL A   1      37.497  20.609  24.626  1.00  0.00    -0.376 OA
BRANCH   2   3
ATOM      3  C   UNL A   1      38.512  20.473  25.621  1.00  0.00     0.202 C 
BRANCH   3   4
ATOM      4  C   UNL A   1      39.310  19.158  25.733  1.00  0.00     0.261 C 
BRANCH   4   5
ATOM      5  O   UNL A   1      40.749  19.212  25.597  1.00  0.00    -0.460 OA
BRANCH   5   6
ATOM      6  C   UNL A   1      41.740  19.869  26.243  1.00  0.00     0.338 C 
ATOM      7  O   UNL A   1      42.778  19.261  26.491  1.00  0.00    -0.246 OA
BRANCH   6   8
ATOM      8  C   UNL A   1      41.633  21.286  26.680  1.00  0.00     0.060 A 
ATOM      9  C   UNL A   1      41.325  22.338  25.831  1.00  0.00     0.016 A 
ATOM     10  C   UNL A   1      41.802  21.580  28.040  1.00  0.00     0.016 A 
ATOM     11  C   UNL A   1      41.404  23.659  26.237  1.00  0.00     0.010 A 
ATOM     12  C   UNL A   1      41.786  22.908  28.489  1.00  0.00     0.010 A 
ATOM     13  C   UNL A   1      41.680  23.959  27.563  1.00  0.00    -0.014 A 
BRANCH  13  14
ATOM     14  C   UNL A   1      42.106  25.339  27.888  1.00  0.00     0.031 A 
ATOM     15  C   UNL A   1      43.466  25.762  27.394  1.00  0.00     0.074 A 
ATOM     16  C   UNL A   1      41.255  26.231  28.438  1.00  0.00     0.049 A 
ATOM     17  N   UNL A   1      44.072  26.907  27.529  1.00  0.00    -0.248 NA
ATOM     18  C   UNL A   1      44.230  24.778  26.597  1.00  0.00     0.031 C 
ATOM     19  C   UNL A   1      39.839  25.986  28.718  1.00  0.00     0.029 A 
ATOM     20  N   UNL A   1      41.432  27.538  28.821  1.00  0.00    -0.354 N 
ATOM     21  C   UNL A   1      45.297  26.762  26.889  1.00  0.00     0.074 A 
ATOM     22  C   UNL A   1      45.359  25.423  26.361  1.00  0.00     0.031 C 
ATOM     23  C   UNL A   1      39.289  27.107  29.215  1.00  0.00     0.029 A 
ATOM     24  C   UNL A   1      40.319  28.106  29.412  1.00  0.00     0.049 A 
ATOM     25  H   UNL A   1      42.277  28.027  28.687  1.00  0.00     0.167 HD
ATOM     26  C   UNL A   1      46.281  27.678  26.752  1.00  0.00     0.034 A 
ATOM     27  C   UNL A   1      40.177  29.284  30.056  1.00  0.00     0.034 A 
ATOM     28  C   UNL A   1      46.177  29.011  27.270  1.00  0.00     0.049 A 
ATOM     29  C   UNL A   1      41.338  30.225  29.979  1.00  0.00     0.074 A 
ATOM     30  C   UNL A   1      47.102  30.035  27.211  1.00  0.00     0.029 A 
ATOM     31  N   UNL A   1      45.078  29.495  27.964  1.00  0.00    -0.354 N 
ATOM     32  N   UNL A   1      42.507  30.046  29.415  1.00  0.00    -0.248 NA
ATOM     33  C   UNL A   1      41.114  31.565  30.530  1.00  0.00     0.031 C 
ATOM     34  C   UNL A   1      46.584  31.120  27.924  1.00  0.00     0.029 A 
ATOM     35  C   UNL A   1      45.311  30.795  28.365  1.00  0.00     0.049 A 
ATOM     36  H   UNL A   1      44.253  28.986  28.143  1.00  0.00     0.167 HD
ATOM     37  C   UNL A   1      43.150  31.267  29.510  1.00  0.00     0.074 A 
ATOM     38  C   UNL A   1      42.235  32.172  30.179  1.00  0.00     0.031 C 
ATOM     39  C   UNL A   1      44.376  31.629  29.067  1.00  0.00     0.034 A 
BRANCH  26  40
ATOM     40  C   UNL A   1      47.558  27.240  26.089  1.00  0.00     0.023 A 
ATOM     41  C   UNL A   1      47.812  27.525  24.733  1.00  0.00     0.012 A 
ATOM     42  C   UNL A   1      48.516  26.531  26.838  1.00  0.00     0.148 A 
ATOM     43  C   UNL A   1      48.987  27.077  24.124  1.00  0.00     0.002 A 
ATOM     44  C   UNL A   1      49.704  26.134  26.241  1.00  0.00     0.091 A 
ATOM     45  F   UNL A   1      48.237  26.238  28.116  1.00  0.00    -0.205 F 
ATOM     46  C   UNL A   1      49.935  26.392  24.880  1.00  0.00     0.022 A 
BRANCH  44  47
ATOM     47  S   UNL A   1      51.014  25.313  27.152  1.00  0.00     0.127 S 
ATOM     48  O   UNL A   1      51.575  26.422  27.924  1.00  0.00    -0.237 OA
ATOM     49  O   UNL A   1      50.267  24.335  27.941  1.00  0.00    -0.237 OA
ATOM     50  O   UNL A   1      51.904  24.741  26.152  1.00  0.00    -0.744 OA
ENDBRANCH  44  47
ENDBRANCH  26  40
BRANCH  27  51
ATOM     51  C   UNL A   1      38.933  29.739  30.760  1.00  0.00     0.023 A 
ATOM     52  C   UNL A   1      38.649  29.248  32.046  1.00  0.00     0.012 A 
ATOM     53  C   UNL A   1      37.963  30.546  30.109  1.00  0.00     0.148 A 
ATOM     54  C   UNL A   1      37.450  29.577  32.688  1.00  0.00     0.002 A 
ATOM     55  C   UNL A   1      36.783  30.904  30.773  1.00  0.00     0.091 A 
ATOM     56  F   UNL A   1      38.222  30.951  28.857  1.00  0.00    -0.205 F 
ATOM     57  C   UNL A   1      36.529  30.414  32.063  1.00  0.00     0.022 A 
BRANCH  55  58
ATOM     58  S   UNL A   1      35.557  32.077  30.131  1.00  0.00     0.127 S 
ATOM     59  O   UNL A   1      36.367  33.280  29.940  1.00  0.00    -0.237 OA
ATOM     60  O   UNL A   1      35.141  31.441  28.875  1.00  0.00    -0.237 OA
ATOM     61  O   UNL A   1      34.521  32.208  31.149  1.00  0.00    -0.744 OA
ENDBRANCH  55  58
ENDBRANCH  27  51
BRANCH  39  62
ATOM     62  C   UNL A   1      44.760  33.055  29.304  1.00  0.00     0.023 A 
ATOM     63  C   UNL A   1      45.315  33.442  30.539  1.00  0.00     0.012 A 
ATOM     64  C   UNL A   1      44.564  34.008  28.289  1.00  0.00     0.148 A 
ATOM     65  C   UNL A   1      45.621  34.777  30.778  1.00  0.00     0.002 A 
ATOM     66  C   UNL A   1      44.936  35.322  28.511  1.00  0.00     0.091 A 
ATOM     67  F   UNL A   1      44.003  33.611  27.137  1.00  0.00    -0.205 F 
ATOM     68  C   UNL A   1      45.444  35.714  29.762  1.00  0.00     0.022 A 
BRANCH  66  69
ATOM     69  S   UNL A   1      44.849  36.563  27.222  1.00  0.00     0.127 S 
ATOM     70  O   UNL A   1      43.406  36.686  27.021  1.00  0.00    -0.237 OA
ATOM     71  O   UNL A   1      45.479  37.717  27.865  1.00  0.00    -0.237 OA
ATOM     72  O   UNL A   1      45.592  36.024  26.090  1.00  0.00    -0.744 OA
ENDBRANCH  66  69
ENDBRANCH  39  62
ENDBRANCH  13  14
ENDBRANCH   6   8
ENDBRANCH   5   6
ENDBRANCH   4   5
ENDBRANCH   3   4
ENDBRANCH   2   3
ENDBRANCH   1   2
BRANCH   1  73
ATOM     73  C   UNL A   1      35.905  22.533  24.766  1.00  0.00     0.188 C 
BRANCH  73  74
ATOM     74  O   UNL A   1      34.657  22.017  24.325  1.00  0.00    -0.376 OA
BRANCH  74  75
ATOM     75  C   UNL A   1      34.043  21.006  25.116  1.00  0.00     0.202 C 
BRANCH  75  76
ATOM     76  C   UNL A   1      32.510  20.963  25.234  1.00  0.00     0.261 C 
BRANCH  76  77
ATOM     77  O   UNL A   1      31.830  22.222  25.134  1.00  0.00    -0.460 OA
BRANCH  77  78
ATOM     78  C   UNL A   1      31.548  22.602  23.867  1.00  0.00     0.341 C 
ATOM     79  O   UNL A   1      31.602  21.930  22.850  1.00  0.00    -0.246 OA
BRANCH  78  80
ATOM     80  C   UNL A   1      31.311  24.037  23.823  1.00  0.00     0.099 A 
ATOM     81  C   UNL A   1      30.552  24.534  24.867  1.00  0.00     0.021 A 
ATOM     82  C   UNL A   1      31.956  24.898  22.940  1.00  0.00     0.175 A 
ATOM     83  C   UNL A   1      30.481  25.904  25.042  1.00  0.00     0.030 A 
ATOM     84  C   UNL A   1      31.826  26.278  23.101  1.00  0.00     0.182 A 
ATOM     85  F   UNL A   1      32.736  24.423  21.959  1.00  0.00    -0.203 F 
ATOM     86  C   UNL A   1      31.084  26.817  24.159  1.00  0.00     0.074 A 
ATOM     87  F   UNL A   1      32.449  27.105  22.244  1.00  0.00    -0.201 F 
BRANCH  86  88
ATOM     88  N   UNL A   1      30.989  28.195  24.339  1.00  0.00    -0.379 N 
ATOM     89  H   UNL A   1      31.440  28.590  25.119  1.00  0.00     0.160 HD
BRANCH  88  90
ATOM     90  C   UNL A   1      30.255  29.099  23.433  1.00  0.00     0.094 C 
ATOM     91  C   UNL A   1      30.177  30.496  24.101  1.00  0.00     0.027 C 
ATOM     92  C   UNL A   1      28.997  28.390  22.953  1.00  0.00     0.161 C 
ATOM     93  C   UNL A   1      29.094  31.447  23.613  1.00  0.00     0.018 C 
ATOM     94  S   UNL A   1      27.658  29.444  22.579  1.00  0.00     0.152 S 
ATOM     95  C   UNL A   1      27.737  30.807  23.688  1.00  0.00     0.137 C 
ATOM     96  O   UNL A   1      26.434  28.750  22.905  1.00  0.00    -0.229 OA
ATOM     97  O   UNL A   1      27.996  29.925  21.260  1.00  0.00    -0.229 OA
ENDBRANCH  88  90
ENDBRANCH  86  88
ENDBRANCH  78  80
ENDBRANCH  77  78
ENDBRANCH  76  77
ENDBRANCH  75  76
ENDBRANCH  74  75
ENDBRANCH  73  74
ENDBRANCH   1  73
TORSDOF 22
ENDMDL
