MODEL 1
REMARK VINA RESULT:     -10.7      0.000      0.000
REMARK SMILES O=C(Cc1ccc(F)c(F)c1)NC1(C(=O)OCCOCCOCCOC(=O)c2ccc(-c3c4nc(c(-c5cccc(S(=O)(=O)[O-])c5F)c5ccc([nH]5)c(-c5cccc(S(=O)(=O)[O-])c5F)c5nc(c(-c6cccc(S(=O)(=O)[O-])c6F)c6ccc3[nH]6)C=C5)C=C4)cc2)CCCC1
REMARK SMILES IDX 20 1 19 2 18 3 17 4 16 5 14 6 15 7 13 8 91 9 94 10 92 11
REMARK SMILES IDX 93 12 12 13 1 14 2 15 3 17 4 18 5 19 11 20 6 21 9 22 7 23
REMARK SMILES IDX 10 24 8 25 21 26 22 27 23 28 24 29 25 30 26 31 27 32 28 33
REMARK SMILES IDX 29 34 90 35 30 36 89 37 31 38 32 39 33 40 83 41 34 42 88 43
REMARK SMILES IDX 82 44 84 45 35 46 87 47 81 48 80 49 36 51 68 52 48 53 67 54
REMARK SMILES IDX 49 55 52 56 66 57 85 58 50 59 51 60 65 62 86 63 53 64 37 65
REMARK SMILES IDX 38 66 46 67 39 68 41 69 47 70 40 71 42 72 43 73 44 74 45 75
REMARK SMILES IDX 69 76 70 77 78 78 71 79 73 80 79 81 72 82 74 83 75 84 76 85
REMARK SMILES IDX 77 86 54 87 55 88 63 89 56 90 58 91 64 92 57 93 59 94 60 95
REMARK SMILES IDX 61 96 62 97
REMARK H PARENT 12 16 84 50 52 61
REMARK Flexibility Score: inf
ROOT
ATOM      1  C   UNL A   1      36.140  23.415  23.765  1.00  0.00     0.188 C 
ENDROOT
BRANCH   1   2
ATOM      2  O   UNL A   1      35.053  23.367  22.874  1.00  0.00    -0.376 OA
BRANCH   2   3
ATOM      3  C   UNL A   1      33.923  24.133  23.236  1.00  0.00     0.202 C 
BRANCH   3   4
ATOM      4  C   UNL A   1      33.357  25.212  22.287  1.00  0.00     0.261 C 
BRANCH   4   5
ATOM      5  O   UNL A   1      32.926  26.463  22.857  1.00  0.00    -0.461 OA
BRANCH   5   6
ATOM      6  C   UNL A   1      31.610  26.779  22.684  1.00  0.00     0.331 C 
ATOM      7  O   UNL A   1      31.084  26.803  21.577  1.00  0.00    -0.249 OA
BRANCH   6   8
ATOM      8  C   UNL A   1      30.831  27.031  24.023  1.00  0.00     0.138 C 
ATOM      9  C   UNL A   1      29.491  27.718  23.699  1.00  0.00     0.040 C 
ATOM     10  C   UNL A   1      31.421  28.088  24.985  1.00  0.00     0.040 C 
ATOM     11  C   UNL A   1      29.854  29.189  23.502  1.00  0.00     0.003 C 
ATOM     12  C   UNL A   1      31.031  29.450  24.428  1.00  0.00     0.003 C 
BRANCH   8  13
ATOM     13  N   UNL A   1      30.679  25.731  24.715  1.00  0.00    -0.340 N 
ATOM     14  O   UNL A   1      32.504  25.914  26.094  1.00  0.00    -0.275 OA
ATOM     15  C   UNL A   1      31.472  25.330  25.777  1.00  0.00     0.225 C 
ATOM     16  H   UNL A   1      29.975  25.118  24.403  1.00  0.00     0.164 HD
BRANCH  15  17
ATOM     17  C   UNL A   1      31.024  24.065  26.498  1.00  0.00     0.135 C 
BRANCH  17  18
ATOM     18  C   UNL A   1      31.829  22.811  26.215  1.00  0.00    -0.036 A 
ATOM     19  C   UNL A   1      31.427  21.893  25.233  1.00  0.00     0.007 A 
ATOM     20  C   UNL A   1      33.092  22.625  26.808  1.00  0.00     0.046 A 
ATOM     21  C   UNL A   1      32.262  20.836  24.848  1.00  0.00     0.043 A 
ATOM     22  C   UNL A   1      33.928  21.580  26.396  1.00  0.00     0.159 A 
ATOM     23  C   UNL A   1      33.517  20.694  25.417  1.00  0.00     0.158 A 
ATOM     24  F   UNL A   1      35.156  21.483  26.915  1.00  0.00    -0.204 F 
ATOM     25  F   UNL A   1      34.323  19.721  24.973  1.00  0.00    -0.204 F 
ENDBRANCH  17  18
ENDBRANCH  15  17
ENDBRANCH   8  13
ENDBRANCH   6   8
ENDBRANCH   5   6
ENDBRANCH   4   5
ENDBRANCH   3   4
ENDBRANCH   2   3
ENDBRANCH   1   2
BRANCH   1  26
ATOM     26  C   UNL A   1      36.718  22.031  24.043  1.00  0.00     0.188 C 
BRANCH  26  27
ATOM     27  O   UNL A   1      37.662  21.824  25.084  1.00  0.00    -0.376 OA
BRANCH  27  28
ATOM     28  C   UNL A   1      38.287  20.551  25.204  1.00  0.00     0.202 C 
BRANCH  28  29
ATOM     29  C   UNL A   1      39.585  20.396  26.024  1.00  0.00     0.261 C 
BRANCH  29  30
ATOM     30  O   UNL A   1      40.418  19.273  25.708  1.00  0.00    -0.460 OA
BRANCH  30  31
ATOM     31  C   UNL A   1      41.689  19.331  26.197  1.00  0.00     0.338 C 
ATOM     32  O   UNL A   1      42.515  18.446  26.182  1.00  0.00    -0.246 OA
BRANCH  31  33
ATOM     33  C   UNL A   1      41.986  20.749  26.554  1.00  0.00     0.060 A 
ATOM     34  C   UNL A   1      41.977  21.715  25.532  1.00  0.00     0.016 A 
ATOM     35  C   UNL A   1      42.208  21.141  27.873  1.00  0.00     0.016 A 
ATOM     36  C   UNL A   1      42.215  23.068  25.820  1.00  0.00     0.010 A 
ATOM     37  C   UNL A   1      42.457  22.491  28.157  1.00  0.00     0.010 A 
ATOM     38  C   UNL A   1      42.490  23.466  27.133  1.00  0.00    -0.014 A 
BRANCH  38  39
ATOM     39  C   UNL A   1      43.036  24.818  27.455  1.00  0.00     0.031 A 
ATOM     40  C   UNL A   1      42.072  25.847  27.968  1.00  0.00     0.074 A 
ATOM     41  C   UNL A   1      44.319  25.190  27.276  1.00  0.00     0.049 A 
ATOM     42  N   UNL A   1      42.286  27.107  28.231  1.00  0.00    -0.248 NA
ATOM     43  C   UNL A   1      40.708  25.382  28.270  1.00  0.00     0.031 C 
ATOM     44  C   UNL A   1      45.424  24.304  26.971  1.00  0.00     0.029 A 
ATOM     45  N   UNL A   1      44.901  26.439  27.264  1.00  0.00    -0.354 N 
ATOM     46  C   UNL A   1      41.098  27.579  28.763  1.00  0.00     0.074 A 
ATOM     47  C   UNL A   1      40.145  26.493  28.716  1.00  0.00     0.031 C 
ATOM     48  C   UNL A   1      46.501  25.028  26.618  1.00  0.00     0.029 A 
ATOM     49  C   UNL A   1      46.169  26.440  26.720  1.00  0.00     0.049 A 
ATOM     50  H   UNL A   1      44.458  27.248  27.608  1.00  0.00     0.167 HD
ATOM     51  C   UNL A   1      40.844  28.792  29.300  1.00  0.00     0.034 A 
ATOM     52  C   UNL A   1      46.973  27.453  26.340  1.00  0.00     0.034 A 
ATOM     53  C   UNL A   1      41.781  29.879  29.330  1.00  0.00     0.049 A 
ATOM     54  C   UNL A   1      46.593  28.850  26.738  1.00  0.00     0.074 A 
ATOM     55  C   UNL A   1      41.621  31.133  29.891  1.00  0.00     0.029 A 
ATOM     56  N   UNL A   1      43.036  29.861  28.743  1.00  0.00    -0.354 N 
ATOM     57  N   UNL A   1      45.522  29.255  27.374  1.00  0.00    -0.248 NA
ATOM     58  C   UNL A   1      47.577  29.913  26.481  1.00  0.00     0.031 C 
ATOM     59  C   UNL A   1      42.759  31.890  29.596  1.00  0.00     0.029 A 
ATOM     60  C   UNL A   1      43.649  31.093  28.897  1.00  0.00     0.049 A 
ATOM     61  H   UNL A   1      43.434  29.085  28.284  1.00  0.00     0.167 HD
ATOM     62  C   UNL A   1      45.746  30.589  27.684  1.00  0.00     0.074 A 
ATOM     63  C   UNL A   1      47.041  30.935  27.136  1.00  0.00     0.031 C 
ATOM     64  C   UNL A   1      44.956  31.433  28.393  1.00  0.00     0.034 A 
BRANCH  51  65
ATOM     65  C   UNL A   1      39.490  28.981  29.917  1.00  0.00     0.023 A 
ATOM     66  C   UNL A   1      39.235  28.472  31.207  1.00  0.00     0.012 A 
ATOM     67  C   UNL A   1      38.476  29.662  29.222  1.00  0.00     0.148 A 
ATOM     68  C   UNL A   1      37.973  28.604  31.783  1.00  0.00     0.002 A 
ATOM     69  C   UNL A   1      37.237  29.831  29.821  1.00  0.00     0.091 A 
ATOM     70  F   UNL A   1      38.737  30.108  27.985  1.00  0.00    -0.205 F 
ATOM     71  C   UNL A   1      36.978  29.292  31.093  1.00  0.00     0.022 A 
BRANCH  69  72
ATOM     72  S   UNL A   1      35.912  30.758  29.045  1.00  0.00     0.127 S 
ATOM     73  O   UNL A   1      35.150  31.211  30.208  1.00  0.00    -0.237 OA
ATOM     74  O   UNL A   1      36.647  31.814  28.349  1.00  0.00    -0.237 OA
ATOM     75  O   UNL A   1      35.220  29.820  28.174  1.00  0.00    -0.744 OA
ENDBRANCH  69  72
ENDBRANCH  51  65
BRANCH  52  76
ATOM     76  C   UNL A   1      48.262  27.192  25.635  1.00  0.00     0.023 A 
ATOM     77  C   UNL A   1      49.411  26.869  26.384  1.00  0.00     0.012 A 
ATOM     78  C   UNL A   1      48.366  27.308  24.232  1.00  0.00     0.148 A 
ATOM     79  C   UNL A   1      50.646  26.704  25.759  1.00  0.00     0.002 A 
ATOM     80  C   UNL A   1      49.597  27.111  23.610  1.00  0.00     0.091 A 
ATOM     81  F   UNL A   1      47.264  27.627  23.539  1.00  0.00    -0.205 F 
ATOM     82  C   UNL A   1      50.739  26.823  24.374  1.00  0.00     0.022 A 
BRANCH  80  83
ATOM     83  S   UNL A   1      49.836  27.207  21.830  1.00  0.00     0.127 S 
ATOM     84  O   UNL A   1      51.190  26.675  21.682  1.00  0.00    -0.237 OA
ATOM     85  O   UNL A   1      48.777  26.322  21.343  1.00  0.00    -0.237 OA
ATOM     86  O   UNL A   1      49.685  28.610  21.476  1.00  0.00    -0.744 OA
ENDBRANCH  80  83
ENDBRANCH  52  76
BRANCH  64  87
ATOM     87  C   UNL A   1      45.486  32.809  28.693  1.00  0.00     0.023 A 
ATOM     88  C   UNL A   1      46.375  33.014  29.765  1.00  0.00     0.012 A 
ATOM     89  C   UNL A   1      45.155  33.892  27.853  1.00  0.00     0.148 A 
ATOM     90  C   UNL A   1      46.901  34.281  30.016  1.00  0.00     0.002 A 
ATOM     91  C   UNL A   1      45.727  35.138  28.073  1.00  0.00     0.091 A 
ATOM     92  F   UNL A   1      44.288  33.682  26.850  1.00  0.00    -0.205 F 
ATOM     93  C   UNL A   1      46.589  35.338  29.164  1.00  0.00     0.022 A 
BRANCH  91  94
ATOM     94  S   UNL A   1      45.468  36.528  26.966  1.00  0.00     0.127 S 
ATOM     95  O   UNL A   1      46.418  36.236  25.894  1.00  0.00    -0.237 OA
ATOM     96  O   UNL A   1      44.062  36.370  26.596  1.00  0.00    -0.237 OA
ATOM     97  O   UNL A   1      45.758  37.725  27.744  1.00  0.00    -0.744 OA
ENDBRANCH  91  94
ENDBRANCH  64  87
ENDBRANCH  38  39
ENDBRANCH  31  33
ENDBRANCH  30  31
ENDBRANCH  29  30
ENDBRANCH  28  29
ENDBRANCH  27  28
ENDBRANCH  26  27
ENDBRANCH   1  26
TORSDOF 23
ENDMDL
MODEL 2
REMARK VINA RESULT:     -10.6      2.272      4.015
REMARK SMILES O=C(Cc1ccc(F)c(F)c1)NC1(C(=O)OCCOCCOCCOC(=O)c2ccc(-c3c4nc(c(-c5cccc(S(=O)(=O)[O-])c5F)c5ccc([nH]5)c(-c5cccc(S(=O)(=O)[O-])c5F)c5nc(c(-c6cccc(S(=O)(=O)[O-])c6F)c6ccc3[nH]6)C=C5)C=C4)cc2)CCCC1
REMARK SMILES IDX 20 1 19 2 18 3 17 4 16 5 14 6 15 7 13 8 91 9 94 10 92 11
REMARK SMILES IDX 93 12 12 13 1 14 2 15 3 17 4 18 5 19 11 20 6 21 9 22 7 23
REMARK SMILES IDX 10 24 8 25 21 26 22 27 23 28 24 29 25 30 26 31 27 32 28 33
REMARK SMILES IDX 29 34 90 35 30 36 89 37 31 38 32 39 33 40 83 41 34 42 88 43
REMARK SMILES IDX 82 44 84 45 35 46 87 47 81 48 80 49 36 51 68 52 48 53 67 54
REMARK SMILES IDX 49 55 52 56 66 57 85 58 50 59 51 60 65 62 86 63 53 64 37 65
REMARK SMILES IDX 38 66 46 67 39 68 41 69 47 70 40 71 42 72 43 73 44 74 45 75
REMARK SMILES IDX 69 76 70 77 78 78 71 79 73 80 79 81 72 82 74 83 75 84 76 85
REMARK SMILES IDX 77 86 54 87 55 88 63 89 56 90 58 91 64 92 57 93 59 94 60 95
REMARK SMILES IDX 61 96 62 97
REMARK H PARENT 12 16 84 50 52 61
REMARK Flexibility Score: inf
ROOT
ATOM      1  C   UNL A   1      33.912  20.536  24.771  1.00  0.00     0.188 C 
ENDROOT
BRANCH   1   2
ATOM      2  O   UNL A   1      33.023  21.139  25.678  1.00  0.00    -0.376 OA
BRANCH   2   3
ATOM      3  C   UNL A   1      33.038  22.551  25.712  1.00  0.00     0.202 C 
BRANCH   3   4
ATOM      4  C   UNL A   1      31.983  23.338  26.519  1.00  0.00     0.261 C 
BRANCH   4   5
ATOM      5  O   UNL A   1      30.959  24.048  25.795  1.00  0.00    -0.461 OA
BRANCH   5   6
ATOM      6  C   UNL A   1      31.219  24.298  24.479  1.00  0.00     0.331 C 
ATOM      7  O   UNL A   1      31.114  23.434  23.617  1.00  0.00    -0.249 OA
BRANCH   6   8
ATOM      8  C   UNL A   1      31.588  25.792  24.172  1.00  0.00     0.138 C 
ATOM      9  C   UNL A   1      32.603  25.828  23.014  1.00  0.00     0.040 C 
ATOM     10  C   UNL A   1      32.414  26.541  25.244  1.00  0.00     0.040 C 
ATOM     11  C   UNL A   1      33.945  25.514  23.673  1.00  0.00     0.003 C 
ATOM     12  C   UNL A   1      33.857  26.085  25.079  1.00  0.00     0.003 C 
BRANCH   8  13
ATOM     13  N   UNL A   1      30.334  26.523  23.884  1.00  0.00    -0.340 N 
ATOM     14  O   UNL A   1      31.277  28.328  22.828  1.00  0.00    -0.275 OA
ATOM     15  C   UNL A   1      30.278  27.685  23.134  1.00  0.00     0.225 C 
ATOM     16  H   UNL A   1      29.492  26.164  24.247  1.00  0.00     0.164 HD
BRANCH  15  17
ATOM     17  C   UNL A   1      28.881  28.166  22.760  1.00  0.00     0.135 C 
BRANCH  17  18
ATOM     18  C   UNL A   1      28.659  29.667  22.788  1.00  0.00    -0.036 A 
ATOM     19  C   UNL A   1      29.168  30.459  23.828  1.00  0.00     0.007 A 
ATOM     20  C   UNL A   1      28.088  30.325  21.682  1.00  0.00     0.046 A 
ATOM     21  C   UNL A   1      29.121  31.857  23.760  1.00  0.00     0.043 A 
ATOM     22  C   UNL A   1      28.069  31.722  21.614  1.00  0.00     0.159 A 
ATOM     23  C   UNL A   1      28.589  32.485  22.645  1.00  0.00     0.158 A 
ATOM     24  F   UNL A   1      27.601  32.317  20.512  1.00  0.00    -0.204 F 
ATOM     25  F   UNL A   1      28.629  33.822  22.574  1.00  0.00    -0.204 F 
ENDBRANCH  17  18
ENDBRANCH  15  17
ENDBRANCH   8  13
ENDBRANCH   6   8
ENDBRANCH   5   6
ENDBRANCH   4   5
ENDBRANCH   3   4
ENDBRANCH   2   3
ENDBRANCH   1   2
BRANCH   1  26
ATOM     26  C   UNL A   1      35.331  21.078  24.908  1.00  0.00     0.188 C 
BRANCH  26  27
ATOM     27  O   UNL A   1      36.457  20.215  24.842  1.00  0.00    -0.376 OA
BRANCH  27  28
ATOM     28  C   UNL A   1      37.709  20.676  25.337  1.00  0.00     0.202 C 
BRANCH  28  29
ATOM     29  C   UNL A   1      38.938  19.744  25.335  1.00  0.00     0.261 C 
BRANCH  29  30
ATOM     30  O   UNL A   1      39.749  19.740  26.517  1.00  0.00    -0.460 OA
BRANCH  30  31
ATOM     31  C   UNL A   1      41.083  19.931  26.313  1.00  0.00     0.338 C 
ATOM     32  O   UNL A   1      41.846  19.181  25.746  1.00  0.00    -0.246 OA
BRANCH  31  33
ATOM     33  C   UNL A   1      41.419  21.331  26.702  1.00  0.00     0.060 A 
ATOM     34  C   UNL A   1      41.447  22.318  25.701  1.00  0.00     0.016 A 
ATOM     35  C   UNL A   1      41.640  21.689  28.031  1.00  0.00     0.016 A 
ATOM     36  C   UNL A   1      41.722  23.658  26.019  1.00  0.00     0.010 A 
ATOM     37  C   UNL A   1      41.927  23.025  28.345  1.00  0.00     0.010 A 
ATOM     38  C   UNL A   1      41.997  24.020  27.343  1.00  0.00    -0.014 A 
BRANCH  38  39
ATOM     39  C   UNL A   1      42.579  25.347  27.698  1.00  0.00     0.031 A 
ATOM     40  C   UNL A   1      41.640  26.400  28.207  1.00  0.00     0.074 A 
ATOM     41  C   UNL A   1      43.877  25.680  27.551  1.00  0.00     0.049 A 
ATOM     42  N   UNL A   1      41.888  27.648  28.494  1.00  0.00    -0.248 NA
ATOM     43  C   UNL A   1      40.255  25.976  28.473  1.00  0.00     0.031 C 
ATOM     44  C   UNL A   1      44.959  24.763  27.254  1.00  0.00     0.029 A 
ATOM     45  N   UNL A   1      44.500  26.910  27.571  1.00  0.00    -0.354 N 
ATOM     46  C   UNL A   1      40.706  28.150  29.009  1.00  0.00     0.074 A 
ATOM     47  C   UNL A   1      39.719  27.097  28.925  1.00  0.00     0.031 C 
ATOM     48  C   UNL A   1      46.067  25.456  26.935  1.00  0.00     0.029 A 
ATOM     49  C   UNL A   1      45.779  26.877  27.053  1.00  0.00     0.049 A 
ATOM     50  H   UNL A   1      44.077  27.727  27.919  1.00  0.00     0.167 HD
ATOM     51  C   UNL A   1      40.480  29.363  29.560  1.00  0.00     0.034 A 
ATOM     52  C   UNL A   1      46.623  27.869  26.706  1.00  0.00     0.034 A 
ATOM     53  C   UNL A   1      41.451  30.418  29.627  1.00  0.00     0.049 A 
ATOM     54  C   UNL A   1      46.281  29.271  27.118  1.00  0.00     0.074 A 
ATOM     55  C   UNL A   1      41.320  31.668  30.205  1.00  0.00     0.029 A 
ATOM     56  N   UNL A   1      42.717  30.368  29.066  1.00  0.00    -0.354 N 
ATOM     57  N   UNL A   1      45.210  29.701  27.739  1.00  0.00    -0.248 NA
ATOM     58  C   UNL A   1      47.304  30.305  26.898  1.00  0.00     0.031 C 
ATOM     59  C   UNL A   1      42.488  32.391  29.945  1.00  0.00     0.029 A 
ATOM     60  C   UNL A   1      43.366  31.576  29.251  1.00  0.00     0.049 A 
ATOM     61  H   UNL A   1      43.099  29.586  28.603  1.00  0.00     0.167 HD
ATOM     62  C   UNL A   1      45.471  31.022  28.075  1.00  0.00     0.074 A 
ATOM     63  C   UNL A   1      46.788  31.334  27.559  1.00  0.00     0.031 C 
ATOM     64  C   UNL A   1      44.695  31.881  28.780  1.00  0.00     0.034 A 
BRANCH  51  65
ATOM     65  C   UNL A   1      39.121  29.587  30.152  1.00  0.00     0.023 A 
ATOM     66  C   UNL A   1      38.807  29.030  31.409  1.00  0.00     0.012 A 
ATOM     67  C   UNL A   1      38.158  30.348  29.467  1.00  0.00     0.148 A 
ATOM     68  C   UNL A   1      37.537  29.195  31.959  1.00  0.00     0.002 A 
ATOM     69  C   UNL A   1      36.913  30.548  30.042  1.00  0.00     0.091 A 
ATOM     70  F   UNL A   1      38.473  30.839  28.260  1.00  0.00    -0.205 F 
ATOM     71  C   UNL A   1      36.595  29.962  31.279  1.00  0.00     0.022 A 
BRANCH  69  72
ATOM     72  S   UNL A   1      35.654  31.573  29.280  1.00  0.00     0.127 S 
ATOM     73  O   UNL A   1      36.468  32.542  28.548  1.00  0.00    -0.237 OA
ATOM     74  O   UNL A   1      34.946  30.610  28.437  1.00  0.00    -0.237 OA
ATOM     75  O   UNL A   1      34.865  32.123  30.373  1.00  0.00    -0.744 OA
ENDBRANCH  69  72
ENDBRANCH  51  65
BRANCH  52  76
ATOM     76  C   UNL A   1      47.918  27.576  26.024  1.00  0.00     0.023 A 
ATOM     77  C   UNL A   1      49.084  27.399  26.794  1.00  0.00     0.012 A 
ATOM     78  C   UNL A   1      48.007  27.519  24.616  1.00  0.00     0.148 A 
ATOM     79  C   UNL A   1      50.322  27.208  26.179  1.00  0.00     0.002 A 
ATOM     80  C   UNL A   1      49.241  27.299  24.009  1.00  0.00     0.091 A 
ATOM     81  F   UNL A   1      46.888  27.703  23.902  1.00  0.00    -0.205 F 
ATOM     82  C   UNL A   1      50.400  27.157  24.789  1.00  0.00     0.022 A 
BRANCH  80  83
ATOM     83  S   UNL A   1      49.465  27.181  22.228  1.00  0.00     0.127 S 
ATOM     84  O   UNL A   1      49.100  28.527  21.792  1.00  0.00    -0.237 OA
ATOM     85  O   UNL A   1      50.892  26.873  22.131  1.00  0.00    -0.237 OA
ATOM     86  O   UNL A   1      48.570  26.125  21.778  1.00  0.00    -0.744 OA
ENDBRANCH  80  83
ENDBRANCH  52  76
BRANCH  64  87
ATOM     87  C   UNL A   1      45.262  33.234  29.113  1.00  0.00     0.023 A 
ATOM     88  C   UNL A   1      45.934  33.447  30.332  1.00  0.00     0.012 A 
ATOM     89  C   UNL A   1      45.191  34.281  28.172  1.00  0.00     0.148 A 
ATOM     90  C   UNL A   1      46.499  34.688  30.621  1.00  0.00     0.002 A 
ATOM     91  C   UNL A   1      45.806  35.496  28.441  1.00  0.00     0.091 A 
ATOM     92  F   UNL A   1      44.528  34.066  27.025  1.00  0.00    -0.205 F 
ATOM     93  C   UNL A   1      46.448  35.707  29.672  1.00  0.00     0.022 A 
BRANCH  91  94
ATOM     94  S   UNL A   1      45.885  36.827  27.237  1.00  0.00     0.127 S 
ATOM     95  O   UNL A   1      46.929  37.679  27.802  1.00  0.00    -0.237 OA
ATOM     96  O   UNL A   1      46.269  36.116  26.017  1.00  0.00    -0.237 OA
ATOM     97  O   UNL A   1      44.554  37.418  27.199  1.00  0.00    -0.744 OA
ENDBRANCH  91  94
ENDBRANCH  64  87
ENDBRANCH  38  39
ENDBRANCH  31  33
ENDBRANCH  30  31
ENDBRANCH  29  30
ENDBRANCH  28  29
ENDBRANCH  27  28
ENDBRANCH  26  27
ENDBRANCH   1  26
TORSDOF 23
ENDMDL
MODEL 3
REMARK VINA RESULT:     -10.5      3.476      8.923
REMARK SMILES O=C(Cc1ccc(F)c(F)c1)NC1(C(=O)OCCOCCOCCOC(=O)c2ccc(-c3c4nc(c(-c5cccc(S(=O)(=O)[O-])c5F)c5ccc([nH]5)c(-c5cccc(S(=O)(=O)[O-])c5F)c5nc(c(-c6cccc(S(=O)(=O)[O-])c6F)c6ccc3[nH]6)C=C5)C=C4)cc2)CCCC1
REMARK SMILES IDX 20 1 19 2 18 3 17 4 16 5 14 6 15 7 13 8 91 9 94 10 92 11
REMARK SMILES IDX 93 12 12 13 1 14 2 15 3 17 4 18 5 19 11 20 6 21 9 22 7 23
REMARK SMILES IDX 10 24 8 25 21 26 22 27 23 28 24 29 25 30 26 31 27 32 28 33
REMARK SMILES IDX 29 34 90 35 30 36 89 37 31 38 32 39 33 40 83 41 34 42 88 43
REMARK SMILES IDX 82 44 84 45 35 46 87 47 81 48 80 49 36 51 68 52 48 53 67 54
REMARK SMILES IDX 49 55 52 56 66 57 85 58 50 59 51 60 65 62 86 63 53 64 37 65
REMARK SMILES IDX 38 66 46 67 39 68 41 69 47 70 40 71 42 72 43 73 44 74 45 75
REMARK SMILES IDX 69 76 70 77 78 78 71 79 73 80 79 81 72 82 74 83 75 84 76 85
REMARK SMILES IDX 77 86 54 87 55 88 63 89 56 90 58 91 64 92 57 93 59 94 60 95
REMARK SMILES IDX 61 96 62 97
REMARK H PARENT 12 16 84 50 52 61
REMARK Flexibility Score: inf
ROOT
ATOM      1  C   UNL A   1      32.872  19.745  24.810  1.00  0.00     0.188 C 
ENDROOT
BRANCH   1   2
ATOM      2  O   UNL A   1      32.356  20.983  24.387  1.00  0.00    -0.376 OA
BRANCH   2   3
ATOM      3  C   UNL A   1      31.722  21.760  25.380  1.00  0.00     0.202 C 
BRANCH   3   4
ATOM      4  C   UNL A   1      32.049  23.260  25.546  1.00  0.00     0.261 C 
BRANCH   4   5
ATOM      5  O   UNL A   1      31.010  24.220  25.270  1.00  0.00    -0.461 OA
BRANCH   5   6
ATOM      6  C   UNL A   1      30.914  24.644  23.978  1.00  0.00     0.331 C 
ATOM      7  O   UNL A   1      30.409  23.955  23.099  1.00  0.00    -0.249 OA
BRANCH   6   8
ATOM      8  C   UNL A   1      31.436  26.106  23.743  1.00  0.00     0.138 C 
ATOM      9  C   UNL A   1      32.086  26.186  22.349  1.00  0.00     0.040 C 
ATOM     10  C   UNL A   1      32.639  26.563  24.601  1.00  0.00     0.040 C 
ATOM     11  C   UNL A   1      33.482  25.598  22.545  1.00  0.00     0.003 C 
ATOM     12  C   UNL A   1      33.882  25.950  23.969  1.00  0.00     0.003 C 
BRANCH   8  13
ATOM     13  N   UNL A   1      30.295  27.033  23.920  1.00  0.00    -0.340 N 
ATOM     14  O   UNL A   1      31.156  28.793  22.725  1.00  0.00    -0.275 OA
ATOM     15  C   UNL A   1      30.207  28.267  23.298  1.00  0.00     0.225 C 
ATOM     16  H   UNL A   1      29.560  26.757  24.512  1.00  0.00     0.164 HD
BRANCH  15  17
ATOM     17  C   UNL A   1      28.865  28.977  23.425  1.00  0.00     0.135 C 
BRANCH  17  18
ATOM     18  C   UNL A   1      28.688  30.231  22.589  1.00  0.00    -0.036 A 
ATOM     19  C   UNL A   1      28.190  30.170  21.279  1.00  0.00     0.007 A 
ATOM     20  C   UNL A   1      28.855  31.504  23.168  1.00  0.00     0.046 A 
ATOM     21  C   UNL A   1      27.857  31.336  20.578  1.00  0.00     0.043 A 
ATOM     22  C   UNL A   1      28.494  32.660  22.467  1.00  0.00     0.159 A 
ATOM     23  C   UNL A   1      27.992  32.576  21.181  1.00  0.00     0.158 A 
ATOM     24  F   UNL A   1      28.580  33.847  23.076  1.00  0.00    -0.204 F 
ATOM     25  F   UNL A   1      27.592  33.667  20.514  1.00  0.00    -0.204 F 
ENDBRANCH  17  18
ENDBRANCH  15  17
ENDBRANCH   8  13
ENDBRANCH   6   8
ENDBRANCH   5   6
ENDBRANCH   4   5
ENDBRANCH   3   4
ENDBRANCH   2   3
ENDBRANCH   1   2
BRANCH   1  26
ATOM     26  C   UNL A   1      34.398  19.733  24.829  1.00  0.00     0.188 C 
BRANCH  26  27
ATOM     27  O   UNL A   1      35.133  20.793  25.422  1.00  0.00    -0.376 OA
BRANCH  27  28
ATOM     28  C   UNL A   1      36.234  21.350  24.713  1.00  0.00     0.202 C 
BRANCH  28  29
ATOM     29  C   UNL A   1      37.634  21.394  25.359  1.00  0.00     0.261 C 
BRANCH  29  30
ATOM     30  O   UNL A   1      38.166  22.690  25.663  1.00  0.00    -0.460 OA
BRANCH  30  31
ATOM     31  C   UNL A   1      39.290  22.695  26.433  1.00  0.00     0.338 C 
ATOM     32  O   UNL A   1      40.072  21.783  26.585  1.00  0.00    -0.246 OA
BRANCH  31  33
ATOM     33  C   UNL A   1      39.536  24.095  26.888  1.00  0.00     0.060 A 
ATOM     34  C   UNL A   1      40.240  24.964  26.036  1.00  0.00     0.016 A 
ATOM     35  C   UNL A   1      39.035  24.570  28.099  1.00  0.00     0.016 A 
ATOM     36  C   UNL A   1      40.467  26.301  26.401  1.00  0.00     0.010 A 
ATOM     37  C   UNL A   1      39.274  25.902  28.467  1.00  0.00     0.010 A 
ATOM     38  C   UNL A   1      40.014  26.775  27.637  1.00  0.00    -0.014 A 
BRANCH  38  39
ATOM     39  C   UNL A   1      40.472  28.078  28.204  1.00  0.00     0.031 A 
ATOM     40  C   UNL A   1      41.931  28.215  28.527  1.00  0.00     0.074 A 
ATOM     41  C   UNL A   1      39.663  29.118  28.488  1.00  0.00     0.049 A 
ATOM     42  N   UNL A   1      42.550  29.208  29.106  1.00  0.00    -0.248 NA
ATOM     43  C   UNL A   1      42.809  27.115  28.096  1.00  0.00     0.031 C 
ATOM     44  C   UNL A   1      38.278  29.249  28.085  1.00  0.00     0.029 A 
ATOM     45  N   UNL A   1      39.881  30.249  29.245  1.00  0.00    -0.354 N 
ATOM     46  C   UNL A   1      43.891  28.872  29.077  1.00  0.00     0.074 A 
ATOM     47  C   UNL A   1      43.992  27.552  28.494  1.00  0.00     0.031 C 
ATOM     48  C   UNL A   1      37.711  30.278  28.739  1.00  0.00     0.029 A 
ATOM     49  C   UNL A   1      38.717  30.911  29.576  1.00  0.00     0.049 A 
ATOM     50  H   UNL A   1      40.776  30.552  29.522  1.00  0.00     0.167 HD
ATOM     51  C   UNL A   1      44.952  29.623  29.448  1.00  0.00     0.034 A 
ATOM     52  C   UNL A   1      38.480  31.907  30.453  1.00  0.00     0.034 A 
ATOM     53  C   UNL A   1      44.855  30.924  30.045  1.00  0.00     0.049 A 
ATOM     54  C   UNL A   1      39.656  32.620  31.056  1.00  0.00     0.074 A 
ATOM     55  C   UNL A   1      45.881  31.775  30.416  1.00  0.00     0.029 A 
ATOM     56  N   UNL A   1      43.670  31.549  30.398  1.00  0.00    -0.354 N 
ATOM     57  N   UNL A   1      40.931  32.369  30.896  1.00  0.00    -0.248 NA
ATOM     58  C   UNL A   1      39.374  33.821  31.857  1.00  0.00     0.031 C 
ATOM     59  C   UNL A   1      45.316  32.890  31.042  1.00  0.00     0.029 A 
ATOM     60  C   UNL A   1      43.938  32.759  31.015  1.00  0.00     0.049 A 
ATOM     61  H   UNL A   1      42.769  31.186  30.234  1.00  0.00     0.167 HD
ATOM     62  C   UNL A   1      41.603  33.432  31.484  1.00  0.00     0.074 A 
ATOM     63  C   UNL A   1      40.594  34.313  32.035  1.00  0.00     0.031 C 
ATOM     64  C   UNL A   1      42.938  33.664  31.527  1.00  0.00     0.034 A 
BRANCH  51  65
ATOM     65  C   UNL A   1      46.309  29.041  29.186  1.00  0.00     0.023 A 
ATOM     66  C   UNL A   1      47.080  28.557  30.263  1.00  0.00     0.012 A 
ATOM     67  C   UNL A   1      46.816  28.970  27.878  1.00  0.00     0.148 A 
ATOM     68  C   UNL A   1      48.358  28.048  30.045  1.00  0.00     0.002 A 
ATOM     69  C   UNL A   1      48.070  28.417  27.663  1.00  0.00     0.091 A 
ATOM     70  F   UNL A   1      46.074  29.465  26.877  1.00  0.00    -0.205 F 
ATOM     71  C   UNL A   1      48.848  27.969  28.744  1.00  0.00     0.022 A 
BRANCH  69  72
ATOM     72  S   UNL A   1      48.761  28.209  26.022  1.00  0.00     0.127 S 
ATOM     73  O   UNL A   1      47.725  28.815  25.187  1.00  0.00    -0.237 OA
ATOM     74  O   UNL A   1      50.000  28.981  26.114  1.00  0.00    -0.237 OA
ATOM     75  O   UNL A   1      48.947  26.777  25.840  1.00  0.00    -0.744 OA
ENDBRANCH  69  72
ENDBRANCH  51  65
BRANCH  52  76
ATOM     76  C   UNL A   1      37.089  32.365  30.741  1.00  0.00     0.023 A 
ATOM     77  C   UNL A   1      36.480  32.015  31.962  1.00  0.00     0.012 A 
ATOM     78  C   UNL A   1      36.351  33.106  29.792  1.00  0.00     0.148 A 
ATOM     79  C   UNL A   1      35.153  32.358  32.221  1.00  0.00     0.002 A 
ATOM     80  C   UNL A   1      35.036  33.471  30.069  1.00  0.00     0.091 A 
ATOM     81  F   UNL A   1      36.944  33.418  28.632  1.00  0.00    -0.205 F 
ATOM     82  C   UNL A   1      34.433  33.086  31.278  1.00  0.00     0.022 A 
BRANCH  80  83
ATOM     83  S   UNL A   1      34.016  34.437  28.946  1.00  0.00     0.127 S 
ATOM     84  O   UNL A   1      32.959  34.912  29.837  1.00  0.00    -0.237 OA
ATOM     85  O   UNL A   1      34.956  35.470  28.510  1.00  0.00    -0.237 OA
ATOM     86  O   UNL A   1      33.577  33.518  27.907  1.00  0.00    -0.744 OA
ENDBRANCH  80  83
ENDBRANCH  52  76
BRANCH  64  87
ATOM     87  C   UNL A   1      43.410  34.961  32.128  1.00  0.00     0.023 A 
ATOM     88  C   UNL A   1      43.693  35.049  33.504  1.00  0.00     0.012 A 
ATOM     89  C   UNL A   1      43.645  36.078  31.301  1.00  0.00     0.148 A 
ATOM     90  C   UNL A   1      44.173  36.237  34.053  1.00  0.00     0.002 A 
ATOM     91  C   UNL A   1      44.178  37.240  31.843  1.00  0.00     0.091 A 
ATOM     92  F   UNL A   1      43.348  35.982  29.996  1.00  0.00    -0.205 F 
ATOM     93  C   UNL A   1      44.428  37.326  33.223  1.00  0.00     0.022 A 
BRANCH  91  94
ATOM     94  S   UNL A   1      44.640  38.653  30.836  1.00  0.00     0.127 S 
ATOM     95  O   UNL A   1      45.621  38.063  29.927  1.00  0.00    -0.237 OA
ATOM     96  O   UNL A   1      43.367  39.014  30.210  1.00  0.00    -0.237 OA
ATOM     97  O   UNL A   1      45.167  39.652  31.756  1.00  0.00    -0.744 OA
ENDBRANCH  91  94
ENDBRANCH  64  87
ENDBRANCH  38  39
ENDBRANCH  31  33
ENDBRANCH  30  31
ENDBRANCH  29  30
ENDBRANCH  28  29
ENDBRANCH  27  28
ENDBRANCH  26  27
ENDBRANCH   1  26
TORSDOF 23
ENDMDL
