MODEL 1
REMARK VINA RESULT:      -9.1      0.000      0.000
REMARK SMILES COc1ccc(O[C@H]2CC[C@@]([NH2+]C(C)C)(C(=O)OCCOCCOCCOC(=O)c3ccc(-c4c5nc(c(-c6cccc(S(=O)(=O)[O-])c6F)c6ccc([nH]6)c(-c6cccc(S(=O)(=O)[O-])c6F)c6nc(c(-c7cccc(S(=O)(=O)[O-])c7F)c7ccc4[nH]7)C=C6)C=C5)cc3)C2)cc1
REMARK SMILES IDX 22 1 21 2 20 3 19 4 18 5 16 6 17 7 11 8 8 9 9 10 93 11 10 12
REMARK SMILES IDX 7 13 6 14 3 15 4 16 95 17 5 18 94 19 2 20 1 21 12 22 13 25
REMARK SMILES IDX 14 26 15 27 23 28 24 29 25 30 26 31 27 32 28 33 29 34 30 35
REMARK SMILES IDX 31 36 92 37 32 38 91 39 33 40 34 41 35 42 85 43 36 44 90 45
REMARK SMILES IDX 84 46 86 47 37 48 89 49 83 50 82 51 38 53 70 54 50 55 69 56
REMARK SMILES IDX 51 57 54 58 68 59 87 60 52 61 53 62 67 64 88 65 55 66 39 67
REMARK SMILES IDX 40 68 48 69 41 70 43 71 49 72 42 73 44 74 45 75 46 76 47 77
REMARK SMILES IDX 71 78 72 79 80 80 73 81 75 82 81 83 74 84 76 85 77 86 78 87
REMARK SMILES IDX 79 88 56 89 57 90 65 91 58 92 60 93 66 94 59 95 61 96 62 97
REMARK SMILES IDX 63 98 64 99
REMARK H PARENT 12 23 12 24 86 52 54 63
REMARK Flexibility Score: inf
ROOT
ATOM      1  C   UNL A   1      31.470  29.248  25.204  1.00  0.00     0.188 C 
ENDROOT
BRANCH   1   2
ATOM      2  O   UNL A   1      31.207  29.429  23.831  1.00  0.00    -0.376 OA
BRANCH   2   3
ATOM      3  C   UNL A   1      31.907  28.662  22.884  1.00  0.00     0.202 C 
BRANCH   3   4
ATOM      4  C   UNL A   1      33.434  28.660  22.946  1.00  0.00     0.261 C 
BRANCH   4   5
ATOM      5  O   UNL A   1      34.033  27.618  23.736  1.00  0.00    -0.459 OA
BRANCH   5   6
ATOM      6  C   UNL A   1      33.904  26.369  23.200  1.00  0.00     0.368 C 
ATOM      7  O   UNL A   1      34.067  26.132  22.002  1.00  0.00    -0.245 OA
BRANCH   6   8
ATOM      8  C   UNL A   1      33.435  25.278  24.211  1.00  0.00     0.198 C 
ATOM      9  C   UNL A   1      34.920  23.300  24.815  1.00  0.00     0.180 C 
ATOM     10  C   UNL A   1      34.519  24.033  26.081  1.00  0.00     0.052 C 
ATOM     11  C   UNL A   1      33.941  23.867  23.751  1.00  0.00     0.126 C 
ATOM     12  C   UNL A   1      33.995  25.406  25.647  1.00  0.00     0.085 C 
BRANCH   9  13
ATOM     13  O   UNL A   1      36.269  23.602  24.454  1.00  0.00    -0.490 OA
BRANCH  13  14
ATOM     14  C   UNL A   1      37.336  23.124  25.171  1.00  0.00     0.119 A 
ATOM     15  C   UNL A   1      39.497  21.693  26.359  1.00  0.00     0.119 A 
ATOM     16  C   UNL A   1      39.284  23.054  26.625  1.00  0.00     0.050 A 
ATOM     17  C   UNL A   1      38.593  21.041  25.547  1.00  0.00     0.050 A 
ATOM     18  C   UNL A   1      38.203  23.770  26.042  1.00  0.00     0.050 A 
ATOM     19  C   UNL A   1      37.572  21.771  24.944  1.00  0.00     0.050 A 
BRANCH  15  20
ATOM     20  O   UNL A   1      40.599  21.094  26.912  1.00  0.00    -0.497 OA
ATOM     21  C   UNL A   1      41.213  20.078  26.108  1.00  0.00     0.278 C 
ENDBRANCH  15  20
ENDBRANCH  13  14
ENDBRANCH   9  13
BRANCH   8  22
ATOM     22  N   UNL A   1      31.945  25.374  24.351  1.00  0.00    -0.330 N 
ATOM     23  H   UNL A   1      31.592  25.869  23.531  1.00  0.00     0.347 HD
ATOM     24  H   UNL A   1      31.797  25.846  25.242  1.00  0.00     0.347 HD
BRANCH  22  25
ATOM     25  C   UNL A   1      31.191  24.114  24.464  1.00  0.00     0.176 C 
ATOM     26  C   UNL A   1      30.429  24.011  25.781  1.00  0.00     0.075 C 
ATOM     27  C   UNL A   1      30.243  24.016  23.269  1.00  0.00     0.075 C 
ENDBRANCH  22  25
ENDBRANCH   8  22
ENDBRANCH   6   8
ENDBRANCH   5   6
ENDBRANCH   4   5
ENDBRANCH   3   4
ENDBRANCH   2   3
ENDBRANCH   1   2
BRANCH   1  28
ATOM     28  C   UNL A   1      31.818  30.372  26.170  1.00  0.00     0.188 C 
BRANCH  28  29
ATOM     29  O   UNL A   1      33.072  30.325  26.800  1.00  0.00    -0.376 OA
BRANCH  29  30
ATOM     30  C   UNL A   1      33.523  31.510  27.443  1.00  0.00     0.202 C 
BRANCH  30  31
ATOM     31  C   UNL A   1      32.696  32.819  27.423  1.00  0.00     0.261 C 
BRANCH  31  32
ATOM     32  O   UNL A   1      33.428  34.069  27.547  1.00  0.00    -0.460 OA
BRANCH  32  33
ATOM     33  C   UNL A   1      33.395  34.616  28.797  1.00  0.00     0.338 C 
ATOM     34  O   UNL A   1      32.394  35.188  29.222  1.00  0.00    -0.246 OA
BRANCH  33  35
ATOM     35  C   UNL A   1      34.550  34.351  29.754  1.00  0.00     0.060 A 
ATOM     36  C   UNL A   1      35.914  34.400  29.446  1.00  0.00     0.016 A 
ATOM     37  C   UNL A   1      34.209  33.669  30.927  1.00  0.00     0.016 A 
ATOM     38  C   UNL A   1      36.837  33.563  30.091  1.00  0.00     0.010 A 
ATOM     39  C   UNL A   1      35.171  32.973  31.683  1.00  0.00     0.010 A 
ATOM     40  C   UNL A   1      36.494  32.857  31.241  1.00  0.00    -0.014 A 
BRANCH  40  41
ATOM     41  C   UNL A   1      37.510  32.079  32.013  1.00  0.00     0.031 A 
ATOM     42  C   UNL A   1      37.968  32.536  33.379  1.00  0.00     0.074 A 
ATOM     43  C   UNL A   1      38.084  30.987  31.461  1.00  0.00     0.049 A 
ATOM     44  N   UNL A   1      39.057  32.221  34.031  1.00  0.00    -0.248 NA
ATOM     45  C   UNL A   1      37.086  33.464  34.106  1.00  0.00     0.031 C 
ATOM     46  C   UNL A   1      37.696  30.364  30.193  1.00  0.00     0.029 A 
ATOM     47  N   UNL A   1      39.160  30.235  31.875  1.00  0.00    -0.354 N 
ATOM     48  C   UNL A   1      39.041  32.975  35.201  1.00  0.00     0.074 A 
ATOM     49  C   UNL A   1      37.803  33.728  35.192  1.00  0.00     0.031 C 
ATOM     50  C   UNL A   1      38.517  29.344  29.925  1.00  0.00     0.029 A 
ATOM     51  C   UNL A   1      39.575  29.333  30.919  1.00  0.00     0.049 A 
ATOM     52  H   UNL A   1      39.586  30.330  32.758  1.00  0.00     0.167 HD
ATOM     53  C   UNL A   1      39.985  33.042  36.174  1.00  0.00     0.034 A 
ATOM     54  C   UNL A   1      40.727  28.650  30.776  1.00  0.00     0.034 A 
ATOM     55  C   UNL A   1      41.189  32.245  36.184  1.00  0.00     0.049 A 
ATOM     56  C   UNL A   1      41.796  28.811  31.810  1.00  0.00     0.074 A 
ATOM     57  C   UNL A   1      42.193  32.215  37.138  1.00  0.00     0.029 A 
ATOM     58  N   UNL A   1      41.558  31.347  35.194  1.00  0.00    -0.354 N 
ATOM     59  N   UNL A   1      41.780  29.529  32.905  1.00  0.00    -0.248 NA
ATOM     60  C   UNL A   1      43.039  28.060  31.595  1.00  0.00     0.031 C 
ATOM     61  C   UNL A   1      43.190  31.338  36.699  1.00  0.00     0.029 A 
ATOM     62  C   UNL A   1      42.784  30.780  35.499  1.00  0.00     0.049 A 
ATOM     63  H   UNL A   1      41.026  31.143  34.391  1.00  0.00     0.167 HD
ATOM     64  C   UNL A   1      42.995  29.289  33.531  1.00  0.00     0.074 A 
ATOM     65  C   UNL A   1      43.714  28.344  32.699  1.00  0.00     0.031 C 
ATOM     66  C   UNL A   1      43.475  29.812  34.686  1.00  0.00     0.034 A 
BRANCH  53  67
ATOM     67  C   UNL A   1      39.796  34.024  37.306  1.00  0.00     0.023 A 
ATOM     68  C   UNL A   1      40.132  35.381  37.143  1.00  0.00     0.012 A 
ATOM     69  C   UNL A   1      39.167  33.611  38.501  1.00  0.00     0.148 A 
ATOM     70  C   UNL A   1      39.865  36.306  38.155  1.00  0.00     0.002 A 
ATOM     71  C   UNL A   1      38.866  34.544  39.487  1.00  0.00     0.091 A 
ATOM     72  F   UNL A   1      38.864  32.313  38.646  1.00  0.00    -0.205 F 
ATOM     73  C   UNL A   1      39.223  35.892  39.319  1.00  0.00     0.022 A 
BRANCH  71  74
ATOM     74  S   UNL A   1      37.966  34.122  40.985  1.00  0.00     0.127 S 
ATOM     75  O   UNL A   1      37.784  35.436  41.600  1.00  0.00    -0.237 OA
ATOM     76  O   UNL A   1      36.743  33.523  40.452  1.00  0.00    -0.237 OA
ATOM     77  O   UNL A   1      38.822  33.203  41.724  1.00  0.00    -0.744 OA
ENDBRANCH  71  74
ENDBRANCH  53  67
BRANCH  54  78
ATOM     78  C   UNL A   1      40.933  27.798  29.569  1.00  0.00     0.023 A 
ATOM     79  C   UNL A   1      40.282  26.555  29.482  1.00  0.00     0.012 A 
ATOM     80  C   UNL A   1      41.721  28.241  28.487  1.00  0.00     0.148 A 
ATOM     81  C   UNL A   1      40.423  25.760  28.344  1.00  0.00     0.002 A 
ATOM     82  C   UNL A   1      41.801  27.479  27.330  1.00  0.00     0.091 A 
ATOM     83  F   UNL A   1      42.352  29.420  28.598  1.00  0.00    -0.205 F 
ATOM     84  C   UNL A   1      41.168  26.229  27.263  1.00  0.00     0.022 A 
BRANCH  82  85
ATOM     85  S   UNL A   1      42.601  28.072  25.835  1.00  0.00     0.127 S 
ATOM     86  O   UNL A   1      41.930  29.347  25.620  1.00  0.00    -0.237 OA
ATOM     87  O   UNL A   1      43.997  28.167  26.255  1.00  0.00    -0.237 OA
ATOM     88  O   UNL A   1      42.350  27.045  24.824  1.00  0.00    -0.744 OA
ENDBRANCH  82  85
ENDBRANCH  54  78
BRANCH  66  89
ATOM     89  C   UNL A   1      44.820  29.323  35.150  1.00  0.00     0.023 A 
ATOM     90  C   UNL A   1      44.913  28.187  35.979  1.00  0.00     0.012 A 
ATOM     91  C   UNL A   1      45.996  29.979  34.738  1.00  0.00     0.148 A 
ATOM     92  C   UNL A   1      46.156  27.740  36.428  1.00  0.00     0.002 A 
ATOM     93  C   UNL A   1      47.233  29.495  35.144  1.00  0.00     0.091 A 
ATOM     94  F   UNL A   1      45.882  31.070  33.967  1.00  0.00    -0.205 F 
ATOM     95  C   UNL A   1      47.314  28.387  36.002  1.00  0.00     0.022 A 
BRANCH  93  96
ATOM     96  S   UNL A   1      48.780  30.206  34.573  1.00  0.00     0.127 S 
ATOM     97  O   UNL A   1      48.727  31.544  35.158  1.00  0.00    -0.237 OA
ATOM     98  O   UNL A   1      49.770  29.313  35.176  1.00  0.00    -0.237 OA
ATOM     99  O   UNL A   1      48.733  30.160  33.118  1.00  0.00    -0.744 OA
ENDBRANCH  93  96
ENDBRANCH  66  89
ENDBRANCH  40  41
ENDBRANCH  33  35
ENDBRANCH  32  33
ENDBRANCH  31  32
ENDBRANCH  30  31
ENDBRANCH  29  30
ENDBRANCH  28  29
ENDBRANCH   1  28
TORSDOF 25
ENDMDL
MODEL 2
REMARK VINA RESULT:      -9.1      2.293      3.266
REMARK SMILES COc1ccc(O[C@H]2CC[C@@]([NH2+]C(C)C)(C(=O)OCCOCCOCCOC(=O)c3ccc(-c4c5nc(c(-c6cccc(S(=O)(=O)[O-])c6F)c6ccc([nH]6)c(-c6cccc(S(=O)(=O)[O-])c6F)c6nc(c(-c7cccc(S(=O)(=O)[O-])c7F)c7ccc4[nH]7)C=C6)C=C5)cc3)C2)cc1
REMARK SMILES IDX 22 1 21 2 20 3 19 4 18 5 16 6 17 7 11 8 8 9 9 10 93 11 10 12
REMARK SMILES IDX 7 13 6 14 3 15 4 16 95 17 5 18 94 19 2 20 1 21 12 22 13 25
REMARK SMILES IDX 14 26 15 27 23 28 24 29 25 30 26 31 27 32 28 33 29 34 30 35
REMARK SMILES IDX 31 36 92 37 32 38 91 39 33 40 34 41 35 42 85 43 36 44 90 45
REMARK SMILES IDX 84 46 86 47 37 48 89 49 83 50 82 51 38 53 70 54 50 55 69 56
REMARK SMILES IDX 51 57 54 58 68 59 87 60 52 61 53 62 67 64 88 65 55 66 39 67
REMARK SMILES IDX 40 68 48 69 41 70 43 71 49 72 42 73 44 74 45 75 46 76 47 77
REMARK SMILES IDX 71 78 72 79 80 80 73 81 75 82 81 83 74 84 76 85 77 86 78 87
REMARK SMILES IDX 79 88 56 89 57 90 65 91 58 92 60 93 66 94 59 95 61 96 62 97
REMARK SMILES IDX 63 98 64 99
REMARK H PARENT 12 23 12 24 86 52 54 63
REMARK Flexibility Score: inf
ROOT
ATOM      1  C   UNL A   1      32.996  30.834  26.935  1.00  0.00     0.188 C 
ENDROOT
BRANCH   1   2
ATOM      2  O   UNL A   1      33.986  29.842  26.792  1.00  0.00    -0.376 OA
BRANCH   2   3
ATOM      3  C   UNL A   1      33.624  28.485  26.859  1.00  0.00     0.202 C 
BRANCH   3   4
ATOM      4  C   UNL A   1      32.357  28.116  27.631  1.00  0.00     0.261 C 
BRANCH   4   5
ATOM      5  O   UNL A   1      31.212  27.764  26.833  1.00  0.00    -0.459 OA
BRANCH   5   6
ATOM      6  C   UNL A   1      31.334  26.572  26.181  1.00  0.00     0.368 C 
ATOM      7  O   UNL A   1      31.590  25.513  26.756  1.00  0.00    -0.245 OA
BRANCH   6   8
ATOM      8  C   UNL A   1      31.222  26.672  24.628  1.00  0.00     0.198 C 
ATOM      9  C   UNL A   1      32.510  25.094  23.099  1.00  0.00     0.180 C 
ATOM     10  C   UNL A   1      31.030  25.017  22.770  1.00  0.00     0.052 C 
ATOM     11  C   UNL A   1      32.614  26.375  23.969  1.00  0.00     0.126 C 
ATOM     12  C   UNL A   1      30.284  25.642  23.953  1.00  0.00     0.085 C 
BRANCH   9  13
ATOM     13  O   UNL A   1      32.926  23.953  23.851  1.00  0.00    -0.490 OA
BRANCH  13  14
ATOM     14  C   UNL A   1      34.246  23.721  24.146  1.00  0.00     0.119 A 
ATOM     15  C   UNL A   1      36.855  23.398  25.251  1.00  0.00     0.119 A 
ATOM     16  C   UNL A   1      36.534  22.916  23.973  1.00  0.00     0.050 A 
ATOM     17  C   UNL A   1      35.885  24.091  25.945  1.00  0.00     0.050 A 
ATOM     18  C   UNL A   1      35.238  23.082  23.413  1.00  0.00     0.050 A 
ATOM     19  C   UNL A   1      34.607  24.198  25.403  1.00  0.00     0.050 A 
BRANCH  15  20
ATOM     20  O   UNL A   1      38.108  23.142  25.740  1.00  0.00    -0.497 OA
ATOM     21  C   UNL A   1      38.531  21.774  25.659  1.00  0.00     0.278 C 
ENDBRANCH  15  20
ENDBRANCH  13  14
ENDBRANCH   9  13
BRANCH   8  22
ATOM     22  N   UNL A   1      30.658  28.017  24.281  1.00  0.00    -0.330 N 
ATOM     23  H   UNL A   1      31.410  28.699  24.385  1.00  0.00     0.347 HD
ATOM     24  H   UNL A   1      29.868  28.138  24.913  1.00  0.00     0.347 HD
BRANCH  22  25
ATOM     25  C   UNL A   1      30.090  28.187  22.933  1.00  0.00     0.176 C 
ATOM     26  C   UNL A   1      28.644  28.671  22.971  1.00  0.00     0.075 C 
ATOM     27  C   UNL A   1      30.978  29.163  22.161  1.00  0.00     0.075 C 
ENDBRANCH  22  25
ENDBRANCH   8  22
ENDBRANCH   6   8
ENDBRANCH   5   6
ENDBRANCH   4   5
ENDBRANCH   3   4
ENDBRANCH   2   3
ENDBRANCH   1   2
BRANCH   1  28
ATOM     28  C   UNL A   1      33.142  32.079  27.798  1.00  0.00     0.188 C 
BRANCH  28  29
ATOM     29  O   UNL A   1      34.388  32.727  27.803  1.00  0.00    -0.376 OA
BRANCH  29  30
ATOM     30  C   UNL A   1      34.596  33.733  28.786  1.00  0.00     0.202 C 
BRANCH  30  31
ATOM     31  C   UNL A   1      33.673  34.971  28.900  1.00  0.00     0.261 C 
BRANCH  31  32
ATOM     32  O   UNL A   1      32.613  34.920  29.894  1.00  0.00    -0.460 OA
BRANCH  32  33
ATOM     33  C   UNL A   1      32.868  35.643  31.022  1.00  0.00     0.338 C 
ATOM     34  O   UNL A   1      32.197  36.629  31.321  1.00  0.00    -0.246 OA
BRANCH  33  35
ATOM     35  C   UNL A   1      33.881  35.115  32.030  1.00  0.00     0.060 A 
ATOM     36  C   UNL A   1      35.139  35.660  32.309  1.00  0.00     0.016 A 
ATOM     37  C   UNL A   1      33.679  33.793  32.444  1.00  0.00     0.016 A 
ATOM     38  C   UNL A   1      36.217  34.847  32.690  1.00  0.00     0.010 A 
ATOM     39  C   UNL A   1      34.720  33.025  32.997  1.00  0.00     0.010 A 
ATOM     40  C   UNL A   1      36.026  33.522  33.073  1.00  0.00    -0.014 A 
BRANCH  40  41
ATOM     41  C   UNL A   1      37.147  32.695  33.614  1.00  0.00     0.031 A 
ATOM     42  C   UNL A   1      37.643  32.887  35.029  1.00  0.00     0.074 A 
ATOM     43  C   UNL A   1      37.778  31.808  32.814  1.00  0.00     0.049 A 
ATOM     44  N   UNL A   1      38.791  32.543  35.553  1.00  0.00    -0.248 NA
ATOM     45  C   UNL A   1      36.730  33.549  35.975  1.00  0.00     0.031 C 
ATOM     46  C   UNL A   1      37.370  31.439  31.455  1.00  0.00     0.029 A 
ATOM     47  N   UNL A   1      38.935  31.088  33.011  1.00  0.00    -0.354 N 
ATOM     48  C   UNL A   1      38.779  33.023  36.860  1.00  0.00     0.074 A 
ATOM     49  C   UNL A   1      37.485  33.639  37.065  1.00  0.00     0.031 C 
ATOM     50  C   UNL A   1      38.256  30.583  30.938  1.00  0.00     0.029 A 
ATOM     51  C   UNL A   1      39.368  30.457  31.865  1.00  0.00     0.049 A 
ATOM     52  H   UNL A   1      39.402  31.030  33.876  1.00  0.00     0.167 HD
ATOM     53  C   UNL A   1      39.769  32.967  37.787  1.00  0.00     0.034 A 
ATOM     54  C   UNL A   1      40.563  29.934  31.531  1.00  0.00     0.034 A 
ATOM     55  C   UNL A   1      41.034  32.304  37.575  1.00  0.00     0.049 A 
ATOM     56  C   UNL A   1      41.673  29.968  32.533  1.00  0.00     0.074 A 
ATOM     57  C   UNL A   1      42.091  32.164  38.460  1.00  0.00     0.029 A 
ATOM     58  N   UNL A   1      41.419  31.680  36.399  1.00  0.00    -0.354 N 
ATOM     59  N   UNL A   1      41.660  30.427  33.759  1.00  0.00    -0.248 NA
ATOM     60  C   UNL A   1      42.959  29.402  32.110  1.00  0.00     0.031 C 
ATOM     61  C   UNL A   1      43.131  31.500  37.802  1.00  0.00     0.029 A 
ATOM     62  C   UNL A   1      42.705  31.178  36.524  1.00  0.00     0.049 A 
ATOM     63  H   UNL A   1      40.860  31.604  35.592  1.00  0.00     0.167 HD
ATOM     64  C   UNL A   1      42.925  30.174  34.270  1.00  0.00     0.074 A 
ATOM     65  C   UNL A   1      43.671  29.504  33.223  1.00  0.00     0.031 C 
ATOM     66  C   UNL A   1      43.425  30.478  35.492  1.00  0.00     0.034 A 
BRANCH  53  67
ATOM     67  C   UNL A   1      39.564  33.659  39.114  1.00  0.00     0.023 A 
ATOM     68  C   UNL A   1      39.189  32.926  40.256  1.00  0.00     0.012 A 
ATOM     69  C   UNL A   1      39.864  35.032  39.247  1.00  0.00     0.148 A 
ATOM     70  C   UNL A   1      39.097  33.550  41.503  1.00  0.00     0.002 A 
ATOM     71  C   UNL A   1      39.811  35.638  40.498  1.00  0.00     0.091 A 
ATOM     72  F   UNL A   1      40.208  35.719  38.148  1.00  0.00    -0.205 F 
ATOM     73  C   UNL A   1      39.419  34.900  41.626  1.00  0.00     0.022 A 
BRANCH  71  74
ATOM     74  S   UNL A   1      40.287  37.350  40.772  1.00  0.00     0.127 S 
ATOM     75  O   UNL A   1      41.113  37.618  39.597  1.00  0.00    -0.237 OA
ATOM     76  O   UNL A   1      38.994  38.033  40.777  1.00  0.00    -0.237 OA
ATOM     77  O   UNL A   1      40.992  37.374  42.047  1.00  0.00    -0.744 OA
ENDBRANCH  71  74
ENDBRANCH  53  67
BRANCH  54  78
ATOM     78  C   UNL A   1      40.769  29.386  30.159  1.00  0.00     0.023 A 
ATOM     79  C   UNL A   1      41.400  30.180  29.185  1.00  0.00     0.012 A 
ATOM     80  C   UNL A   1      40.398  28.064  29.836  1.00  0.00     0.148 A 
ATOM     81  C   UNL A   1      41.645  29.673  27.908  1.00  0.00     0.002 A 
ATOM     82  C   UNL A   1      40.707  27.543  28.587  1.00  0.00     0.091 A 
ATOM     83  F   UNL A   1      39.777  27.330  30.771  1.00  0.00    -0.205 F 
ATOM     84  C   UNL A   1      41.314  28.352  27.615  1.00  0.00     0.022 A 
BRANCH  82  85
ATOM     85  S   UNL A   1      40.464  25.811  28.177  1.00  0.00     0.127 S 
ATOM     86  O   UNL A   1      39.168  25.537  28.781  1.00  0.00    -0.237 OA
ATOM     87  O   UNL A   1      40.476  25.840  26.717  1.00  0.00    -0.237 OA
ATOM     88  O   UNL A   1      41.602  25.107  28.769  1.00  0.00    -0.744 OA
ENDBRANCH  82  85
ENDBRANCH  54  78
BRANCH  66  89
ATOM     89  C   UNL A   1      44.832  30.030  35.786  1.00  0.00     0.023 A 
ATOM     90  C   UNL A   1      45.925  30.839  35.416  1.00  0.00     0.012 A 
ATOM     91  C   UNL A   1      45.065  28.814  36.456  1.00  0.00     0.148 A 
ATOM     92  C   UNL A   1      47.231  30.421  35.669  1.00  0.00     0.002 A 
ATOM     93  C   UNL A   1      46.366  28.430  36.754  1.00  0.00     0.091 A 
ATOM     94  F   UNL A   1      44.012  28.050  36.780  1.00  0.00    -0.205 F 
ATOM     95  C   UNL A   1      47.450  29.223  36.347  1.00  0.00     0.022 A 
BRANCH  93  96
ATOM     96  S   UNL A   1      46.742  26.953  37.703  1.00  0.00     0.127 S 
ATOM     97  O   UNL A   1      46.056  27.226  38.964  1.00  0.00    -0.237 OA
ATOM     98  O   UNL A   1      46.130  25.901  36.890  1.00  0.00    -0.237 OA
ATOM     99  O   UNL A   1      48.195  26.885  37.786  1.00  0.00    -0.744 OA
ENDBRANCH  93  96
ENDBRANCH  66  89
ENDBRANCH  40  41
ENDBRANCH  33  35
ENDBRANCH  32  33
ENDBRANCH  31  32
ENDBRANCH  30  31
ENDBRANCH  29  30
ENDBRANCH  28  29
ENDBRANCH   1  28
TORSDOF 25
ENDMDL
MODEL 3
REMARK VINA RESULT:      -8.9      1.800      2.081
REMARK SMILES COc1ccc(O[C@H]2CC[C@@]([NH2+]C(C)C)(C(=O)OCCOCCOCCOC(=O)c3ccc(-c4c5nc(c(-c6cccc(S(=O)(=O)[O-])c6F)c6ccc([nH]6)c(-c6cccc(S(=O)(=O)[O-])c6F)c6nc(c(-c7cccc(S(=O)(=O)[O-])c7F)c7ccc4[nH]7)C=C6)C=C5)cc3)C2)cc1
REMARK SMILES IDX 22 1 21 2 20 3 19 4 18 5 16 6 17 7 11 8 8 9 9 10 93 11 10 12
REMARK SMILES IDX 7 13 6 14 3 15 4 16 95 17 5 18 94 19 2 20 1 21 12 22 13 25
REMARK SMILES IDX 14 26 15 27 23 28 24 29 25 30 26 31 27 32 28 33 29 34 30 35
REMARK SMILES IDX 31 36 92 37 32 38 91 39 33 40 34 41 35 42 85 43 36 44 90 45
REMARK SMILES IDX 84 46 86 47 37 48 89 49 83 50 82 51 38 53 70 54 50 55 69 56
REMARK SMILES IDX 51 57 54 58 68 59 87 60 52 61 53 62 67 64 88 65 55 66 39 67
REMARK SMILES IDX 40 68 48 69 41 70 43 71 49 72 42 73 44 74 45 75 46 76 47 77
REMARK SMILES IDX 71 78 72 79 80 80 73 81 75 82 81 83 74 84 76 85 77 86 78 87
REMARK SMILES IDX 79 88 56 89 57 90 65 91 58 92 60 93 66 94 59 95 61 96 62 97
REMARK SMILES IDX 63 98 64 99
REMARK H PARENT 12 23 12 24 86 52 54 63
REMARK Flexibility Score: inf
ROOT
ATOM      1  C   UNL A   1      31.377  29.233  25.262  1.00  0.00     0.188 C 
ENDROOT
BRANCH   1   2
ATOM      2  O   UNL A   1      31.067  29.394  23.897  1.00  0.00    -0.376 OA
BRANCH   2   3
ATOM      3  C   UNL A   1      31.645  28.534  22.948  1.00  0.00     0.202 C 
BRANCH   3   4
ATOM      4  C   UNL A   1      33.167  28.392  22.937  1.00  0.00     0.261 C 
BRANCH   4   5
ATOM      5  O   UNL A   1      33.709  27.347  23.765  1.00  0.00    -0.459 OA
BRANCH   5   6
ATOM      6  C   UNL A   1      33.704  26.114  23.179  1.00  0.00     0.368 C 
ATOM      7  O   UNL A   1      33.937  25.937  21.983  1.00  0.00    -0.245 OA
BRANCH   6   8
ATOM      8  C   UNL A   1      33.281  24.951  24.128  1.00  0.00     0.198 C 
ATOM      9  C   UNL A   1      34.954  23.196  24.907  1.00  0.00     0.180 C 
ATOM     10  C   UNL A   1      34.305  23.843  26.116  1.00  0.00     0.052 C 
ATOM     11  C   UNL A   1      34.036  23.634  23.734  1.00  0.00     0.126 C 
ATOM     12  C   UNL A   1      33.644  25.134  25.621  1.00  0.00     0.085 C 
BRANCH   9  13
ATOM     13  O   UNL A   1      36.278  23.694  24.708  1.00  0.00    -0.490 OA
BRANCH  13  14
ATOM     14  C   UNL A   1      37.368  23.113  25.306  1.00  0.00     0.119 A 
ATOM     15  C   UNL A   1      39.543  21.505  26.206  1.00  0.00     0.119 A 
ATOM     16  C   UNL A   1      39.394  22.836  26.621  1.00  0.00     0.050 A 
ATOM     17  C   UNL A   1      38.571  20.967  25.390  1.00  0.00     0.050 A 
ATOM     18  C   UNL A   1      38.307  23.640  26.183  1.00  0.00     0.050 A 
ATOM     19  C   UNL A   1      37.542  21.784  24.928  1.00  0.00     0.050 A 
BRANCH  15  20
ATOM     20  O   UNL A   1      40.653  20.820  26.626  1.00  0.00    -0.497 OA
ATOM     21  C   UNL A   1      41.751  21.635  27.057  1.00  0.00     0.278 C 
ENDBRANCH  15  20
ENDBRANCH  13  14
ENDBRANCH   9  13
BRANCH   8  22
ATOM     22  N   UNL A   1      31.787  24.831  24.090  1.00  0.00    -0.330 N 
ATOM     23  H   UNL A   1      31.564  23.923  23.681  1.00  0.00     0.347 HD
ATOM     24  H   UNL A   1      31.474  25.640  23.554  1.00  0.00     0.347 HD
BRANCH  22  25
ATOM     25  C   UNL A   1      31.065  24.927  25.370  1.00  0.00     0.176 C 
ATOM     26  C   UNL A   1      29.872  25.874  25.293  1.00  0.00     0.075 C 
ATOM     27  C   UNL A   1      30.628  23.520  25.778  1.00  0.00     0.075 C 
ENDBRANCH  22  25
ENDBRANCH   8  22
ENDBRANCH   6   8
ENDBRANCH   5   6
ENDBRANCH   4   5
ENDBRANCH   3   4
ENDBRANCH   2   3
ENDBRANCH   1   2
BRANCH   1  28
ATOM     28  C   UNL A   1      31.795  30.364  26.190  1.00  0.00     0.188 C 
BRANCH  28  29
ATOM     29  O   UNL A   1      33.063  30.283  26.788  1.00  0.00    -0.376 OA
BRANCH  29  30
ATOM     30  C   UNL A   1      33.552  31.447  27.441  1.00  0.00     0.202 C 
BRANCH  30  31
ATOM     31  C   UNL A   1      32.760  32.777  27.447  1.00  0.00     0.261 C 
BRANCH  31  32
ATOM     32  O   UNL A   1      33.526  34.005  27.591  1.00  0.00    -0.460 OA
BRANCH  32  33
ATOM     33  C   UNL A   1      33.510  34.530  28.850  1.00  0.00     0.338 C 
ATOM     34  O   UNL A   1      32.531  35.133  29.284  1.00  0.00    -0.246 OA
BRANCH  33  35
ATOM     35  C   UNL A   1      34.652  34.204  29.804  1.00  0.00     0.060 A 
ATOM     36  C   UNL A   1      36.019  34.224  29.504  1.00  0.00     0.016 A 
ATOM     37  C   UNL A   1      34.286  33.495  30.954  1.00  0.00     0.016 A 
ATOM     38  C   UNL A   1      36.915  33.343  30.127  1.00  0.00     0.010 A 
ATOM     39  C   UNL A   1      35.224  32.749  31.692  1.00  0.00     0.010 A 
ATOM     40  C   UNL A   1      36.546  32.611  31.254  1.00  0.00    -0.014 A 
BRANCH  40  41
ATOM     41  C   UNL A   1      37.536  31.781  32.005  1.00  0.00     0.031 A 
ATOM     42  C   UNL A   1      37.924  32.128  33.424  1.00  0.00     0.074 A 
ATOM     43  C   UNL A   1      38.150  30.745  31.393  1.00  0.00     0.049 A 
ATOM     44  N   UNL A   1      38.986  31.770  34.098  1.00  0.00    -0.248 NA
ATOM     45  C   UNL A   1      36.997  32.984  34.183  1.00  0.00     0.031 C 
ATOM     46  C   UNL A   1      37.829  30.226  30.061  1.00  0.00     0.029 A 
ATOM     47  N   UNL A   1      39.215  29.971  31.794  1.00  0.00    -0.354 N 
ATOM     48  C   UNL A   1      38.906  32.425  35.324  1.00  0.00     0.074 A 
ATOM     49  C   UNL A   1      37.660  33.164  35.320  1.00  0.00     0.031 C 
ATOM     50  C   UNL A   1      38.675  29.239  29.749  1.00  0.00     0.029 A 
ATOM     51  C   UNL A   1      39.686  29.156  30.788  1.00  0.00     0.049 A 
ATOM     52  H   UNL A   1      39.599  29.997  32.700  1.00  0.00     0.167 HD
ATOM     53  C   UNL A   1      39.803  32.420  36.343  1.00  0.00     0.034 A 
ATOM     54  C   UNL A   1      40.853  28.499  30.643  1.00  0.00     0.034 A 
ATOM     55  C   UNL A   1      41.016  31.637  36.344  1.00  0.00     0.049 A 
ATOM     56  C   UNL A   1      41.871  28.583  31.736  1.00  0.00     0.074 A 
ATOM     57  C   UNL A   1      41.975  31.538  37.339  1.00  0.00     0.029 A 
ATOM     58  N   UNL A   1      41.442  30.828  35.303  1.00  0.00    -0.354 N 
ATOM     59  N   UNL A   1      41.794  29.207  32.885  1.00  0.00    -0.248 NA
ATOM     60  C   UNL A   1      43.132  27.865  31.518  1.00  0.00     0.031 C 
ATOM     61  C   UNL A   1      43.003  30.709  36.877  1.00  0.00     0.029 A 
ATOM     62  C   UNL A   1      42.661  30.249  35.617  1.00  0.00     0.049 A 
ATOM     63  H   UNL A   1      40.950  30.685  34.461  1.00  0.00     0.167 HD
ATOM     64  C   UNL A   1      42.982  28.929  33.545  1.00  0.00     0.074 A 
ATOM     65  C   UNL A   1      43.751  28.063  32.673  1.00  0.00     0.031 C 
ATOM     66  C   UNL A   1      43.401  29.358  34.760  1.00  0.00     0.034 A 
BRANCH  53  67
ATOM     67  C   UNL A   1      39.549  33.303  37.542  1.00  0.00     0.023 A 
ATOM     68  C   UNL A   1      38.720  32.866  38.593  1.00  0.00     0.012 A 
ATOM     69  C   UNL A   1      40.236  34.529  37.674  1.00  0.00     0.148 A 
ATOM     70  C   UNL A   1      38.565  33.641  39.745  1.00  0.00     0.002 A 
ATOM     71  C   UNL A   1      40.111  35.275  38.841  1.00  0.00     0.091 A 
ATOM     72  F   UNL A   1      41.012  34.937  36.659  1.00  0.00    -0.205 F 
ATOM     73  C   UNL A   1      39.268  34.836  39.875  1.00  0.00     0.022 A 
BRANCH  71  74
ATOM     74  S   UNL A   1      41.039  36.786  39.136  1.00  0.00     0.127 S 
ATOM     75  O   UNL A   1      41.815  36.429  40.322  1.00  0.00    -0.237 OA
ATOM     76  O   UNL A   1      41.825  36.910  37.908  1.00  0.00    -0.237 OA
ATOM     77  O   UNL A   1      40.049  37.836  39.333  1.00  0.00    -0.744 OA
ENDBRANCH  71  74
ENDBRANCH  53  67
BRANCH  54  78
ATOM     78  C   UNL A   1      41.126  27.751  29.381  1.00  0.00     0.023 A 
ATOM     79  C   UNL A   1      40.443  26.548  29.130  1.00  0.00     0.012 A 
ATOM     80  C   UNL A   1      42.010  28.258  28.408  1.00  0.00     0.148 A 
ATOM     81  C   UNL A   1      40.648  25.854  27.936  1.00  0.00     0.002 A 
ATOM     82  C   UNL A   1      42.157  27.601  27.194  1.00  0.00     0.091 A 
ATOM     83  F   UNL A   1      42.668  29.396  28.676  1.00  0.00    -0.205 F 
ATOM     84  C   UNL A   1      41.491  26.388  26.963  1.00  0.00     0.022 A 
BRANCH  82  85
ATOM     85  S   UNL A   1      43.091  28.295  25.826  1.00  0.00     0.127 S 
ATOM     86  O   UNL A   1      43.075  29.717  26.141  1.00  0.00    -0.237 OA
ATOM     87  O   UNL A   1      44.387  27.639  25.979  1.00  0.00    -0.237 OA
ATOM     88  O   UNL A   1      42.363  27.905  24.618  1.00  0.00    -0.744 OA
ENDBRANCH  82  85
ENDBRANCH  54  78
BRANCH  66  89
ATOM     89  C   UNL A   1      44.730  28.846  35.246  1.00  0.00     0.023 A 
ATOM     90  C   UNL A   1      45.916  29.534  34.922  1.00  0.00     0.012 A 
ATOM     91  C   UNL A   1      44.796  27.691  36.050  1.00  0.00     0.148 A 
ATOM     92  C   UNL A   1      47.152  29.054  35.353  1.00  0.00     0.002 A 
ATOM     93  C   UNL A   1      46.026  27.250  36.522  1.00  0.00     0.091 A 
ATOM     94  F   UNL A   1      43.658  27.040  36.328  1.00  0.00    -0.205 F 
ATOM     95  C   UNL A   1      47.206  27.920  36.161  1.00  0.00     0.022 A 
BRANCH  93  96
ATOM     96  S   UNL A   1      46.184  25.856  37.641  1.00  0.00     0.127 S 
ATOM     97  O   UNL A   1      46.390  24.748  36.711  1.00  0.00    -0.237 OA
ATOM     98  O   UNL A   1      47.363  26.223  38.426  1.00  0.00    -0.237 OA
ATOM     99  O   UNL A   1      44.943  25.807  38.404  1.00  0.00    -0.744 OA
ENDBRANCH  93  96
ENDBRANCH  66  89
ENDBRANCH  40  41
ENDBRANCH  33  35
ENDBRANCH  32  33
ENDBRANCH  31  32
ENDBRANCH  30  31
ENDBRANCH  29  30
ENDBRANCH  28  29
ENDBRANCH   1  28
TORSDOF 25
ENDMDL
