MODEL 1
REMARK VINA RESULT:     -10.8      0.000      0.000
REMARK SMILES C[C@H](C(=O)OCCOCCOCCOC(=O)c1ccc(-c2c3nc(c(-c4cccc(S(=O)(=O)[O-])c4F)c4ccc([nH]4)c(-c4cccc(S(=O)(=O)[O-])c4F)c4nc(c(-c5cccc(S(=O)(=O)[O-])c5F)c5ccc2[nH]5)C=C4)C=C3)cc1)c1ccc2c3cc(Cl)ccc3n(C(=O)c3ccc(Cl)cc3)c2c1
REMARK SMILES IDX 9 1 8 2 7 3 6 4 5 5 3 6 4 7 2 8 1 9 80 10 81 11 102 12 82 13
REMARK SMILES IDX 101 14 83 15 91 16 84 17 90 18 85 19 89 20 86 21 88 22 87 23
REMARK SMILES IDX 92 24 93 25 94 26 95 27 100 28 96 29 99 30 97 31 98 32 10 33
REMARK SMILES IDX 11 34 12 35 13 36 14 37 15 38 16 39 17 40 18 41 79 42 19 43
REMARK SMILES IDX 78 44 20 45 21 46 22 47 72 48 23 49 77 50 71 51 73 52 24 53
REMARK SMILES IDX 76 54 70 55 69 56 25 58 57 59 37 60 56 61 38 62 41 63 55 64
REMARK SMILES IDX 74 65 39 66 40 67 54 69 75 70 42 71 26 72 27 73 35 74 28 75
REMARK SMILES IDX 30 76 36 77 29 78 31 79 32 80 33 81 34 82 58 83 59 84 67 85
REMARK SMILES IDX 60 86 62 87 68 88 61 89 63 90 64 91 65 92 66 93 43 94 44 95
REMARK SMILES IDX 52 96 45 97 47 98 53 99 46 100 48 101 49 102 50 103 51 104
REMARK H PARENT 73 57 41 68
REMARK Flexibility Score: inf
ROOT
ATOM      1  C   UNL A   1      39.772  22.257  26.677  1.00  0.00     0.188 C 
ENDROOT
BRANCH   1   2
ATOM      2  O   UNL A   1      38.729  23.037  26.111  1.00  0.00    -0.376 OA
BRANCH   2   3
ATOM      3  C   UNL A   1      37.639  22.350  25.498  1.00  0.00     0.202 C 
BRANCH   3   4
ATOM      4  C   UNL A   1      36.215  22.871  25.755  1.00  0.00     0.261 C 
BRANCH   4   5
ATOM      5  O   UNL A   1      35.208  22.283  24.905  1.00  0.00    -0.463 OA
BRANCH   5   6
ATOM      6  C   UNL A   1      34.708  23.090  23.931  1.00  0.00     0.313 C 
ATOM      7  O   UNL A   1      35.413  23.642  23.092  1.00  0.00    -0.252 OA
BRANCH   6   8
ATOM      8  C   UNL A   1      33.169  23.161  23.911  1.00  0.00     0.126 C 
ATOM      9  C   UNL A   1      32.480  22.786  25.222  1.00  0.00     0.025 C 
BRANCH   8  10
ATOM     10  C   UNL A   1      32.646  24.533  23.514  1.00  0.00    -0.032 A 
ATOM     11  C   UNL A   1      32.482  24.882  22.169  1.00  0.00     0.005 A 
ATOM     12  C   UNL A   1      32.247  25.432  24.506  1.00  0.00     0.032 A 
ATOM     13  C   UNL A   1      31.813  26.061  21.812  1.00  0.00     0.011 A 
ATOM     14  C   UNL A   1      31.709  26.663  24.133  1.00  0.00     0.057 A 
ATOM     15  C   UNL A   1      31.383  26.946  22.822  1.00  0.00     0.008 A 
ATOM     16  N   UNL A   1      31.436  27.773  24.926  1.00  0.00    -0.276 N 
ATOM     17  C   UNL A   1      30.605  28.133  22.863  1.00  0.00     0.009 A 
ATOM     18  C   UNL A   1      30.697  28.675  24.160  1.00  0.00     0.057 A 
ATOM     19  C   UNL A   1      29.848  28.798  21.879  1.00  0.00     0.031 A 
ATOM     20  C   UNL A   1      30.184  29.953  24.438  1.00  0.00     0.029 A 
ATOM     21  C   UNL A   1      29.256  30.016  22.189  1.00  0.00     0.041 A 
ATOM     22  C   UNL A   1      29.452  30.604  23.435  1.00  0.00     0.023 A 
ATOM     23  Cl  UNL A   1      28.287  30.809  21.007  1.00  0.00    -0.084 Cl
BRANCH  16  24
ATOM     24  C   UNL A   1      31.991  27.897  26.221  1.00  0.00     0.262 C 
ATOM     25  O   UNL A   1      31.500  27.147  27.066  1.00  0.00    -0.268 OA
BRANCH  24  26
ATOM     26  C   UNL A   1      32.998  28.867  26.732  1.00  0.00     0.040 A 
ATOM     27  C   UNL A   1      32.513  30.146  27.086  1.00  0.00     0.015 A 
ATOM     28  C   UNL A   1      34.374  28.640  26.777  1.00  0.00     0.015 A 
ATOM     29  C   UNL A   1      33.368  31.162  27.509  1.00  0.00     0.021 A 
ATOM     30  C   UNL A   1      35.234  29.656  27.228  1.00  0.00     0.021 A 
ATOM     31  C   UNL A   1      34.729  30.907  27.591  1.00  0.00     0.041 A 
ATOM     32  Cl  UNL A   1      35.795  32.147  28.125  1.00  0.00    -0.084 Cl
ENDBRANCH  24  26
ENDBRANCH  16  24
ENDBRANCH   8  10
ENDBRANCH   6   8
ENDBRANCH   5   6
ENDBRANCH   4   5
ENDBRANCH   3   4
ENDBRANCH   2   3
ENDBRANCH   1   2
BRANCH   1  33
ATOM     33  C   UNL A   1      39.959  20.831  26.137  1.00  0.00     0.188 C 
BRANCH  33  34
ATOM     34  O   UNL A   1      40.555  19.917  27.047  1.00  0.00    -0.376 OA
BRANCH  34  35
ATOM     35  C   UNL A   1      41.969  19.732  26.995  1.00  0.00     0.202 C 
BRANCH  35  36
ATOM     36  C   UNL A   1      42.530  19.037  25.751  1.00  0.00     0.261 C 
BRANCH  36  37
ATOM     37  O   UNL A   1      43.959  19.148  25.602  1.00  0.00    -0.460 OA
BRANCH  37  38
ATOM     38  C   UNL A   1      44.438  19.996  24.655  1.00  0.00     0.338 C 
ATOM     39  O   UNL A   1      44.671  19.731  23.498  1.00  0.00    -0.246 OA
BRANCH  38  40
ATOM     40  C   UNL A   1      44.398  21.379  25.215  1.00  0.00     0.060 A 
ATOM     41  C   UNL A   1      43.781  22.384  24.457  1.00  0.00     0.016 A 
ATOM     42  C   UNL A   1      44.880  21.671  26.496  1.00  0.00     0.016 A 
ATOM     43  C   UNL A   1      43.702  23.691  24.951  1.00  0.00     0.010 A 
ATOM     44  C   UNL A   1      44.795  22.975  26.990  1.00  0.00     0.010 A 
ATOM     45  C   UNL A   1      44.247  24.003  26.204  1.00  0.00    -0.014 A 
BRANCH  45  46
ATOM     46  C   UNL A   1      44.434  25.421  26.609  1.00  0.00     0.031 A 
ATOM     47  C   UNL A   1      45.799  26.036  26.435  1.00  0.00     0.074 A 
ATOM     48  C   UNL A   1      43.434  26.155  27.128  1.00  0.00     0.049 A 
ATOM     49  N   UNL A   1      46.215  27.237  26.744  1.00  0.00    -0.248 NA
ATOM     50  C   UNL A   1      46.834  25.178  25.833  1.00  0.00     0.031 C 
ATOM     51  C   UNL A   1      42.065  25.694  27.348  1.00  0.00     0.029 A 
ATOM     52  N   UNL A   1      43.430  27.451  27.588  1.00  0.00    -0.354 N 
ATOM     53  C   UNL A   1      47.562  27.270  26.405  1.00  0.00     0.074 A 
ATOM     54  C   UNL A   1      47.898  25.965  25.880  1.00  0.00     0.031 C 
ATOM     55  C   UNL A   1      41.358  26.685  27.922  1.00  0.00     0.029 A 
ATOM     56  C   UNL A   1      42.230  27.841  28.136  1.00  0.00     0.049 A 
ATOM     57  H   UNL A   1      44.213  28.045  27.531  1.00  0.00     0.167 HD
ATOM     58  C   UNL A   1      48.441  28.294  26.504  1.00  0.00     0.034 A 
ATOM     59  C   UNL A   1      41.881  28.988  28.756  1.00  0.00     0.034 A 
ATOM     60  C   UNL A   1      48.113  29.598  27.008  1.00  0.00     0.049 A 
ATOM     61  C   UNL A   1      42.891  30.103  28.888  1.00  0.00     0.074 A 
ATOM     62  C   UNL A   1      48.929  30.712  27.098  1.00  0.00     0.029 A 
ATOM     63  N   UNL A   1      46.881  29.962  27.525  1.00  0.00    -0.354 N 
ATOM     64  N   UNL A   1      44.126  30.159  28.452  1.00  0.00    -0.248 NA
ATOM     65  C   UNL A   1      42.447  31.327  29.574  1.00  0.00     0.031 C 
ATOM     66  C   UNL A   1      48.200  31.739  27.707  1.00  0.00     0.029 A 
ATOM     67  C   UNL A   1      46.917  31.278  27.954  1.00  0.00     0.049 A 
ATOM     68  H   UNL A   1      46.094  29.372  27.579  1.00  0.00     0.167 HD
ATOM     69  C   UNL A   1      44.589  31.434  28.771  1.00  0.00     0.074 A 
ATOM     70  C   UNL A   1      43.497  32.123  29.423  1.00  0.00     0.031 C 
ATOM     71  C   UNL A   1      45.811  31.979  28.552  1.00  0.00     0.034 A 
BRANCH  58  72
ATOM     72  C   UNL A   1      49.853  28.046  26.044  1.00  0.00     0.023 A 
ATOM     73  C   UNL A   1      50.163  28.100  24.670  1.00  0.00     0.012 A 
ATOM     74  C   UNL A   1      50.880  27.811  26.977  1.00  0.00     0.148 A 
ATOM     75  C   UNL A   1      51.470  27.891  24.230  1.00  0.00     0.002 A 
ATOM     76  C   UNL A   1      52.188  27.652  26.535  1.00  0.00     0.091 A 
ATOM     77  F   UNL A   1      50.560  27.740  28.277  1.00  0.00    -0.205 F 
ATOM     78  C   UNL A   1      52.482  27.680  25.162  1.00  0.00     0.022 A 
BRANCH  76  79
ATOM     79  S   UNL A   1      53.573  27.455  27.661  1.00  0.00     0.127 S 
ATOM     80  O   UNL A   1      53.399  28.607  28.546  1.00  0.00    -0.237 OA
ATOM     81  O   UNL A   1      53.283  26.162  28.280  1.00  0.00    -0.237 OA
ATOM     82  O   UNL A   1      54.771  27.480  26.833  1.00  0.00    -0.744 OA
ENDBRANCH  76  79
ENDBRANCH  58  72
BRANCH  59  83
ATOM     83  C   UNL A   1      40.499  29.164  29.289  1.00  0.00     0.023 A 
ATOM     84  C   UNL A   1      39.480  29.641  28.442  1.00  0.00     0.012 A 
ATOM     85  C   UNL A   1      40.195  28.881  30.634  1.00  0.00     0.148 A 
ATOM     86  C   UNL A   1      38.193  29.868  28.932  1.00  0.00     0.002 A 
ATOM     87  C   UNL A   1      38.899  29.057  31.104  1.00  0.00     0.091 A 
ATOM     88  F   UNL A   1      41.183  28.448  31.430  1.00  0.00    -0.205 F 
ATOM     89  C   UNL A   1      37.900  29.567  30.260  1.00  0.00     0.022 A 
BRANCH  87  90
ATOM     90  S   UNL A   1      38.403  28.596  32.768  1.00  0.00     0.127 S 
ATOM     91  O   UNL A   1      39.123  29.576  33.577  1.00  0.00    -0.237 OA
ATOM     92  O   UNL A   1      36.954  28.789  32.712  1.00  0.00    -0.237 OA
ATOM     93  O   UNL A   1      38.822  27.212  32.935  1.00  0.00    -0.744 OA
ENDBRANCH  87  90
ENDBRANCH  59  83
BRANCH  71  94
ATOM     94  C   UNL A   1      46.036  33.412  28.968  1.00  0.00     0.023 A 
ATOM     95  C   UNL A   1      46.577  33.706  30.235  1.00  0.00     0.012 A 
ATOM     96  C   UNL A   1      45.789  34.467  28.065  1.00  0.00     0.148 A 
ATOM     97  C   UNL A   1      46.834  35.025  30.610  1.00  0.00     0.002 A 
ATOM     98  C   UNL A   1      46.096  35.774  28.425  1.00  0.00     0.091 A 
ATOM     99  F   UNL A   1      45.262  34.172  26.867  1.00  0.00    -0.205 F 
ATOM    100  C   UNL A   1      46.605  36.057  29.702  1.00  0.00     0.022 A 
BRANCH  98 101
ATOM    101  S   UNL A   1      45.930  37.154  27.287  1.00  0.00     0.127 S 
ATOM    102  O   UNL A   1      44.478  37.297  27.199  1.00  0.00    -0.237 OA
ATOM    103  O   UNL A   1      46.606  38.234  28.008  1.00  0.00    -0.237 OA
ATOM    104  O   UNL A   1      46.591  36.743  26.055  1.00  0.00    -0.744 OA
ENDBRANCH  98 101
ENDBRANCH  71  94
ENDBRANCH  45  46
ENDBRANCH  38  40
ENDBRANCH  37  38
ENDBRANCH  36  37
ENDBRANCH  35  36
ENDBRANCH  34  35
ENDBRANCH  33  34
ENDBRANCH   1  33
TORSDOF 23
ENDMDL
MODEL 2
REMARK VINA RESULT:     -10.3      1.943      2.276
REMARK SMILES C[C@H](C(=O)OCCOCCOCCOC(=O)c1ccc(-c2c3nc(c(-c4cccc(S(=O)(=O)[O-])c4F)c4ccc([nH]4)c(-c4cccc(S(=O)(=O)[O-])c4F)c4nc(c(-c5cccc(S(=O)(=O)[O-])c5F)c5ccc2[nH]5)C=C4)C=C3)cc1)c1ccc2c3cc(Cl)ccc3n(C(=O)c3ccc(Cl)cc3)c2c1
REMARK SMILES IDX 9 1 8 2 7 3 6 4 5 5 3 6 4 7 2 8 1 9 80 10 81 11 102 12 82 13
REMARK SMILES IDX 101 14 83 15 91 16 84 17 90 18 85 19 89 20 86 21 88 22 87 23
REMARK SMILES IDX 92 24 93 25 94 26 95 27 100 28 96 29 99 30 97 31 98 32 10 33
REMARK SMILES IDX 11 34 12 35 13 36 14 37 15 38 16 39 17 40 18 41 79 42 19 43
REMARK SMILES IDX 78 44 20 45 21 46 22 47 72 48 23 49 77 50 71 51 73 52 24 53
REMARK SMILES IDX 76 54 70 55 69 56 25 58 57 59 37 60 56 61 38 62 41 63 55 64
REMARK SMILES IDX 74 65 39 66 40 67 54 69 75 70 42 71 26 72 27 73 35 74 28 75
REMARK SMILES IDX 30 76 36 77 29 78 31 79 32 80 33 81 34 82 58 83 59 84 67 85
REMARK SMILES IDX 60 86 62 87 68 88 61 89 63 90 64 91 65 92 66 93 43 94 44 95
REMARK SMILES IDX 52 96 45 97 47 98 53 99 46 100 48 101 49 102 50 103 51 104
REMARK H PARENT 73 57 41 68
REMARK Flexibility Score: inf
ROOT
ATOM      1  C   UNL A   1      39.041  22.202  26.135  1.00  0.00     0.188 C 
ENDROOT
BRANCH   1   2
ATOM      2  O   UNL A   1      37.951  22.360  25.240  1.00  0.00    -0.376 OA
BRANCH   2   3
ATOM      3  C   UNL A   1      37.293  21.183  24.775  1.00  0.00     0.202 C 
BRANCH   3   4
ATOM      4  C   UNL A   1      35.946  20.803  25.413  1.00  0.00     0.261 C 
BRANCH   4   5
ATOM      5  O   UNL A   1      34.799  21.080  24.581  1.00  0.00    -0.463 OA
BRANCH   5   6
ATOM      6  C   UNL A   1      34.507  22.395  24.391  1.00  0.00     0.313 C 
ATOM      7  O   UNL A   1      34.981  23.060  23.475  1.00  0.00    -0.252 OA
BRANCH   6   8
ATOM      8  C   UNL A   1      33.446  22.944  25.364  1.00  0.00     0.126 C 
ATOM      9  C   UNL A   1      33.992  23.530  26.665  1.00  0.00     0.025 C 
BRANCH   8  10
ATOM     10  C   UNL A   1      32.563  24.011  24.735  1.00  0.00    -0.032 A 
ATOM     11  C   UNL A   1      31.493  23.664  23.901  1.00  0.00     0.005 A 
ATOM     12  C   UNL A   1      32.770  25.354  25.057  1.00  0.00     0.032 A 
ATOM     13  C   UNL A   1      30.564  24.630  23.491  1.00  0.00     0.011 A 
ATOM     14  C   UNL A   1      31.917  26.321  24.527  1.00  0.00     0.057 A 
ATOM     15  C   UNL A   1      30.763  25.979  23.850  1.00  0.00     0.008 A 
ATOM     16  N   UNL A   1      32.048  27.705  24.543  1.00  0.00    -0.276 N 
ATOM     17  C   UNL A   1      30.016  27.180  23.726  1.00  0.00     0.009 A 
ATOM     18  C   UNL A   1      30.845  28.255  24.099  1.00  0.00     0.057 A 
ATOM     19  C   UNL A   1      28.697  27.429  23.298  1.00  0.00     0.031 A 
ATOM     20  C   UNL A   1      30.432  29.581  23.890  1.00  0.00     0.029 A 
ATOM     21  C   UNL A   1      28.257  28.743  23.190  1.00  0.00     0.041 A 
ATOM     22  C   UNL A   1      29.121  29.803  23.444  1.00  0.00     0.023 A 
ATOM     23  Cl  UNL A   1      26.631  29.053  22.718  1.00  0.00    -0.084 Cl
BRANCH  16  24
ATOM     24  C   UNL A   1      33.287  28.316  24.847  1.00  0.00     0.262 C 
ATOM     25  O   UNL A   1      34.214  28.004  24.096  1.00  0.00    -0.268 OA
BRANCH  24  26
ATOM     26  C   UNL A   1      33.659  29.189  25.994  1.00  0.00     0.040 A 
ATOM     27  C   UNL A   1      32.804  30.286  26.249  1.00  0.00     0.015 A 
ATOM     28  C   UNL A   1      34.828  29.066  26.745  1.00  0.00     0.015 A 
ATOM     29  C   UNL A   1      33.086  31.216  27.248  1.00  0.00     0.021 A 
ATOM     30  C   UNL A   1      35.099  29.989  27.770  1.00  0.00     0.021 A 
ATOM     31  C   UNL A   1      34.230  31.056  28.016  1.00  0.00     0.041 A 
ATOM     32  Cl  UNL A   1      34.582  32.187  29.263  1.00  0.00    -0.084 Cl
ENDBRANCH  24  26
ENDBRANCH  16  24
ENDBRANCH   8  10
ENDBRANCH   6   8
ENDBRANCH   5   6
ENDBRANCH   4   5
ENDBRANCH   3   4
ENDBRANCH   2   3
ENDBRANCH   1   2
BRANCH   1  33
ATOM     33  C   UNL A   1      39.629  20.791  26.288  1.00  0.00     0.188 C 
BRANCH  33  34
ATOM     34  O   UNL A   1      40.646  20.667  27.272  1.00  0.00    -0.376 OA
BRANCH  34  35
ATOM     35  C   UNL A   1      42.005  20.610  26.839  1.00  0.00     0.202 C 
BRANCH  35  36
ATOM     36  C   UNL A   1      42.459  19.318  26.153  1.00  0.00     0.261 C 
BRANCH  36  37
ATOM     37  O   UNL A   1      42.976  19.504  24.821  1.00  0.00    -0.460 OA
BRANCH  37  38
ATOM     38  C   UNL A   1      44.317  19.660  24.672  1.00  0.00     0.338 C 
ATOM     39  O   UNL A   1      45.093  18.852  24.214  1.00  0.00    -0.246 OA
BRANCH  38  40
ATOM     40  C   UNL A   1      44.645  21.091  24.939  1.00  0.00     0.060 A 
ATOM     41  C   UNL A   1      45.439  21.392  26.056  1.00  0.00     0.016 A 
ATOM     42  C   UNL A   1      44.255  22.113  24.067  1.00  0.00     0.016 A 
ATOM     43  C   UNL A   1      45.789  22.719  26.333  1.00  0.00     0.010 A 
ATOM     44  C   UNL A   1      44.610  23.436  24.344  1.00  0.00     0.010 A 
ATOM     45  C   UNL A   1      45.340  23.753  25.502  1.00  0.00    -0.014 A 
BRANCH  45  46
ATOM     46  C   UNL A   1      45.450  25.169  25.939  1.00  0.00     0.031 A 
ATOM     47  C   UNL A   1      46.816  25.804  25.958  1.00  0.00     0.074 A 
ATOM     48  C   UNL A   1      44.377  25.886  26.321  1.00  0.00     0.049 A 
ATOM     49  N   UNL A   1      47.170  27.006  26.330  1.00  0.00    -0.248 NA
ATOM     50  C   UNL A   1      47.936  24.964  25.498  1.00  0.00     0.031 C 
ATOM     51  C   UNL A   1      42.998  25.406  26.347  1.00  0.00     0.029 A 
ATOM     52  N   UNL A   1      44.293  27.178  26.785  1.00  0.00    -0.354 N 
ATOM     53  C   UNL A   1      48.550  27.060  26.179  1.00  0.00     0.074 A 
ATOM     54  C   UNL A   1      48.973  25.763  25.696  1.00  0.00     0.031 C 
ATOM     55  C   UNL A   1      42.206  26.382  26.827  1.00  0.00     0.029 A 
ATOM     56  C   UNL A   1      43.023  27.547  27.166  1.00  0.00     0.049 A 
ATOM     57  H   UNL A   1      45.068  27.782  26.841  1.00  0.00     0.167 HD
ATOM     58  C   UNL A   1      49.393  28.093  26.405  1.00  0.00     0.034 A 
ATOM     59  C   UNL A   1      42.578  28.684  27.741  1.00  0.00     0.034 A 
ATOM     60  C   UNL A   1      48.981  29.389  26.868  1.00  0.00     0.049 A 
ATOM     61  C   UNL A   1      43.544  29.811  28.019  1.00  0.00     0.074 A 
ATOM     62  C   UNL A   1      49.761  30.513  27.078  1.00  0.00     0.029 A 
ATOM     63  N   UNL A   1      47.685  29.733  27.214  1.00  0.00    -0.354 N 
ATOM     64  N   UNL A   1      44.827  29.886  27.756  1.00  0.00    -0.248 NA
ATOM     65  C   UNL A   1      42.993  31.023  28.645  1.00  0.00     0.031 C 
ATOM     66  C   UNL A   1      48.942  31.525  27.588  1.00  0.00     0.029 A 
ATOM     67  C   UNL A   1      47.644  31.045  27.654  1.00  0.00     0.049 A 
ATOM     68  H   UNL A   1      46.906  29.132  27.156  1.00  0.00     0.167 HD
ATOM     69  C   UNL A   1      45.224  31.164  28.145  1.00  0.00     0.074 A 
ATOM     70  C   UNL A   1      44.043  31.834  28.645  1.00  0.00     0.031 C 
ATOM     71  C   UNL A   1      46.457  31.727  28.099  1.00  0.00     0.034 A 
BRANCH  58  72
ATOM     72  C   UNL A   1      50.858  27.868  26.142  1.00  0.00     0.023 A 
ATOM     73  C   UNL A   1      51.730  27.594  27.215  1.00  0.00     0.012 A 
ATOM     74  C   UNL A   1      51.359  27.874  24.826  1.00  0.00     0.148 A 
ATOM     75  C   UNL A   1      53.086  27.365  26.985  1.00  0.00     0.002 A 
ATOM     76  C   UNL A   1      52.702  27.597  24.601  1.00  0.00     0.091 A 
ATOM     77  F   UNL A   1      50.518  28.159  23.823  1.00  0.00    -0.205 F 
ATOM     78  C   UNL A   1      53.569  27.354  25.680  1.00  0.00     0.022 A 
BRANCH  76  79
ATOM     79  S   UNL A   1      53.402  27.480  22.952  1.00  0.00     0.127 S 
ATOM     80  O   UNL A   1      52.566  28.423  22.209  1.00  0.00    -0.237 OA
ATOM     81  O   UNL A   1      54.778  27.928  23.171  1.00  0.00    -0.237 OA
ATOM     82  O   UNL A   1      53.271  26.085  22.556  1.00  0.00    -0.744 OA
ENDBRANCH  76  79
ENDBRANCH  58  72
BRANCH  59  83
ATOM     83  C   UNL A   1      41.133  28.838  28.081  1.00  0.00     0.023 A 
ATOM     84  C   UNL A   1      40.210  29.174  27.070  1.00  0.00     0.012 A 
ATOM     85  C   UNL A   1      40.674  28.674  29.401  1.00  0.00     0.148 A 
ATOM     86  C   UNL A   1      38.864  29.379  27.374  1.00  0.00     0.002 A 
ATOM     87  C   UNL A   1      39.322  28.826  29.689  1.00  0.00     0.091 A 
ATOM     88  F   UNL A   1      41.570  28.376  30.352  1.00  0.00    -0.205 F 
ATOM     89  C   UNL A   1      38.418  29.196  28.681  1.00  0.00     0.022 A 
BRANCH  87  90
ATOM     90  S   UNL A   1      38.639  28.506  31.319  1.00  0.00     0.127 S 
ATOM     91  O   UNL A   1      39.294  29.533  32.125  1.00  0.00    -0.237 OA
ATOM     92  O   UNL A   1      37.210  28.720  31.092  1.00  0.00    -0.237 OA
ATOM     93  O   UNL A   1      39.001  27.132  31.636  1.00  0.00    -0.744 OA
ENDBRANCH  87  90
ENDBRANCH  59  83
BRANCH  71  94
ATOM     94  C   UNL A   1      46.603  33.159  28.552  1.00  0.00     0.023 A 
ATOM     95  C   UNL A   1      46.423  34.214  27.636  1.00  0.00     0.012 A 
ATOM     96  C   UNL A   1      46.835  33.460  29.910  1.00  0.00     0.148 A 
ATOM     97  C   UNL A   1      46.508  35.542  28.056  1.00  0.00     0.002 A 
ATOM     98  C   UNL A   1      46.866  34.785  30.331  1.00  0.00     0.091 A 
ATOM     99  F   UNL A   1      47.017  32.444  30.768  1.00  0.00    -0.205 F 
ATOM    100  C   UNL A   1      46.717  35.827  29.403  1.00  0.00     0.022 A 
BRANCH  98 101
ATOM    101  S   UNL A   1      47.028  35.246  32.060  1.00  0.00     0.127 S 
ATOM    102  O   UNL A   1      47.081  36.705  31.976  1.00  0.00    -0.237 OA
ATOM    103  O   UNL A   1      45.795  34.713  32.640  1.00  0.00    -0.237 OA
ATOM    104  O   UNL A   1      48.248  34.606  32.535  1.00  0.00    -0.744 OA
ENDBRANCH  98 101
ENDBRANCH  71  94
ENDBRANCH  45  46
ENDBRANCH  38  40
ENDBRANCH  37  38
ENDBRANCH  36  37
ENDBRANCH  35  36
ENDBRANCH  34  35
ENDBRANCH  33  34
ENDBRANCH   1  33
TORSDOF 23
ENDMDL
MODEL 3
REMARK VINA RESULT:      -9.9      2.463      7.497
REMARK SMILES C[C@H](C(=O)OCCOCCOCCOC(=O)c1ccc(-c2c3nc(c(-c4cccc(S(=O)(=O)[O-])c4F)c4ccc([nH]4)c(-c4cccc(S(=O)(=O)[O-])c4F)c4nc(c(-c5cccc(S(=O)(=O)[O-])c5F)c5ccc2[nH]5)C=C4)C=C3)cc1)c1ccc2c3cc(Cl)ccc3n(C(=O)c3ccc(Cl)cc3)c2c1
REMARK SMILES IDX 9 1 8 2 7 3 6 4 5 5 3 6 4 7 2 8 1 9 80 10 81 11 102 12 82 13
REMARK SMILES IDX 101 14 83 15 91 16 84 17 90 18 85 19 89 20 86 21 88 22 87 23
REMARK SMILES IDX 92 24 93 25 94 26 95 27 100 28 96 29 99 30 97 31 98 32 10 33
REMARK SMILES IDX 11 34 12 35 13 36 14 37 15 38 16 39 17 40 18 41 79 42 19 43
REMARK SMILES IDX 78 44 20 45 21 46 22 47 72 48 23 49 77 50 71 51 73 52 24 53
REMARK SMILES IDX 76 54 70 55 69 56 25 58 57 59 37 60 56 61 38 62 41 63 55 64
REMARK SMILES IDX 74 65 39 66 40 67 54 69 75 70 42 71 26 72 27 73 35 74 28 75
REMARK SMILES IDX 30 76 36 77 29 78 31 79 32 80 33 81 34 82 58 83 59 84 67 85
REMARK SMILES IDX 60 86 62 87 68 88 61 89 63 90 64 91 65 92 66 93 43 94 44 95
REMARK SMILES IDX 52 96 45 97 47 98 53 99 46 100 48 101 49 102 50 103 51 104
REMARK H PARENT 73 57 41 68
REMARK Flexibility Score: inf
ROOT
ATOM      1  C   UNL A   1      38.712  23.226  26.242  1.00  0.00     0.188 C 
ENDROOT
BRANCH   1   2
ATOM      2  O   UNL A   1      37.712  22.983  25.263  1.00  0.00    -0.376 OA
BRANCH   2   3
ATOM      3  C   UNL A   1      37.449  21.629  24.898  1.00  0.00     0.202 C 
BRANCH   3   4
ATOM      4  C   UNL A   1      36.167  20.969  25.433  1.00  0.00     0.261 C 
BRANCH   4   5
ATOM      5  O   UNL A   1      35.034  21.075  24.546  1.00  0.00    -0.463 OA
BRANCH   5   6
ATOM      6  C   UNL A   1      34.614  22.339  24.268  1.00  0.00     0.313 C 
ATOM      7  O   UNL A   1      34.949  22.949  23.257  1.00  0.00    -0.252 OA
BRANCH   6   8
ATOM      8  C   UNL A   1      33.596  22.894  25.283  1.00  0.00     0.126 C 
ATOM      9  C   UNL A   1      34.200  23.514  26.542  1.00  0.00     0.025 C 
BRANCH   8  10
ATOM     10  C   UNL A   1      32.666  23.936  24.679  1.00  0.00    -0.032 A 
ATOM     11  C   UNL A   1      31.577  23.558  23.886  1.00  0.00     0.005 A 
ATOM     12  C   UNL A   1      32.854  25.286  24.984  1.00  0.00     0.032 A 
ATOM     13  C   UNL A   1      30.611  24.499  23.503  1.00  0.00     0.011 A 
ATOM     14  C   UNL A   1      31.960  26.229  24.478  1.00  0.00     0.057 A 
ATOM     15  C   UNL A   1      30.791  25.856  23.845  1.00  0.00     0.008 A 
ATOM     16  N   UNL A   1      32.060  27.616  24.481  1.00  0.00    -0.276 N 
ATOM     17  C   UNL A   1      30.012  27.038  23.740  1.00  0.00     0.009 A 
ATOM     18  C   UNL A   1      30.829  28.135  24.076  1.00  0.00     0.057 A 
ATOM     19  C   UNL A   1      28.673  27.253  23.358  1.00  0.00     0.031 A 
ATOM     20  C   UNL A   1      30.378  29.449  23.873  1.00  0.00     0.029 A 
ATOM     21  C   UNL A   1      28.200  28.556  23.257  1.00  0.00     0.041 A 
ATOM     22  C   UNL A   1      29.048  29.638  23.473  1.00  0.00     0.023 A 
ATOM     23  Cl  UNL A   1      26.551  28.824  22.840  1.00  0.00    -0.084 Cl
BRANCH  16  24
ATOM     24  C   UNL A   1      33.294  28.257  24.736  1.00  0.00     0.262 C 
ATOM     25  O   UNL A   1      34.166  28.055  23.888  1.00  0.00    -0.268 OA
BRANCH  24  26
ATOM     26  C   UNL A   1      33.726  29.047  25.922  1.00  0.00     0.040 A 
ATOM     27  C   UNL A   1      32.968  30.204  26.213  1.00  0.00     0.015 A 
ATOM     28  C   UNL A   1      34.870  28.791  26.678  1.00  0.00     0.015 A 
ATOM     29  C   UNL A   1      33.317  31.064  27.253  1.00  0.00     0.021 A 
ATOM     30  C   UNL A   1      35.207  29.644  27.743  1.00  0.00     0.021 A 
ATOM     31  C   UNL A   1      34.432  30.772  28.025  1.00  0.00     0.041 A 
ATOM     32  Cl  UNL A   1      34.865  31.817  29.321  1.00  0.00    -0.084 Cl
ENDBRANCH  24  26
ENDBRANCH  16  24
ENDBRANCH   8  10
ENDBRANCH   6   8
ENDBRANCH   5   6
ENDBRANCH   4   5
ENDBRANCH   3   4
ENDBRANCH   2   3
ENDBRANCH   1   2
BRANCH   1  33
ATOM     33  C   UNL A   1      39.807  22.162  26.409  1.00  0.00     0.188 C 
BRANCH  33  34
ATOM     34  O   UNL A   1      40.861  22.519  27.293  1.00  0.00    -0.376 OA
BRANCH  34  35
ATOM     35  C   UNL A   1      42.096  22.963  26.731  1.00  0.00     0.202 C 
BRANCH  35  36
ATOM     36  C   UNL A   1      43.015  21.888  26.143  1.00  0.00     0.261 C 
BRANCH  36  37
ATOM     37  O   UNL A   1      43.995  22.389  25.213  1.00  0.00    -0.460 OA
BRANCH  37  38
ATOM     38  C   UNL A   1      45.270  22.547  25.654  1.00  0.00     0.338 C 
ATOM     39  O   UNL A   1      46.180  21.758  25.535  1.00  0.00    -0.246 OA
BRANCH  38  40
ATOM     40  C   UNL A   1      45.431  23.964  26.094  1.00  0.00     0.060 A 
ATOM     41  C   UNL A   1      45.865  24.206  27.405  1.00  0.00     0.016 A 
ATOM     42  C   UNL A   1      45.243  25.036  25.215  1.00  0.00     0.016 A 
ATOM     43  C   UNL A   1      46.050  25.518  27.855  1.00  0.00     0.010 A 
ATOM     44  C   UNL A   1      45.433  26.345  25.664  1.00  0.00     0.010 A 
ATOM     45  C   UNL A   1      45.793  26.598  26.999  1.00  0.00    -0.014 A 
BRANCH  45  46
ATOM     46  C   UNL A   1      45.698  27.979  27.539  1.00  0.00     0.031 A 
ATOM     47  C   UNL A   1      44.371  28.440  28.084  1.00  0.00     0.074 A 
ATOM     48  C   UNL A   1      46.749  28.819  27.547  1.00  0.00     0.049 A 
ATOM     49  N   UNL A   1      44.033  29.604  28.575  1.00  0.00    -0.248 NA
ATOM     50  C   UNL A   1      43.276  27.454  28.068  1.00  0.00     0.031 C 
ATOM     51  C   UNL A   1      48.091  28.507  27.060  1.00  0.00     0.029 A 
ATOM     52  N   UNL A   1      46.838  30.125  27.966  1.00  0.00    -0.354 N 
ATOM     53  C   UNL A   1      42.685  29.502  28.898  1.00  0.00     0.074 A 
ATOM     54  C   UNL A   1      42.262  28.167  28.533  1.00  0.00     0.031 C 
ATOM     55  C   UNL A   1      48.865  29.601  27.186  1.00  0.00     0.029 A 
ATOM     56  C   UNL A   1      48.068  30.698  27.737  1.00  0.00     0.049 A 
ATOM     57  H   UNL A   1      46.091  30.607  28.390  1.00  0.00     0.167 HD
ATOM     58  C   UNL A   1      41.871  30.425  29.460  1.00  0.00     0.034 A 
ATOM     59  C   UNL A   1      48.495  31.963  27.930  1.00  0.00     0.034 A 
ATOM     60  C   UNL A   1      42.284  31.746  29.842  1.00  0.00     0.049 A 
ATOM     61  C   UNL A   1      47.556  32.986  28.525  1.00  0.00     0.074 A 
ATOM     62  C   UNL A   1      41.539  32.732  30.464  1.00  0.00     0.029 A 
ATOM     63  N   UNL A   1      43.545  32.278  29.621  1.00  0.00    -0.354 N 
ATOM     64  N   UNL A   1      46.320  32.837  28.936  1.00  0.00    -0.248 NA
ATOM     65  C   UNL A   1      48.084  34.348  28.710  1.00  0.00     0.031 C 
ATOM     66  C   UNL A   1      42.338  33.874  30.584  1.00  0.00     0.029 A 
ATOM     67  C   UNL A   1      43.594  33.584  30.077  1.00  0.00     0.049 A 
ATOM     68  H   UNL A   1      44.295  31.797  29.201  1.00  0.00     0.167 HD
ATOM     69  C   UNL A   1      45.940  34.069  29.465  1.00  0.00     0.074 A 
ATOM     70  C   UNL A   1      47.081  34.948  29.338  1.00  0.00     0.031 C 
ATOM     71  C   UNL A   1      44.749  34.439  30.000  1.00  0.00     0.034 A 
BRANCH  58  72
ATOM     72  C   UNL A   1      40.439  30.030  29.710  1.00  0.00     0.023 A 
ATOM     73  C   UNL A   1      39.532  29.963  28.633  1.00  0.00     0.012 A 
ATOM     74  C   UNL A   1      40.008  29.676  31.002  1.00  0.00     0.148 A 
ATOM     75  C   UNL A   1      38.208  29.582  28.845  1.00  0.00     0.002 A 
ATOM     76  C   UNL A   1      38.701  29.250  31.198  1.00  0.00     0.091 A 
ATOM     77  F   UNL A   1      40.881  29.769  32.015  1.00  0.00    -0.205 F 
ATOM     78  C   UNL A   1      37.796  29.214  30.123  1.00  0.00     0.022 A 
BRANCH  76  79
ATOM     79  S   UNL A   1      38.097  28.680  32.790  1.00  0.00     0.127 S 
ATOM     80  O   UNL A   1      39.052  29.302  33.707  1.00  0.00    -0.237 OA
ATOM     81  O   UNL A   1      36.751  29.254  32.830  1.00  0.00    -0.237 OA
ATOM     82  O   UNL A   1      38.137  27.225  32.739  1.00  0.00    -0.744 OA
ENDBRANCH  76  79
ENDBRANCH  58  72
BRANCH  59  83
ATOM     83  C   UNL A   1      49.893  32.347  27.579  1.00  0.00     0.023 A 
ATOM     84  C   UNL A   1      50.942  32.055  28.473  1.00  0.00     0.012 A 
ATOM     85  C   UNL A   1      50.185  33.017  26.376  1.00  0.00     0.148 A 
ATOM     86  C   UNL A   1      52.249  32.454  28.193  1.00  0.00     0.002 A 
ATOM     87  C   UNL A   1      51.497  33.364  26.077  1.00  0.00     0.091 A 
ATOM     88  F   UNL A   1      49.171  33.305  25.549  1.00  0.00    -0.205 F 
ATOM     89  C   UNL A   1      52.529  33.101  26.991  1.00  0.00     0.022 A 
BRANCH  87  90
ATOM     90  S   UNL A   1      51.968  34.102  24.508  1.00  0.00     0.127 S 
ATOM     91  O   UNL A   1      51.016  35.205  24.399  1.00  0.00    -0.237 OA
ATOM     92  O   UNL A   1      53.349  34.505  24.769  1.00  0.00    -0.237 OA
ATOM     93  O   UNL A   1      51.823  33.046  23.516  1.00  0.00    -0.744 OA
ENDBRANCH  87  90
ENDBRANCH  59  83
BRANCH  71  94
ATOM     94  C   UNL A   1      44.618  35.841  30.542  1.00  0.00     0.023 A 
ATOM     95  C   UNL A   1      45.083  36.146  31.837  1.00  0.00     0.012 A 
ATOM     96  C   UNL A   1      44.108  36.877  29.733  1.00  0.00     0.148 A 
ATOM     97  C   UNL A   1      45.011  37.450  32.328  1.00  0.00     0.002 A 
ATOM     98  C   UNL A   1      44.087  38.183  30.209  1.00  0.00     0.091 A 
ATOM     99  F   UNL A   1      43.658  36.567  28.508  1.00  0.00    -0.205 F 
ATOM    100  C   UNL A   1      44.525  38.469  31.512  1.00  0.00     0.022 A 
BRANCH  98 101
ATOM    101  S   UNL A   1      43.574  39.574  29.195  1.00  0.00     0.127 S 
ATOM    102  O   UNL A   1      43.641  40.680  30.149  1.00  0.00    -0.237 OA
ATOM    103  O   UNL A   1      44.607  39.600  28.159  1.00  0.00    -0.237 OA
ATOM    104  O   UNL A   1      42.239  39.249  28.711  1.00  0.00    -0.744 OA
ENDBRANCH  98 101
ENDBRANCH  71  94
ENDBRANCH  45  46
ENDBRANCH  38  40
ENDBRANCH  37  38
ENDBRANCH  36  37
ENDBRANCH  35  36
ENDBRANCH  34  35
ENDBRANCH  33  34
ENDBRANCH   1  33
TORSDOF 23
ENDMDL
