MODEL 1
REMARK VINA RESULT:     -10.1      0.000      0.000
REMARK SMILES COC(=O)[C@@H]1C[C@@H](C(=O)OCCOCCOCCOC(=O)c2ccc(-c3c4nc(c(-c5cccc(S(=O)(=O)[O-])c5F)c5ccc([nH]5)c(-c5cccc(S(=O)(=O)[O-])c5F)c5nc(c(-c6cccc(S(=O)(=O)[O-])c6F)c6ccc3[nH]6)C=C5)C=C4)cc2)[C@@H](c2cccc(F)c2F)[N@H+]1C
REMARK SMILES IDX 15 1 14 2 13 3 12 4 11 5 10 6 8 7 9 8 7 9 5 10 6 11 94 12
REMARK SMILES IDX 85 13 95 14 3 16 4 17 2 18 1 19 86 20 87 21 92 22 88 23
REMARK SMILES IDX 90 24 93 25 89 26 91 27 16 28 17 29 18 30 19 31 20 32 21 33
REMARK SMILES IDX 22 34 23 35 84 36 24 37 83 38 25 39 26 40 27 41 77 42 28 43
REMARK SMILES IDX 82 44 76 45 78 46 29 47 81 48 75 49 74 50 30 52 62 53 42 54
REMARK SMILES IDX 61 55 43 56 46 57 60 58 79 59 44 60 45 61 59 63 80 64 47 65
REMARK SMILES IDX 31 66 32 67 40 68 33 69 35 70 41 71 34 72 36 73 37 74 38 75
REMARK SMILES IDX 39 76 63 77 64 78 72 79 65 80 67 81 73 82 66 83 68 84 69 85
REMARK SMILES IDX 70 86 71 87 48 88 49 89 57 90 50 91 52 92 58 93 51 94 53 95
REMARK SMILES IDX 54 96 55 97 56 98
REMARK H PARENT 94 15 78 51 46 62
REMARK Flexibility Score: inf
ROOT
ATOM      1  C   UNL A   1      32.253  27.425  25.451  1.00  0.00     0.188 C 
ENDROOT
BRANCH   1   2
ATOM      2  C   UNL A   1      31.982  26.076  26.125  1.00  0.00     0.188 C 
BRANCH   2   3
ATOM      3  O   UNL A   1      30.647  25.621  26.202  1.00  0.00    -0.376 OA
BRANCH   3   4
ATOM      4  C   UNL A   1      30.393  24.409  26.902  1.00  0.00     0.202 C 
BRANCH   4   5
ATOM      5  C   UNL A   1      30.612  23.062  26.206  1.00  0.00     0.261 C 
BRANCH   5   6
ATOM      6  O   UNL A   1      30.326  23.091  24.790  1.00  0.00    -0.463 OA
BRANCH   6   7
ATOM      7  C   UNL A   1      31.363  22.791  23.981  1.00  0.00     0.315 C 
ATOM      8  O   UNL A   1      31.252  22.687  22.761  1.00  0.00    -0.252 OA
BRANCH   7   9
ATOM      9  C   UNL A   1      32.712  22.581  24.646  1.00  0.00     0.168 C 
ATOM     10  C   UNL A   1      34.995  22.308  23.832  1.00  0.00     0.296 C 
ATOM     11  C   UNL A   1      33.780  23.212  23.735  1.00  0.00     0.099 C 
ATOM     12  N   UNL A   1      34.777  21.654  25.130  1.00  0.00    -0.319 N 
ATOM     13  C   UNL A   1      33.342  21.261  25.162  1.00  0.00     0.233 C 
ATOM     14  C   UNL A   1      35.759  20.648  25.491  1.00  0.00     0.334 C 
ATOM     15  H   UNL A   1      34.953  22.298  25.901  1.00  0.00     0.349 HD
BRANCH  10  16
ATOM     16  C   UNL A   1      36.268  23.133  23.705  1.00  0.00     0.364 C 
ATOM     17  O   UNL A   1      37.028  23.023  22.745  1.00  0.00    -0.245 OA
BRANCH  16  18
ATOM     18  O   UNL A   1      36.441  24.016  24.724  1.00  0.00    -0.465 OA
ATOM     19  C   UNL A   1      37.537  23.709  25.583  1.00  0.00     0.282 C 
ENDBRANCH  16  18
ENDBRANCH  10  16
BRANCH  13  20
ATOM     20  C   UNL A   1      33.038  19.918  24.518  1.00  0.00     0.049 A 
ATOM     21  C   UNL A   1      32.901  19.714  23.139  1.00  0.00     0.013 A 
ATOM     22  C   UNL A   1      32.855  18.797  25.356  1.00  0.00     0.167 A 
ATOM     23  C   UNL A   1      32.525  18.463  22.627  1.00  0.00     0.004 A 
ATOM     24  C   UNL A   1      32.533  17.545  24.841  1.00  0.00     0.159 A 
ATOM     25  F   UNL A   1      33.001  18.923  26.684  1.00  0.00    -0.203 F 
ATOM     26  C   UNL A   1      32.345  17.374  23.480  1.00  0.00     0.042 A 
ATOM     27  F   UNL A   1      32.399  16.491  25.659  1.00  0.00    -0.204 F 
ENDBRANCH  13  20
ENDBRANCH   7   9
ENDBRANCH   6   7
ENDBRANCH   5   6
ENDBRANCH   4   5
ENDBRANCH   3   4
ENDBRANCH   2   3
ENDBRANCH   1   2
BRANCH   1  28
ATOM     28  O   UNL A   1      31.326  28.483  25.483  1.00  0.00    -0.376 OA
BRANCH  28  29
ATOM     29  C   UNL A   1      31.677  29.817  25.156  1.00  0.00     0.202 C 
BRANCH  29  30
ATOM     30  C   UNL A   1      31.739  30.999  26.138  1.00  0.00     0.261 C 
BRANCH  30  31
ATOM     31  O   UNL A   1      32.616  30.877  27.250  1.00  0.00    -0.460 OA
BRANCH  31  32
ATOM     32  C   UNL A   1      33.377  31.973  27.489  1.00  0.00     0.338 C 
ATOM     33  O   UNL A   1      33.002  33.134  27.539  1.00  0.00    -0.246 OA
BRANCH  32  34
ATOM     34  C   UNL A   1      34.701  31.510  27.948  1.00  0.00     0.060 A 
ATOM     35  C   UNL A   1      34.892  30.130  28.116  1.00  0.00     0.016 A 
ATOM     36  C   UNL A   1      35.746  32.411  28.160  1.00  0.00     0.016 A 
ATOM     37  C   UNL A   1      36.117  29.651  28.563  1.00  0.00     0.010 A 
ATOM     38  C   UNL A   1      36.968  31.930  28.631  1.00  0.00     0.010 A 
ATOM     39  C   UNL A   1      37.133  30.556  28.888  1.00  0.00    -0.014 A 
BRANCH  39  40
ATOM     40  C   UNL A   1      38.232  30.098  29.767  1.00  0.00     0.031 A 
ATOM     41  C   UNL A   1      39.237  29.143  29.180  1.00  0.00     0.074 A 
ATOM     42  C   UNL A   1      38.363  30.539  31.029  1.00  0.00     0.049 A 
ATOM     43  N   UNL A   1      40.289  28.601  29.732  1.00  0.00    -0.248 NA
ATOM     44  C   UNL A   1      39.019  28.741  27.778  1.00  0.00     0.031 C 
ATOM     45  C   UNL A   1      37.462  31.473  31.701  1.00  0.00     0.029 A 
ATOM     46  N   UNL A   1      39.308  30.237  31.975  1.00  0.00    -0.354 N 
ATOM     47  C   UNL A   1      40.836  27.771  28.761  1.00  0.00     0.074 A 
ATOM     48  C   UNL A   1      39.990  27.863  27.592  1.00  0.00     0.031 C 
ATOM     49  C   UNL A   1      37.885  31.649  32.965  1.00  0.00     0.029 A 
ATOM     50  C   UNL A   1      39.073  30.826  33.193  1.00  0.00     0.049 A 
ATOM     51  H   UNL A   1      40.081  29.653  31.798  1.00  0.00     0.167 HD
ATOM     52  C   UNL A   1      41.953  27.011  28.826  1.00  0.00     0.034 A 
ATOM     53  C   UNL A   1      39.736  30.698  34.360  1.00  0.00     0.034 A 
ATOM     54  C   UNL A   1      42.799  26.931  29.983  1.00  0.00     0.049 A 
ATOM     55  C   UNL A   1      40.970  29.834  34.413  1.00  0.00     0.074 A 
ATOM     56  C   UNL A   1      43.974  26.220  30.143  1.00  0.00     0.029 A 
ATOM     57  N   UNL A   1      42.551  27.573  31.187  1.00  0.00    -0.354 N 
ATOM     58  N   UNL A   1      41.536  29.135  33.458  1.00  0.00    -0.248 NA
ATOM     59  C   UNL A   1      41.684  29.778  35.697  1.00  0.00     0.031 C 
ATOM     60  C   UNL A   1      44.418  26.402  31.457  1.00  0.00     0.029 A 
ATOM     61  C   UNL A   1      43.546  27.268  32.098  1.00  0.00     0.049 A 
ATOM     62  H   UNL A   1      41.780  28.158  31.366  1.00  0.00     0.167 HD
ATOM     63  C   UNL A   1      42.693  28.595  34.011  1.00  0.00     0.074 A 
ATOM     64  C   UNL A   1      42.755  29.064  35.380  1.00  0.00     0.031 C 
ATOM     65  C   UNL A   1      43.619  27.782  33.442  1.00  0.00     0.034 A 
BRANCH  52  66
ATOM     66  C   UNL A   1      42.316  26.207  27.605  1.00  0.00     0.023 A 
ATOM     67  C   UNL A   1      43.032  26.808  26.549  1.00  0.00     0.012 A 
ATOM     68  C   UNL A   1      41.968  24.845  27.516  1.00  0.00     0.148 A 
ATOM     69  C   UNL A   1      43.361  26.078  25.407  1.00  0.00     0.002 A 
ATOM     70  C   UNL A   1      42.344  24.110  26.399  1.00  0.00     0.091 A 
ATOM     71  F   UNL A   1      41.262  24.299  28.516  1.00  0.00    -0.205 F 
ATOM     72  C   UNL A   1      43.027  24.728  25.338  1.00  0.00     0.022 A 
BRANCH  70  73
ATOM     73  S   UNL A   1      42.037  22.348  26.252  1.00  0.00     0.127 S 
ATOM     74  O   UNL A   1      42.726  22.031  25.001  1.00  0.00    -0.237 OA
ATOM     75  O   UNL A   1      42.684  21.824  27.454  1.00  0.00    -0.237 OA
ATOM     76  O   UNL A   1      40.589  22.192  26.222  1.00  0.00    -0.744 OA
ENDBRANCH  70  73
ENDBRANCH  52  66
BRANCH  53  77
ATOM     77  C   UNL A   1      39.268  31.433  35.569  1.00  0.00     0.023 A 
ATOM     78  C   UNL A   1      38.252  30.882  36.375  1.00  0.00     0.012 A 
ATOM     79  C   UNL A   1      39.828  32.675  35.925  1.00  0.00     0.148 A 
ATOM     80  C   UNL A   1      37.775  31.573  37.490  1.00  0.00     0.002 A 
ATOM     81  C   UNL A   1      39.388  33.331  37.067  1.00  0.00     0.091 A 
ATOM     82  F   UNL A   1      40.785  33.187  35.138  1.00  0.00    -0.205 F 
ATOM     83  C   UNL A   1      38.349  32.792  37.841  1.00  0.00     0.022 A 
BRANCH  81  84
ATOM     84  S   UNL A   1      40.148  34.845  37.665  1.00  0.00     0.127 S 
ATOM     85  O   UNL A   1      41.569  34.521  37.572  1.00  0.00    -0.237 OA
ATOM     86  O   UNL A   1      39.673  35.823  36.686  1.00  0.00    -0.237 OA
ATOM     87  O   UNL A   1      39.634  35.041  39.013  1.00  0.00    -0.744 OA
ENDBRANCH  81  84
ENDBRANCH  53  77
BRANCH  65  88
ATOM     88  C   UNL A   1      44.817  27.397  34.275  1.00  0.00     0.023 A 
ATOM     89  C   UNL A   1      45.981  28.191  34.259  1.00  0.00     0.012 A 
ATOM     90  C   UNL A   1      44.765  26.266  35.113  1.00  0.00     0.148 A 
ATOM     91  C   UNL A   1      47.094  27.832  35.021  1.00  0.00     0.002 A 
ATOM     92  C   UNL A   1      45.856  25.947  35.913  1.00  0.00     0.091 A 
ATOM     93  F   UNL A   1      43.656  25.513  35.108  1.00  0.00    -0.205 F 
ATOM     94  C   UNL A   1      47.029  26.717  35.853  1.00  0.00     0.022 A 
BRANCH  92  95
ATOM     95  S   UNL A   1      45.818  24.593  37.091  1.00  0.00     0.127 S 
ATOM     96  O   UNL A   1      45.911  23.429  36.212  1.00  0.00    -0.237 OA
ATOM     97  O   UNL A   1      47.013  24.845  37.896  1.00  0.00    -0.237 OA
ATOM     98  O   UNL A   1      44.562  24.731  37.818  1.00  0.00    -0.744 OA
ENDBRANCH  92  95
ENDBRANCH  65  88
ENDBRANCH  39  40
ENDBRANCH  32  34
ENDBRANCH  31  32
ENDBRANCH  30  31
ENDBRANCH  29  30
ENDBRANCH  28  29
ENDBRANCH   1  28
TORSDOF 23
ENDMDL
MODEL 2
REMARK VINA RESULT:      -9.9      1.804      7.876
REMARK SMILES COC(=O)[C@@H]1C[C@@H](C(=O)OCCOCCOCCOC(=O)c2ccc(-c3c4nc(c(-c5cccc(S(=O)(=O)[O-])c5F)c5ccc([nH]5)c(-c5cccc(S(=O)(=O)[O-])c5F)c5nc(c(-c6cccc(S(=O)(=O)[O-])c6F)c6ccc3[nH]6)C=C5)C=C4)cc2)[C@@H](c2cccc(F)c2F)[N@H+]1C
REMARK SMILES IDX 15 1 14 2 13 3 12 4 11 5 10 6 8 7 9 8 7 9 5 10 6 11 94 12
REMARK SMILES IDX 85 13 95 14 3 16 4 17 2 18 1 19 86 20 87 21 92 22 88 23
REMARK SMILES IDX 90 24 93 25 89 26 91 27 16 28 17 29 18 30 19 31 20 32 21 33
REMARK SMILES IDX 22 34 23 35 84 36 24 37 83 38 25 39 26 40 27 41 77 42 28 43
REMARK SMILES IDX 82 44 76 45 78 46 29 47 81 48 75 49 74 50 30 52 62 53 42 54
REMARK SMILES IDX 61 55 43 56 46 57 60 58 79 59 44 60 45 61 59 63 80 64 47 65
REMARK SMILES IDX 31 66 32 67 40 68 33 69 35 70 41 71 34 72 36 73 37 74 38 75
REMARK SMILES IDX 39 76 63 77 64 78 72 79 65 80 67 81 73 82 66 83 68 84 69 85
REMARK SMILES IDX 70 86 71 87 48 88 49 89 57 90 50 91 52 92 58 93 51 94 53 95
REMARK SMILES IDX 54 96 55 97 56 98
REMARK H PARENT 94 15 78 51 46 62
REMARK Flexibility Score: inf
ROOT
ATOM      1  C   UNL A   1      31.941  28.807  25.439  1.00  0.00     0.188 C 
ENDROOT
BRANCH   1   2
ATOM      2  C   UNL A   1      33.036  29.050  24.396  1.00  0.00     0.188 C 
BRANCH   2   3
ATOM      3  O   UNL A   1      33.727  27.934  23.875  1.00  0.00    -0.376 OA
BRANCH   3   4
ATOM      4  C   UNL A   1      33.145  27.238  22.780  1.00  0.00     0.202 C 
BRANCH   4   5
ATOM      5  C   UNL A   1      33.645  25.839  22.408  1.00  0.00     0.261 C 
BRANCH   5   6
ATOM      6  O   UNL A   1      32.581  24.911  22.098  1.00  0.00    -0.463 OA
BRANCH   6   7
ATOM      7  C   UNL A   1      32.901  23.604  22.207  1.00  0.00     0.315 C 
ATOM      8  O   UNL A   1      33.526  22.993  21.342  1.00  0.00    -0.252 OA
BRANCH   7   9
ATOM      9  C   UNL A   1      32.450  22.892  23.471  1.00  0.00     0.168 C 
ATOM     10  C   UNL A   1      32.059  23.586  25.776  1.00  0.00     0.296 C 
ATOM     11  C   UNL A   1      31.703  23.920  24.339  1.00  0.00     0.099 C 
ATOM     12  N   UNL A   1      32.431  22.168  25.669  1.00  0.00    -0.319 N 
ATOM     13  C   UNL A   1      33.297  22.056  24.464  1.00  0.00     0.233 C 
ATOM     14  C   UNL A   1      32.902  21.556  26.898  1.00  0.00     0.334 C 
ATOM     15  H   UNL A   1      31.609  21.581  25.532  1.00  0.00     0.349 HD
BRANCH  10  16
ATOM     16  C   UNL A   1      30.881  23.900  26.689  1.00  0.00     0.364 C 
ATOM     17  O   UNL A   1      30.377  23.053  27.423  1.00  0.00    -0.245 OA
BRANCH  16  18
ATOM     18  O   UNL A   1      30.491  25.201  26.637  1.00  0.00    -0.465 OA
ATOM     19  C   UNL A   1      29.103  25.384  26.369  1.00  0.00     0.282 C 
ENDBRANCH  16  18
ENDBRANCH  10  16
BRANCH  13  20
ATOM     20  C   UNL A   1      34.768  22.347  24.713  1.00  0.00     0.049 A 
ATOM     21  C   UNL A   1      35.307  23.631  24.867  1.00  0.00     0.013 A 
ATOM     22  C   UNL A   1      35.669  21.261  24.769  1.00  0.00     0.167 A 
ATOM     23  C   UNL A   1      36.690  23.824  24.997  1.00  0.00     0.004 A 
ATOM     24  C   UNL A   1      37.035  21.453  24.950  1.00  0.00     0.159 A 
ATOM     25  F   UNL A   1      35.210  20.005  24.655  1.00  0.00    -0.203 F 
ATOM     26  C   UNL A   1      37.556  22.733  25.044  1.00  0.00     0.042 A 
ATOM     27  F   UNL A   1      37.861  20.400  25.034  1.00  0.00    -0.204 F 
ENDBRANCH  13  20
ENDBRANCH   7   9
ENDBRANCH   6   7
ENDBRANCH   5   6
ENDBRANCH   4   5
ENDBRANCH   3   4
ENDBRANCH   2   3
ENDBRANCH   1   2
BRANCH   1  28
ATOM     28  O   UNL A   1      31.347  29.855  26.167  1.00  0.00    -0.376 OA
BRANCH  28  29
ATOM     29  C   UNL A   1      31.974  31.116  26.339  1.00  0.00     0.202 C 
BRANCH  29  30
ATOM     30  C   UNL A   1      33.052  31.450  27.385  1.00  0.00     0.261 C 
BRANCH  30  31
ATOM     31  O   UNL A   1      33.600  32.762  27.358  1.00  0.00    -0.460 OA
BRANCH  31  32
ATOM     32  C   UNL A   1      34.108  33.183  28.542  1.00  0.00     0.338 C 
ATOM     33  O   UNL A   1      33.545  33.861  29.387  1.00  0.00    -0.246 OA
BRANCH  32  34
ATOM     34  C   UNL A   1      35.376  32.463  28.768  1.00  0.00     0.060 A 
ATOM     35  C   UNL A   1      35.308  31.099  29.093  1.00  0.00     0.016 A 
ATOM     36  C   UNL A   1      36.607  33.103  28.615  1.00  0.00     0.016 A 
ATOM     37  C   UNL A   1      36.476  30.385  29.331  1.00  0.00     0.010 A 
ATOM     38  C   UNL A   1      37.777  32.391  28.878  1.00  0.00     0.010 A 
ATOM     39  C   UNL A   1      37.707  31.048  29.293  1.00  0.00    -0.014 A 
BRANCH  39  40
ATOM     40  C   UNL A   1      38.866  30.426  29.973  1.00  0.00     0.031 A 
ATOM     41  C   UNL A   1      39.167  30.873  31.378  1.00  0.00     0.074 A 
ATOM     42  C   UNL A   1      39.604  29.470  29.385  1.00  0.00     0.049 A 
ATOM     43  N   UNL A   1      40.113  30.483  32.189  1.00  0.00    -0.248 NA
ATOM     44  C   UNL A   1      38.280  31.907  31.941  1.00  0.00     0.031 C 
ATOM     45  C   UNL A   1      39.400  28.948  28.035  1.00  0.00     0.029 A 
ATOM     46  N   UNL A   1      40.693  28.783  29.856  1.00  0.00    -0.354 N 
ATOM     47  C   UNL A   1      39.958  31.245  33.341  1.00  0.00     0.074 A 
ATOM     48  C   UNL A   1      38.841  32.135  33.117  1.00  0.00     0.031 C 
ATOM     49  C   UNL A   1      40.353  28.035  27.776  1.00  0.00     0.029 A 
ATOM     50  C   UNL A   1      41.242  27.926  28.933  1.00  0.00     0.049 A 
ATOM     51  H   UNL A   1      41.047  28.893  30.767  1.00  0.00     0.167 HD
ATOM     52  C   UNL A   1      40.669  31.200  34.490  1.00  0.00     0.034 A 
ATOM     53  C   UNL A   1      42.346  27.157  29.014  1.00  0.00     0.034 A 
ATOM     54  C   UNL A   1      41.769  30.306  34.714  1.00  0.00     0.049 A 
ATOM     55  C   UNL A   1      43.131  27.133  30.301  1.00  0.00     0.074 A 
ATOM     56  C   UNL A   1      42.535  30.152  35.855  1.00  0.00     0.029 A 
ATOM     57  N   UNL A   1      42.273  29.424  33.770  1.00  0.00    -0.354 N 
ATOM     58  N   UNL A   1      42.913  27.783  31.419  1.00  0.00    -0.248 NA
ATOM     59  C   UNL A   1      44.293  26.232  30.350  1.00  0.00     0.031 C 
ATOM     60  C   UNL A   1      43.527  29.202  35.589  1.00  0.00     0.029 A 
ATOM     61  C   UNL A   1      43.346  28.727  34.299  1.00  0.00     0.049 A 
ATOM     62  H   UNL A   1      41.921  29.310  32.858  1.00  0.00     0.167 HD
ATOM     63  C   UNL A   1      43.878  27.336  32.317  1.00  0.00     0.074 A 
ATOM     64  C   UNL A   1      44.670  26.347  31.616  1.00  0.00     0.031 C 
ATOM     65  C   UNL A   1      44.094  27.712  33.604  1.00  0.00     0.034 A 
BRANCH  52  66
ATOM     66  C   UNL A   1      40.270  32.149  35.589  1.00  0.00     0.023 A 
ATOM     67  C   UNL A   1      40.946  33.378  35.743  1.00  0.00     0.012 A 
ATOM     68  C   UNL A   1      39.207  31.833  36.457  1.00  0.00     0.148 A 
ATOM     69  C   UNL A   1      40.597  34.257  36.767  1.00  0.00     0.002 A 
ATOM     70  C   UNL A   1      38.830  32.738  37.441  1.00  0.00     0.091 A 
ATOM     71  F   UNL A   1      38.596  30.649  36.314  1.00  0.00    -0.205 F 
ATOM     72  C   UNL A   1      39.532  33.943  37.607  1.00  0.00     0.022 A 
BRANCH  70  73
ATOM     73  S   UNL A   1      37.420  32.463  38.517  1.00  0.00     0.127 S 
ATOM     74  O   UNL A   1      37.748  33.319  39.658  1.00  0.00    -0.237 OA
ATOM     75  O   UNL A   1      36.309  32.942  37.694  1.00  0.00    -0.237 OA
ATOM     76  O   UNL A   1      37.398  31.035  38.798  1.00  0.00    -0.744 OA
ENDBRANCH  70  73
ENDBRANCH  52  66
BRANCH  53  77
ATOM     77  C   UNL A   1      42.758  26.316  27.855  1.00  0.00     0.023 A 
ATOM     78  C   UNL A   1      43.694  26.814  26.926  1.00  0.00     0.012 A 
ATOM     79  C   UNL A   1      42.228  25.026  27.669  1.00  0.00     0.148 A 
ATOM     80  C   UNL A   1      44.063  26.057  25.813  1.00  0.00     0.002 A 
ATOM     81  C   UNL A   1      42.642  24.255  26.590  1.00  0.00     0.091 A 
ATOM     82  F   UNL A   1      41.329  24.576  28.558  1.00  0.00    -0.205 F 
ATOM     83  C   UNL A   1      43.545  24.775  25.651  1.00  0.00     0.022 A 
BRANCH  81  84
ATOM     84  S   UNL A   1      42.122  22.551  26.365  1.00  0.00     0.127 S 
ATOM     85  O   UNL A   1      42.738  21.896  27.515  1.00  0.00    -0.237 OA
ATOM     86  O   UNL A   1      40.665  22.673  26.432  1.00  0.00    -0.237 OA
ATOM     87  O   UNL A   1      42.634  22.149  25.063  1.00  0.00    -0.744 OA
ENDBRANCH  81  84
ENDBRANCH  53  77
BRANCH  65  88
ATOM     88  C   UNL A   1      45.190  27.005  34.363  1.00  0.00     0.023 A 
ATOM     89  C   UNL A   1      46.501  27.520  34.366  1.00  0.00     0.012 A 
ATOM     90  C   UNL A   1      44.901  25.849  35.115  1.00  0.00     0.148 A 
ATOM     91  C   UNL A   1      47.519  26.862  35.059  1.00  0.00     0.002 A 
ATOM     92  C   UNL A   1      45.907  25.233  35.850  1.00  0.00     0.091 A 
ATOM     93  F   UNL A   1      43.651  25.364  35.092  1.00  0.00    -0.205 F 
ATOM     94  C   UNL A   1      47.221  25.726  35.807  1.00  0.00     0.022 A 
BRANCH  92  95
ATOM     95  S   UNL A   1      45.587  23.830  36.924  1.00  0.00     0.127 S 
ATOM     96  O   UNL A   1      46.941  23.412  37.280  1.00  0.00    -0.237 OA
ATOM     97  O   UNL A   1      44.830  24.441  38.017  1.00  0.00    -0.237 OA
ATOM     98  O   UNL A   1      44.827  22.878  36.124  1.00  0.00    -0.744 OA
ENDBRANCH  92  95
ENDBRANCH  65  88
ENDBRANCH  39  40
ENDBRANCH  32  34
ENDBRANCH  31  32
ENDBRANCH  30  31
ENDBRANCH  29  30
ENDBRANCH  28  29
ENDBRANCH   1  28
TORSDOF 23
ENDMDL
MODEL 3
REMARK VINA RESULT:      -9.9      2.812      4.003
REMARK SMILES COC(=O)[C@@H]1C[C@@H](C(=O)OCCOCCOCCOC(=O)c2ccc(-c3c4nc(c(-c5cccc(S(=O)(=O)[O-])c5F)c5ccc([nH]5)c(-c5cccc(S(=O)(=O)[O-])c5F)c5nc(c(-c6cccc(S(=O)(=O)[O-])c6F)c6ccc3[nH]6)C=C5)C=C4)cc2)[C@@H](c2cccc(F)c2F)[N@H+]1C
REMARK SMILES IDX 15 1 14 2 13 3 12 4 11 5 10 6 8 7 9 8 7 9 5 10 6 11 94 12
REMARK SMILES IDX 85 13 95 14 3 16 4 17 2 18 1 19 86 20 87 21 92 22 88 23
REMARK SMILES IDX 90 24 93 25 89 26 91 27 16 28 17 29 18 30 19 31 20 32 21 33
REMARK SMILES IDX 22 34 23 35 84 36 24 37 83 38 25 39 26 40 27 41 77 42 28 43
REMARK SMILES IDX 82 44 76 45 78 46 29 47 81 48 75 49 74 50 30 52 62 53 42 54
REMARK SMILES IDX 61 55 43 56 46 57 60 58 79 59 44 60 45 61 59 63 80 64 47 65
REMARK SMILES IDX 31 66 32 67 40 68 33 69 35 70 41 71 34 72 36 73 37 74 38 75
REMARK SMILES IDX 39 76 63 77 64 78 72 79 65 80 67 81 73 82 66 83 68 84 69 85
REMARK SMILES IDX 70 86 71 87 48 88 49 89 57 90 50 91 52 92 58 93 51 94 53 95
REMARK SMILES IDX 54 96 55 97 56 98
REMARK H PARENT 94 15 78 51 46 62
REMARK Flexibility Score: inf
ROOT
ATOM      1  C   UNL A   1      31.560  30.776  26.494  1.00  0.00     0.188 C 
ENDROOT
BRANCH   1   2
ATOM      2  C   UNL A   1      32.382  29.857  25.585  1.00  0.00     0.188 C 
BRANCH   2   3
ATOM      3  O   UNL A   1      33.480  29.166  26.145  1.00  0.00    -0.376 OA
BRANCH   3   4
ATOM      4  C   UNL A   1      33.211  28.111  27.059  1.00  0.00     0.202 C 
BRANCH   4   5
ATOM      5  C   UNL A   1      32.269  26.971  26.659  1.00  0.00     0.261 C 
BRANCH   5   6
ATOM      6  O   UNL A   1      32.833  25.657  26.867  1.00  0.00    -0.463 OA
BRANCH   6   7
ATOM      7  C   UNL A   1      32.058  24.624  26.477  1.00  0.00     0.315 C 
ATOM      8  O   UNL A   1      31.042  24.283  27.079  1.00  0.00    -0.252 OA
BRANCH   7   9
ATOM      9  C   UNL A   1      32.495  23.874  25.230  1.00  0.00     0.168 C 
ATOM     10  C   UNL A   1      34.495  23.897  23.835  1.00  0.00     0.296 C 
ATOM     11  C   UNL A   1      34.029  23.760  25.272  1.00  0.00     0.099 C 
ATOM     12  N   UNL A   1      33.294  23.491  23.092  1.00  0.00    -0.319 N 
ATOM     13  C   UNL A   1      32.148  24.176  23.749  1.00  0.00     0.233 C 
ATOM     14  C   UNL A   1      33.397  23.585  21.647  1.00  0.00     0.334 C 
ATOM     15  H   UNL A   1      33.147  22.484  23.151  1.00  0.00     0.349 HD
BRANCH  10  16
ATOM     16  C   UNL A   1      35.739  23.048  23.609  1.00  0.00     0.364 C 
ATOM     17  O   UNL A   1      36.365  23.071  22.552  1.00  0.00    -0.245 OA
BRANCH  16  18
ATOM     18  O   UNL A   1      36.096  22.316  24.697  1.00  0.00    -0.465 OA
ATOM     19  C   UNL A   1      37.131  21.367  24.448  1.00  0.00     0.282 C 
ENDBRANCH  16  18
ENDBRANCH  10  16
BRANCH  13  20
ATOM     20  C   UNL A   1      31.886  25.589  23.254  1.00  0.00     0.049 A 
ATOM     21  C   UNL A   1      32.874  26.452  22.762  1.00  0.00     0.013 A 
ATOM     22  C   UNL A   1      30.567  26.088  23.311  1.00  0.00     0.167 A 
ATOM     23  C   UNL A   1      32.570  27.777  22.414  1.00  0.00     0.004 A 
ATOM     24  C   UNL A   1      30.259  27.386  22.916  1.00  0.00     0.159 A 
ATOM     25  F   UNL A   1      29.572  25.300  23.746  1.00  0.00    -0.203 F 
ATOM     26  C   UNL A   1      31.258  28.244  22.486  1.00  0.00     0.042 A 
ATOM     27  F   UNL A   1      28.990  27.821  22.948  1.00  0.00    -0.204 F 
ENDBRANCH  13  20
ENDBRANCH   7   9
ENDBRANCH   6   7
ENDBRANCH   5   6
ENDBRANCH   4   5
ENDBRANCH   3   4
ENDBRANCH   2   3
ENDBRANCH   1   2
BRANCH   1  28
ATOM     28  O   UNL A   1      31.008  31.988  26.038  1.00  0.00    -0.376 OA
BRANCH  28  29
ATOM     29  C   UNL A   1      31.504  33.253  26.443  1.00  0.00     0.202 C 
BRANCH  29  30
ATOM     30  C   UNL A   1      32.714  33.494  27.362  1.00  0.00     0.261 C 
BRANCH  30  31
ATOM     31  O   UNL A   1      32.494  34.260  28.539  1.00  0.00    -0.460 OA
BRANCH  31  32
ATOM     32  C   UNL A   1      33.535  35.053  28.897  1.00  0.00     0.338 C 
ATOM     33  O   UNL A   1      33.524  36.266  29.038  1.00  0.00    -0.246 OA
BRANCH  32  34
ATOM     34  C   UNL A   1      34.632  34.177  29.350  1.00  0.00     0.060 A 
ATOM     35  C   UNL A   1      34.324  33.158  30.265  1.00  0.00     0.016 A 
ATOM     36  C   UNL A   1      35.926  34.322  28.848  1.00  0.00     0.016 A 
ATOM     37  C   UNL A   1      35.329  32.320  30.733  1.00  0.00     0.010 A 
ATOM     38  C   UNL A   1      36.938  33.496  29.336  1.00  0.00     0.010 A 
ATOM     39  C   UNL A   1      36.649  32.534  30.322  1.00  0.00    -0.014 A 
BRANCH  39  40
ATOM     40  C   UNL A   1      37.744  31.965  31.140  1.00  0.00     0.031 A 
ATOM     41  C   UNL A   1      38.545  30.841  30.539  1.00  0.00     0.074 A 
ATOM     42  C   UNL A   1      38.046  32.448  32.356  1.00  0.00     0.049 A 
ATOM     43  N   UNL A   1      39.552  30.179  31.041  1.00  0.00    -0.248 NA
ATOM     44  C   UNL A   1      38.150  30.402  29.188  1.00  0.00     0.031 C 
ATOM     45  C   UNL A   1      37.350  33.540  33.034  1.00  0.00     0.029 A 
ATOM     46  N   UNL A   1      39.017  32.059  33.243  1.00  0.00    -0.354 N 
ATOM     47  C   UNL A   1      39.888  29.226  30.086  1.00  0.00     0.074 A 
ATOM     48  C   UNL A   1      38.965  29.382  28.985  1.00  0.00     0.031 C 
ATOM     49  C   UNL A   1      37.903  33.718  34.247  1.00  0.00     0.029 A 
ATOM     50  C   UNL A   1      38.976  32.741  34.435  1.00  0.00     0.049 A 
ATOM     51  H   UNL A   1      39.680  31.359  33.044  1.00  0.00     0.167 HD
ATOM     52  C   UNL A   1      40.885  28.313  30.113  1.00  0.00     0.034 A 
ATOM     53  C   UNL A   1      39.713  32.578  35.551  1.00  0.00     0.034 A 
ATOM     54  C   UNL A   1      41.809  28.170  31.202  1.00  0.00     0.049 A 
ATOM     55  C   UNL A   1      40.810  31.545  35.563  1.00  0.00     0.074 A 
ATOM     56  C   UNL A   1      42.879  27.302  31.315  1.00  0.00     0.029 A 
ATOM     57  N   UNL A   1      41.762  28.905  32.377  1.00  0.00    -0.354 N 
ATOM     58  N   UNL A   1      41.184  30.719  34.615  1.00  0.00    -0.248 NA
ATOM     59  C   UNL A   1      41.618  31.451  36.788  1.00  0.00     0.031 C 
ATOM     60  C   UNL A   1      43.458  27.486  32.576  1.00  0.00     0.029 A 
ATOM     61  C   UNL A   1      42.779  28.505  33.226  1.00  0.00     0.049 A 
ATOM     62  H   UNL A   1      41.102  29.607  32.579  1.00  0.00     0.167 HD
ATOM     63  C   UNL A   1      42.296  30.044  35.109  1.00  0.00     0.074 A 
ATOM     64  C   UNL A   1      42.544  30.571  36.435  1.00  0.00     0.031 C 
ATOM     65  C   UNL A   1      43.042  29.072  34.523  1.00  0.00     0.034 A 
BRANCH  52  66
ATOM     66  C   UNL A   1      41.021  27.401  28.923  1.00  0.00     0.023 A 
ATOM     67  C   UNL A   1      40.237  26.232  28.833  1.00  0.00     0.012 A 
ATOM     68  C   UNL A   1      41.912  27.715  27.878  1.00  0.00     0.148 A 
ATOM     69  C   UNL A   1      40.365  25.371  27.744  1.00  0.00     0.002 A 
ATOM     70  C   UNL A   1      41.996  26.881  26.771  1.00  0.00     0.091 A 
ATOM     71  F   UNL A   1      42.670  28.814  27.994  1.00  0.00    -0.205 F 
ATOM     72  C   UNL A   1      41.236  25.702  26.709  1.00  0.00     0.022 A 
BRANCH  70  73
ATOM     73  S   UNL A   1      43.023  27.262  25.349  1.00  0.00     0.127 S 
ATOM     74  O   UNL A   1      43.043  25.979  24.646  1.00  0.00    -0.237 OA
ATOM     75  O   UNL A   1      42.249  28.310  24.684  1.00  0.00    -0.237 OA
ATOM     76  O   UNL A   1      44.306  27.699  25.882  1.00  0.00    -0.744 OA
ENDBRANCH  70  73
ENDBRANCH  52  66
BRANCH  53  77
ATOM     77  C   UNL A   1      39.464  33.437  36.743  1.00  0.00     0.023 A 
ATOM     78  C   UNL A   1      39.888  34.781  36.739  1.00  0.00     0.012 A 
ATOM     79  C   UNL A   1      38.807  32.929  37.879  1.00  0.00     0.148 A 
ATOM     80  C   UNL A   1      39.698  35.591  37.860  1.00  0.00     0.002 A 
ATOM     81  C   UNL A   1      38.570  33.756  38.971  1.00  0.00     0.091 A 
ATOM     82  F   UNL A   1      38.423  31.644  37.868  1.00  0.00    -0.205 F 
ATOM     83  C   UNL A   1      39.030  35.081  38.970  1.00  0.00     0.022 A 
BRANCH  81  84
ATOM     84  S   UNL A   1      37.615  33.224  40.396  1.00  0.00     0.127 S 
ATOM     85  O   UNL A   1      36.298  33.000  39.806  1.00  0.00    -0.237 OA
ATOM     86  O   UNL A   1      38.328  32.010  40.795  1.00  0.00    -0.237 OA
ATOM     87  O   UNL A   1      37.697  34.314  41.357  1.00  0.00    -0.744 OA
ENDBRANCH  81  84
ENDBRANCH  53  77
BRANCH  65  88
ATOM     88  C   UNL A   1      44.241  28.559  35.283  1.00  0.00     0.023 A 
ATOM     89  C   UNL A   1      45.526  29.070  35.015  1.00  0.00     0.012 A 
ATOM     90  C   UNL A   1      44.078  27.597  36.300  1.00  0.00     0.148 A 
ATOM     91  C   UNL A   1      46.638  28.589  35.709  1.00  0.00     0.002 A 
ATOM     92  C   UNL A   1      45.182  27.166  37.026  1.00  0.00     0.091 A 
ATOM     93  F   UNL A   1      42.850  27.111  36.533  1.00  0.00    -0.205 F 
ATOM     94  C   UNL A   1      46.465  27.646  36.719  1.00  0.00     0.022 A 
BRANCH  92  95
ATOM     95  S   UNL A   1      45.033  26.035  38.413  1.00  0.00     0.127 S 
ATOM     96  O   UNL A   1      44.650  24.793  37.745  1.00  0.00    -0.237 OA
ATOM     97  O   UNL A   1      46.388  26.037  38.964  1.00  0.00    -0.237 OA
ATOM     98  O   UNL A   1      44.025  26.611  39.293  1.00  0.00    -0.744 OA
ENDBRANCH  92  95
ENDBRANCH  65  88
ENDBRANCH  39  40
ENDBRANCH  32  34
ENDBRANCH  31  32
ENDBRANCH  30  31
ENDBRANCH  29  30
ENDBRANCH  28  29
ENDBRANCH   1  28
TORSDOF 23
ENDMDL
