MODEL 1
REMARK VINA RESULT:     -10.7      0.000      0.000
REMARK SMILES NS(=O)(=O)c1ccc(N2N=C(C(=O)OCCOCCOCCOC(=O)c3ccc(-c4c5nc(c(-c6cccc(S(=O)(=O)[O-])c6F)c6ccc([nH]6)c(-c6cccc(S(=O)(=O)[O-])c6F)c6nc(c(-c7cccc(S(=O)(=O)[O-])c7F)c7ccc4[nH]7)C=C6)C=C5)cc3)C[C@H]2c2cccs2)cc1
REMARK SMILES IDX 18 1 17 2 16 3 15 4 14 5 12 6 13 7 11 8 9 9 10 10 90 11
REMARK SMILES IDX 89 12 8 13 5 14 6 15 97 16 7 17 96 18 2 19 3 20 4 21 1 22
REMARK SMILES IDX 91 25 92 26 95 27 93 28 94 29 19 30 20 31 21 32 22 33 23 34
REMARK SMILES IDX 24 35 25 36 26 37 27 38 88 39 28 40 87 41 29 42 30 43 31 44
REMARK SMILES IDX 81 45 32 46 86 47 80 48 82 49 33 50 85 51 79 52 78 53 34 55
REMARK SMILES IDX 66 56 46 57 65 58 47 59 50 60 64 61 83 62 48 63 49 64 63 66
REMARK SMILES IDX 84 67 51 68 35 69 36 70 44 71 37 72 39 73 45 74 38 75 40 76
REMARK SMILES IDX 41 77 42 78 43 79 67 80 68 81 76 82 69 83 71 84 77 85 70 86
REMARK SMILES IDX 72 87 73 88 74 89 75 90 52 91 53 92 61 93 54 94 56 95 62 96
REMARK SMILES IDX 55 97 57 98 58 99 59 100 60 101
REMARK H PARENT 1 23 1 24 82 54 50 65
REMARK Flexibility Score: inf
ROOT
ATOM      1  C   UNL A   1      36.753  21.920  25.831  1.00  0.00     0.188 C 
ENDROOT
BRANCH   1   2
ATOM      2  O   UNL A   1      35.350  21.726  25.706  1.00  0.00    -0.376 OA
BRANCH   2   3
ATOM      3  C   UNL A   1      34.540  21.705  26.878  1.00  0.00     0.202 C 
BRANCH   3   4
ATOM      4  C   UNL A   1      33.032  21.465  26.741  1.00  0.00     0.261 C 
BRANCH   4   5
ATOM      5  O   UNL A   1      32.400  22.484  25.955  1.00  0.00    -0.459 OA
BRANCH   5   6
ATOM      6  C   UNL A   1      31.811  23.460  26.667  1.00  0.00     0.354 C 
ATOM      7  O   UNL A   1      31.238  23.368  27.735  1.00  0.00    -0.245 OA
BRANCH   6   8
ATOM      8  C   UNL A   1      32.023  24.777  25.972  1.00  0.00     0.148 C 
ATOM      9  N   UNL A   1      31.633  26.629  25.028  1.00  0.00    -0.256 N 
ATOM     10  N   UNL A   1      31.061  25.624  25.755  1.00  0.00    -0.169 NA
ATOM     11  C   UNL A   1      32.941  26.227  24.474  1.00  0.00     0.154 C 
ATOM     12  C   UNL A   1      33.388  25.207  25.535  1.00  0.00     0.099 C 
BRANCH   9  13
ATOM     13  C   UNL A   1      30.817  27.604  24.470  1.00  0.00     0.060 A 
ATOM     14  C   UNL A   1      29.231  29.605  23.288  1.00  0.00     0.082 A 
ATOM     15  C   UNL A   1      30.367  29.962  24.018  1.00  0.00     0.024 A 
ATOM     16  C   UNL A   1      28.852  28.268  23.184  1.00  0.00     0.024 A 
ATOM     17  C   UNL A   1      31.156  28.961  24.598  1.00  0.00     0.029 A 
ATOM     18  C   UNL A   1      29.637  27.282  23.788  1.00  0.00     0.029 A 
BRANCH  14  19
ATOM     19  S   UNL A   1      28.281  30.877  22.509  1.00  0.00     0.238 S 
ATOM     20  O   UNL A   1      29.176  31.963  22.186  1.00  0.00    -0.207 OA
ATOM     21  O   UNL A   1      27.052  31.062  23.242  1.00  0.00    -0.207 OA
BRANCH  19  22
ATOM     22  N   UNL A   1      27.818  30.216  21.031  1.00  0.00    -0.225 NA
ATOM     23  H   UNL A   1      27.718  29.206  21.128  1.00  0.00     0.137 HD
ATOM     24  H   UNL A   1      28.528  30.422  20.329  1.00  0.00     0.137 HD
ENDBRANCH  19  22
ENDBRANCH  14  19
ENDBRANCH   9  13
BRANCH  11  25
ATOM     25  C   UNL A   1      32.951  25.659  23.057  1.00  0.00     0.030 A 
ATOM     26  C   UNL A   1      32.718  26.354  21.881  1.00  0.00     0.017 A 
ATOM     27  S   UNL A   1      33.225  23.992  22.723  1.00  0.00    -0.147 S 
ATOM     28  C   UNL A   1      32.774  25.523  20.725  1.00  0.00     0.012 A 
ATOM     29  C   UNL A   1      33.072  24.220  21.043  1.00  0.00     0.065 A 
ENDBRANCH  11  25
ENDBRANCH   6   8
ENDBRANCH   5   6
ENDBRANCH   4   5
ENDBRANCH   3   4
ENDBRANCH   2   3
ENDBRANCH   1   2
BRANCH   1  30
ATOM     30  C   UNL A   1      37.666  21.482  24.669  1.00  0.00     0.188 C 
BRANCH  30  31
ATOM     31  O   UNL A   1      37.776  20.099  24.425  1.00  0.00    -0.376 OA
BRANCH  31  32
ATOM     32  C   UNL A   1      38.236  19.219  25.438  1.00  0.00     0.202 C 
BRANCH  32  33
ATOM     33  C   UNL A   1      39.679  19.101  25.974  1.00  0.00     0.261 C 
BRANCH  33  34
ATOM     34  O   UNL A   1      40.537  20.235  25.884  1.00  0.00    -0.460 OA
BRANCH  34  35
ATOM     35  C   UNL A   1      41.458  20.365  26.870  1.00  0.00     0.338 C 
ATOM     36  O   UNL A   1      42.192  19.499  27.311  1.00  0.00    -0.246 OA
BRANCH  35  37
ATOM     37  C   UNL A   1      41.574  21.802  27.186  1.00  0.00     0.060 A 
ATOM     38  C   UNL A   1      41.345  22.732  26.165  1.00  0.00     0.016 A 
ATOM     39  C   UNL A   1      41.896  22.222  28.477  1.00  0.00     0.016 A 
ATOM     40  C   UNL A   1      41.460  24.096  26.430  1.00  0.00     0.010 A 
ATOM     41  C   UNL A   1      42.033  23.587  28.735  1.00  0.00     0.010 A 
ATOM     42  C   UNL A   1      41.842  24.526  27.706  1.00  0.00    -0.014 A 
BRANCH  42  43
ATOM     43  C   UNL A   1      42.196  25.947  27.928  1.00  0.00     0.031 A 
ATOM     44  C   UNL A   1      43.575  26.412  27.554  1.00  0.00     0.074 A 
ATOM     45  C   UNL A   1      41.318  26.802  28.478  1.00  0.00     0.049 A 
ATOM     46  N   UNL A   1      44.114  27.594  27.684  1.00  0.00    -0.248 NA
ATOM     47  C   UNL A   1      44.466  25.403  26.955  1.00  0.00     0.031 C 
ATOM     48  C   UNL A   1      39.957  26.466  28.890  1.00  0.00     0.029 A 
ATOM     49  N   UNL A   1      41.458  28.125  28.811  1.00  0.00    -0.354 N 
ATOM     50  C   UNL A   1      45.414  27.470  27.211  1.00  0.00     0.074 A 
ATOM     51  C   UNL A   1      45.587  26.093  26.802  1.00  0.00     0.031 C 
ATOM     52  C   UNL A   1      39.397  27.548  29.459  1.00  0.00     0.029 A 
ATOM     53  C   UNL A   1      40.366  28.643  29.464  1.00  0.00     0.049 A 
ATOM     54  H   UNL A   1      42.263  28.652  28.603  1.00  0.00     0.167 HD
ATOM     55  C   UNL A   1      46.374  28.419  27.110  1.00  0.00     0.034 A 
ATOM     56  C   UNL A   1      40.180  29.856  30.021  1.00  0.00     0.034 A 
ATOM     57  C   UNL A   1      46.196  29.790  27.505  1.00  0.00     0.049 A 
ATOM     58  C   UNL A   1      41.266  30.896  29.911  1.00  0.00     0.074 A 
ATOM     59  C   UNL A   1      47.087  30.842  27.387  1.00  0.00     0.029 A 
ATOM     60  N   UNL A   1      45.058  30.296  28.113  1.00  0.00    -0.354 N 
ATOM     61  N   UNL A   1      42.440  30.805  29.333  1.00  0.00    -0.248 NA
ATOM     62  C   UNL A   1      40.988  32.215  30.498  1.00  0.00     0.031 C 
ATOM     63  C   UNL A   1      46.497  31.978  27.951  1.00  0.00     0.029 A 
ATOM     64  C   UNL A   1      45.229  31.640  28.397  1.00  0.00     0.049 A 
ATOM     65  H   UNL A   1      44.246  29.776  28.314  1.00  0.00     0.167 HD
ATOM     66  C   UNL A   1      43.028  32.061  29.459  1.00  0.00     0.074 A 
ATOM     67  C   UNL A   1      42.072  32.899  30.153  1.00  0.00     0.031 C 
ATOM     68  C   UNL A   1      44.252  32.477  29.049  1.00  0.00     0.034 A 
BRANCH  55  69
ATOM     69  C   UNL A   1      47.698  28.001  26.529  1.00  0.00     0.023 A 
ATOM     70  C   UNL A   1      48.778  27.713  27.388  1.00  0.00     0.012 A 
ATOM     71  C   UNL A   1      47.868  27.874  25.137  1.00  0.00     0.148 A 
ATOM     72  C   UNL A   1      50.018  27.342  26.871  1.00  0.00     0.002 A 
ATOM     73  C   UNL A   1      49.095  27.461  24.630  1.00  0.00     0.091 A 
ATOM     74  F   UNL A   1      46.839  28.181  24.334  1.00  0.00    -0.205 F 
ATOM     75  C   UNL A   1      50.173  27.207  25.494  1.00  0.00     0.022 A 
BRANCH  73  76
ATOM     76  S   UNL A   1      49.366  27.190  22.876  1.00  0.00     0.127 S 
ATOM     77  O   UNL A   1      48.505  26.039  22.617  1.00  0.00    -0.237 OA
ATOM     78  O   UNL A   1      48.894  28.447  22.291  1.00  0.00    -0.237 OA
ATOM     79  O   UNL A   1      50.796  26.956  22.726  1.00  0.00    -0.744 OA
ENDBRANCH  73  76
ENDBRANCH  55  69
BRANCH  56  80
ATOM     80  C   UNL A   1      38.890  30.161  30.701  1.00  0.00     0.023 A 
ATOM     81  C   UNL A   1      38.697  29.760  32.036  1.00  0.00     0.012 A 
ATOM     82  C   UNL A   1      37.874  30.883  30.043  1.00  0.00     0.148 A 
ATOM     83  C   UNL A   1      37.507  30.058  32.701  1.00  0.00     0.002 A 
ATOM     84  C   UNL A   1      36.712  31.219  30.727  1.00  0.00     0.091 A 
ATOM     85  F   UNL A   1      38.074  31.241  28.768  1.00  0.00    -0.205 F 
ATOM     86  C   UNL A   1      36.520  30.797  32.051  1.00  0.00     0.022 A 
BRANCH  84  87
ATOM     87  S   UNL A   1      35.436  32.265  30.013  1.00  0.00     0.127 S 
ATOM     88  O   UNL A   1      34.948  31.433  28.916  1.00  0.00    -0.237 OA
ATOM     89  O   UNL A   1      34.506  32.412  31.134  1.00  0.00    -0.237 OA
ATOM     90  O   UNL A   1      36.106  33.496  29.619  1.00  0.00    -0.744 OA
ENDBRANCH  84  87
ENDBRANCH  56  80
BRANCH  68  91
ATOM     91  C   UNL A   1      44.635  33.911  29.319  1.00  0.00     0.023 A 
ATOM     92  C   UNL A   1      45.243  34.252  30.543  1.00  0.00     0.012 A 
ATOM     93  C   UNL A   1      44.471  34.901  28.330  1.00  0.00     0.148 A 
ATOM     94  C   UNL A   1      45.655  35.561  30.791  1.00  0.00     0.002 A 
ATOM     95  C   UNL A   1      44.926  36.194  28.566  1.00  0.00     0.091 A 
ATOM     96  F   UNL A   1      43.876  34.564  27.177  1.00  0.00    -0.205 F 
ATOM     97  C   UNL A   1      45.508  36.528  29.799  1.00  0.00     0.022 A 
BRANCH  95  98
ATOM     98  S   UNL A   1      44.865  37.480  27.312  1.00  0.00     0.127 S 
ATOM     99  O   UNL A   1      45.395  38.632  28.040  1.00  0.00    -0.237 OA
ATOM    100  O   UNL A   1      45.756  36.951  26.278  1.00  0.00    -0.237 OA
ATOM    101  O   UNL A   1      43.469  37.580  26.909  1.00  0.00    -0.744 OA
ENDBRANCH  95  98
ENDBRANCH  68  91
ENDBRANCH  42  43
ENDBRANCH  35  37
ENDBRANCH  34  35
ENDBRANCH  33  34
ENDBRANCH  32  33
ENDBRANCH  31  32
ENDBRANCH  30  31
ENDBRANCH   1  30
TORSDOF 24
ENDMDL
MODEL 2
REMARK VINA RESULT:      -9.4      2.151      4.147
REMARK SMILES NS(=O)(=O)c1ccc(N2N=C(C(=O)OCCOCCOCCOC(=O)c3ccc(-c4c5nc(c(-c6cccc(S(=O)(=O)[O-])c6F)c6ccc([nH]6)c(-c6cccc(S(=O)(=O)[O-])c6F)c6nc(c(-c7cccc(S(=O)(=O)[O-])c7F)c7ccc4[nH]7)C=C6)C=C5)cc3)C[C@H]2c2cccs2)cc1
REMARK SMILES IDX 18 1 17 2 16 3 15 4 14 5 12 6 13 7 11 8 9 9 10 10 90 11
REMARK SMILES IDX 89 12 8 13 5 14 6 15 97 16 7 17 96 18 2 19 3 20 4 21 1 22
REMARK SMILES IDX 91 25 92 26 95 27 93 28 94 29 19 30 20 31 21 32 22 33 23 34
REMARK SMILES IDX 24 35 25 36 26 37 27 38 88 39 28 40 87 41 29 42 30 43 31 44
REMARK SMILES IDX 81 45 32 46 86 47 80 48 82 49 33 50 85 51 79 52 78 53 34 55
REMARK SMILES IDX 66 56 46 57 65 58 47 59 50 60 64 61 83 62 48 63 49 64 63 66
REMARK SMILES IDX 84 67 51 68 35 69 36 70 44 71 37 72 39 73 45 74 38 75 40 76
REMARK SMILES IDX 41 77 42 78 43 79 67 80 68 81 76 82 69 83 71 84 77 85 70 86
REMARK SMILES IDX 72 87 73 88 74 89 75 90 52 91 53 92 61 93 54 94 56 95 62 96
REMARK SMILES IDX 55 97 57 98 58 99 59 100 60 101
REMARK H PARENT 1 23 1 24 82 54 50 65
REMARK Flexibility Score: inf
ROOT
ATOM      1  C   UNL A   1      35.643  23.786  24.486  1.00  0.00     0.188 C 
ENDROOT
BRANCH   1   2
ATOM      2  O   UNL A   1      34.844  24.574  25.361  1.00  0.00    -0.376 OA
BRANCH   2   3
ATOM      3  C   UNL A   1      34.463  25.888  24.965  1.00  0.00     0.202 C 
BRANCH   3   4
ATOM      4  C   UNL A   1      33.923  26.861  26.019  1.00  0.00     0.261 C 
BRANCH   4   5
ATOM      5  O   UNL A   1      32.579  27.267  25.730  1.00  0.00    -0.459 OA
BRANCH   5   6
ATOM      6  C   UNL A   1      31.629  26.564  26.373  1.00  0.00     0.354 C 
ATOM      7  O   UNL A   1      31.025  26.868  27.382  1.00  0.00    -0.245 OA
BRANCH   6   8
ATOM      8  C   UNL A   1      31.337  25.306  25.601  1.00  0.00     0.148 C 
ATOM      9  N   UNL A   1      31.462  23.319  24.889  1.00  0.00    -0.256 N 
ATOM     10  N   UNL A   1      31.920  24.172  25.853  1.00  0.00    -0.169 NA
ATOM     11  C   UNL A   1      30.819  24.045  23.777  1.00  0.00     0.154 C 
ATOM     12  C   UNL A   1      30.302  25.288  24.520  1.00  0.00     0.099 C 
BRANCH   9  13
ATOM     13  C   UNL A   1      32.048  22.066  24.766  1.00  0.00     0.060 A 
ATOM     14  C   UNL A   1      33.192  19.501  24.590  1.00  0.00     0.082 A 
ATOM     15  C   UNL A   1      33.492  20.321  25.679  1.00  0.00     0.024 A 
ATOM     16  C   UNL A   1      32.369  19.965  23.565  1.00  0.00     0.024 A 
ATOM     17  C   UNL A   1      32.914  21.594  25.764  1.00  0.00     0.029 A 
ATOM     18  C   UNL A   1      31.818  21.246  23.653  1.00  0.00     0.029 A 
BRANCH  14  19
ATOM     19  S   UNL A   1      33.880  17.874  24.530  1.00  0.00     0.238 S 
ATOM     20  O   UNL A   1      33.195  17.067  25.512  1.00  0.00    -0.207 OA
ATOM     21  O   UNL A   1      35.318  17.973  24.457  1.00  0.00    -0.207 OA
BRANCH  19  22
ATOM     22  N   UNL A   1      33.405  17.267  23.033  1.00  0.00    -0.225 NA
ATOM     23  H   UNL A   1      34.086  17.538  22.324  1.00  0.00     0.137 HD
ATOM     24  H   UNL A   1      32.490  17.645  22.787  1.00  0.00     0.137 HD
ENDBRANCH  19  22
ENDBRANCH  14  19
ENDBRANCH   9  13
BRANCH  11  25
ATOM     25  C   UNL A   1      31.694  24.389  22.573  1.00  0.00     0.030 A 
ATOM     26  C   UNL A   1      32.600  23.555  21.938  1.00  0.00     0.017 A 
ATOM     27  S   UNL A   1      31.697  25.947  21.839  1.00  0.00    -0.147 S 
ATOM     28  C   UNL A   1      33.278  24.192  20.859  1.00  0.00     0.012 A 
ATOM     29  C   UNL A   1      32.857  25.488  20.680  1.00  0.00     0.065 A 
ENDBRANCH  11  25
ENDBRANCH   6   8
ENDBRANCH   5   6
ENDBRANCH   4   5
ENDBRANCH   3   4
ENDBRANCH   2   3
ENDBRANCH   1   2
BRANCH   1  30
ATOM     30  C   UNL A   1      37.036  23.333  24.964  1.00  0.00     0.188 C 
BRANCH  30  31
ATOM     31  O   UNL A   1      37.434  22.023  24.635  1.00  0.00    -0.376 OA
BRANCH  31  32
ATOM     32  C   UNL A   1      37.923  21.141  25.633  1.00  0.00     0.202 C 
BRANCH  32  33
ATOM     33  C   UNL A   1      39.067  20.117  25.479  1.00  0.00     0.261 C 
BRANCH  33  34
ATOM     34  O   UNL A   1      39.901  19.847  26.603  1.00  0.00    -0.460 OA
BRANCH  34  35
ATOM     35  C   UNL A   1      41.235  19.838  26.365  1.00  0.00     0.338 C 
ATOM     36  O   UNL A   1      41.886  18.948  25.847  1.00  0.00    -0.246 OA
BRANCH  35  37
ATOM     37  C   UNL A   1      41.748  21.192  26.651  1.00  0.00     0.060 A 
ATOM     38  C   UNL A   1      41.927  21.572  27.987  1.00  0.00     0.016 A 
ATOM     39  C   UNL A   1      42.057  22.070  25.611  1.00  0.00     0.016 A 
ATOM     40  C   UNL A   1      42.397  22.850  28.288  1.00  0.00     0.010 A 
ATOM     41  C   UNL A   1      42.507  23.355  25.915  1.00  0.00     0.010 A 
ATOM     42  C   UNL A   1      42.652  23.758  27.255  1.00  0.00    -0.014 A 
BRANCH  42  43
ATOM     43  C   UNL A   1      42.920  25.179  27.573  1.00  0.00     0.031 A 
ATOM     44  C   UNL A   1      44.330  25.687  27.471  1.00  0.00     0.074 A 
ATOM     45  C   UNL A   1      41.932  25.997  27.973  1.00  0.00     0.049 A 
ATOM     46  N   UNL A   1      44.803  26.877  27.728  1.00  0.00    -0.248 NA
ATOM     47  C   UNL A   1      45.344  24.717  27.022  1.00  0.00     0.031 C 
ATOM     48  C   UNL A   1      40.528  25.618  28.118  1.00  0.00     0.029 A 
ATOM     49  N   UNL A   1      41.971  27.312  28.359  1.00  0.00    -0.354 N 
ATOM     50  C   UNL A   1      46.170  26.797  27.500  1.00  0.00     0.074 A 
ATOM     51  C   UNL A   1      46.454  25.437  27.095  1.00  0.00     0.031 C 
ATOM     52  C   UNL A   1      39.843  26.669  28.602  1.00  0.00     0.029 A 
ATOM     53  C   UNL A   1      40.764  27.786  28.812  1.00  0.00     0.049 A 
ATOM     54  H   UNL A   1      42.786  27.864  28.316  1.00  0.00     0.167 HD
ATOM     55  C   UNL A   1      47.105  27.771  27.602  1.00  0.00     0.034 A 
ATOM     56  C   UNL A   1      40.444  28.977  29.356  1.00  0.00     0.034 A 
ATOM     57  C   UNL A   1      46.820  29.124  27.991  1.00  0.00     0.049 A 
ATOM     58  C   UNL A   1      41.503  30.044  29.473  1.00  0.00     0.074 A 
ATOM     59  C   UNL A   1      47.687  30.200  28.065  1.00  0.00     0.029 A 
ATOM     60  N   UNL A   1      45.575  29.586  28.391  1.00  0.00    -0.354 N 
ATOM     61  N   UNL A   1      42.765  29.998  29.120  1.00  0.00    -0.248 NA
ATOM     62  C   UNL A   1      41.084  31.339  30.032  1.00  0.00     0.031 C 
ATOM     63  C   UNL A   1      46.972  31.305  28.539  1.00  0.00     0.029 A 
ATOM     64  C   UNL A   1      45.653  30.925  28.735  1.00  0.00     0.049 A 
ATOM     65  H   UNL A   1      44.755  29.042  28.426  1.00  0.00     0.167 HD
ATOM     66  C   UNL A   1      43.284  31.262  29.383  1.00  0.00     0.074 A 
ATOM     67  C   UNL A   1      42.194  32.057  29.910  1.00  0.00     0.031 C 
ATOM     68  C   UNL A   1      44.550  31.719  29.217  1.00  0.00     0.034 A 
BRANCH  55  69
ATOM     69  C   UNL A   1      48.525  27.401  27.264  1.00  0.00     0.023 A 
ATOM     70  C   UNL A   1      49.338  26.791  28.241  1.00  0.00     0.012 A 
ATOM     71  C   UNL A   1      49.047  27.637  25.978  1.00  0.00     0.148 A 
ATOM     72  C   UNL A   1      50.661  26.457  27.955  1.00  0.00     0.002 A 
ATOM     73  C   UNL A   1      50.354  27.261  25.687  1.00  0.00     0.091 A 
ATOM     74  F   UNL A   1      48.269  28.245  25.071  1.00  0.00    -0.205 F 
ATOM     75  C   UNL A   1      51.165  26.683  26.677  1.00  0.00     0.022 A 
BRANCH  73  76
ATOM     76  S   UNL A   1      51.063  27.448  24.049  1.00  0.00     0.127 S 
ATOM     77  O   UNL A   1      52.358  26.789  24.209  1.00  0.00    -0.237 OA
ATOM     78  O   UNL A   1      50.109  26.719  23.211  1.00  0.00    -0.237 OA
ATOM     79  O   UNL A   1      51.111  28.882  23.798  1.00  0.00    -0.744 OA
ENDBRANCH  73  76
ENDBRANCH  55  69
BRANCH  56  80
ATOM     80  C   UNL A   1      39.043  29.232  29.793  1.00  0.00     0.023 A 
ATOM     81  C   UNL A   1      38.652  28.893  31.102  1.00  0.00     0.012 A 
ATOM     82  C   UNL A   1      38.113  29.847  28.932  1.00  0.00     0.148 A 
ATOM     83  C   UNL A   1      37.352  29.146  31.542  1.00  0.00     0.002 A 
ATOM     84  C   UNL A   1      36.835  30.142  29.393  1.00  0.00     0.091 A 
ATOM     85  F   UNL A   1      38.503  30.147  27.686  1.00  0.00    -0.205 F 
ATOM     86  C   UNL A   1      36.448  29.780  30.692  1.00  0.00     0.022 A 
BRANCH  84  87
ATOM     87  S   UNL A   1      35.640  31.059  28.413  1.00  0.00     0.127 S 
ATOM     88  O   UNL A   1      35.191  30.044  27.463  1.00  0.00    -0.237 OA
ATOM     89  O   UNL A   1      34.650  31.437  29.423  1.00  0.00    -0.237 OA
ATOM     90  O   UNL A   1      36.373  32.178  27.837  1.00  0.00    -0.744 OA
ENDBRANCH  84  87
ENDBRANCH  56  80
BRANCH  68  91
ATOM     91  C   UNL A   1      44.837  33.152  29.588  1.00  0.00     0.023 A 
ATOM     92  C   UNL A   1      45.319  33.456  30.876  1.00  0.00     0.012 A 
ATOM     93  C   UNL A   1      44.709  34.185  28.637  1.00  0.00     0.148 A 
ATOM     94  C   UNL A   1      45.642  34.768  31.222  1.00  0.00     0.002 A 
ATOM     95  C   UNL A   1      45.077  35.483  28.975  1.00  0.00     0.091 A 
ATOM     96  F   UNL A   1      44.233  33.882  27.421  1.00  0.00    -0.205 F 
ATOM     97  C   UNL A   1      45.533  35.778  30.269  1.00  0.00     0.022 A 
BRANCH  95  98
ATOM     98  S   UNL A   1      45.060  36.829  27.784  1.00  0.00     0.127 S 
ATOM     99  O   UNL A   1      45.478  37.962  28.608  1.00  0.00    -0.237 OA
ATOM    100  O   UNL A   1      46.054  36.391  26.803  1.00  0.00    -0.237 OA
ATOM    101  O   UNL A   1      43.698  36.893  27.272  1.00  0.00    -0.744 OA
ENDBRANCH  95  98
ENDBRANCH  68  91
ENDBRANCH  42  43
ENDBRANCH  35  37
ENDBRANCH  34  35
ENDBRANCH  33  34
ENDBRANCH  32  33
ENDBRANCH  31  32
ENDBRANCH  30  31
ENDBRANCH   1  30
TORSDOF 24
ENDMDL
MODEL 3
REMARK VINA RESULT:      -9.4      5.171      6.368
REMARK SMILES NS(=O)(=O)c1ccc(N2N=C(C(=O)OCCOCCOCCOC(=O)c3ccc(-c4c5nc(c(-c6cccc(S(=O)(=O)[O-])c6F)c6ccc([nH]6)c(-c6cccc(S(=O)(=O)[O-])c6F)c6nc(c(-c7cccc(S(=O)(=O)[O-])c7F)c7ccc4[nH]7)C=C6)C=C5)cc3)C[C@H]2c2cccs2)cc1
REMARK SMILES IDX 18 1 17 2 16 3 15 4 14 5 12 6 13 7 11 8 9 9 10 10 90 11
REMARK SMILES IDX 89 12 8 13 5 14 6 15 97 16 7 17 96 18 2 19 3 20 4 21 1 22
REMARK SMILES IDX 91 25 92 26 95 27 93 28 94 29 19 30 20 31 21 32 22 33 23 34
REMARK SMILES IDX 24 35 25 36 26 37 27 38 88 39 28 40 87 41 29 42 30 43 31 44
REMARK SMILES IDX 81 45 32 46 86 47 80 48 82 49 33 50 85 51 79 52 78 53 34 55
REMARK SMILES IDX 66 56 46 57 65 58 47 59 50 60 64 61 83 62 48 63 49 64 63 66
REMARK SMILES IDX 84 67 51 68 35 69 36 70 44 71 37 72 39 73 45 74 38 75 40 76
REMARK SMILES IDX 41 77 42 78 43 79 67 80 68 81 76 82 69 83 71 84 77 85 70 86
REMARK SMILES IDX 72 87 73 88 74 89 75 90 52 91 53 92 61 93 54 94 56 95 62 96
REMARK SMILES IDX 55 97 57 98 58 99 59 100 60 101
REMARK H PARENT 1 23 1 24 82 54 50 65
REMARK Flexibility Score: inf
ROOT
ATOM      1  C   UNL A   1      36.407  22.040  25.591  1.00  0.00     0.188 C 
ENDROOT
BRANCH   1   2
ATOM      2  O   UNL A   1      35.086  21.548  25.405  1.00  0.00    -0.376 OA
BRANCH   2   3
ATOM      3  C   UNL A   1      34.164  21.592  26.490  1.00  0.00     0.202 C 
BRANCH   3   4
ATOM      4  C   UNL A   1      32.681  21.312  26.224  1.00  0.00     0.261 C 
BRANCH   4   5
ATOM      5  O   UNL A   1      32.023  22.441  25.634  1.00  0.00    -0.459 OA
BRANCH   5   6
ATOM      6  C   UNL A   1      31.762  23.448  26.487  1.00  0.00     0.354 C 
ATOM      7  O   UNL A   1      31.425  23.375  27.652  1.00  0.00    -0.245 OA
BRANCH   6   8
ATOM      8  C   UNL A   1      32.024  24.760  25.799  1.00  0.00     0.148 C 
ATOM      9  N   UNL A   1      31.707  26.632  24.870  1.00  0.00    -0.256 N 
ATOM     10  N   UNL A   1      31.097  25.647  25.593  1.00  0.00    -0.169 NA
ATOM     11  C   UNL A   1      32.994  26.181  24.307  1.00  0.00     0.154 C 
ATOM     12  C   UNL A   1      33.404  25.137  25.358  1.00  0.00     0.099 C 
BRANCH   9  13
ATOM     13  C   UNL A   1      30.929  27.645  24.323  1.00  0.00     0.060 A 
ATOM     14  C   UNL A   1      29.286  29.669  23.264  1.00  0.00     0.082 A 
ATOM     15  C   UNL A   1      28.962  28.328  23.047  1.00  0.00     0.024 A 
ATOM     16  C   UNL A   1      30.445  30.009  23.959  1.00  0.00     0.024 A 
ATOM     17  C   UNL A   1      29.780  27.326  23.582  1.00  0.00     0.029 A 
ATOM     18  C   UNL A   1      31.264  28.997  24.467  1.00  0.00     0.029 A 
BRANCH  14  19
ATOM     19  S   UNL A   1      28.209  30.922  22.636  1.00  0.00     0.238 S 
ATOM     20  O   UNL A   1      27.296  31.291  23.691  1.00  0.00    -0.207 OA
ATOM     21  O   UNL A   1      27.771  30.547  21.312  1.00  0.00    -0.207 OA
BRANCH  19  22
ATOM     22  N   UNL A   1      29.203  32.262  22.407  1.00  0.00    -0.225 NA
ATOM     23  H   UNL A   1      29.487  32.310  21.429  1.00  0.00     0.137 HD
ATOM     24  H   UNL A   1      30.030  32.176  22.997  1.00  0.00     0.137 HD
ENDBRANCH  19  22
ENDBRANCH  14  19
ENDBRANCH   9  13
BRANCH  11  25
ATOM     25  C   UNL A   1      32.973  25.623  22.885  1.00  0.00     0.030 A 
ATOM     26  C   UNL A   1      32.742  26.331  21.717  1.00  0.00     0.017 A 
ATOM     27  S   UNL A   1      33.206  23.953  22.537  1.00  0.00    -0.147 S 
ATOM     28  C   UNL A   1      32.765  25.507  20.555  1.00  0.00     0.012 A 
ATOM     29  C   UNL A   1      33.038  24.195  20.860  1.00  0.00     0.065 A 
ENDBRANCH  11  25
ENDBRANCH   6   8
ENDBRANCH   5   6
ENDBRANCH   4   5
ENDBRANCH   3   4
ENDBRANCH   2   3
ENDBRANCH   1   2
BRANCH   1  30
ATOM     30  C   UNL A   1      37.545  21.444  24.739  1.00  0.00     0.188 C 
BRANCH  30  31
ATOM     31  O   UNL A   1      38.434  20.562  25.383  1.00  0.00    -0.376 OA
BRANCH  31  32
ATOM     32  C   UNL A   1      39.381  21.046  26.323  1.00  0.00     0.202 C 
BRANCH  32  33
ATOM     33  C   UNL A   1      40.865  21.374  26.053  1.00  0.00     0.261 C 
BRANCH  33  34
ATOM     34  O   UNL A   1      41.211  22.693  25.639  1.00  0.00    -0.460 OA
BRANCH  34  35
ATOM     35  C   UNL A   1      42.493  23.069  25.861  1.00  0.00     0.338 C 
ATOM     36  O   UNL A   1      43.486  22.693  25.264  1.00  0.00    -0.246 OA
BRANCH  35  37
ATOM     37  C   UNL A   1      42.469  24.187  26.824  1.00  0.00     0.060 A 
ATOM     38  C   UNL A   1      43.571  25.049  26.878  1.00  0.00     0.016 A 
ATOM     39  C   UNL A   1      41.365  24.385  27.655  1.00  0.00     0.016 A 
ATOM     40  C   UNL A   1      43.582  26.106  27.788  1.00  0.00     0.010 A 
ATOM     41  C   UNL A   1      41.387  25.431  28.579  1.00  0.00     0.010 A 
ATOM     42  C   UNL A   1      42.506  26.277  28.667  1.00  0.00    -0.014 A 
BRANCH  42  43
ATOM     43  C   UNL A   1      42.617  27.242  29.785  1.00  0.00     0.031 A 
ATOM     44  C   UNL A   1      43.517  26.906  30.939  1.00  0.00     0.074 A 
ATOM     45  C   UNL A   1      41.909  28.384  29.787  1.00  0.00     0.049 A 
ATOM     46  N   UNL A   1      43.747  27.580  32.035  1.00  0.00    -0.248 NA
ATOM     47  C   UNL A   1      44.255  25.635  30.846  1.00  0.00     0.031 C 
ATOM     48  C   UNL A   1      40.997  28.814  28.729  1.00  0.00     0.029 A 
ATOM     49  N   UNL A   1      41.826  29.375  30.731  1.00  0.00    -0.354 N 
ATOM     50  C   UNL A   1      44.632  26.806  32.775  1.00  0.00     0.074 A 
ATOM     51  C   UNL A   1      44.889  25.606  32.009  1.00  0.00     0.031 C 
ATOM     52  C   UNL A   1      40.415  29.967  29.102  1.00  0.00     0.029 A 
ATOM     53  C   UNL A   1      40.902  30.345  30.429  1.00  0.00     0.049 A 
ATOM     54  H   UNL A   1      42.377  29.390  31.548  1.00  0.00     0.167 HD
ATOM     55  C   UNL A   1      45.194  27.077  33.976  1.00  0.00     0.034 A 
ATOM     56  C   UNL A   1      40.482  31.403  31.150  1.00  0.00     0.034 A 
ATOM     57  C   UNL A   1      44.949  28.277  34.729  1.00  0.00     0.049 A 
ATOM     58  C   UNL A   1      41.111  31.680  32.492  1.00  0.00     0.074 A 
ATOM     59  C   UNL A   1      45.516  28.672  35.927  1.00  0.00     0.029 A 
ATOM     60  N   UNL A   1      44.047  29.266  34.367  1.00  0.00    -0.354 N 
ATOM     61  N   UNL A   1      42.052  31.013  33.116  1.00  0.00    -0.248 NA
ATOM     62  C   UNL A   1      40.645  32.874  33.212  1.00  0.00     0.031 C 
ATOM     63  C   UNL A   1      44.935  29.888  36.304  1.00  0.00     0.029 A 
ATOM     64  C   UNL A   1      44.025  30.263  35.328  1.00  0.00     0.049 A 
ATOM     65  H   UNL A   1      43.502  29.261  33.547  1.00  0.00     0.167 HD
ATOM     66  C   UNL A   1      42.313  31.722  34.285  1.00  0.00     0.074 A 
ATOM     67  C   UNL A   1      41.441  32.879  34.273  1.00  0.00     0.031 C 
ATOM     68  C   UNL A   1      43.184  31.433  35.284  1.00  0.00     0.034 A 
BRANCH  55  69
ATOM     69  C   UNL A   1      46.149  26.057  34.535  1.00  0.00     0.023 A 
ATOM     70  C   UNL A   1      47.532  26.190  34.294  1.00  0.00     0.012 A 
ATOM     71  C   UNL A   1      45.683  24.980  35.313  1.00  0.00     0.148 A 
ATOM     72  C   UNL A   1      48.432  25.246  34.787  1.00  0.00     0.002 A 
ATOM     73  C   UNL A   1      46.591  24.067  35.838  1.00  0.00     0.091 A 
ATOM     74  F   UNL A   1      44.362  24.854  35.507  1.00  0.00    -0.205 F 
ATOM     75  C   UNL A   1      47.963  24.191  35.565  1.00  0.00     0.022 A 
BRANCH  73  76
ATOM     76  S   UNL A   1      46.085  22.720  36.911  1.00  0.00     0.127 S 
ATOM     77  O   UNL A   1      45.094  22.037  36.082  1.00  0.00    -0.237 OA
ATOM     78  O   UNL A   1      47.336  21.983  37.096  1.00  0.00    -0.237 OA
ATOM     79  O   UNL A   1      45.571  23.348  38.121  1.00  0.00    -0.744 OA
ENDBRANCH  73  76
ENDBRANCH  55  69
BRANCH  56  80
ATOM     80  C   UNL A   1      39.434  32.302  30.591  1.00  0.00     0.023 A 
ATOM     81  C   UNL A   1      39.811  33.515  29.984  1.00  0.00     0.012 A 
ATOM     82  C   UNL A   1      38.073  31.938  30.619  1.00  0.00     0.148 A 
ATOM     83  C   UNL A   1      38.848  34.360  29.431  1.00  0.00     0.002 A 
ATOM     84  C   UNL A   1      37.125  32.761  30.022  1.00  0.00     0.091 A 
ATOM     85  F   UNL A   1      37.736  30.786  31.216  1.00  0.00    -0.205 F 
ATOM     86  C   UNL A   1      37.508  33.978  29.439  1.00  0.00     0.022 A 
BRANCH  84  87
ATOM     87  S   UNL A   1      35.394  32.300  29.882  1.00  0.00     0.127 S 
ATOM     88  O   UNL A   1      35.489  30.926  29.395  1.00  0.00    -0.237 OA
ATOM     89  O   UNL A   1      34.935  32.431  31.267  1.00  0.00    -0.237 OA
ATOM     90  O   UNL A   1      34.801  33.256  28.957  1.00  0.00    -0.744 OA
ENDBRANCH  84  87
ENDBRANCH  56  80
BRANCH  68  91
ATOM     91  C   UNL A   1      43.263  32.389  36.448  1.00  0.00     0.023 A 
ATOM     92  C   UNL A   1      44.003  33.581  36.323  1.00  0.00     0.012 A 
ATOM     93  C   UNL A   1      42.538  32.148  37.633  1.00  0.00     0.148 A 
ATOM     94  C   UNL A   1      44.044  34.505  37.367  1.00  0.00     0.002 A 
ATOM     95  C   UNL A   1      42.547  33.094  38.651  1.00  0.00     0.091 A 
ATOM     96  F   UNL A   1      41.854  31.000  37.743  1.00  0.00    -0.205 F 
ATOM     97  C   UNL A   1      43.307  34.267  38.525  1.00  0.00     0.022 A 
BRANCH  95  98
ATOM     98  S   UNL A   1      41.552  32.917  40.138  1.00  0.00     0.127 S 
ATOM     99  O   UNL A   1      40.202  32.821  39.585  1.00  0.00    -0.237 OA
ATOM    100  O   UNL A   1      42.065  31.672  40.711  1.00  0.00    -0.237 OA
ATOM    101  O   UNL A   1      41.818  34.103  40.941  1.00  0.00    -0.744 OA
ENDBRANCH  95  98
ENDBRANCH  68  91
ENDBRANCH  42  43
ENDBRANCH  35  37
ENDBRANCH  34  35
ENDBRANCH  33  34
ENDBRANCH  32  33
ENDBRANCH  31  32
ENDBRANCH  30  31
ENDBRANCH   1  30
TORSDOF 24
ENDMDL
