MODEL 1
REMARK VINA RESULT:     -10.8      0.000      0.000
REMARK SMILES CC(C)n1c(CCC(=O)OCCOCCOCCOC(=O)c2ccc(-c3c4nc(c(-c5cccc(S(=O)(=O)[O-])c5F)c5ccc([nH]5)c(-c5cccc(S(=O)(=O)[O-])c5F)c5nc(c(-c6cccc(S(=O)(=O)[O-])c6F)c6ccc3[nH]6)C=C5)C=C4)cc2)ccc1-c1ccc(F)cc1
REMARK SMILES IDX 14 1 13 2 12 3 11 4 10 5 8 6 9 7 7 8 6 9 5 10 4 11 87 12
REMARK SMILES IDX 85 13 86 14 2 15 1 16 3 17 88 18 89 19 94 20 90 21 93 22
REMARK SMILES IDX 91 23 92 24 15 25 16 26 17 27 18 28 19 29 20 30 21 31 22 32
REMARK SMILES IDX 23 33 84 34 24 35 83 36 25 37 26 38 27 39 77 40 28 41 82 42
REMARK SMILES IDX 76 43 78 44 29 45 81 46 75 47 74 48 30 50 62 51 42 52 61 53
REMARK SMILES IDX 43 54 46 55 60 56 79 57 44 58 45 59 59 61 80 62 47 63 31 64
REMARK SMILES IDX 32 65 40 66 33 67 35 68 41 69 34 70 36 71 37 72 38 73 39 74
REMARK SMILES IDX 63 75 64 76 72 77 65 78 67 79 73 80 66 81 68 82 69 83 70 84
REMARK SMILES IDX 71 85 48 86 49 87 57 88 50 89 52 90 58 91 51 92 53 93 54 94
REMARK SMILES IDX 55 95 56 96
REMARK H PARENT 78 49 46 60
REMARK Flexibility Score: inf
ROOT
ATOM      1  C   UNL A   1      33.395  29.490  26.052  1.00  0.00     0.188 C 
ENDROOT
BRANCH   1   2
ATOM      2  O   UNL A   1      33.006  28.822  24.852  1.00  0.00    -0.376 OA
BRANCH   2   3
ATOM      3  C   UNL A   1      32.124  27.714  25.023  1.00  0.00     0.202 C 
BRANCH   3   4
ATOM      4  C   UNL A   1      31.338  27.355  23.751  1.00  0.00     0.261 C 
BRANCH   4   5
ATOM      5  O   UNL A   1      31.737  26.097  23.150  1.00  0.00    -0.463 OA
BRANCH   5   6
ATOM      6  C   UNL A   1      33.056  25.854  22.957  1.00  0.00     0.306 C 
ATOM      7  O   UNL A   1      33.738  26.416  22.107  1.00  0.00    -0.252 OA
BRANCH   6   8
ATOM      8  C   UNL A   1      33.573  24.673  23.773  1.00  0.00     0.129 C 
BRANCH   8   9
ATOM      9  C   UNL A   1      34.589  23.682  23.193  1.00  0.00     0.066 C 
BRANCH   9  10
ATOM     10  C   UNL A   1      34.771  22.351  23.914  1.00  0.00     0.019 A 
ATOM     11  N   UNL A   1      33.853  21.306  24.086  1.00  0.00    -0.342 N 
ATOM     12  C   UNL A   1      34.522  20.211  24.637  1.00  0.00     0.048 A 
ATOM     13  C   UNL A   1      35.880  22.004  24.674  1.00  0.00     0.024 A 
ATOM     14  C   UNL A   1      35.719  20.684  25.135  1.00  0.00     0.029 A 
BRANCH  11  15
ATOM     15  C   UNL A   1      32.438  21.325  23.715  1.00  0.00     0.081 C 
ATOM     16  C   UNL A   1      31.480  22.368  24.335  1.00  0.00     0.031 C 
ATOM     17  C   UNL A   1      32.252  21.553  22.233  1.00  0.00     0.031 C 
ENDBRANCH  11  15
BRANCH  12  18
ATOM     18  C   UNL A   1      33.967  18.862  24.719  1.00  0.00    -0.002 A 
ATOM     19  C   UNL A   1      34.627  17.788  24.103  1.00  0.00     0.013 A 
ATOM     20  C   UNL A   1      32.888  18.613  25.584  1.00  0.00     0.013 A 
ATOM     21  C   UNL A   1      34.283  16.475  24.439  1.00  0.00     0.040 A 
ATOM     22  C   UNL A   1      32.544  17.299  25.914  1.00  0.00     0.040 A 
ATOM     23  C   UNL A   1      33.262  16.246  25.357  1.00  0.00     0.123 A 
ATOM     24  F   UNL A   1      32.996  14.992  25.748  1.00  0.00    -0.207 F 
ENDBRANCH  12  18
ENDBRANCH   9  10
ENDBRANCH   8   9
ENDBRANCH   6   8
ENDBRANCH   5   6
ENDBRANCH   4   5
ENDBRANCH   3   4
ENDBRANCH   2   3
ENDBRANCH   1   2
BRANCH   1  25
ATOM     25  C   UNL A   1      32.191  30.022  26.833  1.00  0.00     0.188 C 
BRANCH  25  26
ATOM     26  O   UNL A   1      31.620  31.120  26.143  1.00  0.00    -0.376 OA
BRANCH  26  27
ATOM     27  C   UNL A   1      31.575  32.393  26.774  1.00  0.00     0.202 C 
BRANCH  27  28
ATOM     28  C   UNL A   1      32.762  32.550  27.730  1.00  0.00     0.261 C 
BRANCH  28  29
ATOM     29  O   UNL A   1      33.323  33.837  27.566  1.00  0.00    -0.460 OA
BRANCH  29  30
ATOM     30  C   UNL A   1      33.228  34.703  28.596  1.00  0.00     0.338 C 
ATOM     31  O   UNL A   1      32.330  35.522  28.817  1.00  0.00    -0.246 OA
BRANCH  30  32
ATOM     32  C   UNL A   1      34.454  34.541  29.377  1.00  0.00     0.060 A 
ATOM     33  C   UNL A   1      35.702  34.595  28.747  1.00  0.00     0.016 A 
ATOM     34  C   UNL A   1      34.298  34.027  30.662  1.00  0.00     0.016 A 
ATOM     35  C   UNL A   1      36.747  33.899  29.322  1.00  0.00     0.010 A 
ATOM     36  C   UNL A   1      35.237  33.144  31.081  1.00  0.00     0.010 A 
ATOM     37  C   UNL A   1      36.465  33.101  30.435  1.00  0.00    -0.014 A 
BRANCH  37  38
ATOM     38  C   UNL A   1      37.472  32.243  31.048  1.00  0.00     0.031 A 
ATOM     39  C   UNL A   1      37.708  31.015  30.150  1.00  0.00     0.074 A 
ATOM     40  C   UNL A   1      37.973  32.712  32.233  1.00  0.00     0.049 A 
ATOM     41  N   UNL A   1      37.808  29.765  30.485  1.00  0.00    -0.248 NA
ATOM     42  C   UNL A   1      37.617  31.144  28.662  1.00  0.00     0.031 C 
ATOM     43  C   UNL A   1      37.604  34.006  32.867  1.00  0.00     0.029 A 
ATOM     44  N   UNL A   1      38.892  32.236  33.137  1.00  0.00    -0.354 N 
ATOM     45  C   UNL A   1      38.067  29.061  29.287  1.00  0.00     0.074 A 
ATOM     46  C   UNL A   1      37.637  29.890  28.215  1.00  0.00     0.031 C 
ATOM     47  C   UNL A   1      38.207  34.151  34.069  1.00  0.00     0.029 A 
ATOM     48  C   UNL A   1      39.062  33.006  34.316  1.00  0.00     0.049 A 
ATOM     49  H   UNL A   1      39.403  31.409  32.975  1.00  0.00     0.167 HD
ATOM     50  C   UNL A   1      38.924  28.003  29.216  1.00  0.00     0.034 A 
ATOM     51  C   UNL A   1      39.815  32.714  35.423  1.00  0.00     0.034 A 
ATOM     52  C   UNL A   1      39.500  27.805  30.507  1.00  0.00     0.049 A 
ATOM     53  C   UNL A   1      40.595  31.525  35.051  1.00  0.00     0.074 A 
ATOM     54  C   UNL A   1      38.967  27.392  31.700  1.00  0.00     0.029 A 
ATOM     55  N   UNL A   1      40.668  28.506  30.730  1.00  0.00    -0.354 N 
ATOM     56  N   UNL A   1      41.594  31.532  34.218  1.00  0.00    -0.248 NA
ATOM     57  C   UNL A   1      40.138  30.208  35.512  1.00  0.00     0.031 C 
ATOM     58  C   UNL A   1      39.601  28.231  32.637  1.00  0.00     0.029 A 
ATOM     59  C   UNL A   1      40.668  28.915  32.036  1.00  0.00     0.049 A 
ATOM     60  H   UNL A   1      41.375  28.681  30.067  1.00  0.00     0.167 HD
ATOM     61  C   UNL A   1      41.597  30.232  33.776  1.00  0.00     0.074 A 
ATOM     62  C   UNL A   1      40.976  29.443  34.819  1.00  0.00     0.031 C 
ATOM     63  C   UNL A   1      41.551  29.985  32.437  1.00  0.00     0.034 A 
BRANCH  50  64
ATOM     64  C   UNL A   1      39.604  27.305  28.065  1.00  0.00     0.023 A 
ATOM     65  C   UNL A   1      39.239  25.939  27.914  1.00  0.00     0.012 A 
ATOM     66  C   UNL A   1      40.720  27.758  27.339  1.00  0.00     0.148 A 
ATOM     67  C   UNL A   1      40.015  25.037  27.191  1.00  0.00     0.002 A 
ATOM     68  C   UNL A   1      41.454  26.862  26.559  1.00  0.00     0.091 A 
ATOM     69  F   UNL A   1      41.138  29.019  27.467  1.00  0.00    -0.205 F 
ATOM     70  C   UNL A   1      41.132  25.500  26.520  1.00  0.00     0.022 A 
BRANCH  68  71
ATOM     71  S   UNL A   1      42.857  27.376  25.558  1.00  0.00     0.127 S 
ATOM     72  O   UNL A   1      42.245  28.341  24.651  1.00  0.00    -0.237 OA
ATOM     73  O   UNL A   1      43.743  27.966  26.565  1.00  0.00    -0.237 OA
ATOM     74  O   UNL A   1      43.380  26.156  24.957  1.00  0.00    -0.744 OA
ENDBRANCH  68  71
ENDBRANCH  50  64
BRANCH  51  75
ATOM     75  C   UNL A   1      39.940  33.205  36.846  1.00  0.00     0.023 A 
ATOM     76  C   UNL A   1      40.812  34.216  37.270  1.00  0.00     0.012 A 
ATOM     77  C   UNL A   1      39.063  32.688  37.848  1.00  0.00     0.148 A 
ATOM     78  C   UNL A   1      40.738  34.744  38.578  1.00  0.00     0.002 A 
ATOM     79  C   UNL A   1      38.897  33.293  39.085  1.00  0.00     0.091 A 
ATOM     80  F   UNL A   1      38.394  31.552  37.625  1.00  0.00    -0.205 F 
ATOM     81  C   UNL A   1      39.750  34.320  39.468  1.00  0.00     0.022 A 
BRANCH  79  82
ATOM     82  S   UNL A   1      37.497  32.891  40.151  1.00  0.00     0.127 S 
ATOM     83  O   UNL A   1      36.382  32.870  39.206  1.00  0.00    -0.237 OA
ATOM     84  O   UNL A   1      37.891  31.580  40.669  1.00  0.00    -0.237 OA
ATOM     85  O   UNL A   1      37.434  33.939  41.161  1.00  0.00    -0.744 OA
ENDBRANCH  79  82
ENDBRANCH  51  75
BRANCH  63  86
ATOM     86  C   UNL A   1      42.195  31.066  31.565  1.00  0.00     0.023 A 
ATOM     87  C   UNL A   1      41.307  31.901  30.850  1.00  0.00     0.012 A 
ATOM     88  C   UNL A   1      43.577  31.239  31.312  1.00  0.00     0.148 A 
ATOM     89  C   UNL A   1      41.752  32.830  29.906  1.00  0.00     0.002 A 
ATOM     90  C   UNL A   1      44.025  32.166  30.356  1.00  0.00     0.091 A 
ATOM     91  F   UNL A   1      44.450  30.494  31.992  1.00  0.00    -0.205 F 
ATOM     92  C   UNL A   1      43.109  32.960  29.655  1.00  0.00     0.022 A 
BRANCH  90  93
ATOM     93  S   UNL A   1      45.752  32.411  29.894  1.00  0.00     0.127 S 
ATOM     94  O   UNL A   1      45.991  31.308  28.960  1.00  0.00    -0.237 OA
ATOM     95  O   UNL A   1      45.728  33.729  29.265  1.00  0.00    -0.237 OA
ATOM     96  O   UNL A   1      46.517  32.332  31.129  1.00  0.00    -0.744 OA
ENDBRANCH  90  93
ENDBRANCH  63  86
ENDBRANCH  37  38
ENDBRANCH  30  32
ENDBRANCH  29  30
ENDBRANCH  28  29
ENDBRANCH  27  28
ENDBRANCH  26  27
ENDBRANCH  25  26
ENDBRANCH   1  25
TORSDOF 24
ENDMDL
MODEL 2
REMARK VINA RESULT:      -9.8      4.003      8.469
REMARK SMILES CC(C)n1c(CCC(=O)OCCOCCOCCOC(=O)c2ccc(-c3c4nc(c(-c5cccc(S(=O)(=O)[O-])c5F)c5ccc([nH]5)c(-c5cccc(S(=O)(=O)[O-])c5F)c5nc(c(-c6cccc(S(=O)(=O)[O-])c6F)c6ccc3[nH]6)C=C5)C=C4)cc2)ccc1-c1ccc(F)cc1
REMARK SMILES IDX 14 1 13 2 12 3 11 4 10 5 8 6 9 7 7 8 6 9 5 10 4 11 87 12
REMARK SMILES IDX 85 13 86 14 2 15 1 16 3 17 88 18 89 19 94 20 90 21 93 22
REMARK SMILES IDX 91 23 92 24 15 25 16 26 17 27 18 28 19 29 20 30 21 31 22 32
REMARK SMILES IDX 23 33 84 34 24 35 83 36 25 37 26 38 27 39 77 40 28 41 82 42
REMARK SMILES IDX 76 43 78 44 29 45 81 46 75 47 74 48 30 50 62 51 42 52 61 53
REMARK SMILES IDX 43 54 46 55 60 56 79 57 44 58 45 59 59 61 80 62 47 63 31 64
REMARK SMILES IDX 32 65 40 66 33 67 35 68 41 69 34 70 36 71 37 72 38 73 39 74
REMARK SMILES IDX 63 75 64 76 72 77 65 78 67 79 73 80 66 81 68 82 69 83 70 84
REMARK SMILES IDX 71 85 48 86 49 87 57 88 50 89 52 90 58 91 51 92 53 93 54 94
REMARK SMILES IDX 55 95 56 96
REMARK H PARENT 78 49 46 60
REMARK Flexibility Score: inf
ROOT
ATOM      1  C   UNL A   1      34.803  31.476  27.840  1.00  0.00     0.188 C 
ENDROOT
BRANCH   1   2
ATOM      2  O   UNL A   1      34.480  30.239  27.207  1.00  0.00    -0.376 OA
BRANCH   2   3
ATOM      3  C   UNL A   1      33.222  30.201  26.535  1.00  0.00     0.202 C 
BRANCH   3   4
ATOM      4  C   UNL A   1      32.678  28.777  26.333  1.00  0.00     0.261 C 
BRANCH   4   5
ATOM      5  O   UNL A   1      32.755  28.308  24.963  1.00  0.00    -0.463 OA
BRANCH   5   6
ATOM      6  C   UNL A   1      31.612  28.205  24.242  1.00  0.00     0.306 C 
ATOM      7  O   UNL A   1      30.720  29.046  24.250  1.00  0.00    -0.252 OA
BRANCH   6   8
ATOM      8  C   UNL A   1      31.453  26.848  23.564  1.00  0.00     0.129 C 
BRANCH   8   9
ATOM      9  C   UNL A   1      31.314  25.557  24.377  1.00  0.00     0.066 C 
BRANCH   9  10
ATOM     10  C   UNL A   1      32.319  24.441  24.113  1.00  0.00     0.019 A 
ATOM     11  N   UNL A   1      32.543  23.263  24.839  1.00  0.00    -0.342 N 
ATOM     12  C   UNL A   1      33.420  22.453  24.114  1.00  0.00     0.048 A 
ATOM     13  C   UNL A   1      33.317  24.482  23.148  1.00  0.00     0.024 A 
ATOM     14  C   UNL A   1      34.009  23.256  23.160  1.00  0.00     0.029 A 
BRANCH  11  15
ATOM     15  C   UNL A   1      31.934  22.905  26.120  1.00  0.00     0.081 C 
ATOM     16  C   UNL A   1      32.821  22.601  27.350  1.00  0.00     0.031 C 
ATOM     17  C   UNL A   1      31.029  24.000  26.634  1.00  0.00     0.031 C 
ENDBRANCH  11  15
BRANCH  12  18
ATOM     18  C   UNL A   1      33.685  21.048  24.417  1.00  0.00    -0.002 A 
ATOM     19  C   UNL A   1      32.731  20.067  24.108  1.00  0.00     0.013 A 
ATOM     20  C   UNL A   1      34.973  20.663  24.827  1.00  0.00     0.013 A 
ATOM     21  C   UNL A   1      33.098  18.718  24.099  1.00  0.00     0.040 A 
ATOM     22  C   UNL A   1      35.334  19.313  24.821  1.00  0.00     0.040 A 
ATOM     23  C   UNL A   1      34.401  18.358  24.433  1.00  0.00     0.123 A 
ATOM     24  F   UNL A   1      34.776  17.075  24.335  1.00  0.00    -0.207 F 
ENDBRANCH  12  18
ENDBRANCH   9  10
ENDBRANCH   8   9
ENDBRANCH   6   8
ENDBRANCH   5   6
ENDBRANCH   4   5
ENDBRANCH   3   4
ENDBRANCH   2   3
ENDBRANCH   1   2
BRANCH   1  25
ATOM     25  C   UNL A   1      33.554  32.300  28.170  1.00  0.00     0.188 C 
BRANCH  25  26
ATOM     26  O   UNL A   1      33.919  33.650  28.401  1.00  0.00    -0.376 OA
BRANCH  26  27
ATOM     27  C   UNL A   1      34.150  34.090  29.733  1.00  0.00     0.202 C 
BRANCH  27  28
ATOM     28  C   UNL A   1      35.654  34.194  30.001  1.00  0.00     0.261 C 
BRANCH  28  29
ATOM     29  O   UNL A   1      35.931  33.702  31.296  1.00  0.00    -0.460 OA
BRANCH  29  30
ATOM     30  C   UNL A   1      36.170  32.382  31.432  1.00  0.00     0.338 C 
ATOM     31  O   UNL A   1      35.412  31.518  31.886  1.00  0.00    -0.246 OA
BRANCH  30  32
ATOM     32  C   UNL A   1      37.554  32.173  31.007  1.00  0.00     0.060 A 
ATOM     33  C   UNL A   1      37.919  32.380  29.672  1.00  0.00     0.016 A 
ATOM     34  C   UNL A   1      38.368  31.474  31.895  1.00  0.00     0.016 A 
ATOM     35  C   UNL A   1      38.991  31.663  29.177  1.00  0.00     0.010 A 
ATOM     36  C   UNL A   1      39.239  30.589  31.352  1.00  0.00     0.010 A 
ATOM     37  C   UNL A   1      39.571  30.701  30.009  1.00  0.00    -0.014 A 
BRANCH  37  38
ATOM     38  C   UNL A   1      40.634  29.818  29.545  1.00  0.00     0.031 A 
ATOM     39  C   UNL A   1      41.971  30.581  29.558  1.00  0.00     0.074 A 
ATOM     40  C   UNL A   1      40.223  28.551  29.227  1.00  0.00     0.049 A 
ATOM     41  N   UNL A   1      42.902  30.616  28.653  1.00  0.00    -0.248 NA
ATOM     42  C   UNL A   1      42.238  31.611  30.611  1.00  0.00     0.031 C 
ATOM     43  C   UNL A   1      38.835  28.038  29.373  1.00  0.00     0.029 A 
ATOM     44  N   UNL A   1      40.860  27.432  28.744  1.00  0.00    -0.354 N 
ATOM     45  C   UNL A   1      43.930  31.428  29.184  1.00  0.00     0.074 A 
ATOM     46  C   UNL A   1      43.345  32.228  30.203  1.00  0.00     0.031 C 
ATOM     47  C   UNL A   1      38.727  26.776  28.903  1.00  0.00     0.029 A 
ATOM     48  C   UNL A   1      40.029  26.320  28.457  1.00  0.00     0.049 A 
ATOM     49  H   UNL A   1      41.835  27.405  28.607  1.00  0.00     0.167 HD
ATOM     50  C   UNL A   1      45.255  31.161  29.006  1.00  0.00     0.034 A 
ATOM     51  C   UNL A   1      40.371  25.131  27.867  1.00  0.00     0.034 A 
ATOM     52  C   UNL A   1      45.373  29.946  28.265  1.00  0.00     0.049 A 
ATOM     53  C   UNL A   1      41.838  25.154  27.785  1.00  0.00     0.074 A 
ATOM     54  C   UNL A   1      45.055  29.622  26.973  1.00  0.00     0.029 A 
ATOM     55  N   UNL A   1      45.430  28.804  29.038  1.00  0.00    -0.354 N 
ATOM     56  N   UNL A   1      42.635  25.021  28.806  1.00  0.00    -0.248 NA
ATOM     57  C   UNL A   1      42.470  25.506  26.508  1.00  0.00     0.031 C 
ATOM     58  C   UNL A   1      44.502  28.332  27.098  1.00  0.00     0.029 A 
ATOM     59  C   UNL A   1      44.747  27.818  28.379  1.00  0.00     0.049 A 
ATOM     60  H   UNL A   1      45.882  28.715  29.909  1.00  0.00     0.167 HD
ATOM     61  C   UNL A   1      43.767  25.658  28.361  1.00  0.00     0.074 A 
ATOM     62  C   UNL A   1      43.732  25.594  26.916  1.00  0.00     0.031 C 
ATOM     63  C   UNL A   1      44.307  26.656  29.116  1.00  0.00     0.034 A 
BRANCH  50  64
ATOM     64  C   UNL A   1      46.504  31.648  29.696  1.00  0.00     0.023 A 
ATOM     65  C   UNL A   1      47.441  32.276  28.831  1.00  0.00     0.012 A 
ATOM     66  C   UNL A   1      46.947  31.310  30.987  1.00  0.00     0.148 A 
ATOM     67  C   UNL A   1      48.781  32.438  29.174  1.00  0.00     0.002 A 
ATOM     68  C   UNL A   1      48.275  31.538  31.351  1.00  0.00     0.091 A 
ATOM     69  F   UNL A   1      46.129  30.683  31.835  1.00  0.00    -0.205 F 
ATOM     70  C   UNL A   1      49.200  32.057  30.436  1.00  0.00     0.022 A 
BRANCH  68  71
ATOM     71  S   UNL A   1      48.901  31.186  33.000  1.00  0.00     0.127 S 
ATOM     72  O   UNL A   1      50.093  32.026  33.057  1.00  0.00    -0.237 OA
ATOM     73  O   UNL A   1      47.794  31.644  33.844  1.00  0.00    -0.237 OA
ATOM     74  O   UNL A   1      49.115  29.746  33.040  1.00  0.00    -0.744 OA
ENDBRANCH  68  71
ENDBRANCH  50  64
BRANCH  51  75
ATOM     75  C   UNL A   1      39.663  23.957  27.231  1.00  0.00     0.023 A 
ATOM     76  C   UNL A   1      38.515  24.052  26.434  1.00  0.00     0.012 A 
ATOM     77  C   UNL A   1      40.221  22.648  27.357  1.00  0.00     0.148 A 
ATOM     78  C   UNL A   1      38.022  22.933  25.727  1.00  0.00     0.002 A 
ATOM     79  C   UNL A   1      39.821  21.584  26.562  1.00  0.00     0.091 A 
ATOM     80  F   UNL A   1      41.136  22.402  28.298  1.00  0.00    -0.205 F 
ATOM     81  C   UNL A   1      38.702  21.714  25.749  1.00  0.00     0.022 A 
BRANCH  79  82
ATOM     82  S   UNL A   1      40.813  20.081  26.431  1.00  0.00     0.127 S 
ATOM     83  O   UNL A   1      42.010  20.556  25.741  1.00  0.00    -0.237 OA
ATOM     84  O   UNL A   1      41.009  19.738  27.841  1.00  0.00    -0.237 OA
ATOM     85  O   UNL A   1      40.008  19.120  25.687  1.00  0.00    -0.744 OA
ENDBRANCH  79  82
ENDBRANCH  51  75
BRANCH  63  86
ATOM     86  C   UNL A   1      44.081  26.513  30.622  1.00  0.00     0.023 A 
ATOM     87  C   UNL A   1      43.240  27.478  31.221  1.00  0.00     0.012 A 
ATOM     88  C   UNL A   1      44.714  25.591  31.491  1.00  0.00     0.148 A 
ATOM     89  C   UNL A   1      43.063  27.559  32.605  1.00  0.00     0.002 A 
ATOM     90  C   UNL A   1      44.543  25.677  32.883  1.00  0.00     0.091 A 
ATOM     91  F   UNL A   1      45.488  24.641  30.963  1.00  0.00    -0.205 F 
ATOM     92  C   UNL A   1      43.717  26.663  33.436  1.00  0.00     0.022 A 
BRANCH  90  93
ATOM     93  S   UNL A   1      45.364  24.611  34.086  1.00  0.00     0.127 S 
ATOM     94  O   UNL A   1      46.781  24.897  33.850  1.00  0.00    -0.237 OA
ATOM     95  O   UNL A   1      44.856  25.120  35.357  1.00  0.00    -0.237 OA
ATOM     96  O   UNL A   1      44.960  23.251  33.763  1.00  0.00    -0.744 OA
ENDBRANCH  90  93
ENDBRANCH  63  86
ENDBRANCH  37  38
ENDBRANCH  30  32
ENDBRANCH  29  30
ENDBRANCH  28  29
ENDBRANCH  27  28
ENDBRANCH  26  27
ENDBRANCH  25  26
ENDBRANCH   1  25
TORSDOF 24
ENDMDL
MODEL 3
REMARK VINA RESULT:      -9.3      4.970      8.794
REMARK SMILES CC(C)n1c(CCC(=O)OCCOCCOCCOC(=O)c2ccc(-c3c4nc(c(-c5cccc(S(=O)(=O)[O-])c5F)c5ccc([nH]5)c(-c5cccc(S(=O)(=O)[O-])c5F)c5nc(c(-c6cccc(S(=O)(=O)[O-])c6F)c6ccc3[nH]6)C=C5)C=C4)cc2)ccc1-c1ccc(F)cc1
REMARK SMILES IDX 14 1 13 2 12 3 11 4 10 5 8 6 9 7 7 8 6 9 5 10 4 11 87 12
REMARK SMILES IDX 85 13 86 14 2 15 1 16 3 17 88 18 89 19 94 20 90 21 93 22
REMARK SMILES IDX 91 23 92 24 15 25 16 26 17 27 18 28 19 29 20 30 21 31 22 32
REMARK SMILES IDX 23 33 84 34 24 35 83 36 25 37 26 38 27 39 77 40 28 41 82 42
REMARK SMILES IDX 76 43 78 44 29 45 81 46 75 47 74 48 30 50 62 51 42 52 61 53
REMARK SMILES IDX 43 54 46 55 60 56 79 57 44 58 45 59 59 61 80 62 47 63 31 64
REMARK SMILES IDX 32 65 40 66 33 67 35 68 41 69 34 70 36 71 37 72 38 73 39 74
REMARK SMILES IDX 63 75 64 76 72 77 65 78 67 79 73 80 66 81 68 82 69 83 70 84
REMARK SMILES IDX 71 85 48 86 49 87 57 88 50 89 52 90 58 91 51 92 53 93 54 94
REMARK SMILES IDX 55 95 56 96
REMARK H PARENT 78 49 46 60
REMARK Flexibility Score: inf
ROOT
ATOM      1  C   UNL A   1      35.496  31.663  28.792  1.00  0.00     0.188 C 
ENDROOT
BRANCH   1   2
ATOM      2  O   UNL A   1      34.452  31.194  27.940  1.00  0.00    -0.376 OA
BRANCH   2   3
ATOM      3  C   UNL A   1      34.762  30.037  27.166  1.00  0.00     0.202 C 
BRANCH   3   4
ATOM      4  C   UNL A   1      33.525  29.357  26.558  1.00  0.00     0.261 C 
BRANCH   4   5
ATOM      5  O   UNL A   1      33.635  27.914  26.463  1.00  0.00    -0.463 OA
BRANCH   5   6
ATOM      6  C   UNL A   1      32.941  27.267  25.496  1.00  0.00     0.306 C 
ATOM      7  O   UNL A   1      32.316  27.834  24.607  1.00  0.00    -0.252 OA
BRANCH   6   8
ATOM      8  C   UNL A   1      32.852  25.762  25.728  1.00  0.00     0.129 C 
BRANCH   8   9
ATOM      9  C   UNL A   1      34.014  24.827  25.378  1.00  0.00     0.066 C 
BRANCH   9  10
ATOM     10  C   UNL A   1      33.887  23.359  25.772  1.00  0.00     0.019 A 
ATOM     11  N   UNL A   1      33.527  22.260  24.981  1.00  0.00    -0.342 N 
ATOM     12  C   UNL A   1      33.736  21.092  25.718  1.00  0.00     0.048 A 
ATOM     13  C   UNL A   1      33.971  22.874  27.071  1.00  0.00     0.024 A 
ATOM     14  C   UNL A   1      33.863  21.472  27.038  1.00  0.00     0.029 A 
BRANCH  11  15
ATOM     15  C   UNL A   1      33.052  22.305  23.598  1.00  0.00     0.081 C 
ATOM     16  C   UNL A   1      31.658  22.885  23.267  1.00  0.00     0.031 C 
ATOM     17  C   UNL A   1      33.964  23.130  22.720  1.00  0.00     0.031 C 
ENDBRANCH  11  15
BRANCH  12  18
ATOM     18  C   UNL A   1      33.724  19.746  25.150  1.00  0.00    -0.002 A 
ATOM     19  C   UNL A   1      32.549  19.228  24.585  1.00  0.00     0.013 A 
ATOM     20  C   UNL A   1      34.938  19.057  24.987  1.00  0.00     0.013 A 
ATOM     21  C   UNL A   1      32.610  18.093  23.771  1.00  0.00     0.040 A 
ATOM     22  C   UNL A   1      34.994  17.920  24.176  1.00  0.00     0.040 A 
ATOM     23  C   UNL A   1      33.834  17.466  23.557  1.00  0.00     0.123 A 
ATOM     24  F   UNL A   1      33.906  16.435  22.703  1.00  0.00    -0.207 F 
ENDBRANCH  12  18
ENDBRANCH   9  10
ENDBRANCH   8   9
ENDBRANCH   6   8
ENDBRANCH   5   6
ENDBRANCH   4   5
ENDBRANCH   3   4
ENDBRANCH   2   3
ENDBRANCH   1   2
BRANCH   1  25
ATOM     25  C   UNL A   1      36.114  32.969  28.284  1.00  0.00     0.188 C 
BRANCH  25  26
ATOM     26  O   UNL A   1      37.419  33.119  28.816  1.00  0.00    -0.376 OA
BRANCH  26  27
ATOM     27  C   UNL A   1      37.697  34.215  29.678  1.00  0.00     0.202 C 
BRANCH  27  28
ATOM     28  C   UNL A   1      37.772  33.738  31.132  1.00  0.00     0.261 C 
BRANCH  28  29
ATOM     29  O   UNL A   1      36.568  34.070  31.793  1.00  0.00    -0.460 OA
BRANCH  29  30
ATOM     30  C   UNL A   1      35.815  33.061  32.277  1.00  0.00     0.338 C 
ATOM     31  O   UNL A   1      34.949  32.410  31.683  1.00  0.00    -0.246 OA
BRANCH  30  32
ATOM     32  C   UNL A   1      36.168  32.932  33.690  1.00  0.00     0.060 A 
ATOM     33  C   UNL A   1      35.910  33.982  34.579  1.00  0.00     0.016 A 
ATOM     34  C   UNL A   1      37.032  31.888  34.012  1.00  0.00     0.016 A 
ATOM     35  C   UNL A   1      36.720  34.100  35.691  1.00  0.00     0.010 A 
ATOM     36  C   UNL A   1      37.978  32.148  34.947  1.00  0.00     0.010 A 
ATOM     37  C   UNL A   1      37.809  33.230  35.801  1.00  0.00    -0.014 A 
BRANCH  37  38
ATOM     38  C   UNL A   1      38.785  33.343  36.878  1.00  0.00     0.031 A 
ATOM     39  C   UNL A   1      40.092  33.935  36.319  1.00  0.00     0.074 A 
ATOM     40  C   UNL A   1      38.333  32.927  38.101  1.00  0.00     0.049 A 
ATOM     41  N   UNL A   1      41.316  33.557  36.528  1.00  0.00    -0.248 NA
ATOM     42  C   UNL A   1      40.047  34.948  35.218  1.00  0.00     0.031 C 
ATOM     43  C   UNL A   1      36.957  32.441  38.387  1.00  0.00     0.029 A 
ATOM     44  N   UNL A   1      38.901  32.837  39.350  1.00  0.00    -0.354 N 
ATOM     45  C   UNL A   1      42.131  34.465  35.814  1.00  0.00     0.074 A 
ATOM     46  C   UNL A   1      41.312  35.068  34.821  1.00  0.00     0.031 C 
ATOM     47  C   UNL A   1      36.839  32.029  39.668  1.00  0.00     0.029 A 
ATOM     48  C   UNL A   1      38.096  32.248  40.358  1.00  0.00     0.049 A 
ATOM     49  H   UNL A   1      39.812  33.163  39.533  1.00  0.00     0.167 HD
ATOM     50  C   UNL A   1      43.323  34.925  36.289  1.00  0.00     0.034 A 
ATOM     51  C   UNL A   1      38.440  31.932  41.646  1.00  0.00     0.034 A 
ATOM     52  C   UNL A   1      43.533  34.374  37.589  1.00  0.00     0.049 A 
ATOM     53  C   UNL A   1      39.767  32.531  41.845  1.00  0.00     0.074 A 
ATOM     54  C   UNL A   1      43.768  33.094  38.019  1.00  0.00     0.029 A 
ATOM     55  N   UNL A   1      43.030  35.135  38.625  1.00  0.00    -0.354 N 
ATOM     56  N   UNL A   1      39.988  33.808  41.966  1.00  0.00    -0.248 NA
ATOM     57  C   UNL A   1      40.953  31.671  41.744  1.00  0.00     0.031 C 
ATOM     58  C   UNL A   1      42.992  33.007  39.190  1.00  0.00     0.029 A 
ATOM     59  C   UNL A   1      42.543  34.278  39.575  1.00  0.00     0.049 A 
ATOM     60  H   UNL A   1      43.023  36.118  38.672  1.00  0.00     0.167 HD
ATOM     61  C   UNL A   1      41.295  33.905  41.557  1.00  0.00     0.074 A 
ATOM     62  C   UNL A   1      41.894  32.608  41.790  1.00  0.00     0.031 C 
ATOM     63  C   UNL A   1      41.617  34.780  40.564  1.00  0.00     0.034 A 
BRANCH  50  64
ATOM     64  C   UNL A   1      44.202  36.090  35.906  1.00  0.00     0.023 A 
ATOM     65  C   UNL A   1      45.328  35.735  35.114  1.00  0.00     0.012 A 
ATOM     66  C   UNL A   1      44.186  37.382  36.461  1.00  0.00     0.148 A 
ATOM     67  C   UNL A   1      46.441  36.563  34.988  1.00  0.00     0.002 A 
ATOM     68  C   UNL A   1      45.276  38.235  36.273  1.00  0.00     0.091 A 
ATOM     69  F   UNL A   1      43.177  37.764  37.247  1.00  0.00    -0.205 F 
ATOM     70  C   UNL A   1      46.417  37.813  35.579  1.00  0.00     0.022 A 
BRANCH  68  71
ATOM     71  S   UNL A   1      45.306  39.919  36.901  1.00  0.00     0.127 S 
ATOM     72  O   UNL A   1      45.226  39.707  38.343  1.00  0.00    -0.237 OA
ATOM     73  O   UNL A   1      46.611  40.392  36.429  1.00  0.00    -0.237 OA
ATOM     74  O   UNL A   1      44.175  40.593  36.278  1.00  0.00    -0.744 OA
ENDBRANCH  68  71
ENDBRANCH  50  64
BRANCH  51  75
ATOM     75  C   UNL A   1      37.885  31.093  42.774  1.00  0.00     0.023 A 
ATOM     76  C   UNL A   1      38.479  29.924  43.267  1.00  0.00     0.012 A 
ATOM     77  C   UNL A   1      36.720  31.535  43.471  1.00  0.00     0.148 A 
ATOM     78  C   UNL A   1      38.000  29.301  44.441  1.00  0.00     0.002 A 
ATOM     79  C   UNL A   1      36.331  31.005  44.693  1.00  0.00     0.091 A 
ATOM     80  F   UNL A   1      35.930  32.466  42.927  1.00  0.00    -0.205 F 
ATOM     81  C   UNL A   1      36.962  29.868  45.182  1.00  0.00     0.022 A 
BRANCH  79  82
ATOM     82  S   UNL A   1      35.135  31.850  45.748  1.00  0.00     0.127 S 
ATOM     83  O   UNL A   1      33.891  31.693  44.998  1.00  0.00    -0.237 OA
ATOM     84  O   UNL A   1      35.219  31.058  46.977  1.00  0.00    -0.237 OA
ATOM     85  O   UNL A   1      35.607  33.222  45.888  1.00  0.00    -0.744 OA
ENDBRANCH  79  82
ENDBRANCH  51  75
BRANCH  63  86
ATOM     86  C   UNL A   1      40.723  36.020  40.489  1.00  0.00     0.023 A 
ATOM     87  C   UNL A   1      39.763  36.035  39.451  1.00  0.00     0.012 A 
ATOM     88  C   UNL A   1      40.835  37.194  41.272  1.00  0.00     0.148 A 
ATOM     89  C   UNL A   1      38.983  37.160  39.173  1.00  0.00     0.002 A 
ATOM     90  C   UNL A   1      40.057  38.329  40.986  1.00  0.00     0.091 A 
ATOM     91  F   UNL A   1      41.705  37.208  42.284  1.00  0.00    -0.205 F 
ATOM     92  C   UNL A   1      39.132  38.308  39.935  1.00  0.00     0.022 A 
BRANCH  90  93
ATOM     93  S   UNL A   1      40.175  39.902  41.863  1.00  0.00     0.127 S 
ATOM     94  O   UNL A   1      39.679  40.858  40.871  1.00  0.00    -0.237 OA
ATOM     95  O   UNL A   1      39.276  39.699  42.997  1.00  0.00    -0.237 OA
ATOM     96  O   UNL A   1      41.578  40.066  42.212  1.00  0.00    -0.744 OA
ENDBRANCH  90  93
ENDBRANCH  63  86
ENDBRANCH  37  38
ENDBRANCH  30  32
ENDBRANCH  29  30
ENDBRANCH  28  29
ENDBRANCH  27  28
ENDBRANCH  26  27
ENDBRANCH  25  26
ENDBRANCH   1  25
TORSDOF 24
ENDMDL
