MODEL 1
REMARK VINA RESULT:      -7.5      0.000      0.000
REMARK SMILES COc1ccc(-c2ccc3n(c2=O)C[C@H]2C[C@@H]3CN(C(=O)CCCC(=O)OCCOCCOCCOC(=O)c3ccc(-c4c5nc(c(-c6cccc(S(=O)(=O)[O-])c6F)c6ccc([nH]6)c(-c6cccc(S(=O)(=O)[O-])c6F)c6nc(c(-c7cccc(S(=O)(=O)[O-])c7F)c7ccc4[nH]7)C=C6)C=C5)cc3)C2)cc1
REMARK SMILES IDX 30 1 29 2 28 3 27 4 25 5 26 6 24 7 23 8 22 9 20 10 21 11
REMARK SMILES IDX 19 12 7 13 8 14 12 15 9 16 11 17 13 18 10 19 14 20 17 21
REMARK SMILES IDX 15 22 16 23 18 24 102 25 6 26 3 27 4 28 104 29 5 30 103 31
REMARK SMILES IDX 2 32 1 33 31 34 32 35 33 36 34 37 35 38 36 39 37 40 38 41
REMARK SMILES IDX 39 42 40 43 101 44 41 45 100 46 42 47 43 48 44 49 94 50
REMARK SMILES IDX 45 51 99 52 93 53 95 54 46 55 98 56 92 57 91 58 47 60 79 61
REMARK SMILES IDX 59 62 78 63 60 64 63 65 77 66 96 67 61 68 62 69 76 71 97 72
REMARK SMILES IDX 64 73 48 74 49 75 57 76 50 77 52 78 58 79 51 80 53 81 54 82
REMARK SMILES IDX 55 83 56 84 80 85 81 86 89 87 82 88 84 89 90 90 83 91 85 92
REMARK SMILES IDX 86 93 87 94 88 95 65 96 66 97 74 98 67 99 69 100 75 101
REMARK SMILES IDX 68 102 70 103 71 104 72 105 73 106
REMARK H PARENT 95 59 63 70
REMARK Flexibility Score: inf
ROOT
ATOM      1  O   UNL A   1      36.112  34.204  34.324  1.00  0.00    -0.376 OA
ENDROOT
BRANCH   1   2
ATOM      2  C   UNL A   1      36.816  32.988  34.126  1.00  0.00     0.202 C 
BRANCH   2   3
ATOM      3  C   UNL A   1      37.376  32.744  32.729  1.00  0.00     0.261 C 
BRANCH   3   4
ATOM      4  O   UNL A   1      38.365  33.738  32.381  1.00  0.00    -0.463 OA
BRANCH   4   5
ATOM      5  C   UNL A   1      38.243  34.356  31.180  1.00  0.00     0.305 C 
ATOM      6  O   UNL A   1      37.181  34.462  30.580  1.00  0.00    -0.252 OA
BRANCH   5   7
ATOM      7  C   UNL A   1      39.563  34.841  30.588  1.00  0.00     0.123 C 
BRANCH   7   8
ATOM      8  C   UNL A   1      40.750  33.909  30.318  1.00  0.00     0.022 C 
BRANCH   8   9
ATOM      9  C   UNL A   1      42.167  34.397  30.622  1.00  0.00     0.101 C 
BRANCH   9  10
ATOM     10  C   UNL A   1      43.270  33.567  29.977  1.00  0.00     0.222 C 
ATOM     11  O   UNL A   1      42.978  32.482  29.467  1.00  0.00    -0.275 OA
BRANCH  10  12
ATOM     12  N   UNL A   1      44.568  34.060  29.953  1.00  0.00    -0.342 N 
ATOM     13  C   UNL A   1      46.519  30.443  26.953  1.00  0.00     0.047 A 
ATOM     14  C   UNL A   1      46.206  31.471  26.147  1.00  0.00     0.016 A 
ATOM     15  C   UNL A   1      46.861  30.738  28.389  1.00  0.00     0.258 A 
ATOM     16  C   UNL A   1      46.205  32.827  26.618  1.00  0.00     0.023 A 
ATOM     17  N   UNL A   1      46.851  32.092  28.774  1.00  0.00    -0.311 N 
ATOM     18  O   UNL A   1      47.140  29.824  29.162  1.00  0.00    -0.269 OA
ATOM     19  C   UNL A   1      46.519  33.118  27.889  1.00  0.00     0.026 A 
ATOM     20  C   UNL A   1      47.304  32.390  30.134  1.00  0.00     0.131 C 
ATOM     21  C   UNL A   1      46.443  34.551  28.391  1.00  0.00     0.056 C 
ATOM     22  C   UNL A   1      46.984  33.797  30.659  1.00  0.00     0.029 C 
ATOM     23  C   UNL A   1      47.370  34.795  29.582  1.00  0.00     0.019 C 
ATOM     24  C   UNL A   1      44.992  34.863  28.807  1.00  0.00     0.129 C 
ATOM     25  C   UNL A   1      45.513  34.007  31.058  1.00  0.00     0.125 C 
BRANCH  13  26
ATOM     26  C   UNL A   1      46.521  29.073  26.406  1.00  0.00    -0.013 A 
ATOM     27  C   UNL A   1      46.570  26.496  25.264  1.00  0.00     0.118 A 
ATOM     28  C   UNL A   1      45.355  27.117  25.563  1.00  0.00     0.047 A 
ATOM     29  C   UNL A   1      47.763  27.162  25.536  1.00  0.00     0.047 A 
ATOM     30  C   UNL A   1      45.328  28.393  26.141  1.00  0.00     0.013 A 
ATOM     31  C   UNL A   1      47.737  28.440  26.105  1.00  0.00     0.013 A 
BRANCH  27  32
ATOM     32  O   UNL A   1      46.471  25.266  24.674  1.00  0.00    -0.497 OA
ATOM     33  C   UNL A   1      47.188  24.213  25.309  1.00  0.00     0.278 C 
ENDBRANCH  27  32
ENDBRANCH  13  26
ENDBRANCH  10  12
ENDBRANCH   9  10
ENDBRANCH   8   9
ENDBRANCH   7   8
ENDBRANCH   5   7
ENDBRANCH   4   5
ENDBRANCH   3   4
ENDBRANCH   2   3
ENDBRANCH   1   2
BRANCH   1  34
ATOM     34  C   UNL A   1      34.890  34.402  33.627  1.00  0.00     0.188 C 
BRANCH  34  35
ATOM     35  C   UNL A   1      34.736  35.662  32.756  1.00  0.00     0.188 C 
BRANCH  35  36
ATOM     36  O   UNL A   1      34.248  35.579  31.428  1.00  0.00    -0.376 OA
BRANCH  36  37
ATOM     37  C   UNL A   1      33.657  34.356  31.027  1.00  0.00     0.202 C 
BRANCH  37  38
ATOM     38  C   UNL A   1      34.228  33.659  29.785  1.00  0.00     0.261 C 
BRANCH  38  39
ATOM     39  O   UNL A   1      34.843  32.388  30.060  1.00  0.00    -0.460 OA
BRANCH  39  40
ATOM     40  C   UNL A   1      34.962  31.543  28.994  1.00  0.00     0.338 C 
ATOM     41  O   UNL A   1      34.295  31.542  27.988  1.00  0.00    -0.246 OA
BRANCH  40  42
ATOM     42  C   UNL A   1      36.224  30.768  29.144  1.00  0.00     0.060 A 
ATOM     43  C   UNL A   1      36.258  29.724  30.084  1.00  0.00     0.016 A 
ATOM     44  C   UNL A   1      37.343  31.042  28.359  1.00  0.00     0.016 A 
ATOM     45  C   UNL A   1      37.413  28.956  30.247  1.00  0.00     0.010 A 
ATOM     46  C   UNL A   1      38.510  30.297  28.549  1.00  0.00     0.010 A 
ATOM     47  C   UNL A   1      38.560  29.268  29.508  1.00  0.00    -0.014 A 
BRANCH  47  48
ATOM     48  C   UNL A   1      39.874  28.683  29.868  1.00  0.00     0.031 A 
ATOM     49  C   UNL A   1      40.699  29.395  30.905  1.00  0.00     0.074 A 
ATOM     50  C   UNL A   1      40.359  27.591  29.252  1.00  0.00     0.049 A 
ATOM     51  N   UNL A   1      41.931  29.175  31.281  1.00  0.00    -0.248 NA
ATOM     52  C   UNL A   1      40.043  30.512  31.605  1.00  0.00     0.031 C 
ATOM     53  C   UNL A   1      39.648  26.789  28.260  1.00  0.00     0.029 A 
ATOM     54  N   UNL A   1      41.591  26.992  29.353  1.00  0.00    -0.354 N 
ATOM     55  C   UNL A   1      42.209  30.144  32.236  1.00  0.00     0.074 A 
ATOM     56  C   UNL A   1      41.020  30.954  32.382  1.00  0.00     0.031 C 
ATOM     57  C   UNL A   1      40.474  25.826  27.808  1.00  0.00     0.029 A 
ATOM     58  C   UNL A   1      41.778  25.966  28.455  1.00  0.00     0.049 A 
ATOM     59  H   UNL A   1      42.276  27.270  30.004  1.00  0.00     0.167 HD
ATOM     60  C   UNL A   1      43.350  30.339  32.939  1.00  0.00     0.034 A 
ATOM     61  C   UNL A   1      42.884  25.249  28.169  1.00  0.00     0.034 A 
ATOM     62  C   UNL A   1      44.530  29.535  32.800  1.00  0.00     0.049 A 
ATOM     63  C   UNL A   1      44.166  25.530  28.917  1.00  0.00     0.074 A 
ATOM     64  C   UNL A   1      45.726  29.638  33.489  1.00  0.00     0.029 A 
ATOM     65  N   UNL A   1      44.672  28.487  31.904  1.00  0.00    -0.354 N 
ATOM     66  N   UNL A   1      44.388  26.382  29.890  1.00  0.00    -0.248 NA
ATOM     67  C   UNL A   1      45.345  24.735  28.540  1.00  0.00     0.031 C 
ATOM     68  C   UNL A   1      46.601  28.666  32.991  1.00  0.00     0.029 A 
ATOM     69  C   UNL A   1      45.940  27.943  32.009  1.00  0.00     0.049 A 
ATOM     70  H   UNL A   1      43.973  28.175  31.285  1.00  0.00     0.167 HD
ATOM     71  C   UNL A   1      45.717  26.200  30.264  1.00  0.00     0.074 A 
ATOM     72  C   UNL A   1      46.246  25.146  29.422  1.00  0.00     0.031 C 
ATOM     73  C   UNL A   1      46.438  26.855  31.207  1.00  0.00     0.034 A 
BRANCH  60  74
ATOM     74  C   UNL A   1      43.360  31.465  33.936  1.00  0.00     0.023 A 
ATOM     75  C   UNL A   1      43.756  32.754  33.523  1.00  0.00     0.012 A 
ATOM     76  C   UNL A   1      42.956  31.257  35.268  1.00  0.00     0.148 A 
ATOM     77  C   UNL A   1      43.778  33.812  34.429  1.00  0.00     0.002 A 
ATOM     78  C   UNL A   1      42.941  32.327  36.155  1.00  0.00     0.091 A 
ATOM     79  F   UNL A   1      42.614  30.018  35.648  1.00  0.00    -0.205 F 
ATOM     80  C   UNL A   1      43.363  33.601  35.741  1.00  0.00     0.022 A 
BRANCH  78  81
ATOM     81  S   UNL A   1      42.357  32.168  37.846  1.00  0.00     0.127 S 
ATOM     82  O   UNL A   1      42.873  33.393  38.454  1.00  0.00    -0.237 OA
ATOM     83  O   UNL A   1      40.905  32.139  37.670  1.00  0.00    -0.237 OA
ATOM     84  O   UNL A   1      42.929  30.926  38.350  1.00  0.00    -0.744 OA
ENDBRANCH  78  81
ENDBRANCH  60  74
BRANCH  61  85
ATOM     85  C   UNL A   1      42.834  24.174  27.137  1.00  0.00     0.023 A 
ATOM     86  C   UNL A   1      43.390  24.415  25.866  1.00  0.00     0.012 A 
ATOM     87  C   UNL A   1      42.240  22.923  27.401  1.00  0.00     0.148 A 
ATOM     88  C   UNL A   1      43.333  23.441  24.868  1.00  0.00     0.002 A 
ATOM     89  C   UNL A   1      42.231  21.939  26.417  1.00  0.00     0.091 A 
ATOM     90  F   UNL A   1      41.693  22.721  28.607  1.00  0.00    -0.205 F 
ATOM     91  C   UNL A   1      42.764  22.201  25.146  1.00  0.00     0.022 A 
BRANCH  89  92
ATOM     92  S   UNL A   1      41.610  20.279  26.714  1.00  0.00     0.127 S 
ATOM     93  O   UNL A   1      42.485  19.819  27.789  1.00  0.00    -0.237 OA
ATOM     94  O   UNL A   1      40.228  20.539  27.115  1.00  0.00    -0.237 OA
ATOM     95  O   UNL A   1      41.747  19.574  25.446  1.00  0.00    -0.744 OA
ENDBRANCH  89  92
ENDBRANCH  61  85
BRANCH  73  96
ATOM     96  C   UNL A   1      47.873  26.443  31.417  1.00  0.00     0.023 A 
ATOM     97  C   UNL A   1      48.198  25.552  32.458  1.00  0.00     0.012 A 
ATOM     98  C   UNL A   1      48.881  26.856  30.522  1.00  0.00     0.148 A 
ATOM     99  C   UNL A   1      49.506  25.095  32.620  1.00  0.00     0.002 A 
ATOM    100  C   UNL A   1      50.174  26.362  30.663  1.00  0.00     0.091 A 
ATOM    101  F   UNL A   1      48.556  27.716  29.546  1.00  0.00    -0.205 F 
ATOM    102  C   UNL A   1      50.490  25.490  31.716  1.00  0.00     0.022 A 
BRANCH 100 103
ATOM    103  S   UNL A   1      51.485  26.738  29.491  1.00  0.00     0.127 S 
ATOM    104  O   UNL A   1      50.889  26.303  28.229  1.00  0.00    -0.237 OA
ATOM    105  O   UNL A   1      51.621  28.188  29.633  1.00  0.00    -0.237 OA
ATOM    106  O   UNL A   1      52.646  25.976  29.928  1.00  0.00    -0.744 OA
ENDBRANCH 100 103
ENDBRANCH  73  96
ENDBRANCH  47  48
ENDBRANCH  40  42
ENDBRANCH  39  40
ENDBRANCH  38  39
ENDBRANCH  37  38
ENDBRANCH  36  37
ENDBRANCH  35  36
ENDBRANCH  34  35
ENDBRANCH   1  34
TORSDOF 26
ENDMDL
MODEL 2
REMARK VINA RESULT:      -6.5      5.282     10.209
REMARK SMILES COc1ccc(-c2ccc3n(c2=O)C[C@H]2C[C@@H]3CN(C(=O)CCCC(=O)OCCOCCOCCOC(=O)c3ccc(-c4c5nc(c(-c6cccc(S(=O)(=O)[O-])c6F)c6ccc([nH]6)c(-c6cccc(S(=O)(=O)[O-])c6F)c6nc(c(-c7cccc(S(=O)(=O)[O-])c7F)c7ccc4[nH]7)C=C6)C=C5)cc3)C2)cc1
REMARK SMILES IDX 30 1 29 2 28 3 27 4 25 5 26 6 24 7 23 8 22 9 20 10 21 11
REMARK SMILES IDX 19 12 7 13 8 14 12 15 9 16 11 17 13 18 10 19 14 20 17 21
REMARK SMILES IDX 15 22 16 23 18 24 102 25 6 26 3 27 4 28 104 29 5 30 103 31
REMARK SMILES IDX 2 32 1 33 31 34 32 35 33 36 34 37 35 38 36 39 37 40 38 41
REMARK SMILES IDX 39 42 40 43 101 44 41 45 100 46 42 47 43 48 44 49 94 50
REMARK SMILES IDX 45 51 99 52 93 53 95 54 46 55 98 56 92 57 91 58 47 60 79 61
REMARK SMILES IDX 59 62 78 63 60 64 63 65 77 66 96 67 61 68 62 69 76 71 97 72
REMARK SMILES IDX 64 73 48 74 49 75 57 76 50 77 52 78 58 79 51 80 53 81 54 82
REMARK SMILES IDX 55 83 56 84 80 85 81 86 89 87 82 88 84 89 90 90 83 91 85 92
REMARK SMILES IDX 86 93 87 94 88 95 65 96 66 97 74 98 67 99 69 100 75 101
REMARK SMILES IDX 68 102 70 103 71 104 72 105 73 106
REMARK H PARENT 95 59 63 70
REMARK Flexibility Score: inf
ROOT
ATOM      1  O   UNL A   1      35.578  33.426  34.665  1.00  0.00    -0.376 OA
ENDROOT
BRANCH   1   2
ATOM      2  C   UNL A   1      36.913  33.136  34.280  1.00  0.00     0.202 C 
BRANCH   2   3
ATOM      3  C   UNL A   1      38.009  33.555  35.254  1.00  0.00     0.261 C 
BRANCH   3   4
ATOM      4  O   UNL A   1      37.545  33.495  36.620  1.00  0.00    -0.463 OA
BRANCH   4   5
ATOM      5  C   UNL A   1      38.370  33.967  37.588  1.00  0.00     0.305 C 
ATOM      6  O   UNL A   1      39.224  34.820  37.389  1.00  0.00    -0.252 OA
BRANCH   5   7
ATOM      7  C   UNL A   1      38.203  33.282  38.942  1.00  0.00     0.123 C 
BRANCH   7   8
ATOM      8  C   UNL A   1      39.036  33.651  40.173  1.00  0.00     0.022 C 
BRANCH   8   9
ATOM      9  C   UNL A   1      39.839  32.563  40.885  1.00  0.00     0.101 C 
BRANCH   9  10
ATOM     10  C   UNL A   1      39.013  31.668  41.801  1.00  0.00     0.222 C 
ATOM     11  O   UNL A   1      38.266  30.826  41.296  1.00  0.00    -0.275 OA
BRANCH  10  12
ATOM     12  N   UNL A   1      39.139  31.801  43.178  1.00  0.00    -0.342 N 
ATOM     13  C   UNL A   1      34.217  32.656  44.142  1.00  0.00     0.047 A 
ATOM     14  C   UNL A   1      34.415  31.342  44.338  1.00  0.00     0.016 A 
ATOM     15  C   UNL A   1      35.376  33.593  44.350  1.00  0.00     0.258 A 
ATOM     16  C   UNL A   1      35.689  30.823  44.747  1.00  0.00     0.023 A 
ATOM     17  N   UNL A   1      36.591  33.012  44.764  1.00  0.00    -0.311 N 
ATOM     18  O   UNL A   1      35.240  34.801  44.167  1.00  0.00    -0.269 OA
ATOM     19  C   UNL A   1      36.735  31.638  44.952  1.00  0.00     0.026 A 
ATOM     20  C   UNL A   1      37.682  33.933  45.085  1.00  0.00     0.131 C 
ATOM     21  C   UNL A   1      38.095  31.065  45.315  1.00  0.00     0.056 C 
ATOM     22  C   UNL A   1      39.078  33.308  45.210  1.00  0.00     0.029 C 
ATOM     23  C   UNL A   1      38.958  32.070  46.081  1.00  0.00     0.019 C 
ATOM     24  C   UNL A   1      38.828  30.650  44.024  1.00  0.00     0.129 C 
ATOM     25  C   UNL A   1      39.731  32.937  43.868  1.00  0.00     0.125 C 
BRANCH  13  26
ATOM     26  C   UNL A   1      32.880  33.131  43.740  1.00  0.00    -0.013 A 
ATOM     27  C   UNL A   1      30.282  33.937  42.996  1.00  0.00     0.118 A 
ATOM     28  C   UNL A   1      31.302  33.860  42.044  1.00  0.00     0.047 A 
ATOM     29  C   UNL A   1      30.560  33.611  44.322  1.00  0.00     0.047 A 
ATOM     30  C   UNL A   1      32.596  33.471  42.412  1.00  0.00     0.013 A 
ATOM     31  C   UNL A   1      31.849  33.214  44.690  1.00  0.00     0.013 A 
BRANCH  27  32
ATOM     32  O   UNL A   1      29.054  34.298  42.513  1.00  0.00    -0.497 OA
ATOM     33  C   UNL A   1      28.129  34.791  43.475  1.00  0.00     0.278 C 
ENDBRANCH  27  32
ENDBRANCH  13  26
ENDBRANCH  10  12
ENDBRANCH   9  10
ENDBRANCH   8   9
ENDBRANCH   7   8
ENDBRANCH   5   7
ENDBRANCH   4   5
ENDBRANCH   3   4
ENDBRANCH   2   3
ENDBRANCH   1   2
BRANCH   1  34
ATOM     34  C   UNL A   1      34.704  33.998  33.703  1.00  0.00     0.188 C 
BRANCH  34  35
ATOM     35  C   UNL A   1      34.707  35.528  33.525  1.00  0.00     0.188 C 
BRANCH  35  36
ATOM     36  O   UNL A   1      34.245  36.127  32.327  1.00  0.00    -0.376 OA
BRANCH  36  37
ATOM     37  C   UNL A   1      33.380  35.361  31.508  1.00  0.00     0.202 C 
BRANCH  37  38
ATOM     38  C   UNL A   1      33.924  34.866  30.161  1.00  0.00     0.261 C 
BRANCH  38  39
ATOM     39  O   UNL A   1      34.908  33.823  30.277  1.00  0.00    -0.460 OA
BRANCH  39  40
ATOM     40  C   UNL A   1      35.029  32.997  29.197  1.00  0.00     0.338 C 
ATOM     41  O   UNL A   1      34.461  33.098  28.136  1.00  0.00    -0.246 OA
BRANCH  40  42
ATOM     42  C   UNL A   1      36.177  32.078  29.430  1.00  0.00     0.060 A 
ATOM     43  C   UNL A   1      35.947  30.894  30.150  1.00  0.00     0.016 A 
ATOM     44  C   UNL A   1      37.447  32.359  28.928  1.00  0.00     0.016 A 
ATOM     45  C   UNL A   1      36.988  29.991  30.378  1.00  0.00     0.010 A 
ATOM     46  C   UNL A   1      38.496  31.473  29.189  1.00  0.00     0.010 A 
ATOM     47  C   UNL A   1      38.279  30.299  29.933  1.00  0.00    -0.014 A 
BRANCH  47  48
ATOM     48  C   UNL A   1      39.449  29.525  30.413  1.00  0.00     0.031 A 
ATOM     49  C   UNL A   1      40.153  30.013  31.650  1.00  0.00     0.074 A 
ATOM     50  C   UNL A   1      39.921  28.459  29.744  1.00  0.00     0.049 A 
ATOM     51  N   UNL A   1      41.276  29.607  32.181  1.00  0.00    -0.248 NA
ATOM     52  C   UNL A   1      39.502  31.114  32.380  1.00  0.00     0.031 C 
ATOM     53  C   UNL A   1      39.313  27.865  28.556  1.00  0.00     0.029 A 
ATOM     54  N   UNL A   1      41.054  27.711  29.956  1.00  0.00    -0.354 N 
ATOM     55  C   UNL A   1      41.483  30.423  33.286  1.00  0.00     0.074 A 
ATOM     56  C   UNL A   1      40.372  31.346  33.350  1.00  0.00     0.031 C 
ATOM     57  C   UNL A   1      40.104  26.868  28.117  1.00  0.00     0.029 A 
ATOM     58  C   UNL A   1      41.287  26.778  28.972  1.00  0.00     0.049 A 
ATOM     59  H   UNL A   1      41.642  27.832  30.736  1.00  0.00     0.167 HD
ATOM     60  C   UNL A   1      42.502  30.401  34.177  1.00  0.00     0.034 A 
ATOM     61  C   UNL A   1      42.350  25.972  28.770  1.00  0.00     0.034 A 
ATOM     62  C   UNL A   1      43.604  29.483  34.120  1.00  0.00     0.049 A 
ATOM     63  C   UNL A   1      43.508  26.013  29.739  1.00  0.00     0.074 A 
ATOM     64  C   UNL A   1      44.671  29.366  34.994  1.00  0.00     0.029 A 
ATOM     65  N   UNL A   1      43.791  28.534  33.128  1.00  0.00    -0.354 N 
ATOM     66  N   UNL A   1      43.646  26.718  30.837  1.00  0.00    -0.248 NA
ATOM     67  C   UNL A   1      44.650  25.131  29.449  1.00  0.00     0.031 C 
ATOM     68  C   UNL A   1      45.516  28.360  34.516  1.00  0.00     0.029 A 
ATOM     69  C   UNL A   1      44.963  27.835  33.357  1.00  0.00     0.049 A 
ATOM     70  H   UNL A   1      43.180  28.379  32.373  1.00  0.00     0.167 HD
ATOM     71  C   UNL A   1      44.868  26.339  31.386  1.00  0.00     0.074 A 
ATOM     72  C   UNL A   1      45.425  25.331  30.507  1.00  0.00     0.031 C 
ATOM     73  C   UNL A   1      45.480  26.793  32.507  1.00  0.00     0.034 A 
BRANCH  60  74
ATOM     74  C   UNL A   1      42.455  31.399  35.302  1.00  0.00     0.023 A 
ATOM     75  C   UNL A   1      41.871  31.030  36.531  1.00  0.00     0.012 A 
ATOM     76  C   UNL A   1      43.008  32.684  35.154  1.00  0.00     0.148 A 
ATOM     77  C   UNL A   1      41.811  31.938  37.587  1.00  0.00     0.002 A 
ATOM     78  C   UNL A   1      42.981  33.570  36.225  1.00  0.00     0.091 A 
ATOM     79  F   UNL A   1      43.529  33.025  33.967  1.00  0.00    -0.205 F 
ATOM     80  C   UNL A   1      42.374  33.203  37.437  1.00  0.00     0.022 A 
BRANCH  78  81
ATOM     81  S   UNL A   1      43.742  35.195  36.150  1.00  0.00     0.127 S 
ATOM     82  O   UNL A   1      43.751  35.452  34.711  1.00  0.00    -0.237 OA
ATOM     83  O   UNL A   1      42.797  36.014  36.910  1.00  0.00    -0.237 OA
ATOM     84  O   UNL A   1      45.052  35.051  36.771  1.00  0.00    -0.744 OA
ENDBRANCH  78  81
ENDBRANCH  60  74
BRANCH  61  85
ATOM     85  C   UNL A   1      42.369  25.033  27.611  1.00  0.00     0.023 A 
ATOM     86  C   UNL A   1      43.132  25.361  26.474  1.00  0.00     0.012 A 
ATOM     87  C   UNL A   1      41.639  23.828  27.624  1.00  0.00     0.148 A 
ATOM     88  C   UNL A   1      43.149  24.520  25.361  1.00  0.00     0.002 A 
ATOM     89  C   UNL A   1      41.699  22.970  26.531  1.00  0.00     0.091 A 
ATOM     90  F   UNL A   1      40.898  23.546  28.704  1.00  0.00    -0.205 F 
ATOM     91  C   UNL A   1      42.441  23.321  25.393  1.00  0.00     0.022 A 
BRANCH  89  92
ATOM     92  S   UNL A   1      40.903  21.359  26.519  1.00  0.00     0.127 S 
ATOM     93  O   UNL A   1      40.816  21.057  27.945  1.00  0.00    -0.237 OA
ATOM     94  O   UNL A   1      39.623  21.658  25.875  1.00  0.00    -0.237 OA
ATOM     95  O   UNL A   1      41.778  20.492  25.743  1.00  0.00    -0.744 OA
ENDBRANCH  89  92
ENDBRANCH  61  85
BRANCH  73  96
ATOM     96  C   UNL A   1      46.812  26.193  32.883  1.00  0.00     0.023 A 
ATOM     97  C   UNL A   1      46.857  25.079  33.743  1.00  0.00     0.012 A 
ATOM     98  C   UNL A   1      48.006  26.666  32.302  1.00  0.00     0.148 A 
ATOM     99  C   UNL A   1      48.071  24.459  34.039  1.00  0.00     0.002 A 
ATOM    100  C   UNL A   1      49.207  26.017  32.567  1.00  0.00     0.091 A 
ATOM    101  F   UNL A   1      47.945  27.737  31.497  1.00  0.00    -0.205 F 
ATOM    102  C   UNL A   1      49.242  24.919  33.442  1.00  0.00     0.022 A 
BRANCH 100 103
ATOM    103  S   UNL A   1      50.751  26.477  31.770  1.00  0.00     0.127 S 
ATOM    104  O   UNL A   1      50.283  26.954  30.470  1.00  0.00    -0.237 OA
ATOM    105  O   UNL A   1      51.258  27.524  32.657  1.00  0.00    -0.237 OA
ATOM    106  O   UNL A   1      51.562  25.268  31.735  1.00  0.00    -0.744 OA
ENDBRANCH 100 103
ENDBRANCH  73  96
ENDBRANCH  47  48
ENDBRANCH  40  42
ENDBRANCH  39  40
ENDBRANCH  38  39
ENDBRANCH  37  38
ENDBRANCH  36  37
ENDBRANCH  35  36
ENDBRANCH  34  35
ENDBRANCH   1  34
TORSDOF 26
ENDMDL
MODEL 3
REMARK VINA RESULT:      -6.1      5.663      9.935
REMARK SMILES COc1ccc(-c2ccc3n(c2=O)C[C@H]2C[C@@H]3CN(C(=O)CCCC(=O)OCCOCCOCCOC(=O)c3ccc(-c4c5nc(c(-c6cccc(S(=O)(=O)[O-])c6F)c6ccc([nH]6)c(-c6cccc(S(=O)(=O)[O-])c6F)c6nc(c(-c7cccc(S(=O)(=O)[O-])c7F)c7ccc4[nH]7)C=C6)C=C5)cc3)C2)cc1
REMARK SMILES IDX 30 1 29 2 28 3 27 4 25 5 26 6 24 7 23 8 22 9 20 10 21 11
REMARK SMILES IDX 19 12 7 13 8 14 12 15 9 16 11 17 13 18 10 19 14 20 17 21
REMARK SMILES IDX 15 22 16 23 18 24 102 25 6 26 3 27 4 28 104 29 5 30 103 31
REMARK SMILES IDX 2 32 1 33 31 34 32 35 33 36 34 37 35 38 36 39 37 40 38 41
REMARK SMILES IDX 39 42 40 43 101 44 41 45 100 46 42 47 43 48 44 49 94 50
REMARK SMILES IDX 45 51 99 52 93 53 95 54 46 55 98 56 92 57 91 58 47 60 79 61
REMARK SMILES IDX 59 62 78 63 60 64 63 65 77 66 96 67 61 68 62 69 76 71 97 72
REMARK SMILES IDX 64 73 48 74 49 75 57 76 50 77 52 78 58 79 51 80 53 81 54 82
REMARK SMILES IDX 55 83 56 84 80 85 81 86 89 87 82 88 84 89 90 90 83 91 85 92
REMARK SMILES IDX 86 93 87 94 88 95 65 96 66 97 74 98 67 99 69 100 75 101
REMARK SMILES IDX 68 102 70 103 71 104 72 105 73 106
REMARK H PARENT 95 59 63 70
REMARK Flexibility Score: inf
ROOT
ATOM      1  O   UNL A   1      35.181  33.431  34.482  1.00  0.00    -0.376 OA
ENDROOT
BRANCH   1   2
ATOM      2  C   UNL A   1      36.543  33.094  34.268  1.00  0.00     0.202 C 
BRANCH   2   3
ATOM      3  C   UNL A   1      37.464  33.173  35.481  1.00  0.00     0.261 C 
BRANCH   3   4
ATOM      4  O   UNL A   1      36.717  33.058  36.711  1.00  0.00    -0.463 OA
BRANCH   4   5
ATOM      5  C   UNL A   1      37.412  33.083  37.876  1.00  0.00     0.305 C 
ATOM      6  O   UNL A   1      38.531  33.568  37.983  1.00  0.00    -0.252 OA
BRANCH   5   7
ATOM      7  C   UNL A   1      36.717  32.376  39.036  1.00  0.00     0.123 C 
BRANCH   7   8
ATOM      8  C   UNL A   1      37.347  32.232  40.425  1.00  0.00     0.022 C 
BRANCH   8   9
ATOM      9  C   UNL A   1      37.412  33.450  41.346  1.00  0.00     0.101 C 
BRANCH   9  10
ATOM     10  C   UNL A   1      38.730  34.212  41.291  1.00  0.00     0.222 C 
ATOM     11  O   UNL A   1      38.826  35.182  40.534  1.00  0.00    -0.275 OA
BRANCH  10  12
ATOM     12  N   UNL A   1      39.781  33.817  42.108  1.00  0.00    -0.342 N 
ATOM     13  C   UNL A   1      37.165  30.409  44.833  1.00  0.00     0.047 A 
ATOM     14  C   UNL A   1      37.779  29.718  43.858  1.00  0.00     0.016 A 
ATOM     15  C   UNL A   1      37.800  31.686  45.314  1.00  0.00     0.258 A 
ATOM     16  C   UNL A   1      39.016  30.162  43.282  1.00  0.00     0.023 A 
ATOM     17  N   UNL A   1      39.019  32.050  44.710  1.00  0.00    -0.311 N 
ATOM     18  O   UNL A   1      37.263  32.354  46.195  1.00  0.00    -0.269 OA
ATOM     19  C   UNL A   1      39.610  31.290  43.701  1.00  0.00     0.026 A 
ATOM     20  C   UNL A   1      39.699  33.223  45.262  1.00  0.00     0.131 C 
ATOM     21  C   UNL A   1      40.882  31.784  43.031  1.00  0.00     0.056 C 
ATOM     22  C   UNL A   1      40.834  33.810  44.410  1.00  0.00     0.029 C 
ATOM     23  C   UNL A   1      41.720  32.661  43.961  1.00  0.00     0.019 C 
ATOM     24  C   UNL A   1      40.508  32.593  41.773  1.00  0.00     0.129 C 
ATOM     25  C   UNL A   1      40.360  34.608  43.183  1.00  0.00     0.125 C 
BRANCH  13  26
ATOM     26  C   UNL A   1      35.905  29.891  45.399  1.00  0.00    -0.013 A 
ATOM     27  C   UNL A   1      33.534  28.798  46.461  1.00  0.00     0.118 A 
ATOM     28  C   UNL A   1      33.505  29.543  45.280  1.00  0.00     0.047 A 
ATOM     29  C   UNL A   1      34.748  28.600  47.114  1.00  0.00     0.047 A 
ATOM     30  C   UNL A   1      34.680  30.097  44.755  1.00  0.00     0.013 A 
ATOM     31  C   UNL A   1      35.923  29.145  46.587  1.00  0.00     0.013 A 
BRANCH  27  32
ATOM     32  O   UNL A   1      32.331  28.282  46.859  1.00  0.00    -0.497 OA
ATOM     33  C   UNL A   1      31.674  27.438  45.919  1.00  0.00     0.278 C 
ENDBRANCH  27  32
ENDBRANCH  13  26
ENDBRANCH  10  12
ENDBRANCH   9  10
ENDBRANCH   8   9
ENDBRANCH   7   8
ENDBRANCH   5   7
ENDBRANCH   4   5
ENDBRANCH   3   4
ENDBRANCH   2   3
ENDBRANCH   1   2
BRANCH   1  34
ATOM     34  C   UNL A   1      34.424  33.927  33.387  1.00  0.00     0.188 C 
BRANCH  34  35
ATOM     35  C   UNL A   1      34.493  35.432  33.068  1.00  0.00     0.188 C 
BRANCH  35  36
ATOM     36  O   UNL A   1      34.108  35.930  31.798  1.00  0.00    -0.376 OA
BRANCH  36  37
ATOM     37  C   UNL A   1      33.294  35.096  30.992  1.00  0.00     0.202 C 
BRANCH  37  38
ATOM     38  C   UNL A   1      33.892  34.566  29.682  1.00  0.00     0.261 C 
BRANCH  38  39
ATOM     39  O   UNL A   1      34.870  33.527  29.865  1.00  0.00    -0.460 OA
BRANCH  39  40
ATOM     40  C   UNL A   1      35.025  32.665  28.818  1.00  0.00     0.338 C 
ATOM     41  O   UNL A   1      34.500  32.735  27.733  1.00  0.00    -0.246 OA
BRANCH  40  42
ATOM     42  C   UNL A   1      36.154  31.745  29.125  1.00  0.00     0.060 A 
ATOM     43  C   UNL A   1      35.900  30.626  29.936  1.00  0.00     0.016 A 
ATOM     44  C   UNL A   1      37.430  31.961  28.606  1.00  0.00     0.016 A 
ATOM     45  C   UNL A   1      36.923  29.724  30.237  1.00  0.00     0.010 A 
ATOM     46  C   UNL A   1      38.460  31.078  28.938  1.00  0.00     0.010 A 
ATOM     47  C   UNL A   1      38.220  29.970  29.773  1.00  0.00    -0.014 A 
BRANCH  47  48
ATOM     48  C   UNL A   1      39.374  29.214  30.315  1.00  0.00     0.031 A 
ATOM     49  C   UNL A   1      40.077  29.776  31.521  1.00  0.00     0.074 A 
ATOM     50  C   UNL A   1      39.834  28.097  29.725  1.00  0.00     0.049 A 
ATOM     51  N   UNL A   1      41.190  29.391  32.088  1.00  0.00    -0.248 NA
ATOM     52  C   UNL A   1      39.438  30.935  32.166  1.00  0.00     0.031 C 
ATOM     53  C   UNL A   1      39.225  27.430  28.577  1.00  0.00     0.029 A 
ATOM     54  N   UNL A   1      40.953  27.348  29.998  1.00  0.00    -0.354 N 
ATOM     55  C   UNL A   1      41.401  30.278  33.135  1.00  0.00     0.074 A 
ATOM     56  C   UNL A   1      40.305  31.221  33.125  1.00  0.00     0.031 C 
ATOM     57  C   UNL A   1      40.003  26.393  28.215  1.00  0.00     0.029 A 
ATOM     58  C   UNL A   1      41.178  26.345  29.084  1.00  0.00     0.049 A 
ATOM     59  H   UNL A   1      41.538  27.514  30.773  1.00  0.00     0.167 HD
ATOM     60  C   UNL A   1      42.414  30.304  34.034  1.00  0.00     0.034 A 
ATOM     61  C   UNL A   1      42.230  25.510  28.947  1.00  0.00     0.034 A 
ATOM     62  C   UNL A   1      43.501  29.367  34.050  1.00  0.00     0.049 A 
ATOM     63  C   UNL A   1      43.381  25.601  29.920  1.00  0.00     0.074 A 
ATOM     64  C   UNL A   1      44.560  29.295  34.938  1.00  0.00     0.029 A 
ATOM     65  N   UNL A   1      43.680  28.348  33.128  1.00  0.00    -0.354 N 
ATOM     66  N   UNL A   1      43.522  26.378  30.968  1.00  0.00    -0.248 NA
ATOM     67  C   UNL A   1      44.511  24.684  29.702  1.00  0.00     0.031 C 
ATOM     68  C   UNL A   1      45.393  28.244  34.538  1.00  0.00     0.029 A 
ATOM     69  C   UNL A   1      44.840  27.649  33.415  1.00  0.00     0.049 A 
ATOM     70  H   UNL A   1      43.072  28.150  32.380  1.00  0.00     0.167 HD
ATOM     71  C   UNL A   1      44.734  26.020  31.552  1.00  0.00     0.074 A 
ATOM     72  C   UNL A   1      45.282  24.945  30.750  1.00  0.00     0.031 C 
ATOM     73  C   UNL A   1      45.346  26.543  32.644  1.00  0.00     0.034 A 
BRANCH  60  74
ATOM     74  C   UNL A   1      42.374  31.378  35.086  1.00  0.00     0.023 A 
ATOM     75  C   UNL A   1      41.862  31.077  36.364  1.00  0.00     0.012 A 
ATOM     76  C   UNL A   1      42.866  32.670  34.821  1.00  0.00     0.148 A 
ATOM     77  C   UNL A   1      41.810  32.057  37.354  1.00  0.00     0.002 A 
ATOM     78  C   UNL A   1      42.850  33.629  35.826  1.00  0.00     0.091 A 
ATOM     79  F   UNL A   1      43.320  32.943  33.590  1.00  0.00    -0.205 F 
ATOM     80  C   UNL A   1      42.312  33.329  37.089  1.00  0.00     0.022 A 
BRANCH  78  81
ATOM     81  S   UNL A   1      43.537  35.273  35.601  1.00  0.00     0.127 S 
ATOM     82  O   UNL A   1      43.533  35.786  36.969  1.00  0.00    -0.237 OA
ATOM     83  O   UNL A   1      44.866  34.981  35.063  1.00  0.00    -0.237 OA
ATOM     84  O   UNL A   1      42.645  35.953  34.671  1.00  0.00    -0.744 OA
ENDBRANCH  78  81
ENDBRANCH  60  74
BRANCH  61  85
ATOM     85  C   UNL A   1      42.242  24.493  27.857  1.00  0.00     0.023 A 
ATOM     86  C   UNL A   1      41.173  23.582  27.756  1.00  0.00     0.012 A 
ATOM     87  C   UNL A   1      43.298  24.419  26.927  1.00  0.00     0.148 A 
ATOM     88  C   UNL A   1      41.168  22.598  26.767  1.00  0.00     0.002 A 
ATOM     89  C   UNL A   1      43.262  23.468  25.912  1.00  0.00     0.091 A 
ATOM     90  F   UNL A   1      44.318  25.278  27.054  1.00  0.00    -0.205 F 
ATOM     91  C   UNL A   1      42.205  22.547  25.839  1.00  0.00     0.022 A 
BRANCH  89  92
ATOM     92  S   UNL A   1      44.501  23.389  24.613  1.00  0.00     0.127 S 
ATOM     93  O   UNL A   1      43.826  22.578  23.604  1.00  0.00    -0.237 OA
ATOM     94  O   UNL A   1      44.662  24.800  24.261  1.00  0.00    -0.237 OA
ATOM     95  O   UNL A   1      45.677  22.784  25.225  1.00  0.00    -0.744 OA
ENDBRANCH  89  92
ENDBRANCH  61  85
BRANCH  73  96
ATOM     96  C   UNL A   1      46.665  25.949  33.071  1.00  0.00     0.023 A 
ATOM     97  C   UNL A   1      47.868  26.567  32.679  1.00  0.00     0.012 A 
ATOM     98  C   UNL A   1      46.709  24.843  33.944  1.00  0.00     0.148 A 
ATOM     99  C   UNL A   1      49.096  26.081  33.129  1.00  0.00     0.002 A 
ATOM    100  C   UNL A   1      47.934  24.390  34.424  1.00  0.00     0.091 A 
ATOM    101  F   UNL A   1      45.554  24.258  34.294  1.00  0.00    -0.205 F 
ATOM    102  C   UNL A   1      49.127  25.002  34.010  1.00  0.00     0.022 A 
BRANCH 100 103
ATOM    103  S   UNL A   1      48.069  23.070  35.636  1.00  0.00     0.127 S 
ATOM    104  O   UNL A   1      47.262  23.593  36.737  1.00  0.00    -0.237 OA
ATOM    105  O   UNL A   1      47.472  21.936  34.928  1.00  0.00    -0.237 OA
ATOM    106  O   UNL A   1      49.490  22.926  35.918  1.00  0.00    -0.744 OA
ENDBRANCH 100 103
ENDBRANCH  73  96
ENDBRANCH  47  48
ENDBRANCH  40  42
ENDBRANCH  39  40
ENDBRANCH  38  39
ENDBRANCH  37  38
ENDBRANCH  36  37
ENDBRANCH  35  36
ENDBRANCH  34  35
ENDBRANCH   1  34
TORSDOF 26
ENDMDL
