MODEL 1
REMARK VINA RESULT:     -10.2      0.000      0.000
REMARK SMILES COc1ccccc1-n1nnc(C(=O)OCCOCCOCCOC(=O)c2ccc(-c3c4nc(c(-c5cccc(S(=O)(=O)[O-])c5F)c5ccc([nH]5)c(-c5cccc(S(=O)(=O)[O-])c5F)c5nc(c(-c6cccc(S(=O)(=O)[O-])c6F)c6ccc3[nH]6)C=C5)C=C4)cc2)c1-c1ccc(Cl)cc1
REMARK SMILES IDX 20 1 19 2 18 3 17 4 16 5 15 6 13 7 14 8 12 9 9 10 10 11
REMARK SMILES IDX 90 12 11 13 8 14 3 15 4 16 5 17 7 18 6 19 2 20 1 21 91 22
REMARK SMILES IDX 92 23 97 24 93 25 96 26 94 27 95 28 21 29 22 30 23 31 24 32
REMARK SMILES IDX 25 33 26 34 27 35 28 36 89 37 29 38 88 39 30 40 31 41 32 42
REMARK SMILES IDX 82 43 33 44 87 45 81 46 83 47 34 48 86 49 80 50 79 51 35 53
REMARK SMILES IDX 67 54 47 55 66 56 48 57 51 58 65 59 84 60 49 61 50 62 64 64
REMARK SMILES IDX 85 65 52 66 36 67 37 68 45 69 38 70 40 71 46 72 39 73 41 74
REMARK SMILES IDX 42 75 43 76 44 77 68 78 69 79 77 80 70 81 72 82 78 83 71 84
REMARK SMILES IDX 73 85 74 86 75 87 76 88 53 89 54 90 62 91 55 92 57 93 63 94
REMARK SMILES IDX 56 95 58 96 59 97 60 98 61 99
REMARK H PARENT 83 52 51 63
REMARK Flexibility Score: inf
ROOT
ATOM      1  C   UNL A   1      36.562  21.142  24.807  1.00  0.00     0.188 C 
ENDROOT
BRANCH   1   2
ATOM      2  C   UNL A   1      35.207  21.249  25.542  1.00  0.00     0.188 C 
BRANCH   2   3
ATOM      3  O   UNL A   1      35.181  21.498  26.942  1.00  0.00    -0.376 OA
BRANCH   3   4
ATOM      4  C   UNL A   1      33.929  21.606  27.614  1.00  0.00     0.202 C 
BRANCH   4   5
ATOM      5  C   UNL A   1      32.736  22.222  26.863  1.00  0.00     0.261 C 
BRANCH   5   6
ATOM      6  O   UNL A   1      32.572  23.630  27.101  1.00  0.00    -0.458 OA
BRANCH   6   7
ATOM      7  C   UNL A   1      33.094  24.488  26.171  1.00  0.00     0.361 C 
ATOM      8  O   UNL A   1      34.277  24.584  25.914  1.00  0.00    -0.244 OA
BRANCH   7   9
ATOM      9  C   UNL A   1      32.057  25.209  25.436  1.00  0.00     0.198 A 
ATOM     10  N   UNL A   1      30.745  26.632  24.453  1.00  0.00    -0.208 N 
ATOM     11  N   UNL A   1      30.193  25.412  24.289  1.00  0.00    -0.061 NA
ATOM     12  C   UNL A   1      31.796  26.572  25.359  1.00  0.00     0.109 A 
ATOM     13  N   UNL A   1      31.052  24.527  24.778  1.00  0.00    -0.122 NA
BRANCH  10  14
ATOM     14  C   UNL A   1      30.439  27.677  23.563  1.00  0.00     0.109 A 
ATOM     15  C   UNL A   1      31.413  28.129  22.663  1.00  0.00     0.144 A 
ATOM     16  C   UNL A   1      31.170  29.268  21.902  1.00  0.00     0.049 A 
ATOM     17  C   UNL A   1      29.937  29.916  21.995  1.00  0.00     0.004 A 
ATOM     18  C   UNL A   1      29.176  28.278  23.612  1.00  0.00     0.032 A 
ATOM     19  C   UNL A   1      28.937  29.412  22.833  1.00  0.00     0.003 A 
BRANCH  15  20
ATOM     20  O   UNL A   1      32.626  27.514  22.489  1.00  0.00    -0.494 OA
ATOM     21  C   UNL A   1      33.708  28.453  22.503  1.00  0.00     0.278 C 
ENDBRANCH  15  20
ENDBRANCH  10  14
BRANCH  12  22
ATOM     22  C   UNL A   1      32.388  27.747  25.997  1.00  0.00     0.003 A 
ATOM     23  C   UNL A   1      31.584  28.696  26.636  1.00  0.00     0.012 A 
ATOM     24  C   UNL A   1      33.779  27.949  25.962  1.00  0.00     0.012 A 
ATOM     25  C   UNL A   1      32.153  29.829  27.221  1.00  0.00     0.021 A 
ATOM     26  C   UNL A   1      34.352  29.080  26.553  1.00  0.00     0.021 A 
ATOM     27  C   UNL A   1      33.534  30.017  27.176  1.00  0.00     0.041 A 
ATOM     28  Cl  UNL A   1      34.229  31.415  27.898  1.00  0.00    -0.084 Cl
ENDBRANCH  12  22
ENDBRANCH   7   9
ENDBRANCH   6   7
ENDBRANCH   5   6
ENDBRANCH   4   5
ENDBRANCH   3   4
ENDBRANCH   2   3
ENDBRANCH   1   2
BRANCH   1  29
ATOM     29  O   UNL A   1      37.341  22.330  24.820  1.00  0.00    -0.376 OA
BRANCH  29  30
ATOM     30  C   UNL A   1      38.405  22.419  25.762  1.00  0.00     0.202 C 
BRANCH  30  31
ATOM     31  C   UNL A   1      38.668  23.781  26.407  1.00  0.00     0.261 C 
BRANCH  31  32
ATOM     32  O   UNL A   1      40.015  24.203  26.314  1.00  0.00    -0.460 OA
BRANCH  32  33
ATOM     33  C   UNL A   1      40.550  24.684  27.451  1.00  0.00     0.338 C 
ATOM     34  O   UNL A   1      41.490  24.218  28.074  1.00  0.00    -0.246 OA
BRANCH  33  35
ATOM     35  C   UNL A   1      39.802  25.889  27.827  1.00  0.00     0.060 A 
ATOM     36  C   UNL A   1      40.166  27.064  27.171  1.00  0.00     0.016 A 
ATOM     37  C   UNL A   1      39.080  25.883  29.030  1.00  0.00     0.016 A 
ATOM     38  C   UNL A   1      40.134  28.222  27.903  1.00  0.00     0.010 A 
ATOM     39  C   UNL A   1      39.072  27.032  29.770  1.00  0.00     0.010 A 
ATOM     40  C   UNL A   1      39.723  28.139  29.237  1.00  0.00    -0.014 A 
BRANCH  40  41
ATOM     41  C   UNL A   1      40.126  29.212  30.109  1.00  0.00     0.031 A 
ATOM     42  C   UNL A   1      39.025  30.085  30.531  1.00  0.00     0.074 A 
ATOM     43  C   UNL A   1      41.402  29.323  30.522  1.00  0.00     0.049 A 
ATOM     44  N   UNL A   1      38.849  31.328  30.234  1.00  0.00    -0.248 NA
ATOM     45  C   UNL A   1      37.907  29.451  31.242  1.00  0.00     0.031 C 
ATOM     46  C   UNL A   1      42.477  28.330  30.394  1.00  0.00     0.029 A 
ATOM     47  N   UNL A   1      41.961  30.295  31.289  1.00  0.00    -0.354 N 
ATOM     48  C   UNL A   1      37.701  31.692  30.923  1.00  0.00     0.074 A 
ATOM     49  C   UNL A   1      37.060  30.474  31.345  1.00  0.00     0.031 C 
ATOM     50  C   UNL A   1      43.453  28.631  31.279  1.00  0.00     0.029 A 
ATOM     51  C   UNL A   1      43.121  29.887  31.931  1.00  0.00     0.049 A 
ATOM     52  H   UNL A   1      41.580  31.198  31.381  1.00  0.00     0.167 HD
ATOM     53  C   UNL A   1      37.501  32.968  31.337  1.00  0.00     0.034 A 
ATOM     54  C   UNL A   1      43.690  30.486  33.003  1.00  0.00     0.034 A 
ATOM     55  C   UNL A   1      38.358  33.904  30.659  1.00  0.00     0.049 A 
ATOM     56  C   UNL A   1      43.154  31.866  33.085  1.00  0.00     0.074 A 
ATOM     57  C   UNL A   1      38.558  34.267  29.343  1.00  0.00     0.029 A 
ATOM     58  N   UNL A   1      39.440  34.380  31.357  1.00  0.00    -0.354 N 
ATOM     59  N   UNL A   1      43.414  32.802  32.215  1.00  0.00    -0.248 NA
ATOM     60  C   UNL A   1      41.988  32.105  33.923  1.00  0.00     0.031 C 
ATOM     61  C   UNL A   1      39.946  34.569  29.245  1.00  0.00     0.029 A 
ATOM     62  C   UNL A   1      40.515  34.388  30.508  1.00  0.00     0.049 A 
ATOM     63  H   UNL A   1      39.443  34.663  32.300  1.00  0.00     0.167 HD
ATOM     64  C   UNL A   1      42.227  33.514  32.096  1.00  0.00     0.074 A 
ATOM     65  C   UNL A   1      41.437  33.125  33.261  1.00  0.00     0.031 C 
ATOM     66  C   UNL A   1      41.878  34.118  30.919  1.00  0.00     0.034 A 
BRANCH  53  67
ATOM     67  C   UNL A   1      36.779  33.320  32.608  1.00  0.00     0.023 A 
ATOM     68  C   UNL A   1      35.659  34.167  32.507  1.00  0.00     0.012 A 
ATOM     69  C   UNL A   1      37.284  33.066  33.904  1.00  0.00     0.148 A 
ATOM     70  C   UNL A   1      35.084  34.752  33.640  1.00  0.00     0.002 A 
ATOM     71  C   UNL A   1      36.650  33.569  35.032  1.00  0.00     0.091 A 
ATOM     72  F   UNL A   1      38.464  32.456  34.063  1.00  0.00    -0.205 F 
ATOM     73  C   UNL A   1      35.567  34.438  34.905  1.00  0.00     0.022 A 
BRANCH  71  74
ATOM     74  S   UNL A   1      37.206  33.109  36.675  1.00  0.00     0.127 S 
ATOM     75  O   UNL A   1      37.534  31.699  36.493  1.00  0.00    -0.237 OA
ATOM     76  O   UNL A   1      38.355  33.994  36.870  1.00  0.00    -0.237 OA
ATOM     77  O   UNL A   1      36.077  33.407  37.549  1.00  0.00    -0.744 OA
ENDBRANCH  71  74
ENDBRANCH  53  67
BRANCH  54  78
ATOM     78  C   UNL A   1      44.450  29.854  34.102  1.00  0.00     0.023 A 
ATOM     79  C   UNL A   1      45.673  30.409  34.519  1.00  0.00     0.012 A 
ATOM     80  C   UNL A   1      43.872  28.836  34.898  1.00  0.00     0.148 A 
ATOM     81  C   UNL A   1      46.295  29.974  35.695  1.00  0.00     0.002 A 
ATOM     82  C   UNL A   1      44.505  28.390  36.052  1.00  0.00     0.091 A 
ATOM     83  F   UNL A   1      42.660  28.367  34.570  1.00  0.00    -0.205 F 
ATOM     84  C   UNL A   1      45.714  28.965  36.460  1.00  0.00     0.022 A 
BRANCH  82  85
ATOM     85  S   UNL A   1      43.813  27.088  37.081  1.00  0.00     0.127 S 
ATOM     86  O   UNL A   1      42.395  27.445  37.110  1.00  0.00    -0.237 OA
ATOM     87  O   UNL A   1      44.127  25.890  36.307  1.00  0.00    -0.237 OA
ATOM     88  O   UNL A   1      44.482  27.203  38.371  1.00  0.00    -0.744 OA
ENDBRANCH  82  85
ENDBRANCH  54  78
BRANCH  66  89
ATOM     89  C   UNL A   1      42.930  34.227  29.839  1.00  0.00     0.023 A 
ATOM     90  C   UNL A   1      43.766  35.359  29.735  1.00  0.00     0.012 A 
ATOM     91  C   UNL A   1      43.210  33.104  29.040  1.00  0.00     0.148 A 
ATOM     92  C   UNL A   1      44.835  35.385  28.836  1.00  0.00     0.002 A 
ATOM     93  C   UNL A   1      44.303  33.116  28.180  1.00  0.00     0.091 A 
ATOM     94  F   UNL A   1      42.417  32.028  29.156  1.00  0.00    -0.205 F 
ATOM     95  C   UNL A   1      45.112  34.258  28.068  1.00  0.00     0.022 A 
BRANCH  93  96
ATOM     96  S   UNL A   1      44.796  31.651  27.266  1.00  0.00     0.127 S 
ATOM     97  O   UNL A   1      43.709  31.510  26.300  1.00  0.00    -0.237 OA
ATOM     98  O   UNL A   1      46.080  32.054  26.687  1.00  0.00    -0.237 OA
ATOM     99  O   UNL A   1      44.905  30.585  28.255  1.00  0.00    -0.744 OA
ENDBRANCH  93  96
ENDBRANCH  66  89
ENDBRANCH  40  41
ENDBRANCH  33  35
ENDBRANCH  32  33
ENDBRANCH  31  32
ENDBRANCH  30  31
ENDBRANCH  29  30
ENDBRANCH   1  29
TORSDOF 23
ENDMDL
MODEL 2
REMARK VINA RESULT:      -9.9      3.783      8.649
REMARK SMILES COc1ccccc1-n1nnc(C(=O)OCCOCCOCCOC(=O)c2ccc(-c3c4nc(c(-c5cccc(S(=O)(=O)[O-])c5F)c5ccc([nH]5)c(-c5cccc(S(=O)(=O)[O-])c5F)c5nc(c(-c6cccc(S(=O)(=O)[O-])c6F)c6ccc3[nH]6)C=C5)C=C4)cc2)c1-c1ccc(Cl)cc1
REMARK SMILES IDX 20 1 19 2 18 3 17 4 16 5 15 6 13 7 14 8 12 9 9 10 10 11
REMARK SMILES IDX 90 12 11 13 8 14 3 15 4 16 5 17 7 18 6 19 2 20 1 21 91 22
REMARK SMILES IDX 92 23 97 24 93 25 96 26 94 27 95 28 21 29 22 30 23 31 24 32
REMARK SMILES IDX 25 33 26 34 27 35 28 36 89 37 29 38 88 39 30 40 31 41 32 42
REMARK SMILES IDX 82 43 33 44 87 45 81 46 83 47 34 48 86 49 80 50 79 51 35 53
REMARK SMILES IDX 67 54 47 55 66 56 48 57 51 58 65 59 84 60 49 61 50 62 64 64
REMARK SMILES IDX 85 65 52 66 36 67 37 68 45 69 38 70 40 71 46 72 39 73 41 74
REMARK SMILES IDX 42 75 43 76 44 77 68 78 69 79 77 80 70 81 72 82 78 83 71 84
REMARK SMILES IDX 73 85 74 86 75 87 76 88 53 89 54 90 62 91 55 92 57 93 63 94
REMARK SMILES IDX 56 95 58 96 59 97 60 98 61 99
REMARK H PARENT 83 52 51 63
REMARK Flexibility Score: inf
ROOT
ATOM      1  C   UNL A   1      42.183  19.508  26.240  1.00  0.00     0.188 C 
ENDROOT
BRANCH   1   2
ATOM      2  C   UNL A   1      40.717  19.984  26.122  1.00  0.00     0.188 C 
BRANCH   2   3
ATOM      3  O   UNL A   1      40.436  21.367  25.945  1.00  0.00    -0.376 OA
BRANCH   3   4
ATOM      4  C   UNL A   1      39.336  21.955  26.632  1.00  0.00     0.202 C 
BRANCH   4   5
ATOM      5  C   UNL A   1      38.777  23.296  26.125  1.00  0.00     0.261 C 
BRANCH   5   6
ATOM      6  O   UNL A   1      37.769  23.152  25.110  1.00  0.00    -0.458 OA
BRANCH   6   7
ATOM      7  C   UNL A   1      36.669  22.401  25.420  1.00  0.00     0.361 C 
ATOM      8  O   UNL A   1      36.705  21.232  25.745  1.00  0.00    -0.244 OA
BRANCH   7   9
ATOM      9  C   UNL A   1      35.439  23.191  25.422  1.00  0.00     0.198 A 
ATOM     10  N   UNL A   1      33.422  23.988  25.328  1.00  0.00    -0.208 N 
ATOM     11  N   UNL A   1      34.244  25.028  25.581  1.00  0.00    -0.061 NA
ATOM     12  C   UNL A   1      34.159  22.858  24.998  1.00  0.00     0.109 A 
ATOM     13  N   UNL A   1      35.459  24.530  25.764  1.00  0.00    -0.122 NA
BRANCH  10  14
ATOM     14  C   UNL A   1      32.062  24.054  25.677  1.00  0.00     0.109 A 
ATOM     15  C   UNL A   1      31.259  25.073  25.146  1.00  0.00     0.144 A 
ATOM     16  C   UNL A   1      29.961  25.241  25.618  1.00  0.00     0.049 A 
ATOM     17  C   UNL A   1      29.448  24.358  26.571  1.00  0.00     0.004 A 
ATOM     18  C   UNL A   1      31.535  23.124  26.579  1.00  0.00     0.032 A 
ATOM     19  C   UNL A   1      30.225  23.293  27.036  1.00  0.00     0.003 A 
BRANCH  15  20
ATOM     20  O   UNL A   1      31.684  25.944  24.176  1.00  0.00    -0.494 OA
ATOM     21  C   UNL A   1      31.124  25.632  22.895  1.00  0.00     0.278 C 
ENDBRANCH  15  20
ENDBRANCH  10  14
BRANCH  12  22
ATOM     22  C   UNL A   1      33.586  21.671  24.363  1.00  0.00     0.003 A 
ATOM     23  C   UNL A   1      33.792  20.399  24.905  1.00  0.00     0.012 A 
ATOM     24  C   UNL A   1      32.829  21.793  23.184  1.00  0.00     0.012 A 
ATOM     25  C   UNL A   1      33.263  19.268  24.279  1.00  0.00     0.021 A 
ATOM     26  C   UNL A   1      32.294  20.662  22.559  1.00  0.00     0.021 A 
ATOM     27  C   UNL A   1      32.518  19.404  23.109  1.00  0.00     0.041 A 
ATOM     28  Cl  UNL A   1      31.871  18.007  22.342  1.00  0.00    -0.084 Cl
ENDBRANCH  12  22
ENDBRANCH   7   9
ENDBRANCH   6   7
ENDBRANCH   5   6
ENDBRANCH   4   5
ENDBRANCH   3   4
ENDBRANCH   2   3
ENDBRANCH   1   2
BRANCH   1  29
ATOM     29  O   UNL A   1      42.742  19.001  25.037  1.00  0.00    -0.376 OA
BRANCH  29  30
ATOM     30  C   UNL A   1      44.150  18.799  24.989  1.00  0.00     0.202 C 
BRANCH  30  31
ATOM     31  C   UNL A   1      44.926  19.473  23.855  1.00  0.00     0.261 C 
BRANCH  31  32
ATOM     32  O   UNL A   1      44.574  20.827  23.652  1.00  0.00    -0.460 OA
BRANCH  32  33
ATOM     33  C   UNL A   1      45.111  21.702  24.522  1.00  0.00     0.338 C 
ATOM     34  O   UNL A   1      46.297  21.915  24.710  1.00  0.00    -0.246 OA
BRANCH  33  35
ATOM     35  C   UNL A   1      44.010  22.372  25.224  1.00  0.00     0.060 A 
ATOM     36  C   UNL A   1      43.425  23.447  24.556  1.00  0.00     0.016 A 
ATOM     37  C   UNL A   1      43.873  22.171  26.605  1.00  0.00     0.016 A 
ATOM     38  C   UNL A   1      43.020  24.510  25.320  1.00  0.00     0.010 A 
ATOM     39  C   UNL A   1      43.495  23.241  27.367  1.00  0.00     0.010 A 
ATOM     40  C   UNL A   1      43.208  24.428  26.703  1.00  0.00    -0.014 A 
BRANCH  40  41
ATOM     41  C   UNL A   1      43.230  25.671  27.431  1.00  0.00     0.031 A 
ATOM     42  C   UNL A   1      44.464  26.446  27.254  1.00  0.00     0.074 A 
ATOM     43  C   UNL A   1      42.163  26.071  28.145  1.00  0.00     0.049 A 
ATOM     44  N   UNL A   1      45.356  26.716  28.144  1.00  0.00    -0.248 NA
ATOM     45  C   UNL A   1      44.818  26.832  25.882  1.00  0.00     0.031 C 
ATOM     46  C   UNL A   1      40.805  25.510  28.121  1.00  0.00     0.029 A 
ATOM     47  N   UNL A   1      42.034  27.172  28.929  1.00  0.00    -0.354 N 
ATOM     48  C   UNL A   1      46.280  27.513  27.482  1.00  0.00     0.074 A 
ATOM     49  C   UNL A   1      46.016  27.379  26.073  1.00  0.00     0.031 C 
ATOM     50  C   UNL A   1      39.950  26.422  28.633  1.00  0.00     0.029 A 
ATOM     51  C   UNL A   1      40.716  27.557  29.123  1.00  0.00     0.049 A 
ATOM     52  H   UNL A   1      42.801  27.651  29.320  1.00  0.00     0.167 HD
ATOM     53  C   UNL A   1      47.017  28.439  28.145  1.00  0.00     0.034 A 
ATOM     54  C   UNL A   1      40.295  28.773  29.542  1.00  0.00     0.034 A 
ATOM     55  C   UNL A   1      47.025  28.216  29.566  1.00  0.00     0.049 A 
ATOM     56  C   UNL A   1      41.446  29.451  30.187  1.00  0.00     0.074 A 
ATOM     57  C   UNL A   1      47.421  27.182  30.389  1.00  0.00     0.029 A 
ATOM     58  N   UNL A   1      46.231  29.034  30.332  1.00  0.00    -0.354 N 
ATOM     59  N   UNL A   1      41.982  29.065  31.311  1.00  0.00    -0.248 NA
ATOM     60  C   UNL A   1      42.274  30.328  29.374  1.00  0.00     0.031 C 
ATOM     61  C   UNL A   1      46.506  27.202  31.481  1.00  0.00     0.029 A 
ATOM     62  C   UNL A   1      45.612  28.254  31.272  1.00  0.00     0.049 A 
ATOM     63  H   UNL A   1      46.125  30.007  30.224  1.00  0.00     0.167 HD
ATOM     64  C   UNL A   1      43.344  29.283  31.146  1.00  0.00     0.074 A 
ATOM     65  C   UNL A   1      43.445  30.179  29.998  1.00  0.00     0.031 C 
ATOM     66  C   UNL A   1      44.269  28.487  31.764  1.00  0.00     0.034 A 
BRANCH  53  67
ATOM     67  C   UNL A   1      47.435  29.749  27.537  1.00  0.00     0.023 A 
ATOM     68  C   UNL A   1      48.810  30.051  27.525  1.00  0.00     0.012 A 
ATOM     69  C   UNL A   1      46.540  30.793  27.207  1.00  0.00     0.148 A 
ATOM     70  C   UNL A   1      49.270  31.336  27.222  1.00  0.00     0.002 A 
ATOM     71  C   UNL A   1      47.007  32.039  26.811  1.00  0.00     0.091 A 
ATOM     72  F   UNL A   1      45.226  30.646  27.408  1.00  0.00    -0.205 F 
ATOM     73  C   UNL A   1      48.370  32.326  26.846  1.00  0.00     0.022 A 
BRANCH  71  74
ATOM     74  S   UNL A   1      45.867  33.303  26.242  1.00  0.00     0.127 S 
ATOM     75  O   UNL A   1      46.766  34.226  25.556  1.00  0.00    -0.237 OA
ATOM     76  O   UNL A   1      44.973  32.542  25.368  1.00  0.00    -0.237 OA
ATOM     77  O   UNL A   1      45.225  33.801  27.454  1.00  0.00    -0.744 OA
ENDBRANCH  71  74
ENDBRANCH  53  67
BRANCH  54  78
ATOM     78  C   UNL A   1      39.049  29.481  29.177  1.00  0.00     0.023 A 
ATOM     79  C   UNL A   1      38.443  29.237  27.932  1.00  0.00     0.012 A 
ATOM     80  C   UNL A   1      38.328  30.230  30.137  1.00  0.00     0.148 A 
ATOM     81  C   UNL A   1      37.156  29.713  27.655  1.00  0.00     0.002 A 
ATOM     82  C   UNL A   1      37.059  30.720  29.849  1.00  0.00     0.091 A 
ATOM     83  F   UNL A   1      38.848  30.386  31.362  1.00  0.00    -0.205 F 
ATOM     84  C   UNL A   1      36.465  30.454  28.610  1.00  0.00     0.022 A 
BRANCH  82  85
ATOM     85  S   UNL A   1      36.115  31.690  31.034  1.00  0.00     0.127 S 
ATOM     86  O   UNL A   1      37.024  32.803  31.308  1.00  0.00    -0.237 OA
ATOM     87  O   UNL A   1      34.929  32.044  30.260  1.00  0.00    -0.237 OA
ATOM     88  O   UNL A   1      35.890  30.811  32.176  1.00  0.00    -0.744 OA
ENDBRANCH  82  85
ENDBRANCH  54  78
BRANCH  66  89
ATOM     89  C   UNL A   1      43.785  27.542  32.841  1.00  0.00     0.023 A 
ATOM     90  C   UNL A   1      43.945  26.145  32.723  1.00  0.00     0.012 A 
ATOM     91  C   UNL A   1      43.337  28.070  34.064  1.00  0.00     0.148 A 
ATOM     92  C   UNL A   1      43.638  25.293  33.786  1.00  0.00     0.002 A 
ATOM     93  C   UNL A   1      43.077  27.222  35.137  1.00  0.00     0.091 A 
ATOM     94  F   UNL A   1      43.201  29.401  34.171  1.00  0.00    -0.205 F 
ATOM     95  C   UNL A   1      43.218  25.833  34.998  1.00  0.00     0.022 A 
BRANCH  93  96
ATOM     96  S   UNL A   1      42.666  27.862  36.763  1.00  0.00     0.127 S 
ATOM     97  O   UNL A   1      43.011  26.740  37.632  1.00  0.00    -0.237 OA
ATOM     98  O   UNL A   1      43.552  29.022  36.883  1.00  0.00    -0.237 OA
ATOM     99  O   UNL A   1      41.250  28.205  36.707  1.00  0.00    -0.744 OA
ENDBRANCH  93  96
ENDBRANCH  66  89
ENDBRANCH  40  41
ENDBRANCH  33  35
ENDBRANCH  32  33
ENDBRANCH  31  32
ENDBRANCH  30  31
ENDBRANCH  29  30
ENDBRANCH   1  29
TORSDOF 23
ENDMDL
MODEL 3
REMARK VINA RESULT:      -9.8      3.900      9.016
REMARK SMILES COc1ccccc1-n1nnc(C(=O)OCCOCCOCCOC(=O)c2ccc(-c3c4nc(c(-c5cccc(S(=O)(=O)[O-])c5F)c5ccc([nH]5)c(-c5cccc(S(=O)(=O)[O-])c5F)c5nc(c(-c6cccc(S(=O)(=O)[O-])c6F)c6ccc3[nH]6)C=C5)C=C4)cc2)c1-c1ccc(Cl)cc1
REMARK SMILES IDX 20 1 19 2 18 3 17 4 16 5 15 6 13 7 14 8 12 9 9 10 10 11
REMARK SMILES IDX 90 12 11 13 8 14 3 15 4 16 5 17 7 18 6 19 2 20 1 21 91 22
REMARK SMILES IDX 92 23 97 24 93 25 96 26 94 27 95 28 21 29 22 30 23 31 24 32
REMARK SMILES IDX 25 33 26 34 27 35 28 36 89 37 29 38 88 39 30 40 31 41 32 42
REMARK SMILES IDX 82 43 33 44 87 45 81 46 83 47 34 48 86 49 80 50 79 51 35 53
REMARK SMILES IDX 67 54 47 55 66 56 48 57 51 58 65 59 84 60 49 61 50 62 64 64
REMARK SMILES IDX 85 65 52 66 36 67 37 68 45 69 38 70 40 71 46 72 39 73 41 74
REMARK SMILES IDX 42 75 43 76 44 77 68 78 69 79 77 80 70 81 72 82 78 83 71 84
REMARK SMILES IDX 73 85 74 86 75 87 76 88 53 89 54 90 62 91 55 92 57 93 63 94
REMARK SMILES IDX 56 95 58 96 59 97 60 98 61 99
REMARK H PARENT 83 52 51 63
REMARK Flexibility Score: inf
ROOT
ATOM      1  C   UNL A   1      42.285  18.858  26.516  1.00  0.00     0.188 C 
ENDROOT
BRANCH   1   2
ATOM      2  C   UNL A   1      41.026  19.620  26.042  1.00  0.00     0.188 C 
BRANCH   2   3
ATOM      3  O   UNL A   1      41.023  21.042  26.032  1.00  0.00    -0.376 OA
BRANCH   3   4
ATOM      4  C   UNL A   1      40.142  21.750  26.899  1.00  0.00     0.202 C 
BRANCH   4   5
ATOM      5  C   UNL A   1      39.412  22.992  26.358  1.00  0.00     0.261 C 
BRANCH   5   6
ATOM      6  O   UNL A   1      37.979  22.891  26.422  1.00  0.00    -0.458 OA
BRANCH   6   7
ATOM      7  C   UNL A   1      37.304  22.788  25.237  1.00  0.00     0.361 C 
ATOM      8  O   UNL A   1      37.348  23.614  24.348  1.00  0.00    -0.244 OA
BRANCH   7   9
ATOM      9  C   UNL A   1      36.599  21.514  25.107  1.00  0.00     0.198 A 
ATOM     10  N   UNL A   1      35.196  19.869  24.920  1.00  0.00    -0.208 N 
ATOM     11  N   UNL A   1      36.430  19.327  24.975  1.00  0.00    -0.061 NA
ATOM     12  C   UNL A   1      35.246  21.223  25.225  1.00  0.00     0.109 A 
ATOM     13  N   UNL A   1      37.297  20.331  24.963  1.00  0.00    -0.122 NA
BRANCH  10  14
ATOM     14  C   UNL A   1      34.135  19.162  24.327  1.00  0.00     0.109 A 
ATOM     15  C   UNL A   1      34.011  17.783  24.548  1.00  0.00     0.144 A 
ATOM     16  C   UNL A   1      33.067  17.055  23.832  1.00  0.00     0.049 A 
ATOM     17  C   UNL A   1      32.210  17.709  22.945  1.00  0.00     0.004 A 
ATOM     18  C   UNL A   1      33.236  19.836  23.493  1.00  0.00     0.032 A 
ATOM     19  C   UNL A   1      32.282  19.097  22.790  1.00  0.00     0.003 A 
BRANCH  15  20
ATOM     20  O   UNL A   1      34.788  17.088  25.438  1.00  0.00    -0.494 OA
ATOM     21  C   UNL A   1      34.905  15.706  25.077  1.00  0.00     0.278 C 
ENDBRANCH  15  20
ENDBRANCH  10  14
BRANCH  12  22
ATOM     22  C   UNL A   1      34.070  22.023  25.567  1.00  0.00     0.003 A 
ATOM     23  C   UNL A   1      33.445  21.882  26.810  1.00  0.00     0.012 A 
ATOM     24  C   UNL A   1      33.539  22.938  24.640  1.00  0.00     0.012 A 
ATOM     25  C   UNL A   1      32.308  22.631  27.120  1.00  0.00     0.021 A 
ATOM     26  C   UNL A   1      32.405  23.693  24.951  1.00  0.00     0.021 A 
ATOM     27  C   UNL A   1      31.792  23.532  26.190  1.00  0.00     0.041 A 
ATOM     28  Cl  UNL A   1      30.390  24.450  26.577  1.00  0.00    -0.084 Cl
ENDBRANCH  12  22
ENDBRANCH   7   9
ENDBRANCH   6   7
ENDBRANCH   5   6
ENDBRANCH   4   5
ENDBRANCH   3   4
ENDBRANCH   2   3
ENDBRANCH   1   2
BRANCH   1  29
ATOM     29  O   UNL A   1      43.100  18.350  25.470  1.00  0.00    -0.376 OA
BRANCH  29  30
ATOM     30  C   UNL A   1      44.438  18.828  25.375  1.00  0.00     0.202 C 
BRANCH  30  31
ATOM     31  C   UNL A   1      44.897  19.389  24.028  1.00  0.00     0.261 C 
BRANCH  31  32
ATOM     32  O   UNL A   1      44.508  20.731  23.808  1.00  0.00    -0.460 OA
BRANCH  32  33
ATOM     33  C   UNL A   1      45.098  21.642  24.603  1.00  0.00     0.338 C 
ATOM     34  O   UNL A   1      46.294  21.847  24.722  1.00  0.00    -0.246 OA
BRANCH  33  35
ATOM     35  C   UNL A   1      44.041  22.365  25.320  1.00  0.00     0.060 A 
ATOM     36  C   UNL A   1      43.508  23.475  24.665  1.00  0.00     0.016 A 
ATOM     37  C   UNL A   1      43.906  22.160  26.701  1.00  0.00     0.016 A 
ATOM     38  C   UNL A   1      43.167  24.552  25.441  1.00  0.00     0.010 A 
ATOM     39  C   UNL A   1      43.592  23.243  27.475  1.00  0.00     0.010 A 
ATOM     40  C   UNL A   1      43.363  24.449  26.821  1.00  0.00    -0.014 A 
BRANCH  40  41
ATOM     41  C   UNL A   1      43.459  25.683  27.558  1.00  0.00     0.031 A 
ATOM     42  C   UNL A   1      44.712  26.414  27.341  1.00  0.00     0.074 A 
ATOM     43  C   UNL A   1      42.435  26.114  28.317  1.00  0.00     0.049 A 
ATOM     44  N   UNL A   1      45.648  26.643  28.199  1.00  0.00    -0.248 NA
ATOM     45  C   UNL A   1      45.028  26.801  25.959  1.00  0.00     0.031 C 
ATOM     46  C   UNL A   1      41.058  25.604  28.340  1.00  0.00     0.029 A 
ATOM     47  N   UNL A   1      42.376  27.212  29.115  1.00  0.00    -0.354 N 
ATOM     48  C   UNL A   1      46.573  27.413  27.508  1.00  0.00     0.074 A 
ATOM     49  C   UNL A   1      46.252  27.302  26.109  1.00  0.00     0.031 C 
ATOM     50  C   UNL A   1      40.256  26.541  28.893  1.00  0.00     0.029 A 
ATOM     51  C   UNL A   1      41.081  27.642  29.362  1.00  0.00     0.049 A 
ATOM     52  H   UNL A   1      43.174  27.659  29.480  1.00  0.00     0.167 HD
ATOM     53  C   UNL A   1      47.369  28.305  28.150  1.00  0.00     0.034 A 
ATOM     54  C   UNL A   1      40.722  28.869  29.807  1.00  0.00     0.034 A 
ATOM     55  C   UNL A   1      47.423  28.069  29.568  1.00  0.00     0.049 A 
ATOM     56  C   UNL A   1      41.920  29.498  30.413  1.00  0.00     0.074 A 
ATOM     57  C   UNL A   1      47.812  27.013  30.366  1.00  0.00     0.029 A 
ATOM     58  N   UNL A   1      46.689  28.907  30.370  1.00  0.00    -0.354 N 
ATOM     59  N   UNL A   1      42.484  29.082  31.512  1.00  0.00    -0.248 NA
ATOM     60  C   UNL A   1      42.749  30.353  29.576  1.00  0.00     0.031 C 
ATOM     61  C   UNL A   1      46.941  27.054  31.493  1.00  0.00     0.029 A 
ATOM     62  C   UNL A   1      46.078  28.141  31.327  1.00  0.00     0.049 A 
ATOM     63  H   UNL A   1      46.615  29.884  30.274  1.00  0.00     0.167 HD
ATOM     64  C   UNL A   1      43.847  29.252  31.297  1.00  0.00     0.074 A 
ATOM     65  C   UNL A   1      43.936  30.155  30.153  1.00  0.00     0.031 C 
ATOM     66  C   UNL A   1      44.764  28.417  31.873  1.00  0.00     0.034 A 
BRANCH  53  67
ATOM     67  C   UNL A   1      47.811  29.605  27.537  1.00  0.00     0.023 A 
ATOM     68  C   UNL A   1      49.191  29.788  27.326  1.00  0.00     0.012 A 
ATOM     69  C   UNL A   1      46.978  30.738  27.391  1.00  0.00     0.148 A 
ATOM     70  C   UNL A   1      49.718  31.043  27.007  1.00  0.00     0.002 A 
ATOM     71  C   UNL A   1      47.493  31.959  26.977  1.00  0.00     0.091 A 
ATOM     72  F   UNL A   1      45.700  30.694  27.785  1.00  0.00    -0.205 F 
ATOM     73  C   UNL A   1      48.868  32.126  26.813  1.00  0.00     0.022 A 
BRANCH  71  74
ATOM     74  S   UNL A   1      46.404  33.345  26.641  1.00  0.00     0.127 S 
ATOM     75  O   UNL A   1      45.620  32.841  25.518  1.00  0.00    -0.237 OA
ATOM     76  O   UNL A   1      45.672  33.474  27.901  1.00  0.00    -0.237 OA
ATOM     77  O   UNL A   1      47.298  34.463  26.361  1.00  0.00    -0.744 OA
ENDBRANCH  71  74
ENDBRANCH  53  67
BRANCH  54  78
ATOM     78  C   UNL A   1      39.490  29.625  29.497  1.00  0.00     0.023 A 
ATOM     79  C   UNL A   1      38.966  29.607  28.191  1.00  0.00     0.012 A 
ATOM     80  C   UNL A   1      38.697  30.185  30.527  1.00  0.00     0.148 A 
ATOM     81  C   UNL A   1      37.692  30.119  27.922  1.00  0.00     0.002 A 
ATOM     82  C   UNL A   1      37.441  30.713  30.252  1.00  0.00     0.091 A 
ATOM     83  F   UNL A   1      39.138  30.118  31.791  1.00  0.00    -0.205 F 
ATOM     84  C   UNL A   1      36.930  30.672  28.949  1.00  0.00     0.022 A 
BRANCH  82  85
ATOM     85  S   UNL A   1      36.410  31.447  31.529  1.00  0.00     0.127 S 
ATOM     86  O   UNL A   1      35.232  31.861  30.767  1.00  0.00    -0.237 OA
ATOM     87  O   UNL A   1      36.192  30.317  32.428  1.00  0.00    -0.237 OA
ATOM     88  O   UNL A   1      37.184  32.554  32.076  1.00  0.00    -0.744 OA
ENDBRANCH  82  85
ENDBRANCH  54  78
BRANCH  66  89
ATOM     89  C   UNL A   1      44.288  27.480  32.959  1.00  0.00     0.023 A 
ATOM     90  C   UNL A   1      43.948  26.139  32.679  1.00  0.00     0.012 A 
ATOM     91  C   UNL A   1      44.361  27.894  34.301  1.00  0.00     0.148 A 
ATOM     92  C   UNL A   1      43.659  25.240  33.709  1.00  0.00     0.002 A 
ATOM     93  C   UNL A   1      44.119  26.984  35.325  1.00  0.00     0.091 A 
ATOM     94  F   UNL A   1      44.698  29.167  34.556  1.00  0.00    -0.205 F 
ATOM     95  C   UNL A   1      43.759  25.659  35.033  1.00  0.00     0.022 A 
BRANCH  93  96
ATOM     96  S   UNL A   1      44.364  27.422  37.049  1.00  0.00     0.127 S 
ATOM     97  O   UNL A   1      45.685  28.045  37.024  1.00  0.00    -0.237 OA
ATOM     98  O   UNL A   1      43.257  28.347  37.303  1.00  0.00    -0.237 OA
ATOM     99  O   UNL A   1      44.270  26.171  37.793  1.00  0.00    -0.744 OA
ENDBRANCH  93  96
ENDBRANCH  66  89
ENDBRANCH  40  41
ENDBRANCH  33  35
ENDBRANCH  32  33
ENDBRANCH  31  32
ENDBRANCH  30  31
ENDBRANCH  29  30
ENDBRANCH   1  29
TORSDOF 23
ENDMDL
