MODEL 1
REMARK VINA RESULT:     -10.6      0.000      0.000
REMARK SMILES O=C(OCCOCCOCCOC(=O)c1ccccc1-c1ccccc1C(=O)N1CC[NH+](Cc2ccc3c(c2)OCO3)CC1)c1ccc(-c2c3nc(c(-c4cccc(S(=O)(=O)[O-])c4F)c4ccc([nH]4)c(-c4cccc(S(=O)(=O)[O-])c4F)c4nc(c(-c5cccc(S(=O)(=O)[O-])c5F)c5ccc2[nH]5)C=C4)C=C3)cc1
REMARK SMILES IDX 8 1 7 2 6 3 5 4 4 5 3 6 2 7 1 8 45 9 46 10 107 11 47 12
REMARK SMILES IDX 106 13 48 14 49 15 50 16 100 17 51 18 105 19 99 20 101 21
REMARK SMILES IDX 52 22 104 23 98 24 97 25 53 27 85 28 65 29 84 30 66 31 69 32
REMARK SMILES IDX 83 33 102 34 67 35 68 36 82 38 103 39 70 40 54 41 55 42
REMARK SMILES IDX 63 43 56 44 58 45 64 46 57 47 59 48 60 49 61 50 62 51 86 52
REMARK SMILES IDX 87 53 95 54 88 55 90 56 96 57 89 58 91 59 92 60 93 61 94 62
REMARK SMILES IDX 71 63 72 64 80 65 73 66 75 67 81 68 74 69 76 70 77 71 78 72
REMARK SMILES IDX 79 73 9 74 10 75 11 76 12 77 13 78 14 79 15 80 16 81 20 82
REMARK SMILES IDX 17 83 19 84 18 85 21 86 22 87 26 88 23 89 25 90 24 91 27 92
REMARK SMILES IDX 28 93 29 94 30 95 44 96 31 97 43 98 32 99 33 101 34 102
REMARK SMILES IDX 35 103 39 104 36 105 38 106 37 107 40 108 42 109 41 110
REMARK H PARENT 101 26 69 37 32 100
REMARK Flexibility Score: inf
ROOT
ATOM      1  C   UNL A   1      35.516  32.345  28.436  1.00  0.00     0.188 C 
ENDROOT
BRANCH   1   2
ATOM      2  C   UNL A   1      34.487  33.076  29.324  1.00  0.00     0.188 C 
BRANCH   2   3
ATOM      3  O   UNL A   1      34.572  32.708  30.700  1.00  0.00    -0.376 OA
BRANCH   3   4
ATOM      4  C   UNL A   1      35.580  31.784  31.058  1.00  0.00     0.202 C 
BRANCH   4   5
ATOM      5  C   UNL A   1      36.358  32.112  32.340  1.00  0.00     0.261 C 
BRANCH   5   6
ATOM      6  O   UNL A   1      37.629  32.737  32.090  1.00  0.00    -0.460 OA
BRANCH   6   7
ATOM      7  C   UNL A   1      37.861  33.864  31.366  1.00  0.00     0.338 C 
ATOM      8  O   UNL A   1      36.929  34.637  31.156  1.00  0.00    -0.246 OA
BRANCH   7   9
ATOM      9  C   UNL A   1      39.219  34.230  30.861  1.00  0.00     0.060 A 
ATOM     10  C   UNL A   1      39.467  34.709  29.576  1.00  0.00     0.016 A 
ATOM     11  C   UNL A   1      40.299  34.156  31.756  1.00  0.00     0.016 A 
ATOM     12  C   UNL A   1      40.765  34.961  29.137  1.00  0.00     0.010 A 
ATOM     13  C   UNL A   1      41.599  34.484  31.344  1.00  0.00     0.010 A 
ATOM     14  C   UNL A   1      41.847  34.840  30.011  1.00  0.00    -0.014 A 
BRANCH  14  15
ATOM     15  C   UNL A   1      43.219  35.029  29.475  1.00  0.00     0.031 A 
ATOM     16  C   UNL A   1      44.037  33.832  29.129  1.00  0.00     0.074 A 
ATOM     17  C   UNL A   1      43.687  36.260  29.195  1.00  0.00     0.049 A 
ATOM     18  N   UNL A   1      45.203  33.791  28.548  1.00  0.00    -0.248 NA
ATOM     19  C   UNL A   1      43.466  32.514  29.447  1.00  0.00     0.031 C 
ATOM     20  C   UNL A   1      42.934  37.470  29.446  1.00  0.00     0.029 A 
ATOM     21  N   UNL A   1      44.856  36.723  28.645  1.00  0.00    -0.354 N 
ATOM     22  C   UNL A   1      45.518  32.447  28.444  1.00  0.00     0.074 A 
ATOM     23  C   UNL A   1      44.426  31.703  29.031  1.00  0.00     0.031 C 
ATOM     24  C   UNL A   1      43.643  38.542  29.083  1.00  0.00     0.029 A 
ATOM     25  C   UNL A   1      44.910  38.099  28.549  1.00  0.00     0.049 A 
ATOM     26  H   UNL A   1      45.585  36.132  28.348  1.00  0.00     0.167 HD
ATOM     27  C   UNL A   1      46.617  31.893  27.891  1.00  0.00     0.034 A 
ATOM     28  C   UNL A   1      45.854  38.929  28.067  1.00  0.00     0.034 A 
ATOM     29  C   UNL A   1      47.697  32.656  27.330  1.00  0.00     0.049 A 
ATOM     30  C   UNL A   1      47.056  38.284  27.456  1.00  0.00     0.074 A 
ATOM     31  C   UNL A   1      48.895  32.202  26.813  1.00  0.00     0.029 A 
ATOM     32  N   UNL A   1      47.712  34.041  27.221  1.00  0.00    -0.354 N 
ATOM     33  N   UNL A   1      47.310  37.005  27.324  1.00  0.00    -0.248 NA
ATOM     34  C   UNL A   1      48.078  39.171  26.893  1.00  0.00     0.031 C 
ATOM     35  C   UNL A   1      49.642  33.315  26.408  1.00  0.00     0.029 A 
ATOM     36  C   UNL A   1      48.898  34.461  26.648  1.00  0.00     0.049 A 
ATOM     37  H   UNL A   1      46.982  34.637  27.510  1.00  0.00     0.167 HD
ATOM     38  C   UNL A   1      48.522  36.926  26.665  1.00  0.00     0.074 A 
ATOM     39  C   UNL A   1      48.924  38.291  26.373  1.00  0.00     0.031 C 
ATOM     40  C   UNL A   1      49.255  35.828  26.361  1.00  0.00     0.034 A 
BRANCH  27  41
ATOM     41  C   UNL A   1      46.685  30.394  27.905  1.00  0.00     0.023 A 
ATOM     42  C   UNL A   1      47.182  29.726  29.043  1.00  0.00     0.012 A 
ATOM     43  C   UNL A   1      46.307  29.650  26.772  1.00  0.00     0.148 A 
ATOM     44  C   UNL A   1      47.333  28.341  29.041  1.00  0.00     0.002 A 
ATOM     45  C   UNL A   1      46.426  28.267  26.790  1.00  0.00     0.091 A 
ATOM     46  F   UNL A   1      45.871  30.313  25.692  1.00  0.00    -0.205 F 
ATOM     47  C   UNL A   1      46.950  27.612  27.918  1.00  0.00     0.022 A 
BRANCH  45  48
ATOM     48  S   UNL A   1      45.928  27.234  25.410  1.00  0.00     0.127 S 
ATOM     49  O   UNL A   1      46.215  28.104  24.271  1.00  0.00    -0.237 OA
ATOM     50  O   UNL A   1      46.829  26.090  25.549  1.00  0.00    -0.237 OA
ATOM     51  O   UNL A   1      44.519  26.931  25.619  1.00  0.00    -0.744 OA
ENDBRANCH  45  48
ENDBRANCH  27  41
BRANCH  28  52
ATOM     52  C   UNL A   1      45.648  40.411  28.072  1.00  0.00     0.023 A 
ATOM     53  C   UNL A   1      45.893  41.148  29.247  1.00  0.00     0.012 A 
ATOM     54  C   UNL A   1      45.273  41.108  26.904  1.00  0.00     0.148 A 
ATOM     55  C   UNL A   1      45.738  42.538  29.267  1.00  0.00     0.002 A 
ATOM     56  C   UNL A   1      45.183  42.498  26.914  1.00  0.00     0.091 A 
ATOM     57  F   UNL A   1      45.027  40.403  25.790  1.00  0.00    -0.205 F 
ATOM     58  C   UNL A   1      45.397  43.214  28.099  1.00  0.00     0.022 A 
BRANCH  56  59
ATOM     59  S   UNL A   1      44.915  43.430  25.400  1.00  0.00     0.127 S 
ATOM     60  O   UNL A   1      45.980  42.928  24.539  1.00  0.00    -0.237 OA
ATOM     61  O   UNL A   1      43.563  43.021  25.014  1.00  0.00    -0.237 OA
ATOM     62  O   UNL A   1      45.009  44.829  25.800  1.00  0.00    -0.744 OA
ENDBRANCH  56  59
ENDBRANCH  28  52
BRANCH  40  63
ATOM     63  C   UNL A   1      50.577  36.080  25.704  1.00  0.00     0.023 A 
ATOM     64  C   UNL A   1      50.640  36.198  24.300  1.00  0.00     0.012 A 
ATOM     65  C   UNL A   1      51.743  36.237  26.473  1.00  0.00     0.148 A 
ATOM     66  C   UNL A   1      51.856  36.436  23.667  1.00  0.00     0.002 A 
ATOM     67  C   UNL A   1      52.943  36.523  25.838  1.00  0.00     0.091 A 
ATOM     68  F   UNL A   1      51.660  36.087  27.802  1.00  0.00    -0.205 F 
ATOM     69  C   UNL A   1      53.005  36.610  24.436  1.00  0.00     0.022 A 
BRANCH  67  70
ATOM     70  S   UNL A   1      54.447  36.852  26.758  1.00  0.00     0.127 S 
ATOM     71  O   UNL A   1      54.073  38.037  27.528  1.00  0.00    -0.237 OA
ATOM     72  O   UNL A   1      54.599  35.630  27.551  1.00  0.00    -0.237 OA
ATOM     73  O   UNL A   1      55.488  37.052  25.758  1.00  0.00    -0.744 OA
ENDBRANCH  67  70
ENDBRANCH  40  63
ENDBRANCH  14  15
ENDBRANCH   7   9
ENDBRANCH   6   7
ENDBRANCH   5   6
ENDBRANCH   4   5
ENDBRANCH   3   4
ENDBRANCH   2   3
ENDBRANCH   1   2
BRANCH   1  74
ATOM     74  O   UNL A   1      35.048  31.270  27.625  1.00  0.00    -0.376 OA
BRANCH  74  75
ATOM     75  C   UNL A   1      33.640  31.070  27.607  1.00  0.00     0.202 C 
BRANCH  75  76
ATOM     76  C   UNL A   1      33.290  29.586  27.465  1.00  0.00     0.261 C 
BRANCH  76  77
ATOM     77  O   UNL A   1      32.154  29.136  26.678  1.00  0.00    -0.460 OA
BRANCH  77  78
ATOM     78  C   UNL A   1      31.839  29.693  25.490  1.00  0.00     0.338 C 
ATOM     79  O   UNL A   1      31.191  30.707  25.313  1.00  0.00    -0.246 OA
BRANCH  78  80
ATOM     80  C   UNL A   1      32.379  28.970  24.304  1.00  0.00     0.067 A 
ATOM     81  C   UNL A   1      33.716  29.278  23.957  1.00  0.00     0.016 A 
ATOM     82  C   UNL A   1      31.618  28.145  23.452  1.00  0.00    -0.003 A 
ATOM     83  C   UNL A   1      34.313  28.750  22.813  1.00  0.00     0.001 A 
ATOM     84  C   UNL A   1      32.247  27.614  22.305  1.00  0.00     0.009 A 
ATOM     85  C   UNL A   1      33.580  27.901  21.996  1.00  0.00     0.001 A 
BRANCH  82  86
ATOM     86  C   UNL A   1      30.212  27.800  23.690  1.00  0.00    -0.005 A 
ATOM     87  C   UNL A   1      29.250  28.505  22.922  1.00  0.00     0.009 A 
ATOM     88  C   UNL A   1      29.767  26.782  24.560  1.00  0.00     0.047 A 
ATOM     89  C   UNL A   1      27.895  28.192  22.963  1.00  0.00     0.001 A 
ATOM     90  C   UNL A   1      28.383  26.484  24.586  1.00  0.00     0.014 A 
ATOM     91  C   UNL A   1      27.460  27.171  23.790  1.00  0.00     0.001 A 
BRANCH  88  92
ATOM     92  C   UNL A   1      30.644  25.827  25.339  1.00  0.00     0.254 C 
ATOM     93  O   UNL A   1      30.920  26.106  26.509  1.00  0.00    -0.269 OA
ATOM     94  N   UNL A   1      31.009  24.595  24.797  1.00  0.00    -0.327 N 
ATOM     95  C   UNL A   1      30.928  23.453  25.692  1.00  0.00     0.181 C 
ATOM     96  C   UNL A   1      32.149  24.519  23.889  1.00  0.00     0.181 C 
ATOM     97  C   UNL A   1      30.891  22.118  24.931  1.00  0.00     0.284 C 
ATOM     98  C   UNL A   1      32.375  23.120  23.242  1.00  0.00     0.284 C 
ATOM     99  N   UNL A   1      31.987  21.903  23.977  1.00  0.00    -0.328 N 
ATOM    100  H   UNL A   1      31.587  21.321  23.242  1.00  0.00     0.348 HD
BRANCH  99 101
ATOM    101  C   UNL A   1      33.054  21.004  24.419  1.00  0.00     0.299 C 
BRANCH 101 102
ATOM    102  C   UNL A   1      32.706  19.542  24.236  1.00  0.00     0.010 A 
ATOM    103  C   UNL A   1      32.763  18.977  22.942  1.00  0.00     0.013 A 
ATOM    104  C   UNL A   1      32.665  18.714  25.374  1.00  0.00     0.060 A 
ATOM    105  C   UNL A   1      32.975  17.607  22.781  1.00  0.00     0.051 A 
ATOM    106  C   UNL A   1      32.973  17.391  25.184  1.00  0.00     0.166 A 
ATOM    107  C   UNL A   1      33.151  16.860  23.925  1.00  0.00     0.165 A 
ATOM    108  O   UNL A   1      33.361  16.529  26.167  1.00  0.00    -0.454 OA
ATOM    109  O   UNL A   1      33.668  15.598  23.981  1.00  0.00    -0.454 OA
ATOM    110  C   UNL A   1      34.095  15.584  25.361  1.00  0.00     0.468 C 
ENDBRANCH 101 102
ENDBRANCH  99 101
ENDBRANCH  88  92
ENDBRANCH  82  86
ENDBRANCH  78  80
ENDBRANCH  77  78
ENDBRANCH  76  77
ENDBRANCH  75  76
ENDBRANCH  74  75
ENDBRANCH   1  74
TORSDOF 24
ENDMDL
MODEL 2
REMARK VINA RESULT:     -10.3      6.457     15.716
REMARK SMILES O=C(OCCOCCOCCOC(=O)c1ccccc1-c1ccccc1C(=O)N1CC[NH+](Cc2ccc3c(c2)OCO3)CC1)c1ccc(-c2c3nc(c(-c4cccc(S(=O)(=O)[O-])c4F)c4ccc([nH]4)c(-c4cccc(S(=O)(=O)[O-])c4F)c4nc(c(-c5cccc(S(=O)(=O)[O-])c5F)c5ccc2[nH]5)C=C4)C=C3)cc1
REMARK SMILES IDX 8 1 7 2 6 3 5 4 4 5 3 6 2 7 1 8 45 9 46 10 107 11 47 12
REMARK SMILES IDX 106 13 48 14 49 15 50 16 100 17 51 18 105 19 99 20 101 21
REMARK SMILES IDX 52 22 104 23 98 24 97 25 53 27 85 28 65 29 84 30 66 31 69 32
REMARK SMILES IDX 83 33 102 34 67 35 68 36 82 38 103 39 70 40 54 41 55 42
REMARK SMILES IDX 63 43 56 44 58 45 64 46 57 47 59 48 60 49 61 50 62 51 86 52
REMARK SMILES IDX 87 53 95 54 88 55 90 56 96 57 89 58 91 59 92 60 93 61 94 62
REMARK SMILES IDX 71 63 72 64 80 65 73 66 75 67 81 68 74 69 76 70 77 71 78 72
REMARK SMILES IDX 79 73 9 74 10 75 11 76 12 77 13 78 14 79 15 80 16 81 20 82
REMARK SMILES IDX 17 83 19 84 18 85 21 86 22 87 26 88 23 89 25 90 24 91 27 92
REMARK SMILES IDX 28 93 29 94 30 95 44 96 31 97 43 98 32 99 33 101 34 102
REMARK SMILES IDX 35 103 39 104 36 105 38 106 37 107 40 108 42 109 41 110
REMARK H PARENT 101 26 69 37 32 100
REMARK Flexibility Score: inf
ROOT
ATOM      1  C   UNL A   1      41.730  40.629  29.611  1.00  0.00     0.188 C 
ENDROOT
BRANCH   1   2
ATOM      2  C   UNL A   1      42.936  41.579  29.764  1.00  0.00     0.188 C 
BRANCH   2   3
ATOM      3  O   UNL A   1      43.408  41.675  31.107  1.00  0.00    -0.376 OA
BRANCH   3   4
ATOM      4  C   UNL A   1      42.581  42.353  32.032  1.00  0.00     0.202 C 
BRANCH   4   5
ATOM      5  C   UNL A   1      42.766  41.956  33.503  1.00  0.00     0.261 C 
BRANCH   5   6
ATOM      6  O   UNL A   1      42.650  40.540  33.729  1.00  0.00    -0.460 OA
BRANCH   6   7
ATOM      7  C   UNL A   1      43.663  39.643  33.855  1.00  0.00     0.338 C 
ATOM      8  O   UNL A   1      44.550  39.860  34.678  1.00  0.00    -0.246 OA
BRANCH   7   9
ATOM      9  C   UNL A   1      43.715  38.372  33.070  1.00  0.00     0.060 A 
ATOM     10  C   UNL A   1      43.831  38.320  31.682  1.00  0.00     0.016 A 
ATOM     11  C   UNL A   1      43.719  37.158  33.777  1.00  0.00     0.016 A 
ATOM     12  C   UNL A   1      43.796  37.107  30.999  1.00  0.00     0.010 A 
ATOM     13  C   UNL A   1      43.764  35.931  33.099  1.00  0.00     0.010 A 
ATOM     14  C   UNL A   1      43.750  35.899  31.698  1.00  0.00    -0.014 A 
BRANCH  14  15
ATOM     15  C   UNL A   1      43.622  34.636  30.927  1.00  0.00     0.031 A 
ATOM     16  C   UNL A   1      44.836  34.042  30.297  1.00  0.00     0.074 A 
ATOM     17  C   UNL A   1      42.454  33.969  30.883  1.00  0.00     0.049 A 
ATOM     18  N   UNL A   1      44.950  32.896  29.686  1.00  0.00    -0.248 NA
ATOM     19  C   UNL A   1      46.085  34.812  30.390  1.00  0.00     0.031 C 
ATOM     20  C   UNL A   1      41.244  34.447  31.517  1.00  0.00     0.029 A 
ATOM     21  N   UNL A   1      42.067  32.778  30.322  1.00  0.00    -0.354 N 
ATOM     22  C   UNL A   1      46.277  32.812  29.303  1.00  0.00     0.074 A 
ATOM     23  C   UNL A   1      46.929  34.026  29.741  1.00  0.00     0.031 C 
ATOM     24  C   UNL A   1      40.239  33.593  31.304  1.00  0.00     0.029 A 
ATOM     25  C   UNL A   1      40.735  32.481  30.527  1.00  0.00     0.049 A 
ATOM     26  H   UNL A   1      42.680  32.192  29.822  1.00  0.00     0.167 HD
ATOM     27  C   UNL A   1      46.891  31.799  28.656  1.00  0.00     0.034 A 
ATOM     28  C   UNL A   1      39.983  31.426  30.160  1.00  0.00     0.034 A 
ATOM     29  C   UNL A   1      46.216  30.610  28.215  1.00  0.00     0.049 A 
ATOM     30  C   UNL A   1      40.693  30.319  29.451  1.00  0.00     0.074 A 
ATOM     31  C   UNL A   1      46.721  29.554  27.482  1.00  0.00     0.029 A 
ATOM     32  N   UNL A   1      44.878  30.326  28.461  1.00  0.00    -0.354 N 
ATOM     33  N   UNL A   1      41.964  30.239  29.142  1.00  0.00    -0.248 NA
ATOM     34  C   UNL A   1      39.899  29.146  29.075  1.00  0.00     0.031 C 
ATOM     35  C   UNL A   1      45.683  28.638  27.270  1.00  0.00     0.029 A 
ATOM     36  C   UNL A   1      44.537  29.111  27.892  1.00  0.00     0.049 A 
ATOM     37  H   UNL A   1      44.262  30.905  28.966  1.00  0.00     0.167 HD
ATOM     38  C   UNL A   1      42.129  29.010  28.532  1.00  0.00     0.074 A 
ATOM     39  C   UNL A   1      40.834  28.353  28.568  1.00  0.00     0.031 C 
ATOM     40  C   UNL A   1      43.240  28.486  27.962  1.00  0.00     0.034 A 
BRANCH  27  41
ATOM     41  C   UNL A   1      48.356  31.975  28.382  1.00  0.00     0.023 A 
ATOM     42  C   UNL A   1      49.303  31.548  29.336  1.00  0.00     0.012 A 
ATOM     43  C   UNL A   1      48.792  32.610  27.206  1.00  0.00     0.148 A 
ATOM     44  C   UNL A   1      50.662  31.781  29.137  1.00  0.00     0.002 A 
ATOM     45  C   UNL A   1      50.150  32.808  26.998  1.00  0.00     0.091 A 
ATOM     46  F   UNL A   1      47.869  33.037  26.332  1.00  0.00    -0.205 F 
ATOM     47  C   UNL A   1      51.086  32.405  27.967  1.00  0.00     0.022 A 
BRANCH  45  48
ATOM     48  S   UNL A   1      50.802  33.569  25.509  1.00  0.00     0.127 S 
ATOM     49  O   UNL A   1      49.642  34.319  25.029  1.00  0.00    -0.237 OA
ATOM     50  O   UNL A   1      51.887  34.393  26.041  1.00  0.00    -0.237 OA
ATOM     51  O   UNL A   1      51.230  32.474  24.649  1.00  0.00    -0.744 OA
ENDBRANCH  45  48
ENDBRANCH  27  41
BRANCH  28  52
ATOM     52  C   UNL A   1      38.536  31.349  30.532  1.00  0.00     0.023 A 
ATOM     53  C   UNL A   1      38.149  30.670  31.703  1.00  0.00     0.012 A 
ATOM     54  C   UNL A   1      37.542  31.999  29.769  1.00  0.00     0.148 A 
ATOM     55  C   UNL A   1      36.805  30.614  32.089  1.00  0.00     0.002 A 
ATOM     56  C   UNL A   1      36.215  31.993  30.193  1.00  0.00     0.091 A 
ATOM     57  F   UNL A   1      37.911  32.633  28.646  1.00  0.00    -0.205 F 
ATOM     58  C   UNL A   1      35.841  31.284  31.342  1.00  0.00     0.022 A 
BRANCH  56  59
ATOM     59  S   UNL A   1      34.963  32.981  29.364  1.00  0.00     0.127 S 
ATOM     60  O   UNL A   1      34.453  32.051  28.363  1.00  0.00    -0.237 OA
ATOM     61  O   UNL A   1      34.034  33.289  30.453  1.00  0.00    -0.237 OA
ATOM     62  O   UNL A   1      35.679  34.148  28.861  1.00  0.00    -0.744 OA
ENDBRANCH  56  59
ENDBRANCH  28  52
BRANCH  40  63
ATOM     63  C   UNL A   1      43.077  27.148  27.309  1.00  0.00     0.023 A 
ATOM     64  C   UNL A   1      42.672  27.081  25.960  1.00  0.00     0.012 A 
ATOM     65  C   UNL A   1      43.358  25.965  28.015  1.00  0.00     0.148 A 
ATOM     66  C   UNL A   1      42.516  25.849  25.332  1.00  0.00     0.002 A 
ATOM     67  C   UNL A   1      43.249  24.744  27.366  1.00  0.00     0.091 A 
ATOM     68  F   UNL A   1      43.709  26.057  29.306  1.00  0.00    -0.205 F 
ATOM     69  C   UNL A   1      42.816  24.682  26.030  1.00  0.00     0.022 A 
BRANCH  67  70
ATOM     70  S   UNL A   1      43.704  23.203  28.165  1.00  0.00     0.127 S 
ATOM     71  O   UNL A   1      43.640  22.259  27.051  1.00  0.00    -0.237 OA
ATOM     72  O   UNL A   1      45.056  23.490  28.647  1.00  0.00    -0.237 OA
ATOM     73  O   UNL A   1      42.721  22.999  29.221  1.00  0.00    -0.744 OA
ENDBRANCH  67  70
ENDBRANCH  40  63
ENDBRANCH  14  15
ENDBRANCH   7   9
ENDBRANCH   6   7
ENDBRANCH   5   6
ENDBRANCH   4   5
ENDBRANCH   3   4
ENDBRANCH   2   3
ENDBRANCH   1   2
BRANCH   1  74
ATOM     74  O   UNL A   1      41.620  39.886  28.398  1.00  0.00    -0.376 OA
BRANCH  74  75
ATOM     75  C   UNL A   1      42.021  40.563  27.214  1.00  0.00     0.202 C 
BRANCH  75  76
ATOM     76  C   UNL A   1      43.099  39.778  26.461  1.00  0.00     0.261 C 
BRANCH  76  77
ATOM     77  O   UNL A   1      44.475  39.721  26.927  1.00  0.00    -0.460 OA
BRANCH  77  78
ATOM     78  C   UNL A   1      45.062  38.563  27.290  1.00  0.00     0.338 C 
ATOM     79  O   UNL A   1      44.512  37.588  27.768  1.00  0.00    -0.246 OA
BRANCH  78  80
ATOM     80  C   UNL A   1      46.531  38.507  27.042  1.00  0.00     0.067 A 
ATOM     81  C   UNL A   1      46.941  37.652  25.991  1.00  0.00     0.016 A 
ATOM     82  C   UNL A   1      47.506  39.114  27.858  1.00  0.00    -0.003 A 
ATOM     83  C   UNL A   1      48.289  37.430  25.716  1.00  0.00     0.001 A 
ATOM     84  C   UNL A   1      48.865  38.883  27.553  1.00  0.00     0.009 A 
ATOM     85  C   UNL A   1      49.253  38.063  26.489  1.00  0.00     0.001 A 
BRANCH  82  86
ATOM     86  C   UNL A   1      47.192  39.979  29.001  1.00  0.00    -0.005 A 
ATOM     87  C   UNL A   1      47.054  39.338  30.258  1.00  0.00     0.009 A 
ATOM     88  C   UNL A   1      47.095  41.386  28.946  1.00  0.00     0.047 A 
ATOM     89  C   UNL A   1      46.876  40.052  31.440  1.00  0.00     0.001 A 
ATOM     90  C   UNL A   1      46.911  42.090  30.161  1.00  0.00     0.014 A 
ATOM     91  C   UNL A   1      46.814  41.434  31.393  1.00  0.00     0.001 A 
BRANCH  88  92
ATOM     92  C   UNL A   1      47.363  42.252  27.736  1.00  0.00     0.254 C 
ATOM     93  O   UNL A   1      48.456  42.819  27.650  1.00  0.00    -0.269 OA
ATOM     94  N   UNL A   1      46.456  42.293  26.676  1.00  0.00    -0.327 N 
ATOM     95  C   UNL A   1      47.029  42.235  25.342  1.00  0.00     0.181 C 
ATOM     96  C   UNL A   1      45.300  43.180  26.754  1.00  0.00     0.181 C 
ATOM     97  C   UNL A   1      45.994  41.825  24.282  1.00  0.00     0.284 C 
ATOM     98  C   UNL A   1      44.289  43.039  25.577  1.00  0.00     0.284 C 
ATOM     99  N   UNL A   1      44.771  42.638  24.244  1.00  0.00    -0.328 N 
ATOM    100  H   UNL A   1      44.040  42.000  23.929  1.00  0.00     0.348 HD
BRANCH  99 101
ATOM    101  C   UNL A   1      44.690  43.623  23.165  1.00  0.00     0.299 C 
BRANCH 101 102
ATOM    102  C   UNL A   1      43.773  43.190  22.041  1.00  0.00     0.010 A 
ATOM    103  C   UNL A   1      42.510  42.639  22.356  1.00  0.00     0.013 A 
ATOM    104  C   UNL A   1      44.045  43.648  20.738  1.00  0.00     0.060 A 
ATOM    105  C   UNL A   1      41.459  42.718  21.440  1.00  0.00     0.051 A 
ATOM    106  C   UNL A   1      42.969  43.800  19.901  1.00  0.00     0.166 A 
ATOM    107  C   UNL A   1      41.707  43.373  20.254  1.00  0.00     0.165 A 
ATOM    108  O   UNL A   1      42.957  44.569  18.774  1.00  0.00    -0.454 OA
ATOM    109  O   UNL A   1      40.762  43.826  19.381  1.00  0.00    -0.454 OA
ATOM    110  C   UNL A   1      41.540  44.832  18.696  1.00  0.00     0.468 C 
ENDBRANCH 101 102
ENDBRANCH  99 101
ENDBRANCH  88  92
ENDBRANCH  82  86
ENDBRANCH  78  80
ENDBRANCH  77  78
ENDBRANCH  76  77
ENDBRANCH  75  76
ENDBRANCH  74  75
ENDBRANCH   1  74
TORSDOF 24
ENDMDL
MODEL 3
REMARK VINA RESULT:      -9.8      8.604     12.398
REMARK SMILES O=C(OCCOCCOCCOC(=O)c1ccccc1-c1ccccc1C(=O)N1CC[NH+](Cc2ccc3c(c2)OCO3)CC1)c1ccc(-c2c3nc(c(-c4cccc(S(=O)(=O)[O-])c4F)c4ccc([nH]4)c(-c4cccc(S(=O)(=O)[O-])c4F)c4nc(c(-c5cccc(S(=O)(=O)[O-])c5F)c5ccc2[nH]5)C=C4)C=C3)cc1
REMARK SMILES IDX 8 1 7 2 6 3 5 4 4 5 3 6 2 7 1 8 45 9 46 10 107 11 47 12
REMARK SMILES IDX 106 13 48 14 49 15 50 16 100 17 51 18 105 19 99 20 101 21
REMARK SMILES IDX 52 22 104 23 98 24 97 25 53 27 85 28 65 29 84 30 66 31 69 32
REMARK SMILES IDX 83 33 102 34 67 35 68 36 82 38 103 39 70 40 54 41 55 42
REMARK SMILES IDX 63 43 56 44 58 45 64 46 57 47 59 48 60 49 61 50 62 51 86 52
REMARK SMILES IDX 87 53 95 54 88 55 90 56 96 57 89 58 91 59 92 60 93 61 94 62
REMARK SMILES IDX 71 63 72 64 80 65 73 66 75 67 81 68 74 69 76 70 77 71 78 72
REMARK SMILES IDX 79 73 9 74 10 75 11 76 12 77 13 78 14 79 15 80 16 81 20 82
REMARK SMILES IDX 17 83 19 84 18 85 21 86 22 87 26 88 23 89 25 90 24 91 27 92
REMARK SMILES IDX 28 93 29 94 30 95 44 96 31 97 43 98 32 99 33 101 34 102
REMARK SMILES IDX 35 103 39 104 36 105 38 106 37 107 40 108 42 109 41 110
REMARK H PARENT 101 26 69 37 32 100
REMARK Flexibility Score: inf
ROOT
ATOM      1  C   UNL A   1      35.703  32.310  28.016  1.00  0.00     0.188 C 
ENDROOT
BRANCH   1   2
ATOM      2  C   UNL A   1      34.760  33.523  28.155  1.00  0.00     0.188 C 
BRANCH   2   3
ATOM      3  O   UNL A   1      34.378  33.785  29.504  1.00  0.00    -0.376 OA
BRANCH   3   4
ATOM      4  C   UNL A   1      34.761  32.834  30.478  1.00  0.00     0.202 C 
BRANCH   4   5
ATOM      5  C   UNL A   1      34.414  33.191  31.929  1.00  0.00     0.261 C 
BRANCH   5   6
ATOM      6  O   UNL A   1      35.535  33.087  32.824  1.00  0.00    -0.460 OA
BRANCH   6   7
ATOM      7  C   UNL A   1      36.847  33.280  32.522  1.00  0.00     0.338 C 
ATOM      8  O   UNL A   1      37.136  33.887  31.494  1.00  0.00    -0.246 OA
BRANCH   7   9
ATOM      9  C   UNL A   1      37.953  32.832  33.421  1.00  0.00     0.060 A 
ATOM     10  C   UNL A   1      37.900  31.679  34.203  1.00  0.00     0.016 A 
ATOM     11  C   UNL A   1      39.145  33.576  33.425  1.00  0.00     0.016 A 
ATOM     12  C   UNL A   1      38.932  31.353  35.081  1.00  0.00     0.010 A 
ATOM     13  C   UNL A   1      40.220  33.208  34.248  1.00  0.00     0.010 A 
ATOM     14  C   UNL A   1      40.098  32.120  35.122  1.00  0.00    -0.014 A 
BRANCH  14  15
ATOM     15  C   UNL A   1      41.131  31.788  36.137  1.00  0.00     0.031 A 
ATOM     16  C   UNL A   1      41.111  32.489  37.452  1.00  0.00     0.074 A 
ATOM     17  C   UNL A   1      42.011  30.791  35.926  1.00  0.00     0.049 A 
ATOM     18  N   UNL A   1      41.850  32.261  38.501  1.00  0.00    -0.248 NA
ATOM     19  C   UNL A   1      40.118  33.560  37.627  1.00  0.00     0.031 C 
ATOM     20  C   UNL A   1      42.059  30.023  34.701  1.00  0.00     0.029 A 
ATOM     21  N   UNL A   1      43.005  30.232  36.689  1.00  0.00    -0.354 N 
ATOM     22  C   UNL A   1      41.429  33.169  39.457  1.00  0.00     0.074 A 
ATOM     23  C   UNL A   1      40.375  33.961  38.862  1.00  0.00     0.031 C 
ATOM     24  C   UNL A   1      43.031  29.110  34.763  1.00  0.00     0.029 A 
ATOM     25  C   UNL A   1      43.676  29.209  36.052  1.00  0.00     0.049 A 
ATOM     26  H   UNL A   1      43.218  30.532  37.602  1.00  0.00     0.167 HD
ATOM     27  C   UNL A   1      41.878  33.311  40.722  1.00  0.00     0.034 A 
ATOM     28  C   UNL A   1      44.686  28.412  36.451  1.00  0.00     0.034 A 
ATOM     29  C   UNL A   1      42.939  32.523  41.282  1.00  0.00     0.049 A 
ATOM     30  C   UNL A   1      45.156  28.589  37.858  1.00  0.00     0.074 A 
ATOM     31  C   UNL A   1      43.529  32.633  42.527  1.00  0.00     0.029 A 
ATOM     32  N   UNL A   1      43.580  31.479  40.625  1.00  0.00    -0.354 N 
ATOM     33  N   UNL A   1      44.706  29.425  38.762  1.00  0.00    -0.248 NA
ATOM     34  C   UNL A   1      46.230  27.706  38.322  1.00  0.00     0.031 C 
ATOM     35  C   UNL A   1      44.538  31.666  42.616  1.00  0.00     0.029 A 
ATOM     36  C   UNL A   1      44.560  30.936  41.436  1.00  0.00     0.049 A 
ATOM     37  H   UNL A   1      43.365  31.171  39.715  1.00  0.00     0.167 HD
ATOM     38  C   UNL A   1      45.441  29.175  39.906  1.00  0.00     0.074 A 
ATOM     39  C   UNL A   1      46.326  28.066  39.596  1.00  0.00     0.031 C 
ATOM     40  C   UNL A   1      45.412  29.824  41.095  1.00  0.00     0.034 A 
BRANCH  27  41
ATOM     41  C   UNL A   1      41.220  34.378  41.545  1.00  0.00     0.023 A 
ATOM     42  C   UNL A   1      41.832  35.642  41.672  1.00  0.00     0.012 A 
ATOM     43  C   UNL A   1      40.022  34.113  42.235  1.00  0.00     0.148 A 
ATOM     44  C   UNL A   1      41.280  36.616  42.502  1.00  0.00     0.002 A 
ATOM     45  C   UNL A   1      39.459  35.100  43.032  1.00  0.00     0.091 A 
ATOM     46  F   UNL A   1      39.480  32.892  42.124  1.00  0.00    -0.205 F 
ATOM     47  C   UNL A   1      40.091  36.347  43.176  1.00  0.00     0.022 A 
BRANCH  45  48
ATOM     48  S   UNL A   1      37.912  34.868  43.913  1.00  0.00     0.127 S 
ATOM     49  O   UNL A   1      37.819  36.112  44.677  1.00  0.00    -0.237 OA
ATOM     50  O   UNL A   1      36.953  34.752  42.815  1.00  0.00    -0.237 OA
ATOM     51  O   UNL A   1      38.079  33.662  44.711  1.00  0.00    -0.744 OA
ENDBRANCH  45  48
ENDBRANCH  27  41
BRANCH  28  52
ATOM     52  C   UNL A   1      45.229  27.352  35.546  1.00  0.00     0.023 A 
ATOM     53  C   UNL A   1      46.360  27.622  34.751  1.00  0.00     0.012 A 
ATOM     54  C   UNL A   1      44.675  26.055  35.513  1.00  0.00     0.148 A 
ATOM     55  C   UNL A   1      46.906  26.636  33.922  1.00  0.00     0.002 A 
ATOM     56  C   UNL A   1      45.262  25.060  34.734  1.00  0.00     0.091 A 
ATOM     57  F   UNL A   1      43.591  25.804  36.259  1.00  0.00    -0.205 F 
ATOM     58  C   UNL A   1      46.367  25.353  33.922  1.00  0.00     0.022 A 
BRANCH  56  59
ATOM     59  S   UNL A   1      44.713  23.350  34.827  1.00  0.00     0.127 S 
ATOM     60  O   UNL A   1      43.422  23.407  34.151  1.00  0.00    -0.237 OA
ATOM     61  O   UNL A   1      45.764  22.642  34.096  1.00  0.00    -0.237 OA
ATOM     62  O   UNL A   1      44.686  23.044  36.253  1.00  0.00    -0.744 OA
ENDBRANCH  56  59
ENDBRANCH  28  52
BRANCH  40  63
ATOM     63  C   UNL A   1      46.394  29.358  42.124  1.00  0.00     0.023 A 
ATOM     64  C   UNL A   1      46.005  28.373  43.056  1.00  0.00     0.012 A 
ATOM     65  C   UNL A   1      47.706  29.862  42.146  1.00  0.00     0.148 A 
ATOM     66  C   UNL A   1      46.901  27.922  44.020  1.00  0.00     0.002 A 
ATOM     67  C   UNL A   1      48.608  29.370  43.078  1.00  0.00     0.091 A 
ATOM     68  F   UNL A   1      48.039  30.820  41.270  1.00  0.00    -0.205 F 
ATOM     69  C   UNL A   1      48.206  28.411  44.023  1.00  0.00     0.022 A 
BRANCH  67  70
ATOM     70  S   UNL A   1      50.328  29.879  43.091  1.00  0.00     0.127 S 
ATOM     71  O   UNL A   1      50.217  31.302  43.406  1.00  0.00    -0.237 OA
ATOM     72  O   UNL A   1      50.888  29.057  44.165  1.00  0.00    -0.237 OA
ATOM     73  O   UNL A   1      50.844  29.565  41.764  1.00  0.00    -0.744 OA
ENDBRANCH  67  70
ENDBRANCH  40  63
ENDBRANCH  14  15
ENDBRANCH   7   9
ENDBRANCH   6   7
ENDBRANCH   5   6
ENDBRANCH   4   5
ENDBRANCH   3   4
ENDBRANCH   2   3
ENDBRANCH   1   2
BRANCH   1  74
ATOM     74  O   UNL A   1      35.132  31.069  27.608  1.00  0.00    -0.376 OA
BRANCH  74  75
ATOM     75  C   UNL A   1      33.715  31.039  27.503  1.00  0.00     0.202 C 
BRANCH  75  76
ATOM     76  C   UNL A   1      33.183  29.603  27.528  1.00  0.00     0.261 C 
BRANCH  76  77
ATOM     77  O   UNL A   1      32.064  29.183  26.702  1.00  0.00    -0.460 OA
BRANCH  77  78
ATOM     78  C   UNL A   1      31.806  29.745  25.503  1.00  0.00     0.338 C 
ATOM     79  O   UNL A   1      31.179  30.768  25.300  1.00  0.00    -0.246 OA
BRANCH  78  80
ATOM     80  C   UNL A   1      32.387  29.017  24.339  1.00  0.00     0.067 A 
ATOM     81  C   UNL A   1      33.724  29.350  24.016  1.00  0.00     0.016 A 
ATOM     82  C   UNL A   1      31.662  28.163  23.484  1.00  0.00    -0.003 A 
ATOM     83  C   UNL A   1      34.357  28.818  22.893  1.00  0.00     0.001 A 
ATOM     84  C   UNL A   1      32.328  27.629  22.359  1.00  0.00     0.009 A 
ATOM     85  C   UNL A   1      33.660  27.941  22.073  1.00  0.00     0.001 A 
BRANCH  82  86
ATOM     86  C   UNL A   1      30.259  27.791  23.697  1.00  0.00    -0.005 A 
ATOM     87  C   UNL A   1      29.296  28.492  22.929  1.00  0.00     0.009 A 
ATOM     88  C   UNL A   1      29.821  26.751  24.544  1.00  0.00     0.047 A 
ATOM     89  C   UNL A   1      27.946  28.157  22.947  1.00  0.00     0.001 A 
ATOM     90  C   UNL A   1      28.442  26.429  24.546  1.00  0.00     0.014 A 
ATOM     91  C   UNL A   1      27.518  27.114  23.751  1.00  0.00     0.001 A 
BRANCH  88  92
ATOM     92  C   UNL A   1      30.703  25.797  25.318  1.00  0.00     0.254 C 
ATOM     93  O   UNL A   1      30.989  26.078  26.486  1.00  0.00    -0.269 OA
ATOM     94  N   UNL A   1      31.064  24.563  24.776  1.00  0.00    -0.327 N 
ATOM     95  C   UNL A   1      30.990  23.423  25.674  1.00  0.00     0.181 C 
ATOM     96  C   UNL A   1      32.196  24.485  23.859  1.00  0.00     0.181 C 
ATOM     97  C   UNL A   1      30.946  22.087  24.916  1.00  0.00     0.284 C 
ATOM     98  C   UNL A   1      32.417  23.084  23.214  1.00  0.00     0.284 C 
ATOM     99  N   UNL A   1      32.034  21.870  23.955  1.00  0.00    -0.328 N 
ATOM    100  H   UNL A   1      31.628  21.286  23.224  1.00  0.00     0.348 HD
BRANCH  99 101
ATOM    101  C   UNL A   1      33.105  20.971  24.390  1.00  0.00     0.299 C 
BRANCH 101 102
ATOM    102  C   UNL A   1      32.735  19.509  24.260  1.00  0.00     0.010 A 
ATOM    103  C   UNL A   1      32.669  18.927  22.974  1.00  0.00     0.013 A 
ATOM    104  C   UNL A   1      32.798  18.696  25.407  1.00  0.00     0.060 A 
ATOM    105  C   UNL A   1      32.860  17.554  22.812  1.00  0.00     0.051 A 
ATOM    106  C   UNL A   1      33.082  17.369  25.207  1.00  0.00     0.166 A 
ATOM    107  C   UNL A   1      33.139  16.820  23.944  1.00  0.00     0.165 A 
ATOM    108  O   UNL A   1      33.557  16.518  26.161  1.00  0.00    -0.454 OA
ATOM    109  O   UNL A   1      33.655  15.557  23.968  1.00  0.00    -0.454 OA
ATOM    110  C   UNL A   1      34.209  15.558  25.302  1.00  0.00     0.468 C 
ENDBRANCH 101 102
ENDBRANCH  99 101
ENDBRANCH  88  92
ENDBRANCH  82  86
ENDBRANCH  78  80
ENDBRANCH  77  78
ENDBRANCH  76  77
ENDBRANCH  75  76
ENDBRANCH  74  75
ENDBRANCH   1  74
TORSDOF 24
ENDMDL
