MODEL 1
REMARK VINA RESULT:     -10.0      0.000      0.000
REMARK SMILES Cc1ccc(C2=NN(C(=O)CCC(=O)OCCOCCOCCOC(=O)c3ccc(-c4c5nc(c(-c6cccc(S(=O)(=O)[O-])c6F)c6ccc([nH]6)c(-c6cccc(S(=O)(=O)[O-])c6F)c6nc(c(-c7cccc(S(=O)(=O)[O-])c7F)c7ccc4[nH]7)C=C6)C=C5)cc3)[C@H](C[C@@H]3C=c4cccc(C)c4=NC3=O)C2)cc1
REMARK SMILES IDX 19 1 18 2 17 3 16 4 15 5 13 6 14 7 12 8 11 9 9 10 10 11 8 12
REMARK SMILES IDX 6 13 7 14 104 15 90 16 5 17 1 18 2 19 3 20 106 21 4 22
REMARK SMILES IDX 105 23 91 24 92 25 93 26 102 27 94 28 101 29 103 30 95 31
REMARK SMILES IDX 100 32 96 33 98 34 97 35 99 36 20 37 21 38 22 39 23 40 24 41
REMARK SMILES IDX 25 42 26 43 27 44 28 45 89 46 29 47 88 48 30 49 31 50 32 51
REMARK SMILES IDX 82 52 33 53 87 54 81 55 83 56 34 57 86 58 80 59 79 60 35 62
REMARK SMILES IDX 67 63 47 64 66 65 48 66 51 67 65 68 84 69 49 70 50 71 64 73
REMARK SMILES IDX 85 74 52 75 36 76 37 77 45 78 38 79 40 80 46 81 39 82 41 83
REMARK SMILES IDX 42 84 43 85 44 86 68 87 69 88 77 89 70 90 72 91 78 92 71 93
REMARK SMILES IDX 73 94 74 95 75 96 76 97 53 98 54 99 62 100 55 101 57 102
REMARK SMILES IDX 63 103 56 104 58 105 59 106 60 107 61 108
REMARK H PARENT 83 61 51 72
REMARK Flexibility Score: inf
ROOT
ATOM      1  C   UNL A   1      45.745  24.214  24.966  1.00  0.00     0.188 C 
ENDROOT
BRANCH   1   2
ATOM      2  O   UNL A   1      45.588  24.605  26.371  1.00  0.00    -0.376 OA
BRANCH   2   3
ATOM      3  C   UNL A   1      44.638  25.587  26.847  1.00  0.00     0.202 C 
BRANCH   3   4
ATOM      4  C   UNL A   1      44.839  27.242  26.622  1.00  0.00     0.261 C 
BRANCH   4   5
ATOM      5  O   UNL A   1      44.102  28.415  27.356  1.00  0.00    -0.463 OA
BRANCH   5   6
ATOM      6  C   UNL A   1      42.919  28.763  26.809  1.00  0.00     0.306 C 
ATOM      7  O   UNL A   1      43.075  29.732  26.065  1.00  0.00    -0.252 OA
BRANCH   6   8
ATOM      8  C   UNL A   1      41.359  27.826  26.826  1.00  0.00     0.132 C 
BRANCH   8   9
ATOM      9  C   UNL A   1      40.947  26.441  26.446  1.00  0.00     0.114 C 
BRANCH   9  10
ATOM     10  C   UNL A   1      40.521  25.430  27.436  1.00  0.00     0.243 C 
ATOM     11  O   UNL A   1      40.730  25.692  28.628  1.00  0.00    -0.273 OA
BRANCH  10  12
ATOM     12  N   UNL A   1      40.091  24.186  27.033  1.00  0.00    -0.230 N 
ATOM     13  C   UNL A   1      40.838  22.284  26.426  1.00  0.00     0.070 C 
ATOM     14  N   UNL A   1      41.209  23.437  26.841  1.00  0.00    -0.174 NA
ATOM     15  C   UNL A   1      39.354  22.013  26.439  1.00  0.00     0.086 C 
ATOM     16  C   UNL A   1      38.888  23.475  26.319  1.00  0.00     0.118 C 
BRANCH  13  17
ATOM     17  C   UNL A   1      41.846  21.293  26.138  1.00  0.00    -0.002 A 
ATOM     18  C   UNL A   1      45.072  18.689  25.266  1.00  0.00     0.044 C 
ATOM     19  C   UNL A   1      43.891  19.575  25.502  1.00  0.00    -0.051 A 
ATOM     20  C   UNL A   1      44.039  20.948  25.272  1.00  0.00     0.004 A 
ATOM     21  C   UNL A   1      42.661  19.060  25.946  1.00  0.00     0.004 A 
ATOM     22  C   UNL A   1      43.005  21.810  25.575  1.00  0.00     0.010 A 
ATOM     23  C   UNL A   1      41.616  19.926  26.257  1.00  0.00     0.010 A 
ENDBRANCH  13  17
BRANCH  16  24
ATOM     24  C   UNL A   1      37.183  23.878  26.151  1.00  0.00     0.045 C 
BRANCH  24  25
ATOM     25  C   UNL A   1      35.813  23.766  24.842  1.00  0.00     0.106 C 
ATOM     26  C   UNL A   1      34.365  25.346  24.443  1.00  0.00    -0.003 C 
ATOM     27  C   UNL A   1      34.730  22.060  25.098  1.00  0.00     0.253 C 
ATOM     28  C   UNL A   1      32.914  25.182  24.678  1.00  0.00    -0.003 A 
ATOM     29  N   UNL A   1      32.992  22.282  25.261  1.00  0.00    -0.212 NA
ATOM     30  O   UNL A   1      35.199  20.927  25.061  1.00  0.00    -0.272 OA
ATOM     31  C   UNL A   1      32.202  26.372  25.090  1.00  0.00     0.010 A 
ATOM     32  C   UNL A   1      32.271  23.537  25.182  1.00  0.00     0.077 A 
ATOM     33  C   UNL A   1      31.131  26.279  25.874  1.00  0.00     0.001 A 
ATOM     34  C   UNL A   1      30.937  23.775  25.895  1.00  0.00    -0.025 A 
ATOM     35  C   UNL A   1      30.508  25.021  26.204  1.00  0.00     0.005 A 
ATOM     36  C   UNL A   1      30.201  22.596  26.433  1.00  0.00     0.047 C 
ENDBRANCH  24  25
ENDBRANCH  16  24
ENDBRANCH  10  12
ENDBRANCH   9  10
ENDBRANCH   8   9
ENDBRANCH   6   8
ENDBRANCH   5   6
ENDBRANCH   4   5
ENDBRANCH   3   4
ENDBRANCH   2   3
ENDBRANCH   1   2
BRANCH   1  37
ATOM     37  C   UNL A   1      46.790  24.808  23.926  1.00  0.00     0.188 C 
BRANCH  37  38
ATOM     38  O   UNL A   1      47.359  26.088  24.262  1.00  0.00    -0.376 OA
BRANCH  38  39
ATOM     39  C   UNL A   1      48.676  26.180  24.833  1.00  0.00     0.202 C 
BRANCH  39  40
ATOM     40  C   UNL A   1      49.340  27.608  24.556  1.00  0.00     0.261 C 
BRANCH  40  41
ATOM     41  O   UNL A   1      49.516  28.403  25.782  1.00  0.00    -0.460 OA
BRANCH  41  42
ATOM     42  C   UNL A   1      48.502  28.674  26.673  1.00  0.00     0.338 C 
ATOM     43  O   UNL A   1      47.630  29.485  26.433  1.00  0.00    -0.246 OA
BRANCH  42  44
ATOM     44  C   UNL A   1      48.832  27.732  28.082  1.00  0.00     0.060 A 
ATOM     45  C   UNL A   1      48.234  25.940  28.773  1.00  0.00     0.016 A 
ATOM     46  C   UNL A   1      49.156  28.881  29.218  1.00  0.00     0.016 A 
ATOM     47  C   UNL A   1      47.874  25.688  30.537  1.00  0.00     0.010 A 
ATOM     48  C   UNL A   1      48.633  28.422  30.863  1.00  0.00     0.010 A 
ATOM     49  C   UNL A   1      48.008  26.962  31.662  1.00  0.00    -0.014 A 
BRANCH  49  50
ATOM     50  C   UNL A   1      47.318  26.976  33.354  1.00  0.00     0.031 A 
ATOM     51  C   UNL A   1      46.115  27.995  34.259  1.00  0.00     0.074 A 
ATOM     52  C   UNL A   1      47.243  25.753  33.988  1.00  0.00     0.049 A 
ATOM     53  N   UNL A   1      45.730  27.998  35.544  1.00  0.00    -0.248 NA
ATOM     54  C   UNL A   1      45.158  29.010  33.751  1.00  0.00     0.031 C 
ATOM     55  C   UNL A   1      46.005  25.332  34.694  1.00  0.00     0.029 A 
ATOM     56  N   UNL A   1      47.942  24.538  33.920  1.00  0.00    -0.354 N 
ATOM     57  C   UNL A   1      44.545  28.870  35.600  1.00  0.00     0.074 A 
ATOM     58  C   UNL A   1      44.843  29.900  34.685  1.00  0.00     0.031 C 
ATOM     59  C   UNL A   1      46.040  24.036  35.002  1.00  0.00     0.029 A 
ATOM     60  C   UNL A   1      47.405  23.644  34.891  1.00  0.00     0.049 A 
ATOM     61  H   UNL A   1      48.682  24.336  33.304  1.00  0.00     0.167 HD
ATOM     62  C   UNL A   1      43.225  28.467  35.817  1.00  0.00     0.034 A 
ATOM     63  C   UNL A   1      48.095  23.180  35.979  1.00  0.00     0.034 A 
ATOM     64  C   UNL A   1      43.220  27.182  36.461  1.00  0.00     0.049 A 
ATOM     65  C   UNL A   1      47.519  23.605  37.341  1.00  0.00     0.074 A 
ATOM     66  C   UNL A   1      42.641  25.940  36.322  1.00  0.00     0.029 A 
ATOM     67  N   UNL A   1      44.149  27.067  37.456  1.00  0.00    -0.354 N 
ATOM     68  N   UNL A   1      46.294  24.041  37.532  1.00  0.00    -0.248 NA
ATOM     69  C   UNL A   1      48.265  23.627  38.602  1.00  0.00     0.031 C 
ATOM     70  C   UNL A   1      43.321  25.061  37.236  1.00  0.00     0.029 A 
ATOM     71  C   UNL A   1      44.241  25.806  37.956  1.00  0.00     0.049 A 
ATOM     72  H   UNL A   1      44.696  27.820  37.777  1.00  0.00     0.167 HD
ATOM     73  C   UNL A   1      46.217  24.713  38.735  1.00  0.00     0.074 A 
ATOM     74  C   UNL A   1      47.418  24.283  39.421  1.00  0.00     0.031 C 
ATOM     75  C   UNL A   1      45.251  25.660  38.996  1.00  0.00     0.034 A 
BRANCH  62  76
ATOM     76  C   UNL A   1      41.878  29.209  35.407  1.00  0.00     0.023 A 
ATOM     77  C   UNL A   1      41.578  30.396  36.118  1.00  0.00     0.012 A 
ATOM     78  C   UNL A   1      40.879  28.847  34.436  1.00  0.00     0.148 A 
ATOM     79  C   UNL A   1      40.444  31.195  35.855  1.00  0.00     0.002 A 
ATOM     80  C   UNL A   1      39.794  29.698  34.108  1.00  0.00     0.091 A 
ATOM     81  F   UNL A   1      40.897  27.628  33.881  1.00  0.00    -0.205 F 
ATOM     82  C   UNL A   1      39.572  30.871  34.826  1.00  0.00     0.022 A 
BRANCH  80  83
ATOM     83  S   UNL A   1      38.633  29.394  32.740  1.00  0.00     0.127 S 
ATOM     84  O   UNL A   1      37.852  28.258  33.235  1.00  0.00    -0.237 OA
ATOM     85  O   UNL A   1      37.885  30.650  32.674  1.00  0.00    -0.237 OA
ATOM     86  O   UNL A   1      39.456  29.114  31.571  1.00  0.00    -0.744 OA
ENDBRANCH  80  83
ENDBRANCH  62  76
BRANCH  63  87
ATOM     87  C   UNL A   1      49.469  22.757  35.577  1.00  0.00     0.023 A 
ATOM     88  C   UNL A   1      49.481  21.614  34.734  1.00  0.00     0.012 A 
ATOM     89  C   UNL A   1      50.464  23.735  35.395  1.00  0.00     0.148 A 
ATOM     90  C   UNL A   1      50.271  21.590  33.580  1.00  0.00     0.002 A 
ATOM     91  C   UNL A   1      51.257  23.698  34.246  1.00  0.00     0.091 A 
ATOM     92  F   UNL A   1      50.523  24.755  36.263  1.00  0.00    -0.205 F 
ATOM     93  C   UNL A   1      51.111  22.663  33.306  1.00  0.00     0.022 A 
BRANCH  91  94
ATOM     94  S   UNL A   1      52.358  25.063  33.854  1.00  0.00     0.127 S 
ATOM     95  O   UNL A   1      53.004  24.591  32.635  1.00  0.00    -0.237 OA
ATOM     96  O   UNL A   1      51.437  26.185  33.662  1.00  0.00    -0.237 OA
ATOM     97  O   UNL A   1      53.213  25.197  35.026  1.00  0.00    -0.744 OA
ENDBRANCH  91  94
ENDBRANCH  63  87
BRANCH  75  98
ATOM     98  C   UNL A   1      45.264  26.755  40.114  1.00  0.00     0.023 A 
ATOM     99  C   UNL A   1      44.360  26.744  41.185  1.00  0.00     0.012 A 
ATOM    100  C   UNL A   1      46.329  27.719  40.230  1.00  0.00     0.148 A 
ATOM    101  C   UNL A   1      44.462  27.637  42.267  1.00  0.00     0.002 A 
ATOM    102  C   UNL A   1      46.509  28.498  41.377  1.00  0.00     0.091 A 
ATOM    103  F   UNL A   1      47.192  27.900  39.216  1.00  0.00    -0.205 F 
ATOM    104  C   UNL A   1      45.549  28.490  42.381  1.00  0.00     0.022 A 
BRANCH 102 105
ATOM    105  S   UNL A   1      48.054  29.382  41.693  1.00  0.00     0.127 S 
ATOM    106  O   UNL A   1      49.048  28.321  41.548  1.00  0.00    -0.237 OA
ATOM    107  O   UNL A   1      48.075  30.383  40.625  1.00  0.00    -0.237 OA
ATOM    108  O   UNL A   1      47.895  29.940  43.030  1.00  0.00    -0.744 OA
ENDBRANCH 102 105
ENDBRANCH  75  98
ENDBRANCH  49  50
ENDBRANCH  42  44
ENDBRANCH  41  42
ENDBRANCH  40  41
ENDBRANCH  39  40
ENDBRANCH  38  39
ENDBRANCH  37  38
ENDBRANCH   1  37
TORSDOF 26
ENDMDL
MODEL 2
REMARK VINA RESULT:      -9.9      3.760      5.689
REMARK SMILES Cc1ccc(C2=NN(C(=O)CCC(=O)OCCOCCOCCOC(=O)c3ccc(-c4c5nc(c(-c6cccc(S(=O)(=O)[O-])c6F)c6ccc([nH]6)c(-c6cccc(S(=O)(=O)[O-])c6F)c6nc(c(-c7cccc(S(=O)(=O)[O-])c7F)c7ccc4[nH]7)C=C6)C=C5)cc3)[C@H](C[C@@H]3C=c4cccc(C)c4=NC3=O)C2)cc1
REMARK SMILES IDX 19 1 18 2 17 3 16 4 15 5 13 6 14 7 12 8 11 9 9 10 10 11 8 12
REMARK SMILES IDX 6 13 7 14 104 15 90 16 5 17 1 18 2 19 3 20 106 21 4 22
REMARK SMILES IDX 105 23 91 24 92 25 93 26 102 27 94 28 101 29 103 30 95 31
REMARK SMILES IDX 100 32 96 33 98 34 97 35 99 36 20 37 21 38 22 39 23 40 24 41
REMARK SMILES IDX 25 42 26 43 27 44 28 45 89 46 29 47 88 48 30 49 31 50 32 51
REMARK SMILES IDX 82 52 33 53 87 54 81 55 83 56 34 57 86 58 80 59 79 60 35 62
REMARK SMILES IDX 67 63 47 64 66 65 48 66 51 67 65 68 84 69 49 70 50 71 64 73
REMARK SMILES IDX 85 74 52 75 36 76 37 77 45 78 38 79 40 80 46 81 39 82 41 83
REMARK SMILES IDX 42 84 43 85 44 86 68 87 69 88 77 89 70 90 72 91 78 92 71 93
REMARK SMILES IDX 73 94 74 95 75 96 76 97 53 98 54 99 62 100 55 101 57 102
REMARK SMILES IDX 63 103 56 104 58 105 59 106 60 107 61 108
REMARK H PARENT 83 61 51 72
REMARK Flexibility Score: inf
ROOT
ATOM      1  C   UNL A   1      46.065  23.743  25.766  1.00  0.00     0.188 C 
ENDROOT
BRANCH   1   2
ATOM      2  O   UNL A   1      45.632  24.332  27.037  1.00  0.00    -0.376 OA
BRANCH   2   3
ATOM      3  C   UNL A   1      44.481  25.195  27.190  1.00  0.00     0.202 C 
BRANCH   3   4
ATOM      4  C   UNL A   1      44.464  26.801  26.689  1.00  0.00     0.261 C 
BRANCH   4   5
ATOM      5  O   UNL A   1      43.871  28.043  27.439  1.00  0.00    -0.463 OA
BRANCH   5   6
ATOM      6  C   UNL A   1      42.779  28.580  26.857  1.00  0.00     0.306 C 
ATOM      7  O   UNL A   1      43.093  29.607  26.255  1.00  0.00    -0.252 OA
BRANCH   6   8
ATOM      8  C   UNL A   1      41.138  27.822  26.644  1.00  0.00     0.132 C 
BRANCH   8   9
ATOM      9  C   UNL A   1      40.634  26.464  26.280  1.00  0.00     0.114 C 
BRANCH   9  10
ATOM     10  C   UNL A   1      39.719  25.689  27.144  1.00  0.00     0.243 C 
ATOM     11  O   UNL A   1      39.404  26.201  28.226  1.00  0.00    -0.273 OA
BRANCH  10  12
ATOM     12  N   UNL A   1      39.392  24.388  26.837  1.00  0.00    -0.230 N 
ATOM     13  C   UNL A   1      40.291  22.523  26.328  1.00  0.00     0.070 C 
ATOM     14  N   UNL A   1      40.568  23.729  26.654  1.00  0.00    -0.174 NA
ATOM     15  C   UNL A   1      38.839  22.123  26.409  1.00  0.00     0.086 C 
ATOM     16  C   UNL A   1      38.239  23.527  26.211  1.00  0.00     0.118 C 
BRANCH  13  17
ATOM     17  C   UNL A   1      41.376  21.608  26.069  1.00  0.00    -0.002 A 
ATOM     18  C   UNL A   1      44.286  18.627  25.302  1.00  0.00     0.044 C 
ATOM     19  C   UNL A   1      43.305  19.701  25.646  1.00  0.00    -0.051 A 
ATOM     20  C   UNL A   1      42.030  19.317  26.077  1.00  0.00     0.004 A 
ATOM     21  C   UNL A   1      43.637  21.063  25.541  1.00  0.00     0.004 A 
ATOM     22  C   UNL A   1      41.066  20.276  26.306  1.00  0.00     0.010 A 
ATOM     23  C   UNL A   1      42.666  22.034  25.768  1.00  0.00     0.010 A 
ENDBRANCH  13  17
BRANCH  16  24
ATOM     24  C   UNL A   1      36.500  23.765  26.076  1.00  0.00     0.045 C 
BRANCH  24  25
ATOM     25  C   UNL A   1      35.056  23.155  25.007  1.00  0.00     0.106 C 
ATOM     26  C   UNL A   1      34.432  24.090  23.139  1.00  0.00    -0.003 C 
ATOM     27  C   UNL A   1      33.370  22.972  26.137  1.00  0.00     0.253 C 
ATOM     28  C   UNL A   1      33.112  24.735  22.966  1.00  0.00    -0.003 A 
ATOM     29  N   UNL A   1      31.960  23.842  25.541  1.00  0.00    -0.212 NA
ATOM     30  O   UNL A   1      33.269  22.249  27.121  1.00  0.00    -0.272 OA
ATOM     31  C   UNL A   1      33.078  25.876  22.078  1.00  0.00     0.010 A 
ATOM     32  C   UNL A   1      31.877  24.620  24.321  1.00  0.00     0.077 A 
ATOM     33  C   UNL A   1      32.203  26.859  22.277  1.00  0.00     0.001 A 
ATOM     34  C   UNL A   1      30.910  25.793  24.147  1.00  0.00    -0.025 A 
ATOM     35  C   UNL A   1      31.136  26.774  23.242  1.00  0.00     0.005 A 
ATOM     36  C   UNL A   1      29.807  25.954  25.137  1.00  0.00     0.047 C 
ENDBRANCH  24  25
ENDBRANCH  16  24
ENDBRANCH  10  12
ENDBRANCH   9  10
ENDBRANCH   8   9
ENDBRANCH   6   8
ENDBRANCH   5   6
ENDBRANCH   4   5
ENDBRANCH   3   4
ENDBRANCH   2   3
ENDBRANCH   1   2
BRANCH   1  37
ATOM     37  C   UNL A   1      46.954  24.443  24.650  1.00  0.00     0.188 C 
BRANCH  37  38
ATOM     38  O   UNL A   1      47.165  25.860  24.804  1.00  0.00    -0.376 OA
BRANCH  38  39
ATOM     39  C   UNL A   1      48.240  26.359  25.617  1.00  0.00     0.202 C 
BRANCH  39  40
ATOM     40  C   UNL A   1      48.854  27.709  25.019  1.00  0.00     0.261 C 
BRANCH  40  41
ATOM     41  O   UNL A   1      48.547  28.889  25.843  1.00  0.00    -0.460 OA
BRANCH  41  42
ATOM     42  C   UNL A   1      47.275  29.246  26.228  1.00  0.00     0.338 C 
ATOM     43  O   UNL A   1      46.409  29.525  25.423  1.00  0.00    -0.246 OA
BRANCH  42  44
ATOM     44  C   UNL A   1      47.285  29.279  27.955  1.00  0.00     0.060 A 
ATOM     45  C   UNL A   1      46.625  28.054  29.409  1.00  0.00     0.016 A 
ATOM     46  C   UNL A   1      47.250  30.892  28.288  1.00  0.00     0.016 A 
ATOM     47  C   UNL A   1      45.843  28.718  30.909  1.00  0.00     0.010 A 
ATOM     48  C   UNL A   1      46.350  31.291  29.779  1.00  0.00     0.010 A 
ATOM     49  C   UNL A   1      45.619  30.394  31.128  1.00  0.00    -0.014 A 
BRANCH  49  50
ATOM     50  C   UNL A   1      44.522  31.178  32.361  1.00  0.00     0.031 A 
ATOM     51  C   UNL A   1      43.115  32.326  32.305  1.00  0.00     0.074 A 
ATOM     52  C   UNL A   1      44.307  30.463  33.521  1.00  0.00     0.049 A 
ATOM     53  N   UNL A   1      42.415  32.935  33.274  1.00  0.00    -0.248 NA
ATOM     54  C   UNL A   1      42.303  32.777  31.146  1.00  0.00     0.031 C 
ATOM     55  C   UNL A   1      42.935  30.290  34.069  1.00  0.00     0.029 A 
ATOM     56  N   UNL A   1      45.017  29.507  34.264  1.00  0.00    -0.354 N 
ATOM     57  C   UNL A   1      41.242  33.524  32.606  1.00  0.00     0.074 A 
ATOM     58  C   UNL A   1      41.748  33.963  31.367  1.00  0.00     0.031 C 
ATOM     59  C   UNL A   1      42.910  29.361  35.025  1.00  0.00     0.029 A 
ATOM     60  C   UNL A   1      44.264  29.176  35.427  1.00  0.00     0.049 A 
ATOM     61  H   UNL A   1      45.892  29.128  34.021  1.00  0.00     0.167 HD
ATOM     62  C   UNL A   1      39.916  33.101  32.727  1.00  0.00     0.034 A 
ATOM     63  C   UNL A   1      44.662  29.450  36.708  1.00  0.00     0.034 A 
ATOM     64  C   UNL A   1      39.766  32.349  33.944  1.00  0.00     0.049 A 
ATOM     65  C   UNL A   1      43.753  30.427  37.474  1.00  0.00     0.074 A 
ATOM     66  C   UNL A   1      39.260  31.144  34.378  1.00  0.00     0.029 A 
ATOM     67  N   UNL A   1      40.414  32.904  35.011  1.00  0.00    -0.354 N 
ATOM     68  N   UNL A   1      42.513  30.711  37.143  1.00  0.00    -0.248 NA
ATOM     69  C   UNL A   1      44.154  31.208  38.647  1.00  0.00     0.031 C 
ATOM     70  C   UNL A   1      39.698  30.977  35.739  1.00  0.00     0.029 A 
ATOM     71  C   UNL A   1      40.395  32.113  36.117  1.00  0.00     0.049 A 
ATOM     72  H   UNL A   1      40.851  33.786  34.981  1.00  0.00     0.167 HD
ATOM     73  C   UNL A   1      42.123  31.888  37.750  1.00  0.00     0.074 A 
ATOM     74  C   UNL A   1      43.117  32.058  38.789  1.00  0.00     0.031 C 
ATOM     75  C   UNL A   1      41.109  32.677  37.254  1.00  0.00     0.034 A 
BRANCH  62  76
ATOM     76  C   UNL A   1      38.707  33.314  31.715  1.00  0.00     0.023 A 
ATOM     77  C   UNL A   1      38.991  33.081  30.348  1.00  0.00     0.012 A 
ATOM     78  C   UNL A   1      37.356  33.744  31.962  1.00  0.00     0.148 A 
ATOM     79  C   UNL A   1      38.024  33.188  29.323  1.00  0.00     0.002 A 
ATOM     80  C   UNL A   1      36.365  33.759  30.948  1.00  0.00     0.091 A 
ATOM     81  F   UNL A   1      37.023  34.247  33.157  1.00  0.00    -0.205 F 
ATOM     82  C   UNL A   1      36.704  33.487  29.624  1.00  0.00     0.022 A 
BRANCH  80  83
ATOM     83  S   UNL A   1      34.600  34.078  31.248  1.00  0.00     0.127 S 
ATOM     84  O   UNL A   1      34.629  35.336  31.998  1.00  0.00    -0.237 OA
ATOM     85  O   UNL A   1      34.065  34.204  29.892  1.00  0.00    -0.237 OA
ATOM     86  O   UNL A   1      34.105  32.928  31.993  1.00  0.00    -0.744 OA
ENDBRANCH  80  83
ENDBRANCH  62  76
BRANCH  63  87
ATOM     87  C   UNL A   1      46.100  29.089  36.891  1.00  0.00     0.023 A 
ATOM     88  C   UNL A   1      46.363  27.709  36.684  1.00  0.00     0.012 A 
ATOM     89  C   UNL A   1      47.092  30.022  36.540  1.00  0.00     0.148 A 
ATOM     90  C   UNL A   1      47.446  27.303  35.898  1.00  0.00     0.002 A 
ATOM     91  C   UNL A   1      48.177  29.607  35.765  1.00  0.00     0.091 A 
ATOM     92  F   UNL A   1      46.891  31.313  36.842  1.00  0.00    -0.205 F 
ATOM     93  C   UNL A   1      48.316  28.260  35.386  1.00  0.00     0.022 A 
BRANCH  91  94
ATOM     94  S   UNL A   1      49.326  30.810  35.086  1.00  0.00     0.127 S 
ATOM     95  O   UNL A   1      49.931  31.366  36.291  1.00  0.00    -0.237 OA
ATOM     96  O   UNL A   1      50.227  29.985  34.276  1.00  0.00    -0.237 OA
ATOM     97  O   UNL A   1      48.495  31.716  34.304  1.00  0.00    -0.744 OA
ENDBRANCH  91  94
ENDBRANCH  63  87
BRANCH  75  98
ATOM     98  C   UNL A   1      40.822  34.181  37.582  1.00  0.00     0.023 A 
ATOM     99  C   UNL A   1      39.591  34.615  38.094  1.00  0.00     0.012 A 
ATOM    100  C   UNL A   1      41.862  35.178  37.577  1.00  0.00     0.148 A 
ATOM    101  C   UNL A   1      39.379  35.935  38.528  1.00  0.00     0.002 A 
ATOM    102  C   UNL A   1      41.686  36.443  38.149  1.00  0.00     0.091 A 
ATOM    103  F   UNL A   1      43.050  34.915  37.009  1.00  0.00    -0.205 F 
ATOM    104  C   UNL A   1      40.429  36.839  38.585  1.00  0.00     0.022 A 
BRANCH 102 105
ATOM    105  S   UNL A   1      43.088  37.523  38.517  1.00  0.00     0.127 S 
ATOM    106  O   UNL A   1      43.987  36.622  39.234  1.00  0.00    -0.237 OA
ATOM    107  O   UNL A   1      43.554  37.909  37.184  1.00  0.00    -0.237 OA
ATOM    108  O   UNL A   1      42.518  38.618  39.290  1.00  0.00    -0.744 OA
ENDBRANCH 102 105
ENDBRANCH  75  98
ENDBRANCH  49  50
ENDBRANCH  42  44
ENDBRANCH  41  42
ENDBRANCH  40  41
ENDBRANCH  39  40
ENDBRANCH  38  39
ENDBRANCH  37  38
ENDBRANCH   1  37
TORSDOF 26
ENDMDL
MODEL 3
REMARK VINA RESULT:      -9.7      3.450      5.432
REMARK SMILES Cc1ccc(C2=NN(C(=O)CCC(=O)OCCOCCOCCOC(=O)c3ccc(-c4c5nc(c(-c6cccc(S(=O)(=O)[O-])c6F)c6ccc([nH]6)c(-c6cccc(S(=O)(=O)[O-])c6F)c6nc(c(-c7cccc(S(=O)(=O)[O-])c7F)c7ccc4[nH]7)C=C6)C=C5)cc3)[C@H](C[C@@H]3C=c4cccc(C)c4=NC3=O)C2)cc1
REMARK SMILES IDX 19 1 18 2 17 3 16 4 15 5 13 6 14 7 12 8 11 9 9 10 10 11 8 12
REMARK SMILES IDX 6 13 7 14 104 15 90 16 5 17 1 18 2 19 3 20 106 21 4 22
REMARK SMILES IDX 105 23 91 24 92 25 93 26 102 27 94 28 101 29 103 30 95 31
REMARK SMILES IDX 100 32 96 33 98 34 97 35 99 36 20 37 21 38 22 39 23 40 24 41
REMARK SMILES IDX 25 42 26 43 27 44 28 45 89 46 29 47 88 48 30 49 31 50 32 51
REMARK SMILES IDX 82 52 33 53 87 54 81 55 83 56 34 57 86 58 80 59 79 60 35 62
REMARK SMILES IDX 67 63 47 64 66 65 48 66 51 67 65 68 84 69 49 70 50 71 64 73
REMARK SMILES IDX 85 74 52 75 36 76 37 77 45 78 38 79 40 80 46 81 39 82 41 83
REMARK SMILES IDX 42 84 43 85 44 86 68 87 69 88 77 89 70 90 72 91 78 92 71 93
REMARK SMILES IDX 73 94 74 95 75 96 76 97 53 98 54 99 62 100 55 101 57 102
REMARK SMILES IDX 63 103 56 104 58 105 59 106 60 107 61 108
REMARK H PARENT 83 61 51 72
REMARK Flexibility Score: inf
ROOT
ATOM      1  C   UNL A   1      45.739  23.743  25.322  1.00  0.00     0.188 C 
ENDROOT
BRANCH   1   2
ATOM      2  O   UNL A   1      45.424  24.487  26.546  1.00  0.00    -0.376 OA
BRANCH   2   3
ATOM      3  C   UNL A   1      44.321  25.415  26.680  1.00  0.00     0.202 C 
BRANCH   3   4
ATOM      4  C   UNL A   1      44.487  27.074  26.461  1.00  0.00     0.261 C 
BRANCH   4   5
ATOM      5  O   UNL A   1      43.790  28.230  27.258  1.00  0.00    -0.463 OA
BRANCH   5   6
ATOM      6  C   UNL A   1      42.678  28.722  26.674  1.00  0.00     0.306 C 
ATOM      7  O   UNL A   1      42.936  29.793  26.124  1.00  0.00    -0.252 OA
BRANCH   6   8
ATOM      8  C   UNL A   1      41.094  27.871  26.389  1.00  0.00     0.132 C 
BRANCH   8   9
ATOM      9  C   UNL A   1      40.678  26.460  26.129  1.00  0.00     0.114 C 
BRANCH   9  10
ATOM     10  C   UNL A   1      39.924  25.652  27.111  1.00  0.00     0.243 C 
ATOM     11  O   UNL A   1      39.815  26.117  28.253  1.00  0.00    -0.273 OA
BRANCH  10  12
ATOM     12  N   UNL A   1      39.532  24.366  26.813  1.00  0.00    -0.230 N 
ATOM     13  C   UNL A   1      40.336  22.449  26.344  1.00  0.00     0.070 C 
ATOM     14  N   UNL A   1      40.673  23.642  26.661  1.00  0.00    -0.174 NA
ATOM     15  C   UNL A   1      38.863  22.130  26.403  1.00  0.00     0.086 C 
ATOM     16  C   UNL A   1      38.345  23.562  26.176  1.00  0.00     0.118 C 
BRANCH  13  17
ATOM     17  C   UNL A   1      41.374  21.473  26.117  1.00  0.00    -0.002 A 
ATOM     18  C   UNL A   1      44.131  18.325  25.455  1.00  0.00     0.044 C 
ATOM     19  C   UNL A   1      43.205  19.458  25.762  1.00  0.00    -0.051 A 
ATOM     20  C   UNL A   1      41.913  19.154  26.207  1.00  0.00     0.004 A 
ATOM     21  C   UNL A   1      43.604  20.797  25.608  1.00  0.00     0.004 A 
ATOM     22  C   UNL A   1      40.998  20.167  26.402  1.00  0.00     0.010 A 
ATOM     23  C   UNL A   1      42.683  21.823  25.801  1.00  0.00     0.010 A 
ENDBRANCH  13  17
BRANCH  16  24
ATOM     24  C   UNL A   1      36.625  23.893  26.005  1.00  0.00     0.045 C 
BRANCH  24  25
ATOM     25  C   UNL A   1      35.140  23.251  25.011  1.00  0.00     0.106 C 
ATOM     26  C   UNL A   1      34.416  24.155  23.164  1.00  0.00    -0.003 C 
ATOM     27  C   UNL A   1      33.512  23.058  26.221  1.00  0.00     0.253 C 
ATOM     28  C   UNL A   1      33.081  24.779  23.046  1.00  0.00    -0.003 A 
ATOM     29  N   UNL A   1      32.063  23.901  25.683  1.00  0.00    -0.212 NA
ATOM     30  O   UNL A   1      33.468  22.345  27.217  1.00  0.00    -0.272 OA
ATOM     31  C   UNL A   1      32.989  25.909  22.148  1.00  0.00     0.010 A 
ATOM     32  C   UNL A   1      31.913  24.663  24.459  1.00  0.00     0.077 A 
ATOM     33  C   UNL A   1      32.110  26.882  22.377  1.00  0.00     0.001 A 
ATOM     34  C   UNL A   1      30.921  25.821  24.318  1.00  0.00    -0.025 A 
ATOM     35  C   UNL A   1      31.090  26.794  23.392  1.00  0.00     0.005 A 
ATOM     36  C   UNL A   1      29.864  25.978  25.356  1.00  0.00     0.047 C 
ENDBRANCH  24  25
ENDBRANCH  16  24
ENDBRANCH  10  12
ENDBRANCH   9  10
ENDBRANCH   8   9
ENDBRANCH   6   8
ENDBRANCH   5   6
ENDBRANCH   4   5
ENDBRANCH   3   4
ENDBRANCH   2   3
ENDBRANCH   1   2
BRANCH   1  37
ATOM     37  C   UNL A   1      46.875  24.091  24.266  1.00  0.00     0.188 C 
BRANCH  37  38
ATOM     38  O   UNL A   1      47.379  25.440  24.299  1.00  0.00    -0.376 OA
BRANCH  38  39
ATOM     39  C   UNL A   1      48.605  25.751  24.984  1.00  0.00     0.202 C 
BRANCH  39  40
ATOM     40  C   UNL A   1      49.313  27.045  24.368  1.00  0.00     0.261 C 
BRANCH  40  41
ATOM     41  O   UNL A   1      48.997  28.276  25.111  1.00  0.00    -0.460 OA
BRANCH  41  42
ATOM     42  C   UNL A   1      47.725  28.636  25.495  1.00  0.00     0.338 C 
ATOM     43  O   UNL A   1      46.848  28.869  24.688  1.00  0.00    -0.246 OA
BRANCH  42  44
ATOM     44  C   UNL A   1      47.753  28.744  27.219  1.00  0.00     0.060 A 
ATOM     45  C   UNL A   1      47.223  27.532  28.734  1.00  0.00     0.016 A 
ATOM     46  C   UNL A   1      47.579  30.361  27.482  1.00  0.00     0.016 A 
ATOM     47  C   UNL A   1      46.403  28.189  30.216  1.00  0.00     0.010 A 
ATOM     48  C   UNL A   1      46.666  30.745  28.969  1.00  0.00     0.010 A 
ATOM     49  C   UNL A   1      46.034  29.847  30.368  1.00  0.00    -0.014 A 
BRANCH  49  50
ATOM     50  C   UNL A   1      44.886  30.584  31.584  1.00  0.00     0.031 A 
ATOM     51  C   UNL A   1      43.437  31.677  31.505  1.00  0.00     0.074 A 
ATOM     52  C   UNL A   1      44.679  29.858  32.738  1.00  0.00     0.049 A 
ATOM     53  N   UNL A   1      42.698  32.256  32.464  1.00  0.00    -0.248 NA
ATOM     54  C   UNL A   1      42.628  32.100  30.334  1.00  0.00     0.031 C 
ATOM     55  C   UNL A   1      43.307  29.631  33.262  1.00  0.00     0.029 A 
ATOM     56  N   UNL A   1      45.414  28.929  33.490  1.00  0.00    -0.354 N 
ATOM     57  C   UNL A   1      41.515  32.801  31.778  1.00  0.00     0.074 A 
ATOM     58  C   UNL A   1      42.024  33.263  30.548  1.00  0.00     0.031 C 
ATOM     59  C   UNL A   1      43.302  28.699  34.215  1.00  0.00     0.029 A 
ATOM     60  C   UNL A   1      44.654  28.565  34.640  1.00  0.00     0.049 A 
ATOM     61  H   UNL A   1      46.307  28.585  33.262  1.00  0.00     0.167 HD
ATOM     62  C   UNL A   1      40.204  32.327  31.875  1.00  0.00     0.034 A 
ATOM     63  C   UNL A   1      45.020  28.850  35.928  1.00  0.00     0.034 A 
ATOM     64  C   UNL A   1      40.063  31.566  33.088  1.00  0.00     0.049 A 
ATOM     65  C   UNL A   1      44.061  29.790  36.681  1.00  0.00     0.074 A 
ATOM     66  C   UNL A   1      39.596  30.341  33.511  1.00  0.00     0.029 A 
ATOM     67  N   UNL A   1      40.671  32.143  34.166  1.00  0.00    -0.354 N 
ATOM     68  N   UNL A   1      42.816  30.027  36.329  1.00  0.00    -0.248 NA
ATOM     69  C   UNL A   1      44.411  30.582  37.862  1.00  0.00     0.031 C 
ATOM     70  C   UNL A   1      40.018  30.187  34.878  1.00  0.00     0.029 A 
ATOM     71  C   UNL A   1      40.663  31.349  35.271  1.00  0.00     0.049 A 
ATOM     72  H   UNL A   1      41.073  33.041  34.146  1.00  0.00     0.167 HD
ATOM     73  C   UNL A   1      42.371  31.185  36.932  1.00  0.00     0.074 A 
ATOM     74  C   UNL A   1      43.340  31.391  37.989  1.00  0.00     0.031 C 
ATOM     75  C   UNL A   1      41.336  31.937  36.420  1.00  0.00     0.034 A 
BRANCH  62  76
ATOM     76  C   UNL A   1      39.005  32.496  30.843  1.00  0.00     0.023 A 
ATOM     77  C   UNL A   1      38.671  33.825  30.488  1.00  0.00     0.012 A 
ATOM     78  C   UNL A   1      38.167  31.502  30.225  1.00  0.00     0.148 A 
ATOM     79  C   UNL A   1      37.660  34.151  29.557  1.00  0.00     0.002 A 
ATOM     80  C   UNL A   1      37.218  31.825  29.223  1.00  0.00     0.091 A 
ATOM     81  F   UNL A   1      38.194  30.238  30.664  1.00  0.00    -0.205 F 
ATOM     82  C   UNL A   1      36.959  33.154  28.894  1.00  0.00     0.022 A 
BRANCH  80  83
ATOM     83  S   UNL A   1      36.294  30.593  28.255  1.00  0.00     0.127 S 
ATOM     84  O   UNL A   1      37.289  30.147  27.277  1.00  0.00    -0.237 OA
ATOM     85  O   UNL A   1      35.954  29.587  29.262  1.00  0.00    -0.237 OA
ATOM     86  O   UNL A   1      35.151  31.300  27.692  1.00  0.00    -0.744 OA
ENDBRANCH  80  83
ENDBRANCH  62  76
BRANCH  63  87
ATOM     87  C   UNL A   1      46.467  28.545  36.135  1.00  0.00     0.023 A 
ATOM     88  C   UNL A   1      47.268  29.705  36.301  1.00  0.00     0.012 A 
ATOM     89  C   UNL A   1      46.830  27.374  36.824  1.00  0.00     0.148 A 
ATOM     90  C   UNL A   1      48.214  29.774  37.328  1.00  0.00     0.002 A 
ATOM     91  C   UNL A   1      47.784  27.448  37.842  1.00  0.00     0.091 A 
ATOM     92  F   UNL A   1      46.144  26.248  36.579  1.00  0.00    -0.205 F 
ATOM     93  C   UNL A   1      48.424  28.664  38.139  1.00  0.00     0.022 A 
BRANCH  91  94
ATOM     94  S   UNL A   1      48.089  26.036  38.910  1.00  0.00     0.127 S 
ATOM     95  O   UNL A   1      49.226  26.494  39.702  1.00  0.00    -0.237 OA
ATOM     96  O   UNL A   1      46.836  25.912  39.658  1.00  0.00    -0.237 OA
ATOM     97  O   UNL A   1      48.343  24.929  37.998  1.00  0.00    -0.744 OA
ENDBRANCH  91  94
ENDBRANCH  63  87
BRANCH  75  98
ATOM     98  C   UNL A   1      40.986  33.427  36.747  1.00  0.00     0.023 A 
ATOM     99  C   UNL A   1      39.721  33.816  37.211  1.00  0.00     0.012 A 
ATOM    100  C   UNL A   1      41.991  34.459  36.793  1.00  0.00     0.148 A 
ATOM    101  C   UNL A   1      39.446  35.125  37.644  1.00  0.00     0.002 A 
ATOM    102  C   UNL A   1      41.749  35.712  37.365  1.00  0.00     0.091 A 
ATOM    103  F   UNL A   1      43.210  34.239  36.272  1.00  0.00    -0.205 F 
ATOM    104  C   UNL A   1      40.462  36.063  37.752  1.00  0.00     0.022 A 
BRANCH 102 105
ATOM    105  S   UNL A   1      43.098  36.834  37.799  1.00  0.00     0.127 S 
ATOM    106  O   UNL A   1      42.397  37.883  38.536  1.00  0.00    -0.237 OA
ATOM    107  O   UNL A   1      43.965  35.990  38.623  1.00  0.00    -0.237 OA
ATOM    108  O   UNL A   1      43.682  37.222  36.522  1.00  0.00    -0.744 OA
ENDBRANCH 102 105
ENDBRANCH  75  98
ENDBRANCH  49  50
ENDBRANCH  42  44
ENDBRANCH  41  42
ENDBRANCH  40  41
ENDBRANCH  39  40
ENDBRANCH  38  39
ENDBRANCH  37  38
ENDBRANCH   1  37
TORSDOF 26
ENDMDL
