MODEL 1
REMARK VINA RESULT:      -9.9      0.000      0.000
REMARK SMILES O=C(C[C@@H](NC(=O)c1cc(-c2ccc(F)cc2)on1)c1cccc(Br)c1)OCCOCCOCCOC(=O)c1ccc(-c2c3nc(c(-c4cccc(S(=O)(=O)[O-])c4F)c4ccc([nH]4)c(-c4cccc(S(=O)(=O)[O-])c4F)c4nc(c(-c5cccc(S(=O)(=O)[O-])c5F)c5ccc2[nH]5)C=C4)C=C3)cc1
REMARK SMILES IDX 31 1 30 2 29 3 28 4 27 5 2 6 1 7 3 8 4 9 5 10 6 11 7 13 8 14
REMARK SMILES IDX 9 15 19 16 10 17 18 18 11 19 12 20 17 21 13 22 16 23 14 24
REMARK SMILES IDX 15 25 20 26 21 27 26 28 22 29 24 30 23 31 25 32 32 33 33 34
REMARK SMILES IDX 34 35 35 36 36 37 37 38 38 39 39 40 40 41 101 42 41 43
REMARK SMILES IDX 100 44 42 45 43 46 44 47 94 48 45 49 99 50 93 51 95 52 46 53
REMARK SMILES IDX 98 54 92 55 91 56 47 58 79 59 59 60 78 61 60 62 63 63 77 64
REMARK SMILES IDX 96 65 61 66 62 67 76 69 97 70 64 71 48 72 49 73 57 74 50 75
REMARK SMILES IDX 52 76 58 77 51 78 53 79 54 80 55 81 56 82 80 83 81 84 89 85
REMARK SMILES IDX 82 86 84 87 90 88 83 89 85 90 86 91 87 92 88 93 65 94 66 95
REMARK SMILES IDX 74 96 67 97 69 98 75 99 68 100 70 101 71 102 72 103 73 104
REMARK H PARENT 5 12 95 57 63 68
REMARK Flexibility Score: inf
ROOT
ATOM      1  C   UNL A   1      34.807  30.634  27.251  1.00  0.00     0.188 C 
ENDROOT
BRANCH   1   2
ATOM      2  O   UNL A   1      33.564  30.112  26.820  1.00  0.00    -0.376 OA
BRANCH   2   3
ATOM      3  C   UNL A   1      33.123  28.831  27.268  1.00  0.00     0.202 C 
BRANCH   3   4
ATOM      4  C   UNL A   1      31.629  28.487  27.260  1.00  0.00     0.261 C 
BRANCH   4   5
ATOM      5  O   UNL A   1      31.442  27.056  27.235  1.00  0.00    -0.463 OA
BRANCH   5   6
ATOM      6  C   UNL A   1      30.905  26.525  26.113  1.00  0.00     0.308 C 
ATOM      7  O   UNL A   1      30.515  27.213  25.177  1.00  0.00    -0.252 OA
BRANCH   6   8
ATOM      8  C   UNL A   1      30.667  25.032  26.216  1.00  0.00     0.152 C 
BRANCH   8   9
ATOM      9  C   UNL A   1      30.814  24.135  24.962  1.00  0.00     0.124 C 
BRANCH   9  10
ATOM     10  N   UNL A   1      31.212  24.865  23.750  1.00  0.00    -0.343 N 
ATOM     11  C   UNL A   1      32.391  25.272  23.187  1.00  0.00     0.273 C 
ATOM     12  H   UNL A   1      30.434  25.128  23.207  1.00  0.00     0.164 HD
ATOM     13  O   UNL A   1      32.327  25.879  22.116  1.00  0.00    -0.267 OA
BRANCH  11  14
ATOM     14  C   UNL A   1      33.630  25.007  23.878  1.00  0.00     0.171 A 
ATOM     15  C   UNL A   1      34.638  24.096  23.507  1.00  0.00     0.088 A 
ATOM     16  N   UNL A   1      33.920  25.609  25.044  1.00  0.00    -0.074 NA
ATOM     17  C   UNL A   1      35.451  24.030  24.608  1.00  0.00     0.167 A 
ATOM     18  O   UNL A   1      35.047  24.954  25.523  1.00  0.00    -0.355 OA
BRANCH  17  19
ATOM     19  C   UNL A   1      36.564  23.179  24.959  1.00  0.00     0.020 A 
ATOM     20  C   UNL A   1      36.521  21.817  24.624  1.00  0.00     0.015 A 
ATOM     21  C   UNL A   1      37.642  23.670  25.707  1.00  0.00     0.015 A 
ATOM     22  C   UNL A   1      37.556  20.967  25.003  1.00  0.00     0.040 A 
ATOM     23  C   UNL A   1      38.670  22.813  26.098  1.00  0.00     0.040 A 
ATOM     24  C   UNL A   1      38.628  21.476  25.723  1.00  0.00     0.123 A 
ATOM     25  F   UNL A   1      39.643  20.664  26.041  1.00  0.00    -0.207 F 
ENDBRANCH  17  19
ENDBRANCH  11  14
ENDBRANCH   9  10
BRANCH   9  26
ATOM     26  C   UNL A   1      31.727  22.977  25.360  1.00  0.00    -0.024 A 
ATOM     27  C   UNL A   1      32.460  23.053  26.558  1.00  0.00     0.006 A 
ATOM     28  C   UNL A   1      31.895  21.838  24.551  1.00  0.00     0.021 A 
ATOM     29  C   UNL A   1      33.286  22.001  26.962  1.00  0.00     0.002 A 
ATOM     30  C   UNL A   1      32.719  20.788  24.966  1.00  0.00     0.018 A 
ATOM     31  C   UNL A   1      33.413  20.864  26.169  1.00  0.00     0.016 A 
ATOM     32  Br  UNL A   1      32.864  19.235  23.897  1.00  0.00    -0.051 Br
ENDBRANCH   9  26
ENDBRANCH   8   9
ENDBRANCH   6   8
ENDBRANCH   5   6
ENDBRANCH   4   5
ENDBRANCH   3   4
ENDBRANCH   2   3
ENDBRANCH   1   2
BRANCH   1  33
ATOM     33  C   UNL A   1      34.848  32.005  27.934  1.00  0.00     0.188 C 
BRANCH  33  34
ATOM     34  O   UNL A   1      33.638  32.588  28.379  1.00  0.00    -0.376 OA
BRANCH  34  35
ATOM     35  C   UNL A   1      33.325  33.906  27.942  1.00  0.00     0.202 C 
BRANCH  35  36
ATOM     36  C   UNL A   1      32.662  34.923  28.882  1.00  0.00     0.261 C 
BRANCH  36  37
ATOM     37  O   UNL A   1      33.558  35.599  29.783  1.00  0.00    -0.460 OA
BRANCH  37  38
ATOM     38  C   UNL A   1      33.642  35.059  31.020  1.00  0.00     0.338 C 
ATOM     39  O   UNL A   1      32.866  35.235  31.955  1.00  0.00    -0.246 OA
BRANCH  38  40
ATOM     40  C   UNL A   1      34.750  34.095  31.105  1.00  0.00     0.060 A 
ATOM     41  C   UNL A   1      34.576  32.938  31.876  1.00  0.00     0.016 A 
ATOM     42  C   UNL A   1      35.999  34.412  30.572  1.00  0.00     0.016 A 
ATOM     43  C   UNL A   1      35.668  32.109  32.144  1.00  0.00     0.010 A 
ATOM     44  C   UNL A   1      37.093  33.587  30.854  1.00  0.00     0.010 A 
ATOM     45  C   UNL A   1      36.942  32.451  31.671  1.00  0.00    -0.014 A 
BRANCH  45  46
ATOM     46  C   UNL A   1      38.136  31.701  32.134  1.00  0.00     0.031 A 
ATOM     47  C   UNL A   1      38.765  32.050  33.456  1.00  0.00     0.074 A 
ATOM     48  C   UNL A   1      38.662  30.711  31.392  1.00  0.00     0.049 A 
ATOM     49  N   UNL A   1      39.836  31.554  34.019  1.00  0.00    -0.248 NA
ATOM     50  C   UNL A   1      38.093  33.089  34.253  1.00  0.00     0.031 C 
ATOM     51  C   UNL A   1      38.135  30.242  30.113  1.00  0.00     0.029 A 
ATOM     52  N   UNL A   1      39.769  29.928  31.610  1.00  0.00    -0.354 N 
ATOM     53  C   UNL A   1      39.983  32.232  35.222  1.00  0.00     0.074 A 
ATOM     54  C   UNL A   1      38.895  33.184  35.304  1.00  0.00     0.031 C 
ATOM     55  C   UNL A   1      38.925  29.256  29.655  1.00  0.00     0.029 A 
ATOM     56  C   UNL A   1      40.035  29.054  30.585  1.00  0.00     0.049 A 
ATOM     57  H   UNL A   1      40.320  29.989  32.425  1.00  0.00     0.167 HD
ATOM     58  C   UNL A   1      40.924  32.067  36.183  1.00  0.00     0.034 A 
ATOM     59  C   UNL A   1      41.067  28.206  30.404  1.00  0.00     0.034 A 
ATOM     60  C   UNL A   1      41.998  31.113  36.118  1.00  0.00     0.049 A 
ATOM     61  C   UNL A   1      42.159  28.115  31.437  1.00  0.00     0.074 A 
ATOM     62  C   UNL A   1      42.972  30.853  37.067  1.00  0.00     0.029 A 
ATOM     63  N   UNL A   1      42.252  30.272  35.047  1.00  0.00    -0.354 N 
ATOM     64  N   UNL A   1      42.243  28.707  32.602  1.00  0.00    -0.248 NA
ATOM     65  C   UNL A   1      43.291  27.224  31.135  1.00  0.00     0.031 C 
ATOM     66  C   UNL A   1      43.834  29.878  36.558  1.00  0.00     0.029 A 
ATOM     67  C   UNL A   1      43.375  29.505  35.305  1.00  0.00     0.049 A 
ATOM     68  H   UNL A   1      41.713  30.227  34.224  1.00  0.00     0.167 HD
ATOM     69  C   UNL A   1      43.408  28.225  33.191  1.00  0.00     0.074 A 
ATOM     70  C   UNL A   1      43.998  27.293  32.256  1.00  0.00     0.031 C 
ATOM     71  C   UNL A   1      43.936  28.534  34.401  1.00  0.00     0.034 A 
BRANCH  58  72
ATOM     72  C   UNL A   1      40.824  32.921  37.419  1.00  0.00     0.023 A 
ATOM     73  C   UNL A   1      39.999  32.505  38.484  1.00  0.00     0.012 A 
ATOM     74  C   UNL A   1      41.612  34.079  37.564  1.00  0.00     0.148 A 
ATOM     75  C   UNL A   1      39.943  33.241  39.666  1.00  0.00     0.002 A 
ATOM     76  C   UNL A   1      41.585  34.783  38.762  1.00  0.00     0.091 A 
ATOM     77  F   UNL A   1      42.372  34.468  36.531  1.00  0.00    -0.205 F 
ATOM     78  C   UNL A   1      40.744  34.371  39.809  1.00  0.00     0.022 A 
BRANCH  76  79
ATOM     79  S   UNL A   1      42.645  36.198  39.075  1.00  0.00     0.127 S 
ATOM     80  O   UNL A   1      42.161  37.156  38.083  1.00  0.00    -0.237 OA
ATOM     81  O   UNL A   1      42.311  36.533  40.460  1.00  0.00    -0.237 OA
ATOM     82  O   UNL A   1      44.009  35.728  38.877  1.00  0.00    -0.744 OA
ENDBRANCH  76  79
ENDBRANCH  58  72
BRANCH  59  83
ATOM     83  C   UNL A   1      41.118  27.357  29.185  1.00  0.00     0.023 A 
ATOM     84  C   UNL A   1      40.353  26.176  29.124  1.00  0.00     0.012 A 
ATOM     85  C   UNL A   1      41.905  27.723  28.081  1.00  0.00     0.148 A 
ATOM     86  C   UNL A   1      40.393  25.361  27.992  1.00  0.00     0.002 A 
ATOM     87  C   UNL A   1      41.902  26.932  26.940  1.00  0.00     0.091 A 
ATOM     88  F   UNL A   1      42.598  28.869  28.144  1.00  0.00    -0.205 F 
ATOM     89  C   UNL A   1      41.167  25.740  26.898  1.00  0.00     0.022 A 
BRANCH  87  90
ATOM     90  S   UNL A   1      42.776  27.448  25.465  1.00  0.00     0.127 S 
ATOM     91  O   UNL A   1      42.059  28.661  25.076  1.00  0.00    -0.237 OA
ATOM     92  O   UNL A   1      44.120  27.672  26.001  1.00  0.00    -0.237 OA
ATOM     93  O   UNL A   1      42.632  26.330  24.543  1.00  0.00    -0.744 OA
ENDBRANCH  87  90
ENDBRANCH  59  83
BRANCH  71  94
ATOM     94  C   UNL A   1      45.193  27.826  34.834  1.00  0.00     0.023 A 
ATOM     95  C   UNL A   1      46.450  28.418  34.608  1.00  0.00     0.012 A 
ATOM     96  C   UNL A   1      45.118  26.622  35.566  1.00  0.00     0.148 A 
ATOM     97  C   UNL A   1      47.614  27.816  35.089  1.00  0.00     0.002 A 
ATOM     98  C   UNL A   1      46.276  26.055  36.083  1.00  0.00     0.091 A 
ATOM     99  F   UNL A   1      43.912  26.064  35.753  1.00  0.00    -0.205 F 
ATOM    100  C   UNL A   1      47.525  26.644  35.838  1.00  0.00     0.022 A 
BRANCH  98 101
ATOM    101  S   UNL A   1      46.249  24.603  37.142  1.00  0.00     0.127 S 
ATOM    102  O   UNL A   1      45.628  25.131  38.356  1.00  0.00    -0.237 OA
ATOM    103  O   UNL A   1      45.408  23.680  36.380  1.00  0.00    -0.237 OA
ATOM    104  O   UNL A   1      47.636  24.182  37.285  1.00  0.00    -0.744 OA
ENDBRANCH  98 101
ENDBRANCH  71  94
ENDBRANCH  45  46
ENDBRANCH  38  40
ENDBRANCH  37  38
ENDBRANCH  36  37
ENDBRANCH  35  36
ENDBRANCH  34  35
ENDBRANCH  33  34
ENDBRANCH   1  33
TORSDOF 25
ENDMDL
MODEL 2
REMARK VINA RESULT:      -9.4      7.630     10.522
REMARK SMILES O=C(C[C@@H](NC(=O)c1cc(-c2ccc(F)cc2)on1)c1cccc(Br)c1)OCCOCCOCCOC(=O)c1ccc(-c2c3nc(c(-c4cccc(S(=O)(=O)[O-])c4F)c4ccc([nH]4)c(-c4cccc(S(=O)(=O)[O-])c4F)c4nc(c(-c5cccc(S(=O)(=O)[O-])c5F)c5ccc2[nH]5)C=C4)C=C3)cc1
REMARK SMILES IDX 31 1 30 2 29 3 28 4 27 5 2 6 1 7 3 8 4 9 5 10 6 11 7 13 8 14
REMARK SMILES IDX 9 15 19 16 10 17 18 18 11 19 12 20 17 21 13 22 16 23 14 24
REMARK SMILES IDX 15 25 20 26 21 27 26 28 22 29 24 30 23 31 25 32 32 33 33 34
REMARK SMILES IDX 34 35 35 36 36 37 37 38 38 39 39 40 40 41 101 42 41 43
REMARK SMILES IDX 100 44 42 45 43 46 44 47 94 48 45 49 99 50 93 51 95 52 46 53
REMARK SMILES IDX 98 54 92 55 91 56 47 58 79 59 59 60 78 61 60 62 63 63 77 64
REMARK SMILES IDX 96 65 61 66 62 67 76 69 97 70 64 71 48 72 49 73 57 74 50 75
REMARK SMILES IDX 52 76 58 77 51 78 53 79 54 80 55 81 56 82 80 83 81 84 89 85
REMARK SMILES IDX 82 86 84 87 90 88 83 89 85 90 86 91 87 92 88 93 65 94 66 95
REMARK SMILES IDX 74 96 67 97 69 98 75 99 68 100 70 101 71 102 72 103 73 104
REMARK H PARENT 5 12 95 57 63 68
REMARK Flexibility Score: inf
ROOT
ATOM      1  C   UNL A   1      34.108  32.070  27.919  1.00  0.00     0.188 C 
ENDROOT
BRANCH   1   2
ATOM      2  O   UNL A   1      34.674  30.789  28.118  1.00  0.00    -0.376 OA
BRANCH   2   3
ATOM      3  C   UNL A   1      34.604  29.799  27.093  1.00  0.00     0.202 C 
BRANCH   3   4
ATOM      4  C   UNL A   1      33.711  28.566  27.276  1.00  0.00     0.261 C 
BRANCH   4   5
ATOM      5  O   UNL A   1      32.507  28.697  26.491  1.00  0.00    -0.463 OA
BRANCH   5   6
ATOM      6  C   UNL A   1      32.478  28.063  25.296  1.00  0.00     0.308 C 
ATOM      7  O   UNL A   1      33.008  28.523  24.291  1.00  0.00    -0.252 OA
BRANCH   6   8
ATOM      8  C   UNL A   1      31.578  26.845  25.290  1.00  0.00     0.152 C 
BRANCH   8   9
ATOM      9  C   UNL A   1      32.118  25.479  25.787  1.00  0.00     0.124 C 
BRANCH   9  10
ATOM     10  N   UNL A   1      31.133  24.687  26.536  1.00  0.00    -0.343 N 
ATOM     11  C   UNL A   1      30.969  23.367  26.857  1.00  0.00     0.273 C 
ATOM     12  H   UNL A   1      30.409  25.247  26.898  1.00  0.00     0.164 HD
ATOM     13  O   UNL A   1      29.985  23.067  27.536  1.00  0.00    -0.267 OA
BRANCH  11  14
ATOM     14  C   UNL A   1      31.921  22.399  26.366  1.00  0.00     0.171 A 
ATOM     15  C   UNL A   1      31.783  21.554  25.247  1.00  0.00     0.088 A 
ATOM     16  N   UNL A   1      33.076  22.166  27.014  1.00  0.00    -0.074 NA
ATOM     17  C   UNL A   1      32.817  20.664  25.371  1.00  0.00     0.167 A 
ATOM     18  O   UNL A   1      33.615  21.039  26.408  1.00  0.00    -0.355 OA
BRANCH  17  19
ATOM     19  C   UNL A   1      33.162  19.454  24.661  1.00  0.00     0.020 A 
ATOM     20  C   UNL A   1      34.360  18.793  24.972  1.00  0.00     0.015 A 
ATOM     21  C   UNL A   1      32.367  18.982  23.608  1.00  0.00     0.015 A 
ATOM     22  C   UNL A   1      34.740  17.658  24.262  1.00  0.00     0.040 A 
ATOM     23  C   UNL A   1      32.758  17.853  22.889  1.00  0.00     0.040 A 
ATOM     24  C   UNL A   1      33.929  17.190  23.237  1.00  0.00     0.123 A 
ATOM     25  F   UNL A   1      34.274  16.069  22.592  1.00  0.00    -0.207 F 
ENDBRANCH  17  19
ENDBRANCH  11  14
ENDBRANCH   9  10
BRANCH   9  26
ATOM     26  C   UNL A   1      32.732  24.786  24.572  1.00  0.00    -0.024 A 
ATOM     27  C   UNL A   1      31.961  24.618  23.407  1.00  0.00     0.006 A 
ATOM     28  C   UNL A   1      34.041  24.270  24.581  1.00  0.00     0.021 A 
ATOM     29  C   UNL A   1      32.500  24.010  22.271  1.00  0.00     0.002 A 
ATOM     30  C   UNL A   1      34.574  23.669  23.438  1.00  0.00     0.018 A 
ATOM     31  C   UNL A   1      33.810  23.538  22.283  1.00  0.00     0.016 A 
ATOM     32  Br  UNL A   1      36.363  23.056  23.453  1.00  0.00    -0.051 Br
ENDBRANCH   9  26
ENDBRANCH   8   9
ENDBRANCH   6   8
ENDBRANCH   5   6
ENDBRANCH   4   5
ENDBRANCH   3   4
ENDBRANCH   2   3
ENDBRANCH   1   2
BRANCH   1  33
ATOM     33  C   UNL A   1      35.006  33.309  28.009  1.00  0.00     0.188 C 
BRANCH  33  34
ATOM     34  O   UNL A   1      35.020  34.062  29.207  1.00  0.00    -0.376 OA
BRANCH  34  35
ATOM     35  C   UNL A   1      34.768  33.383  30.433  1.00  0.00     0.202 C 
BRANCH  35  36
ATOM     36  C   UNL A   1      35.395  33.857  31.751  1.00  0.00     0.261 C 
BRANCH  36  37
ATOM     37  O   UNL A   1      36.726  34.394  31.638  1.00  0.00    -0.460 OA
BRANCH  37  38
ATOM     38  C   UNL A   1      37.703  33.474  31.467  1.00  0.00     0.338 C 
ATOM     39  O   UNL A   1      37.611  32.262  31.638  1.00  0.00    -0.246 OA
BRANCH  38  40
ATOM     40  C   UNL A   1      38.920  34.088  30.915  1.00  0.00     0.060 A 
ATOM     41  C   UNL A   1      38.968  34.370  29.543  1.00  0.00     0.016 A 
ATOM     42  C   UNL A   1      40.060  34.224  31.708  1.00  0.00     0.016 A 
ATOM     43  C   UNL A   1      40.172  34.759  28.954  1.00  0.00     0.010 A 
ATOM     44  C   UNL A   1      41.268  34.601  31.111  1.00  0.00     0.010 A 
ATOM     45  C   UNL A   1      41.339  34.836  29.726  1.00  0.00    -0.014 A 
BRANCH  45  46
ATOM     46  C   UNL A   1      42.657  35.030  29.070  1.00  0.00     0.031 A 
ATOM     47  C   UNL A   1      43.581  33.855  28.898  1.00  0.00     0.074 A 
ATOM     48  C   UNL A   1      43.034  36.241  28.621  1.00  0.00     0.049 A 
ATOM     49  N   UNL A   1      44.790  33.820  28.399  1.00  0.00    -0.248 NA
ATOM     50  C   UNL A   1      43.074  32.546  29.339  1.00  0.00     0.031 C 
ATOM     51  C   UNL A   1      42.226  37.456  28.686  1.00  0.00     0.029 A 
ATOM     52  N   UNL A   1      44.206  36.643  28.030  1.00  0.00    -0.354 N 
ATOM     53  C   UNL A   1      45.199  32.495  28.485  1.00  0.00     0.074 A 
ATOM     54  C   UNL A   1      44.112  31.759  29.096  1.00  0.00     0.031 C 
ATOM     55  C   UNL A   1      42.930  38.472  28.161  1.00  0.00     0.029 A 
ATOM     56  C   UNL A   1      44.253  37.990  27.763  1.00  0.00     0.049 A 
ATOM     57  H   UNL A   1      44.943  36.025  27.818  1.00  0.00     0.167 HD
ATOM     58  C   UNL A   1      46.363  31.936  28.078  1.00  0.00     0.034 A 
ATOM     59  C   UNL A   1      45.254  38.752  27.280  1.00  0.00     0.034 A 
ATOM     60  C   UNL A   1      47.441  32.657  27.456  1.00  0.00     0.049 A 
ATOM     61  C   UNL A   1      46.578  38.126  26.931  1.00  0.00     0.074 A 
ATOM     62  C   UNL A   1      48.641  32.159  26.975  1.00  0.00     0.029 A 
ATOM     63  N   UNL A   1      47.463  34.024  27.237  1.00  0.00    -0.354 N 
ATOM     64  N   UNL A   1      46.922  36.862  26.948  1.00  0.00    -0.248 NA
ATOM     65  C   UNL A   1      47.647  39.031  26.481  1.00  0.00     0.031 C 
ATOM     66  C   UNL A   1      49.401  33.229  26.496  1.00  0.00     0.029 A 
ATOM     67  C   UNL A   1      48.660  34.389  26.645  1.00  0.00     0.049 A 
ATOM     68  H   UNL A   1      46.735  34.645  27.470  1.00  0.00     0.167 HD
ATOM     69  C   UNL A   1      48.227  36.816  26.466  1.00  0.00     0.074 A 
ATOM     70  C   UNL A   1      48.613  38.177  26.166  1.00  0.00     0.031 C 
ATOM     71  C   UNL A   1      49.028  35.737  26.292  1.00  0.00     0.034 A 
BRANCH  58  72
ATOM     72  C   UNL A   1      46.532  30.451  28.260  1.00  0.00     0.023 A 
ATOM     73  C   UNL A   1      47.086  29.959  29.459  1.00  0.00     0.012 A 
ATOM     74  C   UNL A   1      46.060  29.545  27.291  1.00  0.00     0.148 A 
ATOM     75  C   UNL A   1      47.188  28.586  29.680  1.00  0.00     0.002 A 
ATOM     76  C   UNL A   1      46.125  28.179  27.537  1.00  0.00     0.091 A 
ATOM     77  F   UNL A   1      45.557  30.036  26.149  1.00  0.00    -0.205 F 
ATOM     78  C   UNL A   1      46.697  27.699  28.727  1.00  0.00     0.022 A 
BRANCH  76  79
ATOM     79  S   UNL A   1      45.439  26.960  26.412  1.00  0.00     0.127 S 
ATOM     80  O   UNL A   1      45.725  25.712  27.117  1.00  0.00    -0.237 OA
ATOM     81  O   UNL A   1      44.023  27.332  26.380  1.00  0.00    -0.237 OA
ATOM     82  O   UNL A   1      46.141  27.140  25.149  1.00  0.00    -0.744 OA
ENDBRANCH  76  79
ENDBRANCH  58  72
BRANCH  59  83
ATOM     83  C   UNL A   1      45.042  40.210  27.084  1.00  0.00     0.023 A 
ATOM     84  C   UNL A   1      44.507  40.681  25.870  1.00  0.00     0.012 A 
ATOM     85  C   UNL A   1      45.350  41.128  28.101  1.00  0.00     0.148 A 
ATOM     86  C   UNL A   1      44.308  42.047  25.664  1.00  0.00     0.002 A 
ATOM     87  C   UNL A   1      45.103  42.480  27.907  1.00  0.00     0.091 A 
ATOM     88  F   UNL A   1      45.823  40.657  29.264  1.00  0.00    -0.205 F 
ATOM     89  C   UNL A   1      44.605  42.948  26.684  1.00  0.00     0.022 A 
BRANCH  87  90
ATOM     90  S   UNL A   1      45.345  43.657  29.236  1.00  0.00     0.127 S 
ATOM     91  O   UNL A   1      46.762  43.491  29.555  1.00  0.00    -0.237 OA
ATOM     92  O   UNL A   1      45.007  44.911  28.562  1.00  0.00    -0.237 OA
ATOM     93  O   UNL A   1      44.427  43.223  30.281  1.00  0.00    -0.744 OA
ENDBRANCH  87  90
ENDBRANCH  59  83
BRANCH  71  94
ATOM     94  C   UNL A   1      50.395  35.949  25.697  1.00  0.00     0.023 A 
ATOM     95  C   UNL A   1      50.558  35.994  24.299  1.00  0.00     0.012 A 
ATOM     96  C   UNL A   1      51.502  36.216  26.530  1.00  0.00     0.148 A 
ATOM     97  C   UNL A   1      51.803  36.283  23.739  1.00  0.00     0.002 A 
ATOM     98  C   UNL A   1      52.727  36.552  25.965  1.00  0.00     0.091 A 
ATOM     99  F   UNL A   1      51.331  36.149  27.858  1.00  0.00    -0.205 F 
ATOM    100  C   UNL A   1      52.882  36.576  24.571  1.00  0.00     0.022 A 
BRANCH  98 101
ATOM    101  S   UNL A   1      54.144  37.041  26.956  1.00  0.00     0.127 S 
ATOM    102  O   UNL A   1      53.577  38.106  27.781  1.00  0.00    -0.237 OA
ATOM    103  O   UNL A   1      54.455  35.809  27.680  1.00  0.00    -0.237 OA
ATOM    104  O   UNL A   1      55.169  37.464  26.012  1.00  0.00    -0.744 OA
ENDBRANCH  98 101
ENDBRANCH  71  94
ENDBRANCH  45  46
ENDBRANCH  38  40
ENDBRANCH  37  38
ENDBRANCH  36  37
ENDBRANCH  35  36
ENDBRANCH  34  35
ENDBRANCH  33  34
ENDBRANCH   1  33
TORSDOF 25
ENDMDL
MODEL 3
REMARK VINA RESULT:      -9.1      5.079      6.886
REMARK SMILES O=C(C[C@@H](NC(=O)c1cc(-c2ccc(F)cc2)on1)c1cccc(Br)c1)OCCOCCOCCOC(=O)c1ccc(-c2c3nc(c(-c4cccc(S(=O)(=O)[O-])c4F)c4ccc([nH]4)c(-c4cccc(S(=O)(=O)[O-])c4F)c4nc(c(-c5cccc(S(=O)(=O)[O-])c5F)c5ccc2[nH]5)C=C4)C=C3)cc1
REMARK SMILES IDX 31 1 30 2 29 3 28 4 27 5 2 6 1 7 3 8 4 9 5 10 6 11 7 13 8 14
REMARK SMILES IDX 9 15 19 16 10 17 18 18 11 19 12 20 17 21 13 22 16 23 14 24
REMARK SMILES IDX 15 25 20 26 21 27 26 28 22 29 24 30 23 31 25 32 32 33 33 34
REMARK SMILES IDX 34 35 35 36 36 37 37 38 38 39 39 40 40 41 101 42 41 43
REMARK SMILES IDX 100 44 42 45 43 46 44 47 94 48 45 49 99 50 93 51 95 52 46 53
REMARK SMILES IDX 98 54 92 55 91 56 47 58 79 59 59 60 78 61 60 62 63 63 77 64
REMARK SMILES IDX 96 65 61 66 62 67 76 69 97 70 64 71 48 72 49 73 57 74 50 75
REMARK SMILES IDX 52 76 58 77 51 78 53 79 54 80 55 81 56 82 80 83 81 84 89 85
REMARK SMILES IDX 82 86 84 87 90 88 83 89 85 90 86 91 87 92 88 93 65 94 66 95
REMARK SMILES IDX 74 96 67 97 69 98 75 99 68 100 70 101 71 102 72 103 73 104
REMARK H PARENT 5 12 95 57 63 68
REMARK Flexibility Score: inf
ROOT
ATOM      1  C   UNL A   1      34.041  32.341  28.111  1.00  0.00     0.188 C 
ENDROOT
BRANCH   1   2
ATOM      2  O   UNL A   1      34.555  31.035  28.284  1.00  0.00    -0.376 OA
BRANCH   2   3
ATOM      3  C   UNL A   1      34.544  30.103  27.202  1.00  0.00     0.202 C 
BRANCH   3   4
ATOM      4  C   UNL A   1      33.821  28.760  27.353  1.00  0.00     0.261 C 
BRANCH   4   5
ATOM      5  O   UNL A   1      32.573  28.777  26.627  1.00  0.00    -0.463 OA
BRANCH   5   6
ATOM      6  C   UNL A   1      32.538  28.114  25.448  1.00  0.00     0.308 C 
ATOM      7  O   UNL A   1      33.090  28.533  24.438  1.00  0.00    -0.252 OA
BRANCH   6   8
ATOM      8  C   UNL A   1      31.605  26.921  25.464  1.00  0.00     0.152 C 
BRANCH   8   9
ATOM      9  C   UNL A   1      32.124  25.536  25.928  1.00  0.00     0.124 C 
BRANCH   9  10
ATOM     10  N   UNL A   1      31.111  24.719  26.612  1.00  0.00    -0.343 N 
ATOM     11  C   UNL A   1      30.943  23.391  26.896  1.00  0.00     0.273 C 
ATOM     12  H   UNL A   1      30.365  25.266  26.950  1.00  0.00     0.164 HD
ATOM     13  O   UNL A   1      29.930  23.069  27.519  1.00  0.00    -0.267 OA
BRANCH  11  14
ATOM     14  C   UNL A   1      31.926  22.442  26.430  1.00  0.00     0.171 A 
ATOM     15  C   UNL A   1      31.874  21.660  25.260  1.00  0.00     0.088 A 
ATOM     16  N   UNL A   1      33.024  22.165  27.155  1.00  0.00    -0.074 NA
ATOM     17  C   UNL A   1      32.890  20.755  25.417  1.00  0.00     0.167 A 
ATOM     18  O   UNL A   1      33.604  21.066  26.533  1.00  0.00    -0.355 OA
BRANCH  17  19
ATOM     19  C   UNL A   1      33.284  19.580  24.673  1.00  0.00     0.020 A 
ATOM     20  C   UNL A   1      32.394  19.027  23.740  1.00  0.00     0.015 A 
ATOM     21  C   UNL A   1      34.499  18.933  24.935  1.00  0.00     0.015 A 
ATOM     22  C   UNL A   1      32.730  17.863  23.054  1.00  0.00     0.040 A 
ATOM     23  C   UNL A   1      34.826  17.760  24.257  1.00  0.00     0.040 A 
ATOM     24  C   UNL A   1      33.949  17.248  23.308  1.00  0.00     0.123 A 
ATOM     25  F   UNL A   1      34.287  16.158  22.609  1.00  0.00    -0.207 F 
ENDBRANCH  17  19
ENDBRANCH  11  14
ENDBRANCH   9  10
BRANCH   9  26
ATOM     26  C   UNL A   1      32.779  24.887  24.712  1.00  0.00    -0.024 A 
ATOM     27  C   UNL A   1      32.062  24.791  23.506  1.00  0.00     0.006 A 
ATOM     28  C   UNL A   1      34.076  24.341  24.756  1.00  0.00     0.021 A 
ATOM     29  C   UNL A   1      32.641  24.224  22.368  1.00  0.00     0.002 A 
ATOM     30  C   UNL A   1      34.650  23.782  23.612  1.00  0.00     0.018 A 
ATOM     31  C   UNL A   1      33.939  23.722  22.418  1.00  0.00     0.016 A 
ATOM     32  Br  UNL A   1      36.423  23.128  23.680  1.00  0.00    -0.051 Br
ENDBRANCH   9  26
ENDBRANCH   8   9
ENDBRANCH   6   8
ENDBRANCH   5   6
ENDBRANCH   4   5
ENDBRANCH   3   4
ENDBRANCH   2   3
ENDBRANCH   1   2
BRANCH   1  33
ATOM     33  C   UNL A   1      35.013  33.503  27.869  1.00  0.00     0.188 C 
BRANCH  33  34
ATOM     34  O   UNL A   1      35.022  34.591  28.773  1.00  0.00    -0.376 OA
BRANCH  34  35
ATOM     35  C   UNL A   1      33.885  34.781  29.610  1.00  0.00     0.202 C 
BRANCH  35  36
ATOM     36  C   UNL A   1      34.021  34.844  31.137  1.00  0.00     0.261 C 
BRANCH  36  37
ATOM     37  O   UNL A   1      35.247  34.307  31.666  1.00  0.00    -0.460 OA
BRANCH  37  38
ATOM     38  C   UNL A   1      35.272  32.961  31.802  1.00  0.00     0.338 C 
ATOM     39  O   UNL A   1      34.306  32.217  31.947  1.00  0.00    -0.246 OA
BRANCH  38  40
ATOM     40  C   UNL A   1      36.635  32.435  31.633  1.00  0.00     0.060 A 
ATOM     41  C   UNL A   1      37.509  32.470  32.727  1.00  0.00     0.016 A 
ATOM     42  C   UNL A   1      37.095  32.071  30.368  1.00  0.00     0.016 A 
ATOM     43  C   UNL A   1      38.862  32.172  32.548  1.00  0.00     0.010 A 
ATOM     44  C   UNL A   1      38.453  31.786  30.189  1.00  0.00     0.010 A 
ATOM     45  C   UNL A   1      39.350  31.870  31.270  1.00  0.00    -0.014 A 
BRANCH  45  46
ATOM     46  C   UNL A   1      40.813  31.770  31.034  1.00  0.00     0.031 A 
ATOM     47  C   UNL A   1      41.606  33.018  30.755  1.00  0.00     0.074 A 
ATOM     48  C   UNL A   1      41.440  30.581  31.073  1.00  0.00     0.049 A 
ATOM     49  N   UNL A   1      42.877  33.144  30.475  1.00  0.00    -0.248 NA
ATOM     50  C   UNL A   1      40.872  34.293  30.806  1.00  0.00     0.031 C 
ATOM     51  C   UNL A   1      40.806  29.300  31.369  1.00  0.00     0.029 A 
ATOM     52  N   UNL A   1      42.757  30.264  30.848  1.00  0.00    -0.354 N 
ATOM     53  C   UNL A   1      43.094  34.504  30.293  1.00  0.00     0.074 A 
ATOM     54  C   UNL A   1      41.819  35.162  30.485  1.00  0.00     0.031 C 
ATOM     55  C   UNL A   1      41.734  28.331  31.301  1.00  0.00     0.029 A 
ATOM     56  C   UNL A   1      43.017  28.917  30.914  1.00  0.00     0.049 A 
ATOM     57  H   UNL A   1      43.449  30.939  30.657  1.00  0.00     0.167 HD
ATOM     58  C   UNL A   1      44.250  35.152  30.012  1.00  0.00     0.034 A 
ATOM     59  C   UNL A   1      44.151  28.232  30.666  1.00  0.00     0.034 A 
ATOM     60  C   UNL A   1      45.524  34.508  29.837  1.00  0.00     0.049 A 
ATOM     61  C   UNL A   1      45.400  28.964  30.252  1.00  0.00     0.074 A 
ATOM     62  C   UNL A   1      46.755  35.094  29.589  1.00  0.00     0.029 A 
ATOM     63  N   UNL A   1      45.737  33.140  29.876  1.00  0.00    -0.354 N 
ATOM     64  N   UNL A   1      45.606  30.253  30.159  1.00  0.00    -0.248 NA
ATOM     65  C   UNL A   1      46.577  28.143  29.925  1.00  0.00     0.031 C 
ATOM     66  C   UNL A   1      47.705  34.080  29.448  1.00  0.00     0.029 A 
ATOM     67  C   UNL A   1      47.073  32.863  29.642  1.00  0.00     0.049 A 
ATOM     68  H   UNL A   1      45.041  32.464  30.045  1.00  0.00     0.167 HD
ATOM     69  C   UNL A   1      46.946  30.401  29.811  1.00  0.00     0.074 A 
ATOM     70  C   UNL A   1      47.503  29.069  29.708  1.00  0.00     0.031 C 
ATOM     71  C   UNL A   1      47.645  31.541  29.595  1.00  0.00     0.034 A 
BRANCH  58  72
ATOM     72  C   UNL A   1      44.207  36.653  29.904  1.00  0.00     0.023 A 
ATOM     73  C   UNL A   1      44.467  37.437  31.046  1.00  0.00     0.012 A 
ATOM     74  C   UNL A   1      44.003  37.283  28.662  1.00  0.00     0.148 A 
ATOM     75  C   UNL A   1      44.502  38.828  30.957  1.00  0.00     0.002 A 
ATOM     76  C   UNL A   1      44.083  38.667  28.572  1.00  0.00     0.091 A 
ATOM     77  F   UNL A   1      43.736  36.518  27.594  1.00  0.00    -0.205 F 
ATOM     78  C   UNL A   1      44.323  39.441  29.719  1.00  0.00     0.022 A 
BRANCH  76  79
ATOM     79  S   UNL A   1      43.955  39.543  27.009  1.00  0.00     0.127 S 
ATOM     80  O   UNL A   1      43.967  40.937  27.450  1.00  0.00    -0.237 OA
ATOM     81  O   UNL A   1      45.169  39.113  26.314  1.00  0.00    -0.237 OA
ATOM     82  O   UNL A   1      42.713  39.092  26.397  1.00  0.00    -0.744 OA
ENDBRANCH  76  79
ENDBRANCH  58  72
BRANCH  59  83
ATOM     83  C   UNL A   1      44.165  26.752  30.811  1.00  0.00     0.023 A 
ATOM     84  C   UNL A   1      43.889  25.938  29.696  1.00  0.00     0.012 A 
ATOM     85  C   UNL A   1      44.470  26.151  32.043  1.00  0.00     0.148 A 
ATOM     86  C   UNL A   1      43.890  24.547  29.815  1.00  0.00     0.002 A 
ATOM     87  C   UNL A   1      44.517  24.767  32.141  1.00  0.00     0.091 A 
ATOM     88  F   UNL A   1      44.767  26.942  33.084  1.00  0.00    -0.205 F 
ATOM     89  C   UNL A   1      44.206  23.960  31.038  1.00  0.00     0.022 A 
BRANCH  87  90
ATOM     90  S   UNL A   1      45.046  23.972  33.656  1.00  0.00     0.127 S 
ATOM     91  O   UNL A   1      46.408  24.477  33.822  1.00  0.00    -0.237 OA
ATOM     92  O   UNL A   1      44.071  24.507  34.607  1.00  0.00    -0.237 OA
ATOM     93  O   UNL A   1      44.952  22.546  33.375  1.00  0.00    -0.744 OA
ENDBRANCH  87  90
ENDBRANCH  59  83
BRANCH  71  94
ATOM     94  C   UNL A   1      49.114  31.432  29.279  1.00  0.00     0.023 A 
ATOM     95  C   UNL A   1      50.058  31.378  30.323  1.00  0.00     0.012 A 
ATOM     96  C   UNL A   1      49.547  31.270  27.947  1.00  0.00     0.148 A 
ATOM     97  C   UNL A   1      51.412  31.182  30.044  1.00  0.00     0.002 A 
ATOM     98  C   UNL A   1      50.889  31.027  27.681  1.00  0.00     0.091 A 
ATOM     99  F   UNL A   1      48.635  31.345  26.966  1.00  0.00    -0.205 F 
ATOM    100  C   UNL A   1      51.824  30.992  28.727  1.00  0.00     0.022 A 
BRANCH  98 101
ATOM    101  S   UNL A   1      51.497  30.671  26.027  1.00  0.00     0.127 S 
ATOM    102  O   UNL A   1      52.896  30.337  26.289  1.00  0.00    -0.237 OA
ATOM    103  O   UNL A   1      50.663  29.537  25.629  1.00  0.00    -0.237 OA
ATOM    104  O   UNL A   1      51.282  31.884  25.250  1.00  0.00    -0.744 OA
ENDBRANCH  98 101
ENDBRANCH  71  94
ENDBRANCH  45  46
ENDBRANCH  38  40
ENDBRANCH  37  38
ENDBRANCH  36  37
ENDBRANCH  35  36
ENDBRANCH  34  35
ENDBRANCH  33  34
ENDBRANCH   1  33
TORSDOF 25
ENDMDL
