MODEL 1
REMARK VINA RESULT:      -9.7      0.000      0.000
REMARK SMILES CS(=O)(=O)CC[C@H](NC(=O)Cc1ccn[nH]1)C(=O)OCCOCCOCCOC(=O)c1ccc(-c2c3nc(c(-c4cccc(S(=O)(=O)[O-])c4F)c4ccc([nH]4)c(-c4cccc(S(=O)(=O)[O-])c4F)c4nc(c(-c5cccc(S(=O)(=O)[O-])c5F)c5ccc2[nH]5)C=C4)C=C3)cc1
REMARK SMILES IDX 23 1 22 2 21 3 20 4 19 5 17 6 18 7 7 8 6 9 5 10 2 11 1 12
REMARK SMILES IDX 3 13 4 14 8 15 9 16 10 18 11 19 12 20 13 21 16 22 14 23
REMARK SMILES IDX 15 24 24 26 25 27 26 28 27 29 28 30 29 31 30 32 31 33 32 34
REMARK SMILES IDX 93 35 33 36 92 37 34 38 35 39 36 40 86 41 37 42 91 43 85 44
REMARK SMILES IDX 87 45 38 46 90 47 84 48 83 49 39 51 71 52 51 53 70 54 52 55
REMARK SMILES IDX 55 56 69 57 88 58 53 59 54 60 68 62 89 63 56 64 40 65 41 66
REMARK SMILES IDX 49 67 42 68 44 69 50 70 43 71 45 72 46 73 47 74 48 75 72 76
REMARK SMILES IDX 73 77 81 78 74 79 76 80 82 81 75 82 77 83 78 84 79 85 80 86
REMARK SMILES IDX 57 87 58 88 66 89 59 90 61 91 67 92 60 93 62 94 63 95 64 96
REMARK SMILES IDX 65 97
REMARK H PARENT 8 17 16 25 87 50 55 61
REMARK Flexibility Score: inf
ROOT
ATOM      1  C   UNL A   1      31.748  25.862  25.855  1.00  0.00     0.188 C 
ENDROOT
BRANCH   1   2
ATOM      2  O   UNL A   1      31.003  24.689  26.125  1.00  0.00    -0.376 OA
BRANCH   2   3
ATOM      3  C   UNL A   1      31.643  23.681  26.892  1.00  0.00     0.202 C 
BRANCH   3   4
ATOM      4  C   UNL A   1      33.170  23.720  27.109  1.00  0.00     0.261 C 
BRANCH   4   5
ATOM      5  O   UNL A   1      33.946  22.598  26.656  1.00  0.00    -0.462 OA
BRANCH   5   6
ATOM      6  C   UNL A   1      34.998  22.880  25.848  1.00  0.00     0.328 C 
ATOM      7  O   UNL A   1      35.996  23.475  26.231  1.00  0.00    -0.250 OA
BRANCH   6   8
ATOM      8  C   UNL A   1      34.849  22.273  24.426  1.00  0.00     0.193 C 
BRANCH   8   9
ATOM      9  C   UNL A   1      35.239  23.328  23.395  1.00  0.00     0.053 C 
BRANCH   9  10
ATOM     10  C   UNL A   1      34.399  24.600  23.284  1.00  0.00     0.139 C 
BRANCH  10  11
ATOM     11  S   UNL A   1      33.251  24.632  21.917  1.00  0.00     0.147 S 
ATOM     12  C   UNL A   1      31.623  24.647  22.638  1.00  0.00     0.158 C 
ATOM     13  O   UNL A   1      33.412  23.373  21.218  1.00  0.00    -0.229 OA
ATOM     14  O   UNL A   1      33.438  25.891  21.217  1.00  0.00    -0.229 OA
ENDBRANCH  10  11
ENDBRANCH   9  10
ENDBRANCH   8   9
BRANCH   8  15
ATOM     15  N   UNL A   1      33.511  21.653  24.236  1.00  0.00    -0.342 N 
ATOM     16  C   UNL A   1      32.866  20.631  24.881  1.00  0.00     0.226 C 
ATOM     17  H   UNL A   1      32.987  22.054  23.505  1.00  0.00     0.164 HD
ATOM     18  O   UNL A   1      31.636  20.685  24.968  1.00  0.00    -0.275 OA
BRANCH  16  19
ATOM     19  C   UNL A   1      33.618  19.410  25.394  1.00  0.00     0.155 C 
BRANCH  19  20
ATOM     20  C   UNL A   1      33.756  18.415  24.284  1.00  0.00     0.044 A 
ATOM     21  C   UNL A   1      34.579  17.317  24.134  1.00  0.00     0.045 A 
ATOM     22  N   UNL A   1      32.897  18.379  23.215  1.00  0.00    -0.282 N 
ATOM     23  C   UNL A   1      34.024  16.600  23.063  1.00  0.00     0.135 A 
ATOM     24  N   UNL A   1      33.001  17.244  22.499  1.00  0.00    -0.184 NA
ATOM     25  H   UNL A   1      32.271  19.106  22.995  1.00  0.00     0.190 HD
ENDBRANCH  19  20
ENDBRANCH  16  19
ENDBRANCH   8  15
ENDBRANCH   6   8
ENDBRANCH   5   6
ENDBRANCH   4   5
ENDBRANCH   3   4
ENDBRANCH   2   3
ENDBRANCH   1   2
BRANCH   1  26
ATOM     26  C   UNL A   1      31.110  27.109  26.488  1.00  0.00     0.188 C 
BRANCH  26  27
ATOM     27  O   UNL A   1      31.933  28.221  26.792  1.00  0.00    -0.376 OA
BRANCH  27  28
ATOM     28  C   UNL A   1      32.049  29.251  25.810  1.00  0.00     0.202 C 
BRANCH  28  29
ATOM     29  C   UNL A   1      32.298  30.742  26.164  1.00  0.00     0.261 C 
BRANCH  29  30
ATOM     30  O   UNL A   1      32.726  31.059  27.498  1.00  0.00    -0.460 OA
BRANCH  30  31
ATOM     31  C   UNL A   1      33.649  32.053  27.610  1.00  0.00     0.338 C 
ATOM     32  O   UNL A   1      33.441  33.250  27.583  1.00  0.00    -0.246 OA
BRANCH  31  33
ATOM     33  C   UNL A   1      34.943  31.454  28.025  1.00  0.00     0.060 A 
ATOM     34  C   UNL A   1      34.990  30.079  28.312  1.00  0.00     0.016 A 
ATOM     35  C   UNL A   1      36.093  32.233  28.135  1.00  0.00     0.016 A 
ATOM     36  C   UNL A   1      36.185  29.478  28.707  1.00  0.00     0.010 A 
ATOM     37  C   UNL A   1      37.280  31.639  28.576  1.00  0.00     0.010 A 
ATOM     38  C   UNL A   1      37.326  30.266  28.887  1.00  0.00    -0.014 A 
BRANCH  38  39
ATOM     39  C   UNL A   1      38.503  29.708  29.594  1.00  0.00     0.031 A 
ATOM     40  C   UNL A   1      38.835  30.254  30.957  1.00  0.00     0.074 A 
ATOM     41  C   UNL A   1      39.274  28.755  29.041  1.00  0.00     0.049 A 
ATOM     42  N   UNL A   1      39.862  30.002  31.724  1.00  0.00    -0.248 NA
ATOM     43  C   UNL A   1      37.880  31.220  31.524  1.00  0.00     0.031 C 
ATOM     44  C   UNL A   1      39.043  28.124  27.744  1.00  0.00     0.029 A 
ATOM     45  N   UNL A   1      40.434  28.177  29.497  1.00  0.00    -0.354 N 
ATOM     46  C   UNL A   1      39.697  30.804  32.848  1.00  0.00     0.074 A 
ATOM     47  C   UNL A   1      38.475  31.554  32.658  1.00  0.00     0.031 C 
ATOM     48  C   UNL A   1      40.051  27.271  27.490  1.00  0.00     0.029 A 
ATOM     49  C   UNL A   1      41.015  27.324  28.589  1.00  0.00     0.049 A 
ATOM     50  H   UNL A   1      40.812  28.356  30.388  1.00  0.00     0.167 HD
ATOM     51  C   UNL A   1      40.487  30.902  33.943  1.00  0.00     0.034 A 
ATOM     52  C   UNL A   1      42.205  26.689  28.627  1.00  0.00     0.034 A 
ATOM     53  C   UNL A   1      41.699  30.153  34.132  1.00  0.00     0.049 A 
ATOM     54  C   UNL A   1      43.096  26.860  29.833  1.00  0.00     0.074 A 
ATOM     55  C   UNL A   1      42.552  30.160  35.221  1.00  0.00     0.029 A 
ATOM     56  N   UNL A   1      42.241  29.279  33.203  1.00  0.00    -0.354 N 
ATOM     57  N   UNL A   1      42.885  27.548  30.928  1.00  0.00    -0.248 NA
ATOM     58  C   UNL A   1      44.382  26.144  29.817  1.00  0.00     0.031 C 
ATOM     59  C   UNL A   1      43.630  29.316  34.935  1.00  0.00     0.029 A 
ATOM     60  C   UNL A   1      43.426  28.751  33.686  1.00  0.00     0.049 A 
ATOM     61  H   UNL A   1      41.842  29.066  32.329  1.00  0.00     0.167 HD
ATOM     62  C   UNL A   1      43.986  27.313  31.747  1.00  0.00     0.074 A 
ATOM     63  C   UNL A   1      44.857  26.409  31.026  1.00  0.00     0.031 C 
ATOM     64  C   UNL A   1      44.257  27.809  32.981  1.00  0.00     0.034 A 
BRANCH  51  65
ATOM     65  C   UNL A   1      40.056  31.857  35.025  1.00  0.00     0.023 A 
ATOM     66  C   UNL A   1      40.503  33.195  35.000  1.00  0.00     0.012 A 
ATOM     67  C   UNL A   1      39.178  31.441  36.046  1.00  0.00     0.148 A 
ATOM     68  C   UNL A   1      40.115  34.091  35.995  1.00  0.00     0.002 A 
ATOM     69  C   UNL A   1      38.757  32.353  37.006  1.00  0.00     0.091 A 
ATOM     70  F   UNL A   1      38.783  30.160  36.065  1.00  0.00    -0.205 F 
ATOM     71  C   UNL A   1      39.235  33.674  36.990  1.00  0.00     0.022 A 
BRANCH  69  72
ATOM     72  S   UNL A   1      37.564  31.935  38.281  1.00  0.00     0.127 S 
ATOM     73  O   UNL A   1      38.358  32.116  39.497  1.00  0.00    -0.237 OA
ATOM     74  O   UNL A   1      36.526  32.944  38.073  1.00  0.00    -0.237 OA
ATOM     75  O   UNL A   1      37.146  30.567  38.008  1.00  0.00    -0.744 OA
ENDBRANCH  69  72
ENDBRANCH  51  65
BRANCH  52  76
ATOM     76  C   UNL A   1      42.627  25.818  27.493  1.00  0.00     0.023 A 
ATOM     77  C   UNL A   1      43.460  26.343  26.486  1.00  0.00     0.012 A 
ATOM     78  C   UNL A   1      42.206  24.476  27.405  1.00  0.00     0.148 A 
ATOM     79  C   UNL A   1      43.841  25.558  25.397  1.00  0.00     0.002 A 
ATOM     80  C   UNL A   1      42.634  23.684  26.347  1.00  0.00     0.091 A 
ATOM     81  F   UNL A   1      41.401  24.001  28.366  1.00  0.00    -0.205 F 
ATOM     82  C   UNL A   1      43.436  24.227  25.331  1.00  0.00     0.022 A 
BRANCH  80  83
ATOM     83  S   UNL A   1      42.262  21.930  26.243  1.00  0.00     0.127 S 
ATOM     84  O   UNL A   1      42.681  21.456  27.559  1.00  0.00    -0.237 OA
ATOM     85  O   UNL A   1      40.817  21.942  26.021  1.00  0.00    -0.237 OA
ATOM     86  O   UNL A   1      43.039  21.428  25.117  1.00  0.00    -0.744 OA
ENDBRANCH  80  83
ENDBRANCH  52  76
BRANCH  64  87
ATOM     87  C   UNL A   1      45.519  27.347  33.667  1.00  0.00     0.023 A 
ATOM     88  C   UNL A   1      45.502  26.199  34.485  1.00  0.00     0.012 A 
ATOM     89  C   UNL A   1      46.742  28.008  33.430  1.00  0.00     0.148 A 
ATOM     90  C   UNL A   1      46.675  25.737  35.082  1.00  0.00     0.002 A 
ATOM     91  C   UNL A   1      47.915  27.510  33.985  1.00  0.00     0.091 A 
ATOM     92  F   UNL A   1      46.737  29.105  32.660  1.00  0.00    -0.205 F 
ATOM     93  C   UNL A   1      47.881  26.384  34.822  1.00  0.00     0.022 A 
BRANCH  91  94
ATOM     94  S   UNL A   1      49.528  28.215  33.627  1.00  0.00     0.127 S 
ATOM     95  O   UNL A   1      49.672  27.921  32.202  1.00  0.00    -0.237 OA
ATOM     96  O   UNL A   1      49.323  29.629  33.940  1.00  0.00    -0.237 OA
ATOM     97  O   UNL A   1      50.471  27.531  34.501  1.00  0.00    -0.744 OA
ENDBRANCH  91  94
ENDBRANCH  64  87
ENDBRANCH  38  39
ENDBRANCH  31  33
ENDBRANCH  30  31
ENDBRANCH  29  30
ENDBRANCH  28  29
ENDBRANCH  27  28
ENDBRANCH  26  27
ENDBRANCH   1  26
TORSDOF 26
ENDMDL
MODEL 2
REMARK VINA RESULT:      -9.7      2.552      8.453
REMARK SMILES CS(=O)(=O)CC[C@H](NC(=O)Cc1ccn[nH]1)C(=O)OCCOCCOCCOC(=O)c1ccc(-c2c3nc(c(-c4cccc(S(=O)(=O)[O-])c4F)c4ccc([nH]4)c(-c4cccc(S(=O)(=O)[O-])c4F)c4nc(c(-c5cccc(S(=O)(=O)[O-])c5F)c5ccc2[nH]5)C=C4)C=C3)cc1
REMARK SMILES IDX 23 1 22 2 21 3 20 4 19 5 17 6 18 7 7 8 6 9 5 10 2 11 1 12
REMARK SMILES IDX 3 13 4 14 8 15 9 16 10 18 11 19 12 20 13 21 16 22 14 23
REMARK SMILES IDX 15 24 24 26 25 27 26 28 27 29 28 30 29 31 30 32 31 33 32 34
REMARK SMILES IDX 93 35 33 36 92 37 34 38 35 39 36 40 86 41 37 42 91 43 85 44
REMARK SMILES IDX 87 45 38 46 90 47 84 48 83 49 39 51 71 52 51 53 70 54 52 55
REMARK SMILES IDX 55 56 69 57 88 58 53 59 54 60 68 62 89 63 56 64 40 65 41 66
REMARK SMILES IDX 49 67 42 68 44 69 50 70 43 71 45 72 46 73 47 74 48 75 72 76
REMARK SMILES IDX 73 77 81 78 74 79 76 80 82 81 75 82 77 83 78 84 79 85 80 86
REMARK SMILES IDX 57 87 58 88 66 89 59 90 61 91 67 92 60 93 62 94 63 95 64 96
REMARK SMILES IDX 65 97
REMARK H PARENT 8 17 16 25 87 50 55 61
REMARK Flexibility Score: inf
ROOT
ATOM      1  C   UNL A   1      40.396  21.377  27.280  1.00  0.00     0.188 C 
ENDROOT
BRANCH   1   2
ATOM      2  O   UNL A   1      39.521  22.384  26.807  1.00  0.00    -0.376 OA
BRANCH   2   3
ATOM      3  C   UNL A   1      38.605  22.015  25.788  1.00  0.00     0.202 C 
BRANCH   3   4
ATOM      4  C   UNL A   1      37.562  23.031  25.274  1.00  0.00     0.261 C 
BRANCH   4   5
ATOM      5  O   UNL A   1      36.171  22.731  25.477  1.00  0.00    -0.462 OA
BRANCH   5   6
ATOM      6  C   UNL A   1      35.692  21.635  24.839  1.00  0.00     0.328 C 
ATOM      7  O   UNL A   1      36.122  20.505  25.031  1.00  0.00    -0.250 OA
BRANCH   6   8
ATOM      8  C   UNL A   1      34.472  21.949  23.929  1.00  0.00     0.193 C 
BRANCH   8   9
ATOM      9  C   UNL A   1      34.509  23.427  23.548  1.00  0.00     0.053 C 
BRANCH   9  10
ATOM     10  C   UNL A   1      33.458  23.966  22.578  1.00  0.00     0.139 C 
BRANCH  10  11
ATOM     11  S   UNL A   1      33.116  25.712  22.727  1.00  0.00     0.147 S 
ATOM     12  C   UNL A   1      31.527  25.972  21.965  1.00  0.00     0.158 C 
ATOM     13  O   UNL A   1      34.108  26.394  21.921  1.00  0.00    -0.229 OA
ATOM     14  O   UNL A   1      32.984  26.013  24.142  1.00  0.00    -0.229 OA
ENDBRANCH  10  11
ENDBRANCH   9  10
ENDBRANCH   8   9
BRANCH   8  15
ATOM     15  N   UNL A   1      33.202  21.475  24.539  1.00  0.00    -0.342 N 
ATOM     16  C   UNL A   1      32.667  20.224  24.705  1.00  0.00     0.226 C 
ATOM     17  H   UNL A   1      32.634  22.199  24.890  1.00  0.00     0.164 HD
ATOM     18  O   UNL A   1      31.963  20.023  25.698  1.00  0.00    -0.275 OA
BRANCH  16  19
ATOM     19  C   UNL A   1      32.844  19.135  23.656  1.00  0.00     0.155 C 
BRANCH  19  20
ATOM     20  C   UNL A   1      33.496  17.945  24.287  1.00  0.00     0.044 A 
ATOM     21  C   UNL A   1      33.075  16.637  24.431  1.00  0.00     0.045 A 
ATOM     22  N   UNL A   1      34.794  17.965  24.733  1.00  0.00    -0.282 N 
ATOM     23  C   UNL A   1      34.232  15.931  24.794  1.00  0.00     0.135 A 
ATOM     24  N   UNL A   1      35.280  16.734  24.981  1.00  0.00    -0.184 NA
ATOM     25  H   UNL A   1      35.314  18.791  24.858  1.00  0.00     0.190 HD
ENDBRANCH  19  20
ENDBRANCH  16  19
ENDBRANCH   8  15
ENDBRANCH   6   8
ENDBRANCH   5   6
ENDBRANCH   4   5
ENDBRANCH   3   4
ENDBRANCH   2   3
ENDBRANCH   1   2
BRANCH   1  26
ATOM     26  C   UNL A   1      41.358  20.888  26.185  1.00  0.00     0.188 C 
BRANCH  26  27
ATOM     27  O   UNL A   1      42.715  20.656  26.518  1.00  0.00    -0.376 OA
BRANCH  27  28
ATOM     28  C   UNL A   1      43.708  21.031  25.563  1.00  0.00     0.202 C 
BRANCH  28  29
ATOM     29  C   UNL A   1      45.032  21.744  25.947  1.00  0.00     0.261 C 
BRANCH  29  30
ATOM     30  O   UNL A   1      45.038  23.180  26.001  1.00  0.00    -0.460 OA
BRANCH  30  31
ATOM     31  C   UNL A   1      44.069  23.810  25.282  1.00  0.00     0.338 C 
ATOM     32  O   UNL A   1      43.678  23.518  24.169  1.00  0.00    -0.246 OA
BRANCH  31  33
ATOM     33  C   UNL A   1      43.371  24.774  26.170  1.00  0.00     0.060 A 
ATOM     34  C   UNL A   1      43.756  26.126  26.136  1.00  0.00     0.016 A 
ATOM     35  C   UNL A   1      42.356  24.356  27.028  1.00  0.00     0.016 A 
ATOM     36  C   UNL A   1      43.127  27.062  26.956  1.00  0.00     0.010 A 
ATOM     37  C   UNL A   1      41.758  25.288  27.883  1.00  0.00     0.010 A 
ATOM     38  C   UNL A   1      42.156  26.638  27.869  1.00  0.00    -0.014 A 
BRANCH  38  39
ATOM     39  C   UNL A   1      41.708  27.552  28.946  1.00  0.00     0.031 A 
ATOM     40  C   UNL A   1      42.430  27.500  30.265  1.00  0.00     0.074 A 
ATOM     41  C   UNL A   1      40.677  28.398  28.773  1.00  0.00     0.049 A 
ATOM     42  N   UNL A   1      42.164  28.122  31.383  1.00  0.00    -0.248 NA
ATOM     43  C   UNL A   1      43.609  26.620  30.330  1.00  0.00     0.031 C 
ATOM     44  C   UNL A   1      39.916  28.565  27.537  1.00  0.00     0.029 A 
ATOM     45  N   UNL A   1      40.071  29.252  29.662  1.00  0.00    -0.354 N 
ATOM     46  C   UNL A   1      43.117  27.682  32.295  1.00  0.00     0.074 A 
ATOM     47  C   UNL A   1      43.963  26.737  31.600  1.00  0.00     0.031 C 
ATOM     48  C   UNL A   1      38.919  29.442  27.756  1.00  0.00     0.029 A 
ATOM     49  C   UNL A   1      38.951  29.867  29.155  1.00  0.00     0.049 A 
ATOM     50  H   UNL A   1      40.407  29.409  30.574  1.00  0.00     0.167 HD
ATOM     51  C   UNL A   1      43.279  28.038  33.591  1.00  0.00     0.034 A 
ATOM     52  C   UNL A   1      38.037  30.653  29.762  1.00  0.00     0.034 A 
ATOM     53  C   UNL A   1      42.439  28.980  34.278  1.00  0.00     0.049 A 
ATOM     54  C   UNL A   1      38.206  30.990  31.224  1.00  0.00     0.074 A 
ATOM     55  C   UNL A   1      42.541  29.430  35.582  1.00  0.00     0.029 A 
ATOM     56  N   UNL A   1      41.331  29.603  33.724  1.00  0.00    -0.354 N 
ATOM     57  N   UNL A   1      39.163  30.641  32.049  1.00  0.00    -0.248 NA
ATOM     58  C   UNL A   1      37.178  31.850  31.831  1.00  0.00     0.031 C 
ATOM     59  C   UNL A   1      41.472  30.298  35.828  1.00  0.00     0.029 A 
ATOM     60  C   UNL A   1      40.730  30.422  34.664  1.00  0.00     0.049 A 
ATOM     61  H   UNL A   1      41.018  29.480  32.799  1.00  0.00     0.167 HD
ATOM     62  C   UNL A   1      38.878  31.273  33.256  1.00  0.00     0.074 A 
ATOM     63  C   UNL A   1      37.665  32.036  33.050  1.00  0.00     0.031 C 
ATOM     64  C   UNL A   1      39.553  31.220  34.432  1.00  0.00     0.034 A 
BRANCH  51  65
ATOM     65  C   UNL A   1      44.414  27.402  34.348  1.00  0.00     0.023 A 
ATOM     66  C   UNL A   1      45.658  28.062  34.435  1.00  0.00     0.012 A 
ATOM     67  C   UNL A   1      44.240  26.168  35.006  1.00  0.00     0.148 A 
ATOM     68  C   UNL A   1      46.719  27.487  35.131  1.00  0.00     0.002 A 
ATOM     69  C   UNL A   1      45.288  25.625  35.739  1.00  0.00     0.091 A 
ATOM     70  F   UNL A   1      43.058  25.546  34.893  1.00  0.00    -0.205 F 
ATOM     71  C   UNL A   1      46.532  26.275  35.791  1.00  0.00     0.022 A 
BRANCH  69  72
ATOM     72  S   UNL A   1      45.121  24.110  36.689  1.00  0.00     0.127 S 
ATOM     73  O   UNL A   1      44.606  24.616  37.961  1.00  0.00    -0.237 OA
ATOM     74  O   UNL A   1      44.152  23.355  35.895  1.00  0.00    -0.237 OA
ATOM     75  O   UNL A   1      46.452  23.522  36.745  1.00  0.00    -0.744 OA
ENDBRANCH  69  72
ENDBRANCH  51  65
BRANCH  52  76
ATOM     76  C   UNL A   1      36.882  31.194  28.990  1.00  0.00     0.023 A 
ATOM     77  C   UNL A   1      36.806  32.575  28.731  1.00  0.00     0.012 A 
ATOM     78  C   UNL A   1      35.859  30.349  28.517  1.00  0.00     0.148 A 
ATOM     79  C   UNL A   1      35.717  33.111  28.040  1.00  0.00     0.002 A 
ATOM     80  C   UNL A   1      34.806  30.881  27.782  1.00  0.00     0.091 A 
ATOM     81  F   UNL A   1      35.943  29.038  28.789  1.00  0.00    -0.205 F 
ATOM     82  C   UNL A   1      34.723  32.263  27.559  1.00  0.00     0.022 A 
BRANCH  80  83
ATOM     83  S   UNL A   1      33.545  29.853  27.021  1.00  0.00     0.127 S 
ATOM     84  O   UNL A   1      33.201  28.943  28.111  1.00  0.00    -0.237 OA
ATOM     85  O   UNL A   1      32.515  30.837  26.690  1.00  0.00    -0.237 OA
ATOM     86  O   UNL A   1      34.182  29.238  25.865  1.00  0.00    -0.744 OA
ENDBRANCH  80  83
ENDBRANCH  52  76
BRANCH  64  87
ATOM     87  C   UNL A   1      39.038  32.050  35.581  1.00  0.00     0.023 A 
ATOM     88  C   UNL A   1      39.176  33.452  35.562  1.00  0.00     0.012 A 
ATOM     89  C   UNL A   1      38.340  31.440  36.644  1.00  0.00     0.148 A 
ATOM     90  C   UNL A   1      38.659  34.230  36.597  1.00  0.00     0.002 A 
ATOM     91  C   UNL A   1      37.780  32.227  37.644  1.00  0.00     0.091 A 
ATOM     92  F   UNL A   1      38.230  30.104  36.653  1.00  0.00    -0.205 F 
ATOM     93  C   UNL A   1      37.951  33.620  37.630  1.00  0.00     0.022 A 
BRANCH  91  94
ATOM     94  S   UNL A   1      36.768  31.540  38.960  1.00  0.00     0.127 S 
ATOM     95  O   UNL A   1      37.701  31.541  40.086  1.00  0.00    -0.237 OA
ATOM     96  O   UNL A   1      35.687  32.521  39.062  1.00  0.00    -0.237 OA
ATOM     97  O   UNL A   1      36.349  30.222  38.501  1.00  0.00    -0.744 OA
ENDBRANCH  91  94
ENDBRANCH  64  87
ENDBRANCH  38  39
ENDBRANCH  31  33
ENDBRANCH  30  31
ENDBRANCH  29  30
ENDBRANCH  28  29
ENDBRANCH  27  28
ENDBRANCH  26  27
ENDBRANCH   1  26
TORSDOF 26
ENDMDL
MODEL 3
REMARK VINA RESULT:      -9.1      5.209     10.626
REMARK SMILES CS(=O)(=O)CC[C@H](NC(=O)Cc1ccn[nH]1)C(=O)OCCOCCOCCOC(=O)c1ccc(-c2c3nc(c(-c4cccc(S(=O)(=O)[O-])c4F)c4ccc([nH]4)c(-c4cccc(S(=O)(=O)[O-])c4F)c4nc(c(-c5cccc(S(=O)(=O)[O-])c5F)c5ccc2[nH]5)C=C4)C=C3)cc1
REMARK SMILES IDX 23 1 22 2 21 3 20 4 19 5 17 6 18 7 7 8 6 9 5 10 2 11 1 12
REMARK SMILES IDX 3 13 4 14 8 15 9 16 10 18 11 19 12 20 13 21 16 22 14 23
REMARK SMILES IDX 15 24 24 26 25 27 26 28 27 29 28 30 29 31 30 32 31 33 32 34
REMARK SMILES IDX 93 35 33 36 92 37 34 38 35 39 36 40 86 41 37 42 91 43 85 44
REMARK SMILES IDX 87 45 38 46 90 47 84 48 83 49 39 51 71 52 51 53 70 54 52 55
REMARK SMILES IDX 55 56 69 57 88 58 53 59 54 60 68 62 89 63 56 64 40 65 41 66
REMARK SMILES IDX 49 67 42 68 44 69 50 70 43 71 45 72 46 73 47 74 48 75 72 76
REMARK SMILES IDX 73 77 81 78 74 79 76 80 82 81 75 82 77 83 78 84 79 85 80 86
REMARK SMILES IDX 57 87 58 88 66 89 59 90 61 91 67 92 60 93 62 94 63 95 64 96
REMARK SMILES IDX 65 97
REMARK H PARENT 8 17 16 25 87 50 55 61
REMARK Flexibility Score: inf
ROOT
ATOM      1  C   UNL A   1      40.601  21.696  26.351  1.00  0.00     0.188 C 
ENDROOT
BRANCH   1   2
ATOM      2  O   UNL A   1      39.318  22.253  26.137  1.00  0.00    -0.376 OA
BRANCH   2   3
ATOM      3  C   UNL A   1      38.331  21.401  25.577  1.00  0.00     0.202 C 
BRANCH   3   4
ATOM      4  C   UNL A   1      37.286  21.964  24.590  1.00  0.00     0.261 C 
BRANCH   4   5
ATOM      5  O   UNL A   1      36.255  22.818  25.113  1.00  0.00    -0.462 OA
BRANCH   5   6
ATOM      6  C   UNL A   1      35.146  22.200  25.590  1.00  0.00     0.328 C 
ATOM      7  O   UNL A   1      35.058  21.768  26.732  1.00  0.00    -0.250 OA
BRANCH   6   8
ATOM      8  C   UNL A   1      33.969  22.202  24.576  1.00  0.00     0.193 C 
BRANCH   8   9
ATOM      9  C   UNL A   1      33.742  20.777  24.080  1.00  0.00     0.053 C 
BRANCH   9  10
ATOM     10  C   UNL A   1      32.713  19.901  24.794  1.00  0.00     0.139 C 
BRANCH  10  11
ATOM     11  S   UNL A   1      32.677  18.195  24.269  1.00  0.00     0.147 S 
ATOM     12  C   UNL A   1      34.370  17.643  24.263  1.00  0.00     0.158 C 
ATOM     13  O   UNL A   1      32.210  18.198  22.897  1.00  0.00    -0.229 OA
ATOM     14  O   UNL A   1      31.968  17.438  25.286  1.00  0.00    -0.229 OA
ENDBRANCH  10  11
ENDBRANCH   9  10
ENDBRANCH   8   9
BRANCH   8  15
ATOM     15  N   UNL A   1      34.166  23.226  23.516  1.00  0.00    -0.342 N 
ATOM     16  C   UNL A   1      33.416  24.304  23.122  1.00  0.00     0.226 C 
ATOM     17  H   UNL A   1      34.993  23.107  22.996  1.00  0.00     0.164 HD
ATOM     18  O   UNL A   1      34.010  25.292  22.682  1.00  0.00    -0.275 OA
BRANCH  16  19
ATOM     19  C   UNL A   1      31.894  24.263  23.129  1.00  0.00     0.155 C 
BRANCH  19  20
ATOM     20  C   UNL A   1      31.384  25.079  24.275  1.00  0.00     0.044 A 
ATOM     21  C   UNL A   1      30.205  25.775  24.452  1.00  0.00     0.045 A 
ATOM     22  N   UNL A   1      32.031  25.138  25.484  1.00  0.00    -0.282 N 
ATOM     23  C   UNL A   1      30.158  26.050  25.827  1.00  0.00     0.135 A 
ATOM     24  N   UNL A   1      31.268  25.665  26.459  1.00  0.00    -0.184 NA
ATOM     25  H   UNL A   1      32.954  24.826  25.623  1.00  0.00     0.190 HD
ENDBRANCH  19  20
ENDBRANCH  16  19
ENDBRANCH   8  15
ENDBRANCH   6   8
ENDBRANCH   5   6
ENDBRANCH   4   5
ENDBRANCH   3   4
ENDBRANCH   2   3
ENDBRANCH   1   2
BRANCH   1  26
ATOM     26  C   UNL A   1      40.549  20.166  26.500  1.00  0.00     0.188 C 
BRANCH  26  27
ATOM     27  O   UNL A   1      41.291  19.364  25.599  1.00  0.00    -0.376 OA
BRANCH  27  28
ATOM     28  C   UNL A   1      42.343  18.560  26.135  1.00  0.00     0.202 C 
BRANCH  28  29
ATOM     29  C   UNL A   1      43.830  18.713  25.718  1.00  0.00     0.261 C 
BRANCH  29  30
ATOM     30  O   UNL A   1      44.117  19.251  24.417  1.00  0.00    -0.460 OA
BRANCH  30  31
ATOM     31  C   UNL A   1      45.302  19.909  24.290  1.00  0.00     0.338 C 
ATOM     32  O   UNL A   1      46.285  19.533  23.682  1.00  0.00    -0.246 OA
BRANCH  31  33
ATOM     33  C   UNL A   1      45.134  21.292  24.804  1.00  0.00     0.060 A 
ATOM     34  C   UNL A   1      44.747  22.304  23.909  1.00  0.00     0.016 A 
ATOM     35  C   UNL A   1      45.360  21.591  26.146  1.00  0.00     0.016 A 
ATOM     36  C   UNL A   1      44.582  23.616  24.351  1.00  0.00     0.010 A 
ATOM     37  C   UNL A   1      45.239  22.916  26.579  1.00  0.00     0.010 A 
ATOM     38  C   UNL A   1      44.873  23.937  25.681  1.00  0.00    -0.014 A 
BRANCH  38  39
ATOM     39  C   UNL A   1      45.001  25.357  26.085  1.00  0.00     0.031 A 
ATOM     40  C   UNL A   1      46.372  25.978  26.068  1.00  0.00     0.074 A 
ATOM     41  C   UNL A   1      43.937  26.080  26.476  1.00  0.00     0.049 A 
ATOM     42  N   UNL A   1      46.753  27.161  26.470  1.00  0.00    -0.248 NA
ATOM     43  C   UNL A   1      47.460  25.144  25.529  1.00  0.00     0.031 C 
ATOM     44  C   UNL A   1      42.555  25.606  26.509  1.00  0.00     0.029 A 
ATOM     45  N   UNL A   1      43.865  27.365  26.955  1.00  0.00    -0.354 N 
ATOM     46  C   UNL A   1      48.128  27.203  26.267  1.00  0.00     0.074 A 
ATOM     47  C   UNL A   1      48.513  25.923  25.714  1.00  0.00     0.031 C 
ATOM     48  C   UNL A   1      41.775  26.575  27.019  1.00  0.00     0.029 A 
ATOM     49  C   UNL A   1      42.607  27.722  27.381  1.00  0.00     0.049 A 
ATOM     50  H   UNL A   1      44.639  27.972  26.991  1.00  0.00     0.167 HD
ATOM     51  C   UNL A   1      48.991  28.215  26.514  1.00  0.00     0.034 A 
ATOM     52  C   UNL A   1      42.186  28.832  28.022  1.00  0.00     0.034 A 
ATOM     53  C   UNL A   1      48.605  29.487  27.060  1.00  0.00     0.049 A 
ATOM     54  C   UNL A   1      43.178  29.925  28.339  1.00  0.00     0.074 A 
ATOM     55  C   UNL A   1      49.401  30.589  27.317  1.00  0.00     0.029 A 
ATOM     56  N   UNL A   1      47.319  29.822  27.454  1.00  0.00    -0.354 N 
ATOM     57  N   UNL A   1      44.457  29.989  28.059  1.00  0.00    -0.248 NA
ATOM     58  C   UNL A   1      42.660  31.111  29.040  1.00  0.00     0.031 C 
ATOM     59  C   UNL A   1      48.602  31.578  27.900  1.00  0.00     0.029 A 
ATOM     60  C   UNL A   1      47.300  31.108  27.965  1.00  0.00     0.049 A 
ATOM     61  H   UNL A   1      46.535  29.232  27.380  1.00  0.00     0.167 HD
ATOM     62  C   UNL A   1      44.886  31.235  28.508  1.00  0.00     0.074 A 
ATOM     63  C   UNL A   1      43.727  31.898  29.067  1.00  0.00     0.031 C 
ATOM     64  C   UNL A   1      46.129  31.778  28.470  1.00  0.00     0.034 A 
BRANCH  51  65
ATOM     65  C   UNL A   1      50.443  27.984  26.187  1.00  0.00     0.023 A 
ATOM     66  C   UNL A   1      50.904  28.167  24.867  1.00  0.00     0.012 A 
ATOM     67  C   UNL A   1      51.359  27.623  27.195  1.00  0.00     0.148 A 
ATOM     68  C   UNL A   1      52.244  27.956  24.548  1.00  0.00     0.002 A 
ATOM     69  C   UNL A   1      52.703  27.463  26.879  1.00  0.00     0.091 A 
ATOM     70  F   UNL A   1      50.898  27.432  28.439  1.00  0.00    -0.205 F 
ATOM     71  C   UNL A   1      53.145  27.615  25.554  1.00  0.00     0.022 A 
BRANCH  69  72
ATOM     72  S   UNL A   1      53.953  27.102  28.116  1.00  0.00     0.127 S 
ATOM     73  O   UNL A   1      54.930  26.345  27.335  1.00  0.00    -0.237 OA
ATOM     74  O   UNL A   1      54.390  28.441  28.509  1.00  0.00    -0.237 OA
ATOM     75  O   UNL A   1      53.276  26.351  29.164  1.00  0.00    -0.744 OA
ENDBRANCH  69  72
ENDBRANCH  51  65
BRANCH  52  76
ATOM     76  C   UNL A   1      40.751  28.981  28.400  1.00  0.00     0.023 A 
ATOM     77  C   UNL A   1      39.797  29.268  27.405  1.00  0.00     0.012 A 
ATOM     78  C   UNL A   1      40.329  28.844  29.737  1.00  0.00     0.148 A 
ATOM     79  C   UNL A   1      38.453  29.445  27.738  1.00  0.00     0.002 A 
ATOM     80  C   UNL A   1      38.982  28.968  30.054  1.00  0.00     0.091 A 
ATOM     81  F   UNL A   1      41.256  28.587  30.671  1.00  0.00    -0.205 F 
ATOM     82  C   UNL A   1      38.044  29.287  29.059  1.00  0.00     0.022 A 
BRANCH  80  83
ATOM     83  S   UNL A   1      38.347  28.662  31.706  1.00  0.00     0.127 S 
ATOM     84  O   UNL A   1      38.663  27.249  31.892  1.00  0.00    -0.237 OA
ATOM     85  O   UNL A   1      39.146  29.586  32.510  1.00  0.00    -0.237 OA
ATOM     86  O   UNL A   1      36.928  28.988  31.650  1.00  0.00    -0.744 OA
ENDBRANCH  80  83
ENDBRANCH  52  76
BRANCH  64  87
ATOM     87  C   UNL A   1      46.303  33.182  28.994  1.00  0.00     0.023 A 
ATOM     88  C   UNL A   1      46.520  33.404  30.369  1.00  0.00     0.012 A 
ATOM     89  C   UNL A   1      46.335  34.276  28.105  1.00  0.00     0.148 A 
ATOM     90  C   UNL A   1      46.732  34.694  30.854  1.00  0.00     0.002 A 
ATOM     91  C   UNL A   1      46.600  35.552  28.589  1.00  0.00     0.091 A 
ATOM     92  F   UNL A   1      46.114  34.048  26.803  1.00  0.00    -0.205 F 
ATOM     93  C   UNL A   1      46.784  35.765  29.964  1.00  0.00     0.022 A 
BRANCH  91  94
ATOM     94  S   UNL A   1      46.786  36.975  27.509  1.00  0.00     0.127 S 
ATOM     95  O   UNL A   1      46.667  38.084  28.454  1.00  0.00    -0.237 OA
ATOM     96  O   UNL A   1      48.131  36.778  26.966  1.00  0.00    -0.237 OA
ATOM     97  O   UNL A   1      45.716  36.879  26.525  1.00  0.00    -0.744 OA
ENDBRANCH  91  94
ENDBRANCH  64  87
ENDBRANCH  38  39
ENDBRANCH  31  33
ENDBRANCH  30  31
ENDBRANCH  29  30
ENDBRANCH  28  29
ENDBRANCH  27  28
ENDBRANCH  26  27
ENDBRANCH   1  26
TORSDOF 26
ENDMDL
