MODEL 1
REMARK VINA RESULT:      -6.2      0.000      0.000
REMARK SMILES C[C@@]([NH2+]CCCO)(C(=O)OCCOCCOCCOC(=O)c1ccc(-c2c3nc(c(-c4cccc(S(=O)(=O)[O-])c4F)c4ccc([nH]4)c(-c4cccc(S(=O)(=O)[O-])c4F)c4nc(c(-c5cccc(S(=O)(=O)[O-])c5F)c5ccc2[nH]5)C=C4)C=C3)cc1)C(F)(F)F
REMARK SMILES IDX 14 1 13 2 12 3 11 4 10 5 8 6 9 7 2 8 1 9 3 10 4 13 5 14 6 15
REMARK SMILES IDX 7 16 85 18 86 19 87 20 88 21 15 22 16 23 17 24 18 25 19 26
REMARK SMILES IDX 20 27 21 28 22 29 23 30 84 31 24 32 83 33 25 34 26 35 27 36
REMARK SMILES IDX 77 37 28 38 82 39 76 40 78 41 29 42 81 43 75 44 74 45 30 47
REMARK SMILES IDX 62 48 42 49 61 50 43 51 46 52 60 53 79 54 44 55 45 56 59 58
REMARK SMILES IDX 80 59 47 60 31 61 32 62 40 63 33 64 35 65 41 66 34 67 36 68
REMARK SMILES IDX 37 69 38 70 39 71 63 72 64 73 72 74 65 75 67 76 73 77 66 78
REMARK SMILES IDX 68 79 69 80 70 81 71 82 48 83 49 84 57 85 50 86 52 87 58 88
REMARK SMILES IDX 51 89 53 90 54 91 55 92 56 93
REMARK H PARENT 3 11 3 12 7 17 78 46 46 57
REMARK Flexibility Score: inf
ROOT
ATOM      1  C   UNL A   1      35.354  32.332  29.755  1.00  0.00     0.188 C 
ENDROOT
BRANCH   1   2
ATOM      2  O   UNL A   1      36.723  32.344  29.375  1.00  0.00    -0.376 OA
BRANCH   2   3
ATOM      3  C   UNL A   1      37.620  31.369  29.878  1.00  0.00     0.202 C 
BRANCH   3   4
ATOM      4  C   UNL A   1      38.345  30.414  28.916  1.00  0.00     0.261 C 
BRANCH   4   5
ATOM      5  O   UNL A   1      39.280  29.479  29.495  1.00  0.00    -0.458 OA
BRANCH   5   6
ATOM      6  C   UNL A   1      39.658  28.446  28.690  1.00  0.00     0.377 C 
ATOM      7  O   UNL A   1      38.894  27.535  28.388  1.00  0.00    -0.244 OA
BRANCH   6   8
ATOM      8  C   UNL A   1      41.131  28.490  28.233  1.00  0.00     0.287 C 
ATOM      9  C   UNL A   1      41.959  29.697  28.748  1.00  0.00     0.103 C 
BRANCH   8  10
ATOM     10  N   UNL A   1      41.910  27.329  28.827  1.00  0.00    -0.325 N 
ATOM     11  H   UNL A   1      41.472  26.470  28.493  1.00  0.00     0.347 HD
ATOM     12  H   UNL A   1      41.872  27.488  29.834  1.00  0.00     0.347 HD
BRANCH  10  13
ATOM     13  C   UNL A   1      43.338  27.230  28.532  1.00  0.00     0.264 C 
BRANCH  13  14
ATOM     14  C   UNL A   1      43.952  25.830  28.453  1.00  0.00     0.089 C 
BRANCH  14  15
ATOM     15  C   UNL A   1      42.978  24.691  28.730  1.00  0.00     0.162 C 
BRANCH  15  16
ATOM     16  O   UNL A   1      43.544  23.439  28.363  1.00  0.00    -0.396 OA
ATOM     17  H   UNL A   1      44.412  23.339  28.784  1.00  0.00     0.210 HD
ENDBRANCH  15  16
ENDBRANCH  14  15
ENDBRANCH  13  14
ENDBRANCH  10  13
ENDBRANCH   8  10
BRANCH   8  18
ATOM     18  C   UNL A   1      41.082  28.612  26.682  1.00  0.00     0.455 C 
ATOM     19  F   UNL A   1      40.997  27.402  26.075  1.00  0.00    -0.164 F 
ATOM     20  F   UNL A   1      39.963  29.297  26.318  1.00  0.00    -0.164 F 
ATOM     21  F   UNL A   1      42.122  29.253  26.126  1.00  0.00    -0.164 F 
ENDBRANCH   8  18
ENDBRANCH   6   8
ENDBRANCH   5   6
ENDBRANCH   4   5
ENDBRANCH   3   4
ENDBRANCH   2   3
ENDBRANCH   1   2
BRANCH   1  22
ATOM     22  C   UNL A   1      34.978  32.350  31.248  1.00  0.00     0.188 C 
BRANCH  22  23
ATOM     23  O   UNL A   1      34.049  33.336  31.618  1.00  0.00    -0.376 OA
BRANCH  23  24
ATOM     24  C   UNL A   1      34.518  34.555  32.151  1.00  0.00     0.202 C 
BRANCH  24  25
ATOM     25  C   UNL A   1      35.993  34.794  32.527  1.00  0.00     0.261 C 
BRANCH  25  26
ATOM     26  O   UNL A   1      36.319  34.995  33.907  1.00  0.00    -0.460 OA
BRANCH  26  27
ATOM     27  C   UNL A   1      36.376  33.897  34.703  1.00  0.00     0.338 C 
ATOM     28  O   UNL A   1      35.485  33.458  35.399  1.00  0.00    -0.246 OA
BRANCH  27  29
ATOM     29  C   UNL A   1      37.646  33.188  34.403  1.00  0.00     0.060 A 
ATOM     30  C   UNL A   1      38.859  33.741  34.841  1.00  0.00     0.016 A 
ATOM     31  C   UNL A   1      37.638  31.981  33.701  1.00  0.00     0.016 A 
ATOM     32  C   UNL A   1      40.069  33.107  34.550  1.00  0.00     0.010 A 
ATOM     33  C   UNL A   1      38.851  31.362  33.387  1.00  0.00     0.010 A 
ATOM     34  C   UNL A   1      40.074  31.939  33.779  1.00  0.00    -0.014 A 
BRANCH  34  35
ATOM     35  C   UNL A   1      41.338  31.438  33.178  1.00  0.00     0.031 A 
ATOM     36  C   UNL A   1      41.935  32.226  32.043  1.00  0.00     0.074 A 
ATOM     37  C   UNL A   1      41.927  30.301  33.588  1.00  0.00     0.049 A 
ATOM     38  N   UNL A   1      42.941  31.933  31.264  1.00  0.00    -0.248 NA
ATOM     39  C   UNL A   1      41.300  33.521  31.746  1.00  0.00     0.031 C 
ATOM     40  C   UNL A   1      41.477  29.463  34.695  1.00  0.00     0.029 A 
ATOM     41  N   UNL A   1      43.019  29.637  33.082  1.00  0.00    -0.354 N 
ATOM     42  C   UNL A   1      43.030  32.980  30.354  1.00  0.00     0.074 A 
ATOM     43  C   UNL A   1      41.978  33.917  30.680  1.00  0.00     0.031 C 
ATOM     44  C   UNL A   1      42.260  28.371  34.760  1.00  0.00     0.029 A 
ATOM     45  C   UNL A   1      43.240  28.415  33.674  1.00  0.00     0.049 A 
ATOM     46  H   UNL A   1      43.588  30.000  32.366  1.00  0.00     0.167 HD
ATOM     47  C   UNL A   1      43.909  33.150  29.339  1.00  0.00     0.034 A 
ATOM     48  C   UNL A   1      44.104  27.431  33.351  1.00  0.00     0.034 A 
ATOM     49  C   UNL A   1      44.959  32.223  29.018  1.00  0.00     0.049 A 
ATOM     50  C   UNL A   1      45.045  27.620  32.185  1.00  0.00     0.074 A 
ATOM     51  C   UNL A   1      45.922  32.324  28.029  1.00  0.00     0.029 A 
ATOM     52  N   UNL A   1      45.174  31.017  29.664  1.00  0.00    -0.354 N 
ATOM     53  N   UNL A   1      45.176  28.650  31.385  1.00  0.00    -0.248 NA
ATOM     54  C   UNL A   1      45.974  26.517  31.892  1.00  0.00     0.031 C 
ATOM     55  C   UNL A   1      46.692  31.158  28.050  1.00  0.00     0.029 A 
ATOM     56  C   UNL A   1      46.244  30.355  29.088  1.00  0.00     0.049 A 
ATOM     57  H   UNL A   1      44.644  30.679  30.423  1.00  0.00     0.167 HD
ATOM     58  C   UNL A   1      46.229  28.341  30.528  1.00  0.00     0.074 A 
ATOM     59  C   UNL A   1      46.707  27.029  30.912  1.00  0.00     0.031 C 
ATOM     60  C   UNL A   1      46.749  29.074  29.512  1.00  0.00     0.034 A 
BRANCH  47  61
ATOM     61  C   UNL A   1      43.761  34.387  28.493  1.00  0.00     0.023 A 
ATOM     62  C   UNL A   1      43.075  34.324  27.263  1.00  0.00     0.012 A 
ATOM     63  C   UNL A   1      44.277  35.622  28.934  1.00  0.00     0.148 A 
ATOM     64  C   UNL A   1      42.943  35.460  26.465  1.00  0.00     0.002 A 
ATOM     65  C   UNL A   1      44.096  36.759  28.159  1.00  0.00     0.091 A 
ATOM     66  F   UNL A   1      44.945  35.657  30.095  1.00  0.00    -0.205 F 
ATOM     67  C   UNL A   1      43.443  36.678  26.917  1.00  0.00     0.022 A 
BRANCH  65  68
ATOM     68  S   UNL A   1      44.631  38.389  28.692  1.00  0.00     0.127 S 
ATOM     69  O   UNL A   1      44.293  39.206  27.528  1.00  0.00    -0.237 OA
ATOM     70  O   UNL A   1      43.785  38.620  29.864  1.00  0.00    -0.237 OA
ATOM     71  O   UNL A   1      46.052  38.272  28.982  1.00  0.00    -0.744 OA
ENDBRANCH  65  68
ENDBRANCH  47  61
BRANCH  48  72
ATOM     72  C   UNL A   1      44.133  26.169  34.147  1.00  0.00     0.023 A 
ATOM     73  C   UNL A   1      43.391  25.055  33.711  1.00  0.00     0.012 A 
ATOM     74  C   UNL A   1      44.890  26.070  35.331  1.00  0.00     0.148 A 
ATOM     75  C   UNL A   1      43.376  23.874  34.456  1.00  0.00     0.002 A 
ATOM     76  C   UNL A   1      44.916  24.874  36.038  1.00  0.00     0.091 A 
ATOM     77  F   UNL A   1      45.575  27.148  35.737  1.00  0.00    -0.205 F 
ATOM     78  C   UNL A   1      44.146  23.781  35.613  1.00  0.00     0.022 A 
BRANCH  76  79
ATOM     79  S   UNL A   1      45.962  24.620  37.476  1.00  0.00     0.127 S 
ATOM     80  O   UNL A   1      45.592  23.265  37.880  1.00  0.00    -0.237 OA
ATOM     81  O   UNL A   1      47.300  24.747  36.898  1.00  0.00    -0.237 OA
ATOM     82  O   UNL A   1      45.607  25.673  38.417  1.00  0.00    -0.744 OA
ENDBRANCH  76  79
ENDBRANCH  48  72
BRANCH  60  83
ATOM     83  C   UNL A   1      47.941  28.520  28.772  1.00  0.00     0.023 A 
ATOM     84  C   UNL A   1      49.249  28.817  29.203  1.00  0.00     0.012 A 
ATOM     85  C   UNL A   1      47.756  27.624  27.697  1.00  0.00     0.148 A 
ATOM     86  C   UNL A   1      50.352  28.259  28.556  1.00  0.00     0.002 A 
ATOM     87  C   UNL A   1      48.857  27.031  27.094  1.00  0.00     0.091 A 
ATOM     88  F   UNL A   1      46.505  27.365  27.292  1.00  0.00    -0.205 F 
ATOM     89  C   UNL A   1      50.156  27.357  27.512  1.00  0.00     0.022 A 
BRANCH  87  90
ATOM     90  S   UNL A   1      48.699  25.781  25.813  1.00  0.00     0.127 S 
ATOM     91  O   UNL A   1      47.839  26.456  24.843  1.00  0.00    -0.237 OA
ATOM     92  O   UNL A   1      50.085  25.603  25.380  1.00  0.00    -0.237 OA
ATOM     93  O   UNL A   1      48.112  24.614  26.458  1.00  0.00    -0.744 OA
ENDBRANCH  87  90
ENDBRANCH  60  83
ENDBRANCH  34  35
ENDBRANCH  27  29
ENDBRANCH  26  27
ENDBRANCH  25  26
ENDBRANCH  24  25
ENDBRANCH  23  24
ENDBRANCH  22  23
ENDBRANCH   1  22
TORSDOF 26
ENDMDL
MODEL 2
REMARK VINA RESULT:      -6.0      6.905     13.491
REMARK SMILES C[C@@]([NH2+]CCCO)(C(=O)OCCOCCOCCOC(=O)c1ccc(-c2c3nc(c(-c4cccc(S(=O)(=O)[O-])c4F)c4ccc([nH]4)c(-c4cccc(S(=O)(=O)[O-])c4F)c4nc(c(-c5cccc(S(=O)(=O)[O-])c5F)c5ccc2[nH]5)C=C4)C=C3)cc1)C(F)(F)F
REMARK SMILES IDX 14 1 13 2 12 3 11 4 10 5 8 6 9 7 2 8 1 9 3 10 4 13 5 14 6 15
REMARK SMILES IDX 7 16 85 18 86 19 87 20 88 21 15 22 16 23 17 24 18 25 19 26
REMARK SMILES IDX 20 27 21 28 22 29 23 30 84 31 24 32 83 33 25 34 26 35 27 36
REMARK SMILES IDX 77 37 28 38 82 39 76 40 78 41 29 42 81 43 75 44 74 45 30 47
REMARK SMILES IDX 62 48 42 49 61 50 43 51 46 52 60 53 79 54 44 55 45 56 59 58
REMARK SMILES IDX 80 59 47 60 31 61 32 62 40 63 33 64 35 65 41 66 34 67 36 68
REMARK SMILES IDX 37 69 38 70 39 71 63 72 64 73 72 74 65 75 67 76 73 77 66 78
REMARK SMILES IDX 68 79 69 80 70 81 71 82 48 83 49 84 57 85 50 86 52 87 58 88
REMARK SMILES IDX 51 89 53 90 54 91 55 92 56 93
REMARK H PARENT 3 11 3 12 7 17 78 46 46 57
REMARK Flexibility Score: inf
ROOT
ATOM      1  C   UNL A   1      47.398  18.258  41.934  1.00  0.00     0.188 C 
ENDROOT
BRANCH   1   2
ATOM      2  O   UNL A   1      46.546  17.935  43.023  1.00  0.00    -0.376 OA
BRANCH   2   3
ATOM      3  C   UNL A   1      47.081  17.434  44.236  1.00  0.00     0.202 C 
BRANCH   3   4
ATOM      4  C   UNL A   1      46.264  16.459  45.099  1.00  0.00     0.261 C 
BRANCH   4   5
ATOM      5  O   UNL A   1      45.569  15.396  44.414  1.00  0.00    -0.458 OA
BRANCH   5   6
ATOM      6  C   UNL A   1      44.379  15.019  44.962  1.00  0.00     0.377 C 
ATOM      7  O   UNL A   1      44.085  15.263  46.128  1.00  0.00    -0.244 OA
BRANCH   6   8
ATOM      8  C   UNL A   1      43.457  14.220  44.017  1.00  0.00     0.287 C 
ATOM      9  C   UNL A   1      41.940  14.301  44.330  1.00  0.00     0.103 C 
BRANCH   8  10
ATOM     10  N   UNL A   1      43.496  14.801  42.614  1.00  0.00    -0.325 N 
ATOM     11  H   UNL A   1      44.041  14.160  42.037  1.00  0.00     0.347 HD
ATOM     12  H   UNL A   1      43.887  15.735  42.738  1.00  0.00     0.347 HD
BRANCH  10  13
ATOM     13  C   UNL A   1      42.228  15.032  41.924  1.00  0.00     0.264 C 
BRANCH  13  14
ATOM     14  C   UNL A   1      41.984  14.277  40.616  1.00  0.00     0.089 C 
BRANCH  14  15
ATOM     15  C   UNL A   1      41.119  13.030  40.752  1.00  0.00     0.162 C 
BRANCH  15  16
ATOM     16  O   UNL A   1      41.131  12.269  39.550  1.00  0.00    -0.396 OA
ATOM     17  H   UNL A   1      40.774  12.805  38.824  1.00  0.00     0.210 HD
ENDBRANCH  15  16
ENDBRANCH  14  15
ENDBRANCH  13  14
ENDBRANCH  10  13
ENDBRANCH   8  10
BRANCH   8  18
ATOM     18  C   UNL A   1      43.870  12.730  44.196  1.00  0.00     0.455 C 
ATOM     19  F   UNL A   1      43.322  11.929  43.249  1.00  0.00    -0.164 F 
ATOM     20  F   UNL A   1      45.219  12.614  44.056  1.00  0.00    -0.164 F 
ATOM     21  F   UNL A   1      43.561  12.190  45.386  1.00  0.00    -0.164 F 
ENDBRANCH   8  18
ENDBRANCH   6   8
ENDBRANCH   5   6
ENDBRANCH   4   5
ENDBRANCH   3   4
ENDBRANCH   2   3
ENDBRANCH   1   2
BRANCH   1  22
ATOM     22  C   UNL A   1      47.521  17.284  40.749  1.00  0.00     0.188 C 
BRANCH  22  23
ATOM     23  O   UNL A   1      46.704  17.579  39.646  1.00  0.00    -0.376 OA
BRANCH  23  24
ATOM     24  C   UNL A   1      46.642  18.907  39.174  1.00  0.00     0.202 C 
BRANCH  24  25
ATOM     25  C   UNL A   1      46.731  19.271  37.679  1.00  0.00     0.261 C 
BRANCH  25  26
ATOM     26  O   UNL A   1      45.514  19.405  36.937  1.00  0.00    -0.460 OA
BRANCH  26  27
ATOM     27  C   UNL A   1      45.608  19.452  35.584  1.00  0.00     0.338 C 
ATOM     28  O   UNL A   1      45.584  18.509  34.821  1.00  0.00    -0.246 OA
BRANCH  27  29
ATOM     29  C   UNL A   1      45.520  20.877  35.174  1.00  0.00     0.060 A 
ATOM     30  C   UNL A   1      44.267  21.509  35.162  1.00  0.00     0.016 A 
ATOM     31  C   UNL A   1      46.667  21.585  34.812  1.00  0.00     0.016 A 
ATOM     32  C   UNL A   1      44.153  22.841  34.756  1.00  0.00     0.010 A 
ATOM     33  C   UNL A   1      46.548  22.909  34.379  1.00  0.00     0.010 A 
ATOM     34  C   UNL A   1      45.287  23.533  34.316  1.00  0.00    -0.014 A 
BRANCH  34  35
ATOM     35  C   UNL A   1      45.149  24.813  33.573  1.00  0.00     0.031 A 
ATOM     36  C   UNL A   1      44.724  24.744  32.130  1.00  0.00     0.074 A 
ATOM     37  C   UNL A   1      45.425  26.003  34.135  1.00  0.00     0.049 A 
ATOM     38  N   UNL A   1      44.665  25.691  31.233  1.00  0.00    -0.248 NA
ATOM     39  C   UNL A   1      44.318  23.418  31.635  1.00  0.00     0.031 C 
ATOM     40  C   UNL A   1      45.809  26.216  35.527  1.00  0.00     0.029 A 
ATOM     41  N   UNL A   1      45.460  27.259  33.578  1.00  0.00    -0.354 N 
ATOM     42  C   UNL A   1      44.264  25.070  30.056  1.00  0.00     0.074 A 
ATOM     43  C   UNL A   1      44.090  23.665  30.355  1.00  0.00     0.031 C 
ATOM     44  C   UNL A   1      46.085  27.520  35.706  1.00  0.00     0.029 A 
ATOM     45  C   UNL A   1      45.935  28.225  34.434  1.00  0.00     0.049 A 
ATOM     46  H   UNL A   1      45.174  27.449  32.655  1.00  0.00     0.167 HD
ATOM     47  C   UNL A   1      44.056  25.617  28.836  1.00  0.00     0.034 A 
ATOM     48  C   UNL A   1      46.249  29.516  34.204  1.00  0.00     0.034 A 
ATOM     49  C   UNL A   1      44.221  27.013  28.539  1.00  0.00     0.049 A 
ATOM     50  C   UNL A   1      46.055  30.097  32.824  1.00  0.00     0.074 A 
ATOM     51  C   UNL A   1      44.001  27.669  27.341  1.00  0.00     0.029 A 
ATOM     52  N   UNL A   1      44.666  27.965  29.442  1.00  0.00    -0.354 N 
ATOM     53  N   UNL A   1      45.594  29.520  31.740  1.00  0.00    -0.248 NA
ATOM     54  C   UNL A   1      46.402  31.515  32.641  1.00  0.00     0.031 C 
ATOM     55  C   UNL A   1      44.354  29.011  27.508  1.00  0.00     0.029 A 
ATOM     56  C   UNL A   1      44.742  29.202  28.825  1.00  0.00     0.049 A 
ATOM     57  H   UNL A   1      44.894  27.789  30.384  1.00  0.00     0.167 HD
ATOM     58  C   UNL A   1      45.552  30.512  30.765  1.00  0.00     0.074 A 
ATOM     59  C   UNL A   1      46.026  31.730  31.387  1.00  0.00     0.031 C 
ATOM     60  C   UNL A   1      45.161  30.422  29.468  1.00  0.00     0.034 A 
BRANCH  47  61
ATOM     61  C   UNL A   1      43.634  24.693  27.724  1.00  0.00     0.023 A 
ATOM     62  C   UNL A   1      42.266  24.437  27.498  1.00  0.00     0.012 A 
ATOM     63  C   UNL A   1      44.596  24.099  26.883  1.00  0.00     0.148 A 
ATOM     64  C   UNL A   1      41.864  23.573  26.481  1.00  0.00     0.002 A 
ATOM     65  C   UNL A   1      44.186  23.281  25.839  1.00  0.00     0.091 A 
ATOM     66  F   UNL A   1      45.892  24.336  27.128  1.00  0.00    -0.205 F 
ATOM     67  C   UNL A   1      42.822  23.004  25.646  1.00  0.00     0.022 A 
BRANCH  65  68
ATOM     68  S   UNL A   1      45.337  22.568  24.659  1.00  0.00     0.127 S 
ATOM     69  O   UNL A   1      44.445  21.761  23.828  1.00  0.00    -0.237 OA
ATOM     70  O   UNL A   1      45.874  23.758  23.998  1.00  0.00    -0.237 OA
ATOM     71  O   UNL A   1      46.307  21.818  25.445  1.00  0.00    -0.744 OA
ENDBRANCH  65  68
ENDBRANCH  47  61
BRANCH  48  72
ATOM     72  C   UNL A   1      46.779  30.366  35.311  1.00  0.00     0.023 A 
ATOM     73  C   UNL A   1      45.885  31.106  36.109  1.00  0.00     0.012 A 
ATOM     74  C   UNL A   1      48.161  30.444  35.574  1.00  0.00     0.148 A 
ATOM     75  C   UNL A   1      46.359  31.933  37.129  1.00  0.00     0.002 A 
ATOM     76  C   UNL A   1      48.622  31.226  36.627  1.00  0.00     0.091 A 
ATOM     77  F   UNL A   1      48.996  29.746  34.792  1.00  0.00    -0.205 F 
ATOM     78  C   UNL A   1      47.725  31.985  37.394  1.00  0.00     0.022 A 
BRANCH  76  79
ATOM     79  S   UNL A   1      50.350  31.271  37.117  1.00  0.00     0.127 S 
ATOM     80  O   UNL A   1      50.992  31.773  35.904  1.00  0.00    -0.237 OA
ATOM     81  O   UNL A   1      50.319  32.215  38.234  1.00  0.00    -0.237 OA
ATOM     82  O   UNL A   1      50.693  29.905  37.488  1.00  0.00    -0.744 OA
ENDBRANCH  76  79
ENDBRANCH  48  72
BRANCH  60  83
ATOM     83  C   UNL A   1      45.159  31.680  28.636  1.00  0.00     0.023 A 
ATOM     84  C   UNL A   1      43.968  32.407  28.446  1.00  0.00     0.012 A 
ATOM     85  C   UNL A   1      46.368  32.189  28.116  1.00  0.00     0.148 A 
ATOM     86  C   UNL A   1      43.975  33.602  27.726  1.00  0.00     0.002 A 
ATOM     87  C   UNL A   1      46.376  33.406  27.447  1.00  0.00     0.091 A 
ATOM     88  F   UNL A   1      47.490  31.476  28.294  1.00  0.00    -0.205 F 
ATOM     89  C   UNL A   1      45.178  34.107  27.238  1.00  0.00     0.022 A 
BRANCH  87  90
ATOM     90  S   UNL A   1      47.891  34.184  26.876  1.00  0.00     0.127 S 
ATOM     91  O   UNL A   1      48.733  34.108  28.068  1.00  0.00    -0.237 OA
ATOM     92  O   UNL A   1      48.300  33.301  25.783  1.00  0.00    -0.237 OA
ATOM     93  O   UNL A   1      47.522  35.530  26.459  1.00  0.00    -0.744 OA
ENDBRANCH  87  90
ENDBRANCH  60  83
ENDBRANCH  34  35
ENDBRANCH  27  29
ENDBRANCH  26  27
ENDBRANCH  25  26
ENDBRANCH  24  25
ENDBRANCH  23  24
ENDBRANCH  22  23
ENDBRANCH   1  22
TORSDOF 26
ENDMDL
MODEL 3
REMARK VINA RESULT:      -6.0      4.050      9.874
REMARK SMILES C[C@@]([NH2+]CCCO)(C(=O)OCCOCCOCCOC(=O)c1ccc(-c2c3nc(c(-c4cccc(S(=O)(=O)[O-])c4F)c4ccc([nH]4)c(-c4cccc(S(=O)(=O)[O-])c4F)c4nc(c(-c5cccc(S(=O)(=O)[O-])c5F)c5ccc2[nH]5)C=C4)C=C3)cc1)C(F)(F)F
REMARK SMILES IDX 14 1 13 2 12 3 11 4 10 5 8 6 9 7 2 8 1 9 3 10 4 13 5 14 6 15
REMARK SMILES IDX 7 16 85 18 86 19 87 20 88 21 15 22 16 23 17 24 18 25 19 26
REMARK SMILES IDX 20 27 21 28 22 29 23 30 84 31 24 32 83 33 25 34 26 35 27 36
REMARK SMILES IDX 77 37 28 38 82 39 76 40 78 41 29 42 81 43 75 44 74 45 30 47
REMARK SMILES IDX 62 48 42 49 61 50 43 51 46 52 60 53 79 54 44 55 45 56 59 58
REMARK SMILES IDX 80 59 47 60 31 61 32 62 40 63 33 64 35 65 41 66 34 67 36 68
REMARK SMILES IDX 37 69 38 70 39 71 63 72 64 73 72 74 65 75 67 76 73 77 66 78
REMARK SMILES IDX 68 79 69 80 70 81 71 82 48 83 49 84 57 85 50 86 52 87 58 88
REMARK SMILES IDX 51 89 53 90 54 91 55 92 56 93
REMARK H PARENT 3 11 3 12 7 17 78 46 46 57
REMARK Flexibility Score: inf
ROOT
ATOM      1  C   UNL A   1      44.258  20.244  24.863  1.00  0.00     0.188 C 
ENDROOT
BRANCH   1   2
ATOM      2  O   UNL A   1      45.605  20.621  25.110  1.00  0.00    -0.376 OA
BRANCH   2   3
ATOM      3  C   UNL A   1      45.990  21.985  25.084  1.00  0.00     0.202 C 
BRANCH   3   4
ATOM      4  C   UNL A   1      45.780  22.874  26.320  1.00  0.00     0.261 C 
BRANCH   4   5
ATOM      5  O   UNL A   1      46.954  23.471  26.910  1.00  0.00    -0.458 OA
BRANCH   5   6
ATOM      6  C   UNL A   1      46.766  24.684  27.502  1.00  0.00     0.377 C 
ATOM      7  O   UNL A   1      46.276  24.802  28.621  1.00  0.00    -0.244 OA
BRANCH   6   8
ATOM      8  C   UNL A   1      47.170  25.894  26.634  1.00  0.00     0.287 C 
ATOM      9  C   UNL A   1      47.706  27.127  27.408  1.00  0.00     0.103 C 
BRANCH   8  10
ATOM     10  N   UNL A   1      48.367  25.554  25.764  1.00  0.00    -0.325 N 
ATOM     11  H   UNL A   1      48.075  24.813  25.126  1.00  0.00     0.347 HD
ATOM     12  H   UNL A   1      49.100  25.308  26.429  1.00  0.00     0.347 HD
BRANCH  10  13
ATOM     13  C   UNL A   1      48.958  26.616  24.952  1.00  0.00     0.264 C 
BRANCH  13  14
ATOM     14  C   UNL A   1      48.725  26.568  23.441  1.00  0.00     0.089 C 
BRANCH  14  15
ATOM     15  C   UNL A   1      47.923  27.737  22.883  1.00  0.00     0.162 C 
BRANCH  15  16
ATOM     16  O   UNL A   1      47.863  27.680  21.463  1.00  0.00    -0.396 OA
ATOM     17  H   UNL A   1      48.302  28.460  21.089  1.00  0.00     0.210 HD
ENDBRANCH  15  16
ENDBRANCH  14  15
ENDBRANCH  13  14
ENDBRANCH  10  13
ENDBRANCH   8  10
BRANCH   8  18
ATOM     18  C   UNL A   1      45.862  26.350  25.923  1.00  0.00     0.455 C 
ATOM     19  F   UNL A   1      45.838  27.688  25.702  1.00  0.00    -0.164 F 
ATOM     20  F   UNL A   1      45.786  25.763  24.697  1.00  0.00    -0.164 F 
ATOM     21  F   UNL A   1      44.724  26.043  26.566  1.00  0.00    -0.164 F 
ENDBRANCH   8  18
ENDBRANCH   6   8
ENDBRANCH   5   6
ENDBRANCH   4   5
ENDBRANCH   3   4
ENDBRANCH   2   3
ENDBRANCH   1   2
BRANCH   1  22
ATOM     22  C   UNL A   1      43.326  19.930  26.047  1.00  0.00     0.188 C 
BRANCH  22  23
ATOM     23  O   UNL A   1      41.953  19.997  25.760  1.00  0.00    -0.376 OA
BRANCH  23  24
ATOM     24  C   UNL A   1      41.309  21.253  25.775  1.00  0.00     0.202 C 
BRANCH  24  25
ATOM     25  C   UNL A   1      39.863  21.448  26.272  1.00  0.00     0.261 C 
BRANCH  25  26
ATOM     26  O   UNL A   1      39.581  22.569  27.118  1.00  0.00    -0.460 OA
BRANCH  26  27
ATOM     27  C   UNL A   1      39.188  23.722  26.518  1.00  0.00     0.338 C 
ATOM     28  O   UNL A   1      38.271  23.856  25.735  1.00  0.00    -0.246 OA
BRANCH  27  29
ATOM     29  C   UNL A   1      39.929  24.839  27.155  1.00  0.00     0.060 A 
ATOM     30  C   UNL A   1      40.600  24.612  28.367  1.00  0.00     0.016 A 
ATOM     31  C   UNL A   1      39.969  26.099  26.556  1.00  0.00     0.016 A 
ATOM     32  C   UNL A   1      41.283  25.653  29.000  1.00  0.00     0.010 A 
ATOM     33  C   UNL A   1      40.630  27.146  27.205  1.00  0.00     0.010 A 
ATOM     34  C   UNL A   1      41.260  26.938  28.447  1.00  0.00    -0.014 A 
BRANCH  34  35
ATOM     35  C   UNL A   1      41.682  28.114  29.252  1.00  0.00     0.031 A 
ATOM     36  C   UNL A   1      40.609  29.054  29.734  1.00  0.00     0.074 A 
ATOM     37  C   UNL A   1      42.973  28.374  29.522  1.00  0.00     0.049 A 
ATOM     38  N   UNL A   1      40.721  30.213  30.326  1.00  0.00    -0.248 NA
ATOM     39  C   UNL A   1      39.219  28.626  29.506  1.00  0.00     0.031 C 
ATOM     40  C   UNL A   1      44.105  27.532  29.149  1.00  0.00     0.029 A 
ATOM     41  N   UNL A   1      43.547  29.457  30.146  1.00  0.00    -0.354 N 
ATOM     42  C   UNL A   1      39.422  30.675  30.498  1.00  0.00     0.074 A 
ATOM     43  C   UNL A   1      38.537  29.670  29.950  1.00  0.00     0.031 C 
ATOM     44  C   UNL A   1      45.244  28.149  29.512  1.00  0.00     0.029 A 
ATOM     45  C   UNL A   1      44.922  29.446  30.107  1.00  0.00     0.049 A 
ATOM     46  H   UNL A   1      43.025  30.170  30.578  1.00  0.00     0.167 HD
ATOM     47  C   UNL A   1      39.000  31.830  31.063  1.00  0.00     0.034 A 
ATOM     48  C   UNL A   1      45.813  30.391  30.470  1.00  0.00     0.034 A 
ATOM     49  C   UNL A   1      39.876  32.826  31.613  1.00  0.00     0.049 A 
ATOM     50  C   UNL A   1      45.321  31.694  31.054  1.00  0.00     0.074 A 
ATOM     51  C   UNL A   1      39.542  34.015  32.238  1.00  0.00     0.029 A 
ATOM     52  N   UNL A   1      41.260  32.762  31.589  1.00  0.00    -0.354 N 
ATOM     53  N   UNL A   1      44.091  32.084  31.290  1.00  0.00    -0.248 NA
ATOM     54  C   UNL A   1      46.342  32.678  31.446  1.00  0.00     0.031 C 
ATOM     55  C   UNL A   1      40.726  34.689  32.553  1.00  0.00     0.029 A 
ATOM     56  C   UNL A   1      41.797  33.895  32.174  1.00  0.00     0.049 A 
ATOM     57  H   UNL A   1      41.785  32.019  31.211  1.00  0.00     0.167 HD
ATOM     58  C   UNL A   1      44.193  33.332  31.898  1.00  0.00     0.074 A 
ATOM     59  C   UNL A   1      45.606  33.631  32.001  1.00  0.00     0.031 C 
ATOM     60  C   UNL A   1      43.206  34.159  32.325  1.00  0.00     0.034 A 
BRANCH  47  61
ATOM     61  C   UNL A   1      37.515  32.081  31.101  1.00  0.00     0.023 A 
ATOM     62  C   UNL A   1      36.789  31.842  32.285  1.00  0.00     0.012 A 
ATOM     63  C   UNL A   1      36.844  32.583  29.968  1.00  0.00     0.148 A 
ATOM     64  C   UNL A   1      35.412  32.058  32.329  1.00  0.00     0.002 A 
ATOM     65  C   UNL A   1      35.483  32.846  30.035  1.00  0.00     0.091 A 
ATOM     66  F   UNL A   1      37.548  32.782  28.845  1.00  0.00    -0.205 F 
ATOM     67  C   UNL A   1      34.762  32.569  31.209  1.00  0.00     0.022 A 
BRANCH  65  68
ATOM     68  S   UNL A   1      34.571  33.581  28.674  1.00  0.00     0.127 S 
ATOM     69  O   UNL A   1      33.210  33.603  29.208  1.00  0.00    -0.237 OA
ATOM     70  O   UNL A   1      35.201  34.897  28.559  1.00  0.00    -0.237 OA
ATOM     71  O   UNL A   1      34.778  32.705  27.530  1.00  0.00    -0.744 OA
ENDBRANCH  65  68
ENDBRANCH  47  61
BRANCH  48  72
ATOM     72  C   UNL A   1      47.275  30.145  30.302  1.00  0.00     0.023 A 
ATOM     73  C   UNL A   1      48.012  29.584  31.362  1.00  0.00     0.012 A 
ATOM     74  C   UNL A   1      47.936  30.467  29.100  1.00  0.00     0.148 A 
ATOM     75  C   UNL A   1      49.388  29.375  31.240  1.00  0.00     0.002 A 
ATOM     76  C   UNL A   1      49.294  30.205  28.965  1.00  0.00     0.091 A 
ATOM     77  F   UNL A   1      47.219  31.017  28.110  1.00  0.00    -0.205 F 
ATOM     78  C   UNL A   1      50.025  29.676  30.040  1.00  0.00     0.022 A 
BRANCH  76  79
ATOM     79  S   UNL A   1      50.181  30.453  27.423  1.00  0.00     0.127 S 
ATOM     80  O   UNL A   1      49.277  29.836  26.455  1.00  0.00    -0.237 OA
ATOM     81  O   UNL A   1      50.255  31.913  27.353  1.00  0.00    -0.237 OA
ATOM     82  O   UNL A   1      51.466  29.789  27.593  1.00  0.00    -0.744 OA
ENDBRANCH  76  79
ENDBRANCH  48  72
BRANCH  60  83
ATOM     83  C   UNL A   1      43.600  35.444  33.009  1.00  0.00     0.023 A 
ATOM     84  C   UNL A   1      43.923  35.452  34.380  1.00  0.00     0.012 A 
ATOM     85  C   UNL A   1      43.738  36.634  32.262  1.00  0.00     0.148 A 
ATOM     86  C   UNL A   1      44.345  36.627  35.002  1.00  0.00     0.002 A 
ATOM     87  C   UNL A   1      44.210  37.786  32.876  1.00  0.00     0.091 A 
ATOM     88  F   UNL A   1      43.412  36.611  30.961  1.00  0.00    -0.205 F 
ATOM     89  C   UNL A   1      44.500  37.789  34.249  1.00  0.00     0.022 A 
BRANCH  87  90
ATOM     90  S   UNL A   1      44.540  39.299  31.966  1.00  0.00     0.127 S 
ATOM     91  O   UNL A   1      44.526  38.824  30.584  1.00  0.00    -0.237 OA
ATOM     92  O   UNL A   1      43.398  40.138  32.334  1.00  0.00    -0.237 OA
ATOM     93  O   UNL A   1      45.827  39.786  32.443  1.00  0.00    -0.744 OA
ENDBRANCH  87  90
ENDBRANCH  60  83
ENDBRANCH  34  35
ENDBRANCH  27  29
ENDBRANCH  26  27
ENDBRANCH  25  26
ENDBRANCH  24  25
ENDBRANCH  23  24
ENDBRANCH  22  23
ENDBRANCH   1  22
TORSDOF 26
ENDMDL
