MODEL 1
REMARK VINA RESULT:     -11.3      0.000      0.000
REMARK SMILES Cc1ccccc1NC(=S)NN1C(=O)CS[C@H]1c1ccccc1C(=O)OCCOCCOCCOC(=O)c1ccc(-c2c3nc(c(-c4cccc(S(=O)(=O)[O-])c4F)c4ccc([nH]4)c(-c4cccc(S(=O)(=O)[O-])c4F)c4nc(c(-c5cccc(S(=O)(=O)[O-])c5F)c5ccc2[nH]5)C=C4)C=C3)cc1
REMARK SMILES IDX 30 1 29 2 28 3 27 4 26 5 24 6 25 7 23 8 18 9 19 10 20 11
REMARK SMILES IDX 22 12 21 13 17 14 12 15 13 16 14 17 15 18 16 19 11 20 9 22
REMARK SMILES IDX 10 23 8 24 7 26 1 27 2 28 3 29 4 30 6 31 5 32 31 33 32 34
REMARK SMILES IDX 33 35 34 36 35 37 36 38 37 39 38 40 39 41 100 42 40 43 99 44
REMARK SMILES IDX 41 45 42 46 43 47 93 48 44 49 98 50 92 51 94 52 45 53 97 54
REMARK SMILES IDX 91 55 90 56 46 58 78 59 58 60 77 61 59 62 62 63 76 64 95 65
REMARK SMILES IDX 60 66 61 67 75 69 96 70 63 71 47 72 48 73 56 74 49 75 51 76
REMARK SMILES IDX 57 77 50 78 52 79 53 80 54 81 55 82 79 83 80 84 88 85 81 86
REMARK SMILES IDX 83 87 89 88 82 89 84 90 85 91 86 92 87 93 64 94 65 95 73 96
REMARK SMILES IDX 66 97 68 98 74 99 67 100 69 101 70 102 71 103 72 104
REMARK H PARENT 11 21 8 25 94 57 62 68
REMARK Flexibility Score: inf
ROOT
ATOM      1  C   UNL A   1      42.036  22.169  27.526  1.00  0.00     0.188 C 
ENDROOT
BRANCH   1   2
ATOM      2  O   UNL A   1      41.401  20.930  27.662  1.00  0.00    -0.376 OA
BRANCH   2   3
ATOM      3  C   UNL A   1      40.462  20.804  26.624  1.00  0.00     0.202 C 
BRANCH   3   4
ATOM      4  C   UNL A   1      39.447  21.950  26.421  1.00  0.00     0.261 C 
BRANCH   4   5
ATOM      5  O   UNL A   1      38.059  22.205  25.467  1.00  0.00    -0.460 OA
BRANCH   5   6
ATOM      6  C   UNL A   1      36.718  22.402  24.571  1.00  0.00     0.338 C 
ATOM      7  O   UNL A   1      36.922  22.810  23.458  1.00  0.00    -0.246 OA
BRANCH   6   8
ATOM      8  C   UNL A   1      34.938  22.330  25.315  1.00  0.00     0.066 A 
ATOM      9  C   UNL A   1      33.717  23.489  25.208  1.00  0.00     0.001 A 
ATOM     10  C   UNL A   1      32.996  23.782  26.394  1.00  0.00     0.008 A 
ATOM     11  C   UNL A   1      33.250  23.033  27.551  1.00  0.00     0.000 A 
ATOM     12  C   UNL A   1      34.848  21.492  26.421  1.00  0.00     0.016 A 
ATOM     13  C   UNL A   1      34.104  21.909  27.545  1.00  0.00     0.001 A 
BRANCH   9  14
ATOM     14  C   UNL A   1      33.204  24.577  23.756  1.00  0.00     0.197 C 
ATOM     15  N   UNL A   1      33.499  26.230  23.288  1.00  0.00    -0.236 N 
ATOM     16  C   UNL A   1      33.382  26.518  21.942  1.00  0.00     0.252 C 
ATOM     17  O   UNL A   1      33.686  27.594  21.436  1.00  0.00    -0.272 OA
ATOM     18  C   UNL A   1      32.656  25.413  21.227  1.00  0.00     0.174 C 
ATOM     19  S   UNL A   1      33.010  23.804  22.038  1.00  0.00    -0.120 SA
BRANCH  15  20
ATOM     20  N   UNL A   1      33.930  27.529  24.160  1.00  0.00    -0.270 N 
ATOM     21  H   UNL A   1      34.753  27.934  23.803  1.00  0.00     0.191 HD
BRANCH  20  22
ATOM     22  C   UNL A   1      33.470  28.234  25.266  1.00  0.00     0.189 C 
ATOM     23  S   UNL A   1      33.930  28.304  26.929  1.00  0.00    -0.039 S 
BRANCH  22  24
ATOM     24  N   UNL A   1      32.188  28.417  25.542  1.00  0.00    -0.331 N 
ATOM     25  H   UNL A   1      32.019  29.200  26.113  1.00  0.00     0.169 HD
BRANCH  24  26
ATOM     26  C   UNL A   1      31.071  27.753  25.204  1.00  0.00     0.043 A 
ATOM     27  C   UNL A   1      30.444  29.689  23.814  1.00  0.00     0.046 C 
ATOM     28  C   UNL A   1      30.464  28.214  24.071  1.00  0.00    -0.028 A 
ATOM     29  C   UNL A   1      30.055  27.198  23.237  1.00  0.00     0.005 A 
ATOM     30  C   UNL A   1      29.900  25.894  23.751  1.00  0.00     0.000 A 
ATOM     31  C   UNL A   1      30.757  26.583  25.807  1.00  0.00     0.026 A 
ATOM     32  C   UNL A   1      30.084  25.633  25.103  1.00  0.00     0.002 A 
ENDBRANCH  24  26
ENDBRANCH  22  24
ENDBRANCH  20  22
ENDBRANCH  15  20
ENDBRANCH   9  14
ENDBRANCH   6   8
ENDBRANCH   5   6
ENDBRANCH   4   5
ENDBRANCH   3   4
ENDBRANCH   2   3
ENDBRANCH   1   2
BRANCH   1  33
ATOM     33  C   UNL A   1      43.184  22.122  26.575  1.00  0.00     0.188 C 
BRANCH  33  34
ATOM     34  O   UNL A   1      43.149  22.913  25.383  1.00  0.00    -0.376 OA
BRANCH  34  35
ATOM     35  C   UNL A   1      44.107  23.817  24.912  1.00  0.00     0.202 C 
BRANCH  35  36
ATOM     36  C   UNL A   1      43.547  25.156  25.155  1.00  0.00     0.261 C 
BRANCH  36  37
ATOM     37  O   UNL A   1      44.582  26.117  25.686  1.00  0.00    -0.460 OA
BRANCH  37  38
ATOM     38  C   UNL A   1      45.094  26.523  26.920  1.00  0.00     0.338 C 
ATOM     39  O   UNL A   1      45.347  27.730  27.008  1.00  0.00    -0.246 OA
BRANCH  38  40
ATOM     40  C   UNL A   1      45.550  25.617  28.113  1.00  0.00     0.060 A 
ATOM     41  C   UNL A   1      44.602  24.900  28.778  1.00  0.00     0.016 A 
ATOM     42  C   UNL A   1      46.704  25.727  28.879  1.00  0.00     0.016 A 
ATOM     43  C   UNL A   1      44.676  24.875  30.214  1.00  0.00     0.010 A 
ATOM     44  C   UNL A   1      46.692  25.822  30.388  1.00  0.00     0.010 A 
ATOM     45  C   UNL A   1      45.643  25.556  31.296  1.00  0.00    -0.014 A 
BRANCH  45  46
ATOM     46  C   UNL A   1      45.332  25.933  33.247  1.00  0.00     0.031 A 
ATOM     47  C   UNL A   1      45.109  27.682  33.749  1.00  0.00     0.074 A 
ATOM     48  C   UNL A   1      45.363  24.824  34.484  1.00  0.00     0.049 A 
ATOM     49  N   UNL A   1      44.500  27.981  34.826  1.00  0.00    -0.248 NA
ATOM     50  C   UNL A   1      45.164  29.130  33.132  1.00  0.00     0.031 C 
ATOM     51  C   UNL A   1      44.745  24.435  35.834  1.00  0.00     0.029 A 
ATOM     52  N   UNL A   1      46.051  23.425  34.545  1.00  0.00    -0.354 N 
ATOM     53  C   UNL A   1      43.507  28.933  34.492  1.00  0.00     0.074 A 
ATOM     54  C   UNL A   1      44.052  29.764  33.513  1.00  0.00     0.031 C 
ATOM     55  C   UNL A   1      45.248  23.360  36.519  1.00  0.00     0.029 A 
ATOM     56  C   UNL A   1      46.356  22.887  35.788  1.00  0.00     0.049 A 
ATOM     57  H   UNL A   1      46.265  22.934  33.719  1.00  0.00     0.167 HD
ATOM     58  C   UNL A   1      42.276  28.736  35.011  1.00  0.00     0.034 A 
ATOM     59  C   UNL A   1      47.619  22.825  36.279  1.00  0.00     0.034 A 
ATOM     60  C   UNL A   1      42.441  27.720  36.067  1.00  0.00     0.049 A 
ATOM     61  C   UNL A   1      47.669  24.172  37.091  1.00  0.00     0.074 A 
ATOM     62  C   UNL A   1      41.870  26.560  36.498  1.00  0.00     0.029 A 
ATOM     63  N   UNL A   1      43.618  27.786  36.805  1.00  0.00    -0.354 N 
ATOM     64  N   UNL A   1      47.007  25.279  36.762  1.00  0.00    -0.248 NA
ATOM     65  C   UNL A   1      47.977  24.151  38.523  1.00  0.00     0.031 C 
ATOM     66  C   UNL A   1      42.813  25.935  37.423  1.00  0.00     0.029 A 
ATOM     67  C   UNL A   1      44.024  26.644  37.440  1.00  0.00     0.049 A 
ATOM     68  H   UNL A   1      44.140  28.618  36.865  1.00  0.00     0.167 HD
ATOM     69  C   UNL A   1      46.491  25.890  37.905  1.00  0.00     0.074 A 
ATOM     70  C   UNL A   1      47.240  25.187  38.967  1.00  0.00     0.031 C 
ATOM     71  C   UNL A   1      45.357  26.694  38.123  1.00  0.00     0.034 A 
BRANCH  58  72
ATOM     72  C   UNL A   1      40.941  29.339  34.562  1.00  0.00     0.023 A 
ATOM     73  C   UNL A   1      40.326  30.103  35.568  1.00  0.00     0.012 A 
ATOM     74  C   UNL A   1      40.185  29.206  33.349  1.00  0.00     0.148 A 
ATOM     75  C   UNL A   1      39.081  30.710  35.420  1.00  0.00     0.002 A 
ATOM     76  C   UNL A   1      38.897  29.779  33.215  1.00  0.00     0.091 A 
ATOM     77  F   UNL A   1      40.698  28.527  32.315  1.00  0.00    -0.205 F 
ATOM     78  C   UNL A   1      38.363  30.550  34.250  1.00  0.00     0.022 A 
BRANCH  76  79
ATOM     79  S   UNL A   1      37.804  29.589  31.772  1.00  0.00     0.127 S 
ATOM     80  O   UNL A   1      36.467  29.778  32.343  1.00  0.00    -0.237 OA
ATOM     81  O   UNL A   1      38.239  30.683  30.904  1.00  0.00    -0.237 OA
ATOM     82  O   UNL A   1      38.035  28.250  31.247  1.00  0.00    -0.744 OA
ENDBRANCH  76  79
ENDBRANCH  58  72
BRANCH  59  83
ATOM     83  C   UNL A   1      48.566  22.147  35.296  1.00  0.00     0.023 A 
ATOM     84  C   UNL A   1      49.130  22.895  34.204  1.00  0.00     0.012 A 
ATOM     85  C   UNL A   1      49.204  20.957  35.649  1.00  0.00     0.148 A 
ATOM     86  C   UNL A   1      50.411  22.603  33.702  1.00  0.00     0.002 A 
ATOM     87  C   UNL A   1      50.526  20.714  35.207  1.00  0.00     0.091 A 
ATOM     88  F   UNL A   1      48.639  20.245  36.632  1.00  0.00    -0.205 F 
ATOM     89  C   UNL A   1      51.155  21.588  34.297  1.00  0.00     0.022 A 
BRANCH  87  90
ATOM     90  S   UNL A   1      51.641  19.713  36.271  1.00  0.00     0.127 S 
ATOM     91  O   UNL A   1      51.190  18.350  36.025  1.00  0.00    -0.237 OA
ATOM     92  O   UNL A   1      52.978  19.991  35.738  1.00  0.00    -0.237 OA
ATOM     93  O   UNL A   1      51.398  20.165  37.632  1.00  0.00    -0.744 OA
ENDBRANCH  87  90
ENDBRANCH  59  83
BRANCH  71  94
ATOM     94  C   UNL A   1      45.521  27.913  39.063  1.00  0.00     0.023 A 
ATOM     95  C   UNL A   1      45.720  29.190  38.533  1.00  0.00     0.012 A 
ATOM     96  C   UNL A   1      45.395  27.863  40.492  1.00  0.00     0.148 A 
ATOM     97  C   UNL A   1      45.986  30.288  39.342  1.00  0.00     0.002 A 
ATOM     98  C   UNL A   1      45.481  28.987  41.284  1.00  0.00     0.091 A 
ATOM     99  F   UNL A   1      45.223  26.729  41.169  1.00  0.00    -0.205 F 
ATOM    100  C   UNL A   1      45.856  30.192  40.717  1.00  0.00     0.022 A 
BRANCH  98 101
ATOM    101  S   UNL A   1      45.108  28.947  43.044  1.00  0.00     0.127 S 
ATOM    102  O   UNL A   1      46.151  28.047  43.533  1.00  0.00    -0.237 OA
ATOM    103  O   UNL A   1      45.285  30.353  43.409  1.00  0.00    -0.237 OA
ATOM    104  O   UNL A   1      43.745  28.458  43.189  1.00  0.00    -0.744 OA
ENDBRANCH  98 101
ENDBRANCH  71  94
ENDBRANCH  45  46
ENDBRANCH  38  40
ENDBRANCH  37  38
ENDBRANCH  36  37
ENDBRANCH  35  36
ENDBRANCH  34  35
ENDBRANCH  33  34
ENDBRANCH   1  33
TORSDOF 25
ENDMDL
MODEL 2
REMARK VINA RESULT:     -10.9      5.766      7.730
REMARK SMILES Cc1ccccc1NC(=S)NN1C(=O)CS[C@H]1c1ccccc1C(=O)OCCOCCOCCOC(=O)c1ccc(-c2c3nc(c(-c4cccc(S(=O)(=O)[O-])c4F)c4ccc([nH]4)c(-c4cccc(S(=O)(=O)[O-])c4F)c4nc(c(-c5cccc(S(=O)(=O)[O-])c5F)c5ccc2[nH]5)C=C4)C=C3)cc1
REMARK SMILES IDX 30 1 29 2 28 3 27 4 26 5 24 6 25 7 23 8 18 9 19 10 20 11
REMARK SMILES IDX 22 12 21 13 17 14 12 15 13 16 14 17 15 18 16 19 11 20 9 22
REMARK SMILES IDX 10 23 8 24 7 26 1 27 2 28 3 29 4 30 6 31 5 32 31 33 32 34
REMARK SMILES IDX 33 35 34 36 35 37 36 38 37 39 38 40 39 41 100 42 40 43 99 44
REMARK SMILES IDX 41 45 42 46 43 47 93 48 44 49 98 50 92 51 94 52 45 53 97 54
REMARK SMILES IDX 91 55 90 56 46 58 78 59 58 60 77 61 59 62 62 63 76 64 95 65
REMARK SMILES IDX 60 66 61 67 75 69 96 70 63 71 47 72 48 73 56 74 49 75 51 76
REMARK SMILES IDX 57 77 50 78 52 79 53 80 54 81 55 82 79 83 80 84 88 85 81 86
REMARK SMILES IDX 83 87 89 88 82 89 84 90 85 91 86 92 87 93 64 94 65 95 73 96
REMARK SMILES IDX 66 97 68 98 74 99 67 100 69 101 70 102 71 103 72 104
REMARK H PARENT 11 21 8 25 94 57 62 68
REMARK Flexibility Score: inf
ROOT
ATOM      1  C   UNL A   1      42.654  20.507  26.158  1.00  0.00     0.188 C 
ENDROOT
BRANCH   1   2
ATOM      2  O   UNL A   1      41.569  21.223  25.638  1.00  0.00    -0.376 OA
BRANCH   2   3
ATOM      3  C   UNL A   1      40.452  20.974  26.452  1.00  0.00     0.202 C 
BRANCH   3   4
ATOM      4  C   UNL A   1      39.079  20.803  25.766  1.00  0.00     0.261 C 
BRANCH   4   5
ATOM      5  O   UNL A   1      37.766  21.817  25.379  1.00  0.00    -0.460 OA
BRANCH   5   6
ATOM      6  C   UNL A   1      36.490  22.767  25.051  1.00  0.00     0.338 C 
ATOM      7  O   UNL A   1      36.779  23.860  24.639  1.00  0.00    -0.246 OA
BRANCH   6   8
ATOM      8  C   UNL A   1      34.689  22.332  25.594  1.00  0.00     0.066 A 
ATOM      9  C   UNL A   1      33.255  23.108  25.163  1.00  0.00     0.001 A 
ATOM     10  C   UNL A   1      32.316  23.355  26.197  1.00  0.00     0.008 A 
ATOM     11  C   UNL A   1      32.568  22.858  27.482  1.00  0.00     0.000 A 
ATOM     12  C   UNL A   1      34.640  21.653  26.806  1.00  0.00     0.016 A 
ATOM     13  C   UNL A   1      33.659  22.005  27.757  1.00  0.00     0.001 A 
BRANCH   9  14
ATOM     14  C   UNL A   1      32.716  23.823  23.503  1.00  0.00     0.197 C 
ATOM     15  N   UNL A   1      31.580  25.044  22.997  1.00  0.00    -0.236 N 
ATOM     16  C   UNL A   1      31.819  25.635  21.772  1.00  0.00     0.252 C 
ATOM     17  O   UNL A   1      31.195  26.597  21.334  1.00  0.00    -0.272 OA
ATOM     18  C   UNL A   1      32.802  24.822  20.976  1.00  0.00     0.174 C 
ATOM     19  S   UNL A   1      33.984  23.988  22.106  1.00  0.00    -0.120 SA
BRANCH  15  20
ATOM     20  N   UNL A   1      30.270  25.659  23.732  1.00  0.00    -0.270 N 
ATOM     21  H   UNL A   1      29.652  24.943  24.004  1.00  0.00     0.191 HD
BRANCH  20  22
ATOM     22  C   UNL A   1      29.771  26.907  24.087  1.00  0.00     0.189 C 
ATOM     23  S   UNL A   1      28.698  28.034  23.341  1.00  0.00    -0.039 S 
BRANCH  22  24
ATOM     24  N   UNL A   1      30.504  27.863  24.637  1.00  0.00    -0.331 N 
ATOM     25  H   UNL A   1      29.974  28.635  24.940  1.00  0.00     0.169 HD
BRANCH  24  26
ATOM     26  C   UNL A   1      31.821  27.998  24.866  1.00  0.00     0.043 A 
ATOM     27  C   UNL A   1      31.361  27.585  27.251  1.00  0.00     0.046 C 
ATOM     28  C   UNL A   1      32.243  27.461  26.048  1.00  0.00    -0.028 A 
ATOM     29  C   UNL A   1      33.412  26.745  25.919  1.00  0.00     0.005 A 
ATOM     30  C   UNL A   1      34.242  26.962  24.799  1.00  0.00     0.000 A 
ATOM     31  C   UNL A   1      32.653  28.399  23.877  1.00  0.00     0.026 A 
ATOM     32  C   UNL A   1      33.933  27.940  23.861  1.00  0.00     0.002 A 
ENDBRANCH  24  26
ENDBRANCH  22  24
ENDBRANCH  20  22
ENDBRANCH  15  20
ENDBRANCH   9  14
ENDBRANCH   6   8
ENDBRANCH   5   6
ENDBRANCH   4   5
ENDBRANCH   3   4
ENDBRANCH   2   3
ENDBRANCH   1   2
BRANCH   1  33
ATOM     33  C   UNL A   1      43.787  20.404  25.194  1.00  0.00     0.188 C 
BRANCH  33  34
ATOM     34  O   UNL A   1      45.040  21.022  25.505  1.00  0.00    -0.376 OA
BRANCH  34  35
ATOM     35  C   UNL A   1      45.920  21.684  24.642  1.00  0.00     0.202 C 
BRANCH  35  36
ATOM     36  C   UNL A   1      45.201  22.879  24.177  1.00  0.00     0.261 C 
BRANCH  36  37
ATOM     37  O   UNL A   1      46.002  24.141  24.382  1.00  0.00    -0.460 OA
BRANCH  37  38
ATOM     38  C   UNL A   1      46.651  24.808  25.423  1.00  0.00     0.338 C 
ATOM     39  O   UNL A   1      47.150  24.073  26.283  1.00  0.00    -0.246 OA
BRANCH  38  40
ATOM     40  C   UNL A   1      46.657  26.346  25.719  1.00  0.00     0.060 A 
ATOM     41  C   UNL A   1      47.199  26.775  26.893  1.00  0.00     0.016 A 
ATOM     42  C   UNL A   1      45.834  27.326  25.177  1.00  0.00     0.016 A 
ATOM     43  C   UNL A   1      46.484  27.787  27.623  1.00  0.00     0.010 A 
ATOM     44  C   UNL A   1      45.013  28.278  26.015  1.00  0.00     0.010 A 
ATOM     45  C   UNL A   1      45.099  28.561  27.397  1.00  0.00    -0.014 A 
BRANCH  45  46
ATOM     46  C   UNL A   1      43.920  29.509  28.723  1.00  0.00     0.031 A 
ATOM     47  C   UNL A   1      44.735  30.361  30.126  1.00  0.00     0.074 A 
ATOM     48  C   UNL A   1      42.258  29.512  28.741  1.00  0.00     0.049 A 
ATOM     49  N   UNL A   1      44.152  31.310  30.742  1.00  0.00    -0.248 NA
ATOM     50  C   UNL A   1      46.167  30.553  30.753  1.00  0.00     0.031 C 
ATOM     51  C   UNL A   1      41.010  30.349  29.054  1.00  0.00     0.029 A 
ATOM     52  N   UNL A   1      41.257  28.496  28.108  1.00  0.00    -0.354 N 
ATOM     53  C   UNL A   1      45.058  32.398  30.781  1.00  0.00     0.074 A 
ATOM     54  C   UNL A   1      46.331  31.861  30.966  1.00  0.00     0.031 C 
ATOM     55  C   UNL A   1      39.771  29.773  28.948  1.00  0.00     0.029 A 
ATOM     56  C   UNL A   1      39.972  28.415  28.628  1.00  0.00     0.049 A 
ATOM     57  H   UNL A   1      41.531  27.924  27.355  1.00  0.00     0.167 HD
ATOM     58  C   UNL A   1      44.562  33.613  30.467  1.00  0.00     0.034 A 
ATOM     59  C   UNL A   1      39.549  27.383  29.399  1.00  0.00     0.034 A 
ATOM     60  C   UNL A   1      43.094  33.470  30.491  1.00  0.00     0.049 A 
ATOM     61  C   UNL A   1      39.859  27.957  30.831  1.00  0.00     0.074 A 
ATOM     62  C   UNL A   1      42.002  33.779  29.738  1.00  0.00     0.029 A 
ATOM     63  N   UNL A   1      42.576  32.622  31.465  1.00  0.00    -0.354 N 
ATOM     64  N   UNL A   1      40.860  28.788  31.111  1.00  0.00    -0.248 NA
ATOM     65  C   UNL A   1      38.785  28.077  31.818  1.00  0.00     0.031 C 
ATOM     66  C   UNL A   1      40.883  33.000  30.263  1.00  0.00     0.029 A 
ATOM     67  C   UNL A   1      41.329  32.102  31.244  1.00  0.00     0.049 A 
ATOM     68  H   UNL A   1      43.085  32.404  32.279  1.00  0.00     0.167 HD
ATOM     69  C   UNL A   1      40.438  29.762  32.017  1.00  0.00     0.074 A 
ATOM     70  C   UNL A   1      39.169  29.176  32.494  1.00  0.00     0.031 C 
ATOM     71  C   UNL A   1      40.839  31.093  32.237  1.00  0.00     0.034 A 
BRANCH  58  72
ATOM     72  C   UNL A   1      45.322  34.880  30.060  1.00  0.00     0.023 A 
ATOM     73  C   UNL A   1      45.833  35.582  31.164  1.00  0.00     0.012 A 
ATOM     74  C   UNL A   1      45.537  35.506  28.786  1.00  0.00     0.148 A 
ATOM     75  C   UNL A   1      46.517  36.792  31.057  1.00  0.00     0.002 A 
ATOM     76  C   UNL A   1      46.185  36.761  28.680  1.00  0.00     0.091 A 
ATOM     77  F   UNL A   1      45.119  34.901  27.668  1.00  0.00    -0.205 F 
ATOM     78  C   UNL A   1      46.692  37.385  29.821  1.00  0.00     0.022 A 
BRANCH  76  79
ATOM     79  S   UNL A   1      46.420  37.698  27.138  1.00  0.00     0.127 S 
ATOM     80  O   UNL A   1      47.014  36.708  26.236  1.00  0.00    -0.237 OA
ATOM     81  O   UNL A   1      45.050  38.075  26.788  1.00  0.00    -0.237 OA
ATOM     82  O   UNL A   1      47.307  38.810  27.457  1.00  0.00    -0.744 OA
ENDBRANCH  76  79
ENDBRANCH  58  72
BRANCH  59  83
ATOM     83  C   UNL A   1      39.801  26.041  28.720  1.00  0.00     0.023 A 
ATOM     84  C   UNL A   1      38.852  25.524  27.770  1.00  0.00     0.012 A 
ATOM     85  C   UNL A   1      41.089  25.505  28.690  1.00  0.00     0.148 A 
ATOM     86  C   UNL A   1      39.265  24.730  26.683  1.00  0.00     0.002 A 
ATOM     87  C   UNL A   1      41.520  24.782  27.553  1.00  0.00     0.091 A 
ATOM     88  F   UNL A   1      41.946  25.959  29.612  1.00  0.00    -0.205 F 
ATOM     89  C   UNL A   1      40.621  24.470  26.513  1.00  0.00     0.022 A 
BRANCH  87  90
ATOM     90  S   UNL A   1      43.299  24.834  27.098  1.00  0.00     0.127 S 
ATOM     91  O   UNL A   1      43.704  23.438  27.201  1.00  0.00    -0.237 OA
ATOM     92  O   UNL A   1      43.295  25.340  25.721  1.00  0.00    -0.237 OA
ATOM     93  O   UNL A   1      43.934  25.694  28.084  1.00  0.00    -0.744 OA
ENDBRANCH  87  90
ENDBRANCH  59  83
BRANCH  71  94
ATOM     94  C   UNL A   1      40.967  31.562  33.706  1.00  0.00     0.023 A 
ATOM     95  C   UNL A   1      40.032  32.445  34.249  1.00  0.00     0.012 A 
ATOM     96  C   UNL A   1      41.955  31.081  34.632  1.00  0.00     0.148 A 
ATOM     97  C   UNL A   1      40.176  32.978  35.525  1.00  0.00     0.002 A 
ATOM     98  C   UNL A   1      41.988  31.476  35.952  1.00  0.00     0.091 A 
ATOM     99  F   UNL A   1      42.935  30.251  34.284  1.00  0.00    -0.205 F 
ATOM    100  C   UNL A   1      41.146  32.486  36.381  1.00  0.00     0.022 A 
BRANCH  98 101
ATOM    101  S   UNL A   1      43.089  30.710  37.151  1.00  0.00     0.127 S 
ATOM    102  O   UNL A   1      42.785  29.295  36.949  1.00  0.00    -0.237 OA
ATOM    103  O   UNL A   1      44.398  31.137  36.656  1.00  0.00    -0.237 OA
ATOM    104  O   UNL A   1      42.742  31.241  38.461  1.00  0.00    -0.744 OA
ENDBRANCH  98 101
ENDBRANCH  71  94
ENDBRANCH  45  46
ENDBRANCH  38  40
ENDBRANCH  37  38
ENDBRANCH  36  37
ENDBRANCH  35  36
ENDBRANCH  34  35
ENDBRANCH  33  34
ENDBRANCH   1  33
TORSDOF 25
ENDMDL
MODEL 3
REMARK VINA RESULT:     -10.5      6.169      8.187
REMARK SMILES Cc1ccccc1NC(=S)NN1C(=O)CS[C@H]1c1ccccc1C(=O)OCCOCCOCCOC(=O)c1ccc(-c2c3nc(c(-c4cccc(S(=O)(=O)[O-])c4F)c4ccc([nH]4)c(-c4cccc(S(=O)(=O)[O-])c4F)c4nc(c(-c5cccc(S(=O)(=O)[O-])c5F)c5ccc2[nH]5)C=C4)C=C3)cc1
REMARK SMILES IDX 30 1 29 2 28 3 27 4 26 5 24 6 25 7 23 8 18 9 19 10 20 11
REMARK SMILES IDX 22 12 21 13 17 14 12 15 13 16 14 17 15 18 16 19 11 20 9 22
REMARK SMILES IDX 10 23 8 24 7 26 1 27 2 28 3 29 4 30 6 31 5 32 31 33 32 34
REMARK SMILES IDX 33 35 34 36 35 37 36 38 37 39 38 40 39 41 100 42 40 43 99 44
REMARK SMILES IDX 41 45 42 46 43 47 93 48 44 49 98 50 92 51 94 52 45 53 97 54
REMARK SMILES IDX 91 55 90 56 46 58 78 59 58 60 77 61 59 62 62 63 76 64 95 65
REMARK SMILES IDX 60 66 61 67 75 69 96 70 63 71 47 72 48 73 56 74 49 75 51 76
REMARK SMILES IDX 57 77 50 78 52 79 53 80 54 81 55 82 79 83 80 84 88 85 81 86
REMARK SMILES IDX 83 87 89 88 82 89 84 90 85 91 86 92 87 93 64 94 65 95 73 96
REMARK SMILES IDX 66 97 68 98 74 99 67 100 69 101 70 102 71 103 72 104
REMARK H PARENT 11 21 8 25 94 57 62 68
REMARK Flexibility Score: inf
ROOT
ATOM      1  C   UNL A   1      42.998  20.188  26.029  1.00  0.00     0.188 C 
ENDROOT
BRANCH   1   2
ATOM      2  O   UNL A   1      41.771  20.608  25.504  1.00  0.00    -0.376 OA
BRANCH   2   3
ATOM      3  C   UNL A   1      40.747  20.023  26.267  1.00  0.00     0.202 C 
BRANCH   3   4
ATOM      4  C   UNL A   1      39.423  19.669  25.553  1.00  0.00     0.261 C 
BRANCH   4   5
ATOM      5  O   UNL A   1      37.946  20.461  25.247  1.00  0.00    -0.460 OA
BRANCH   5   6
ATOM      6  C   UNL A   1      36.520  21.173  24.934  1.00  0.00     0.338 C 
ATOM      7  O   UNL A   1      36.465  22.332  25.253  1.00  0.00    -0.246 OA
BRANCH   6   8
ATOM      8  C   UNL A   1      34.941  20.184  24.426  1.00  0.00     0.066 A 
ATOM      9  C   UNL A   1      33.388  20.777  24.140  1.00  0.00     0.001 A 
ATOM     10  C   UNL A   1      32.305  20.051  24.697  1.00  0.00     0.008 A 
ATOM     11  C   UNL A   1      32.559  18.841  25.355  1.00  0.00     0.000 A 
ATOM     12  C   UNL A   1      34.991  18.851  24.815  1.00  0.00     0.016 A 
ATOM     13  C   UNL A   1      33.841  18.248  25.368  1.00  0.00     0.001 A 
BRANCH   9  14
ATOM     14  C   UNL A   1      32.836  22.354  23.266  1.00  0.00     0.197 C 
ATOM     15  N   UNL A   1      31.715  23.637  23.630  1.00  0.00    -0.236 N 
ATOM     16  C   UNL A   1      31.944  24.849  23.007  1.00  0.00     0.252 C 
ATOM     17  O   UNL A   1      31.331  25.883  23.257  1.00  0.00    -0.272 OA
ATOM     18  C   UNL A   1      32.899  24.680  21.859  1.00  0.00     0.174 C 
ATOM     19  S   UNL A   1      34.084  23.327  22.224  1.00  0.00    -0.120 SA
BRANCH  15  20
ATOM     20  N   UNL A   1      30.428  23.688  24.618  1.00  0.00    -0.270 N 
ATOM     21  H   UNL A   1      29.597  23.517  24.120  1.00  0.00     0.191 HD
BRANCH  20  22
ATOM     22  C   UNL A   1      30.164  23.903  25.966  1.00  0.00     0.189 C 
ATOM     23  S   UNL A   1      28.990  24.825  26.832  1.00  0.00    -0.039 S 
BRANCH  22  24
ATOM     24  N   UNL A   1      31.103  24.115  26.875  1.00  0.00    -0.331 N 
ATOM     25  H   UNL A   1      30.879  23.748  27.760  1.00  0.00     0.169 HD
BRANCH  24  26
ATOM     26  C   UNL A   1      32.297  24.729  26.839  1.00  0.00     0.043 A 
ATOM     27  C   UNL A   1      33.321  22.586  27.496  1.00  0.00     0.046 C 
ATOM     28  C   UNL A   1      33.362  23.880  26.744  1.00  0.00    -0.028 A 
ATOM     29  C   UNL A   1      34.300  24.306  25.830  1.00  0.00     0.005 A 
ATOM     30  C   UNL A   1      34.318  25.658  25.428  1.00  0.00     0.000 A 
ATOM     31  C   UNL A   1      32.377  26.067  26.654  1.00  0.00     0.026 A 
ATOM     32  C   UNL A   1      33.449  26.582  25.995  1.00  0.00     0.002 A 
ENDBRANCH  24  26
ENDBRANCH  22  24
ENDBRANCH  20  22
ENDBRANCH  15  20
ENDBRANCH   9  14
ENDBRANCH   6   8
ENDBRANCH   5   6
ENDBRANCH   4   5
ENDBRANCH   3   4
ENDBRANCH   2   3
ENDBRANCH   1   2
BRANCH   1  33
ATOM     33  C   UNL A   1      44.089  20.197  25.012  1.00  0.00     0.188 C 
BRANCH  33  34
ATOM     34  O   UNL A   1      45.387  20.681  25.370  1.00  0.00    -0.376 OA
BRANCH  34  35
ATOM     35  C   UNL A   1      46.232  21.524  24.640  1.00  0.00     0.202 C 
BRANCH  35  36
ATOM     36  C   UNL A   1      45.371  22.593  24.110  1.00  0.00     0.261 C 
BRANCH  36  37
ATOM     37  O   UNL A   1      45.944  23.964  24.367  1.00  0.00    -0.460 OA
BRANCH  37  38
ATOM     38  C   UNL A   1      46.581  24.653  25.402  1.00  0.00     0.338 C 
ATOM     39  O   UNL A   1      47.134  23.936  26.243  1.00  0.00    -0.246 OA
BRANCH  38  40
ATOM     40  C   UNL A   1      46.516  26.186  25.714  1.00  0.00     0.060 A 
ATOM     41  C   UNL A   1      46.964  26.617  26.926  1.00  0.00     0.016 A 
ATOM     42  C   UNL A   1      45.701  27.146  25.128  1.00  0.00     0.016 A 
ATOM     43  C   UNL A   1      46.169  27.596  27.617  1.00  0.00     0.010 A 
ATOM     44  C   UNL A   1      44.794  28.061  25.918  1.00  0.00     0.010 A 
ATOM     45  C   UNL A   1      44.777  28.328  27.306  1.00  0.00    -0.014 A 
BRANCH  45  46
ATOM     46  C   UNL A   1      43.481  29.221  28.559  1.00  0.00     0.031 A 
ATOM     47  C   UNL A   1      44.176  30.173  29.962  1.00  0.00     0.074 A 
ATOM     48  C   UNL A   1      41.824  29.097  28.518  1.00  0.00     0.049 A 
ATOM     49  N   UNL A   1      43.501  31.093  30.527  1.00  0.00    -0.248 NA
ATOM     50  C   UNL A   1      45.565  30.493  30.632  1.00  0.00     0.031 C 
ATOM     51  C   UNL A   1      40.506  29.845  28.760  1.00  0.00     0.029 A 
ATOM     52  N   UNL A   1      40.928  27.990  27.883  1.00  0.00    -0.354 N 
ATOM     53  C   UNL A   1      44.320  32.248  30.563  1.00  0.00     0.074 A 
ATOM     54  C   UNL A   1      45.622  31.815  30.809  1.00  0.00     0.031 C 
ATOM     55  C   UNL A   1      39.318  29.173  28.629  1.00  0.00     0.029 A 
ATOM     56  C   UNL A   1      39.634  27.826  28.360  1.00  0.00     0.049 A 
ATOM     57  H   UNL A   1      41.272  27.419  27.159  1.00  0.00     0.167 HD
ATOM     58  C   UNL A   1      43.745  33.412  30.193  1.00  0.00     0.034 A 
ATOM     59  C   UNL A   1      39.261  26.787  29.148  1.00  0.00     0.034 A 
ATOM     60  C   UNL A   1      42.292  33.157  30.170  1.00  0.00     0.049 A 
ATOM     61  C   UNL A   1      39.473  27.424  30.571  1.00  0.00     0.074 A 
ATOM     62  C   UNL A   1      41.209  33.359  29.369  1.00  0.00     0.029 A 
ATOM     63  N   UNL A   1      41.804  32.300  31.152  1.00  0.00    -0.354 N 
ATOM     64  N   UNL A   1      40.397  28.338  30.860  1.00  0.00    -0.248 NA
ATOM     65  C   UNL A   1      38.356  27.490  31.516  1.00  0.00     0.031 C 
ATOM     66  C   UNL A   1      40.133  32.512  29.879  1.00  0.00     0.029 A 
ATOM     67  C   UNL A   1      40.609  31.680  30.904  1.00  0.00     0.049 A 
ATOM     68  H   UNL A   1      42.297  32.145  31.989  1.00  0.00     0.167 HD
ATOM     69  C   UNL A   1      39.869  29.302  31.719  1.00  0.00     0.074 A 
ATOM     70  C   UNL A   1      38.631  28.634  32.170  1.00  0.00     0.031 C 
ATOM     71  C   UNL A   1      40.160  30.665  31.910  1.00  0.00     0.034 A 
BRANCH  58  72
ATOM     72  C   UNL A   1      44.422  34.721  29.773  1.00  0.00     0.023 A 
ATOM     73  C   UNL A   1      43.815  35.852  30.344  1.00  0.00     0.012 A 
ATOM     74  C   UNL A   1      45.495  34.999  28.861  1.00  0.00     0.148 A 
ATOM     75  C   UNL A   1      44.215  37.158  30.073  1.00  0.00     0.002 A 
ATOM     76  C   UNL A   1      45.870  36.328  28.545  1.00  0.00     0.091 A 
ATOM     77  F   UNL A   1      46.163  33.989  28.291  1.00  0.00    -0.205 F 
ATOM     78  C   UNL A   1      45.237  37.402  29.176  1.00  0.00     0.022 A 
BRANCH  76  79
ATOM     79  S   UNL A   1      47.137  36.805  27.330  1.00  0.00     0.127 S 
ATOM     80  O   UNL A   1      46.400  36.798  26.063  1.00  0.00    -0.237 OA
ATOM     81  O   UNL A   1      47.523  38.140  27.786  1.00  0.00    -0.237 OA
ATOM     82  O   UNL A   1      48.187  35.796  27.405  1.00  0.00    -0.744 OA
ENDBRANCH  76  79
ENDBRANCH  58  72
BRANCH  59  83
ATOM     83  C   UNL A   1      39.639  25.449  28.521  1.00  0.00     0.023 A 
ATOM     84  C   UNL A   1      38.757  24.822  27.573  1.00  0.00     0.012 A 
ATOM     85  C   UNL A   1      40.968  25.024  28.533  1.00  0.00     0.148 A 
ATOM     86  C   UNL A   1      39.257  24.030  26.523  1.00  0.00     0.002 A 
ATOM     87  C   UNL A   1      41.482  24.302  27.430  1.00  0.00     0.091 A 
ATOM     88  F   UNL A   1      41.765  25.579  29.454  1.00  0.00    -0.205 F 
ATOM     89  C   UNL A   1      40.634  23.880  26.386  1.00  0.00     0.022 A 
BRANCH  87  90
ATOM     90  S   UNL A   1      43.260  24.489  27.005  1.00  0.00     0.127 S 
ATOM     91  O   UNL A   1      43.217  25.011  25.645  1.00  0.00    -0.237 OA
ATOM     92  O   UNL A   1      43.755  25.459  27.987  1.00  0.00    -0.237 OA
ATOM     93  O   UNL A   1      43.829  23.154  27.094  1.00  0.00    -0.744 OA
ENDBRANCH  87  90
ENDBRANCH  59  83
BRANCH  71  94
ATOM     94  C   UNL A   1      40.197  31.185  33.368  1.00  0.00     0.023 A 
ATOM     95  C   UNL A   1      41.163  30.716  34.259  1.00  0.00     0.012 A 
ATOM     96  C   UNL A   1      39.345  32.219  33.886  1.00  0.00     0.148 A 
ATOM     97  C   UNL A   1      41.158  31.071  35.603  1.00  0.00     0.002 A 
ATOM     98  C   UNL A   1      39.461  32.698  35.172  1.00  0.00     0.091 A 
ATOM     99  F   UNL A   1      38.356  32.768  33.184  1.00  0.00    -0.205 F 
ATOM    100  C   UNL A   1      40.316  32.070  36.059  1.00  0.00     0.022 A 
BRANCH  98 101
ATOM    101  S   UNL A   1      38.538  34.134  35.743  1.00  0.00     0.127 S 
ATOM    102  O   UNL A   1      38.754  34.054  37.186  1.00  0.00    -0.237 OA
ATOM    103  O   UNL A   1      39.250  35.222  35.072  1.00  0.00    -0.237 OA
ATOM    104  O   UNL A   1      37.158  33.965  35.309  1.00  0.00    -0.744 OA
ENDBRANCH  98 101
ENDBRANCH  71  94
ENDBRANCH  45  46
ENDBRANCH  38  40
ENDBRANCH  37  38
ENDBRANCH  36  37
ENDBRANCH  35  36
ENDBRANCH  34  35
ENDBRANCH  33  34
ENDBRANCH   1  33
TORSDOF 25
ENDMDL
