MODEL 1
REMARK VINA RESULT:      -8.9      0.000      0.000
REMARK SMILES CC[C@@H](Oc1ccccc1/C=C1/SC(Nc2ccc(F)cc2)=[NH+]C1=O)C(=O)OCCOCCOCCOC(=O)c1ccc(-c2c3nc(c(-c4cccc(S(=O)(=O)[O-])c4F)c4ccc([nH]4)c(-c4cccc(S(=O)(=O)[O-])c4F)c4nc(c(-c5cccc(S(=O)(=O)[O-])c5F)c5ccc2[nH]5)C=C4)C=C3)cc1
REMARK SMILES IDX 32 1 31 2 30 3 29 4 28 5 26 6 27 7 3 8 2 9 1 10 4 11 5 12
REMARK SMILES IDX 6 13 10 14 7 15 9 16 8 17 11 18 12 19 13 20 24 21 14 22
REMARK SMILES IDX 23 23 25 24 15 25 16 28 17 29 22 30 18 31 21 32 19 33 20 34
REMARK SMILES IDX 33 35 34 36 35 37 36 38 37 39 38 40 39 41 40 42 41 43 102 44
REMARK SMILES IDX 42 45 101 46 43 47 44 48 45 49 95 50 46 51 100 52 94 53
REMARK SMILES IDX 96 54 47 55 99 56 93 57 92 58 48 60 80 61 60 62 79 63 61 64
REMARK SMILES IDX 64 65 78 66 97 67 62 68 63 69 77 71 98 72 65 73 49 74 50 75
REMARK SMILES IDX 58 76 51 77 53 78 59 79 52 80 54 81 55 82 56 83 57 84 81 85
REMARK SMILES IDX 82 86 90 87 83 88 85 89 91 90 84 91 86 92 87 93 88 94 89 95
REMARK SMILES IDX 66 96 67 97 75 98 68 99 70 100 76 101 69 102 71 103 72 104
REMARK SMILES IDX 73 105 74 106
REMARK H PARENT 23 26 15 27 96 59 64 70
REMARK Flexibility Score: inf
ROOT
ATOM      1  C   UNL A   1      36.399  22.672  23.514  1.00  0.00     0.188 C 
ENDROOT
BRANCH   1   2
ATOM      2  O   UNL A   1      35.454  23.695  23.242  1.00  0.00    -0.376 OA
BRANCH   2   3
ATOM      3  C   UNL A   1      34.097  23.285  23.108  1.00  0.00     0.202 C 
BRANCH   3   4
ATOM      4  C   UNL A   1      33.418  23.456  21.735  1.00  0.00     0.261 C 
BRANCH   4   5
ATOM      5  O   UNL A   1      32.385  24.461  21.658  1.00  0.00    -0.461 OA
BRANCH   5   6
ATOM      6  C   UNL A   1      32.790  25.720  21.297  1.00  0.00     0.347 C 
ATOM      7  O   UNL A   1      33.194  26.026  20.179  1.00  0.00    -0.248 OA
BRANCH   6   8
ATOM      8  C   UNL A   1      32.720  26.729  22.451  1.00  0.00     0.282 C 
BRANCH   8   9
ATOM      9  C   UNL A   1      33.269  28.116  22.065  1.00  0.00     0.054 C 
ATOM     10  C   UNL A   1      34.524  28.552  22.817  1.00  0.00     0.008 C 
ENDBRANCH   8   9
BRANCH   8  11
ATOM     11  O   UNL A   1      31.324  26.801  22.758  1.00  0.00    -0.478 OA
BRANCH  11  12
ATOM     12  C   UNL A   1      30.943  26.126  23.886  1.00  0.00     0.127 A 
ATOM     13  C   UNL A   1      30.539  24.792  23.802  1.00  0.00     0.047 A 
ATOM     14  C   UNL A   1      30.900  26.824  25.110  1.00  0.00     0.018 A 
ATOM     15  C   UNL A   1      30.152  24.117  24.959  1.00  0.00     0.004 A 
ATOM     16  C   UNL A   1      30.532  26.125  26.264  1.00  0.00     0.012 A 
ATOM     17  C   UNL A   1      30.158  24.779  26.187  1.00  0.00     0.001 A 
BRANCH  14  18
ATOM     18  C   UNL A   1      31.419  28.200  25.231  1.00  0.00     0.036 C 
ATOM     19  C   UNL A   1      32.532  28.569  25.883  1.00  0.00     0.110 C 
ATOM     20  S   UNL A   1      32.859  30.201  26.360  1.00  0.00     0.006 SA
ATOM     21  C   UNL A   1      33.620  27.689  26.407  1.00  0.00     0.346 C 
ATOM     22  C   UNL A   1      34.173  29.627  27.363  1.00  0.00     0.322 C 
ATOM     23  N   UNL A   1      34.427  28.361  27.284  1.00  0.00    -0.199 N 
ATOM     24  O   UNL A   1      33.837  26.545  26.022  1.00  0.00    -0.240 OA
ATOM     25  N   UNL A   1      34.835  30.542  28.134  1.00  0.00    -0.235 N 
ATOM     26  H   UNL A   1      35.138  27.922  27.806  1.00  0.00     0.316 HD
ATOM     27  H   UNL A   1      34.410  31.414  28.299  1.00  0.00     0.313 HD
BRANCH  25  28
ATOM     28  C   UNL A   1      36.095  30.292  28.703  1.00  0.00     0.125 A 
ATOM     29  C   UNL A   1      36.217  29.868  30.031  1.00  0.00     0.055 A 
ATOM     30  C   UNL A   1      37.254  30.322  27.908  1.00  0.00     0.055 A 
ATOM     31  C   UNL A   1      37.449  29.431  30.528  1.00  0.00     0.043 A 
ATOM     32  C   UNL A   1      38.488  29.909  28.404  1.00  0.00     0.043 A 
ATOM     33  C   UNL A   1      38.570  29.449  29.707  1.00  0.00     0.123 A 
ATOM     34  F   UNL A   1      39.745  29.010  30.178  1.00  0.00    -0.207 F 
ENDBRANCH  25  28
ENDBRANCH  14  18
ENDBRANCH  11  12
ENDBRANCH   8  11
ENDBRANCH   6   8
ENDBRANCH   5   6
ENDBRANCH   4   5
ENDBRANCH   3   4
ENDBRANCH   2   3
ENDBRANCH   1   2
BRANCH   1  35
ATOM     35  C   UNL A   1      35.990  21.633  24.559  1.00  0.00     0.188 C 
BRANCH  35  36
ATOM     36  O   UNL A   1      37.043  21.108  25.349  1.00  0.00    -0.376 OA
BRANCH  36  37
ATOM     37  C   UNL A   1      38.081  21.998  25.755  1.00  0.00     0.202 C 
BRANCH  37  38
ATOM     38  C   UNL A   1      39.504  21.474  26.030  1.00  0.00     0.261 C 
BRANCH  38  39
ATOM     39  O   UNL A   1      40.594  22.330  25.648  1.00  0.00    -0.460 OA
BRANCH  39  40
ATOM     40  C   UNL A   1      41.836  22.047  26.107  1.00  0.00     0.338 C 
ATOM     41  O   UNL A   1      42.606  21.226  25.641  1.00  0.00    -0.246 OA
BRANCH  40  42
ATOM     42  C   UNL A   1      42.205  23.110  27.088  1.00  0.00     0.060 A 
ATOM     43  C   UNL A   1      43.533  23.565  27.104  1.00  0.00     0.016 A 
ATOM     44  C   UNL A   1      41.248  23.740  27.893  1.00  0.00     0.016 A 
ATOM     45  C   UNL A   1      43.911  24.615  27.946  1.00  0.00     0.010 A 
ATOM     46  C   UNL A   1      41.631  24.785  28.742  1.00  0.00     0.010 A 
ATOM     47  C   UNL A   1      42.971  25.204  28.801  1.00  0.00    -0.014 A 
BRANCH  47  48
ATOM     48  C   UNL A   1      43.421  26.088  29.907  1.00  0.00     0.031 A 
ATOM     49  C   UNL A   1      44.099  25.447  31.090  1.00  0.00     0.074 A 
ATOM     50  C   UNL A   1      43.240  27.422  29.881  1.00  0.00     0.049 A 
ATOM     51  N   UNL A   1      44.541  25.991  32.192  1.00  0.00    -0.248 NA
ATOM     52  C   UNL A   1      44.302  23.988  31.016  1.00  0.00     0.031 C 
ATOM     53  C   UNL A   1      42.615  28.174  28.795  1.00  0.00     0.029 A 
ATOM     54  N   UNL A   1      43.549  28.379  30.819  1.00  0.00    -0.354 N 
ATOM     55  C   UNL A   1      45.038  24.942  32.957  1.00  0.00     0.074 A 
ATOM     56  C   UNL A   1      44.837  23.729  32.197  1.00  0.00     0.031 C 
ATOM     57  C   UNL A   1      42.564  29.475  29.140  1.00  0.00     0.029 A 
ATOM     58  C   UNL A   1      43.123  29.643  30.481  1.00  0.00     0.049 A 
ATOM     59  H   UNL A   1      44.031  28.178  31.654  1.00  0.00     0.167 HD
ATOM     60  C   UNL A   1      45.618  24.982  34.180  1.00  0.00     0.034 A 
ATOM     61  C   UNL A   1      43.157  30.795  31.184  1.00  0.00     0.034 A 
ATOM     62  C   UNL A   1      45.831  26.187  34.932  1.00  0.00     0.049 A 
ATOM     63  C   UNL A   1      43.772  30.804  32.563  1.00  0.00     0.074 A 
ATOM     64  C   UNL A   1      46.455  26.332  36.159  1.00  0.00     0.029 A 
ATOM     65  N   UNL A   1      45.408  27.447  34.546  1.00  0.00    -0.354 N 
ATOM     66  N   UNL A   1      44.338  29.824  33.226  1.00  0.00    -0.248 NA
ATOM     67  C   UNL A   1      43.779  32.090  33.281  1.00  0.00     0.031 C 
ATOM     68  C   UNL A   1      46.367  27.676  36.535  1.00  0.00     0.029 A 
ATOM     69  C   UNL A   1      45.737  28.375  35.519  1.00  0.00     0.049 A 
ATOM     70  H   UNL A   1      44.940  27.654  33.704  1.00  0.00     0.167 HD
ATOM     71  C   UNL A   1      44.805  30.383  34.413  1.00  0.00     0.074 A 
ATOM     72  C   UNL A   1      44.469  31.791  34.372  1.00  0.00     0.031 C 
ATOM     73  C   UNL A   1      45.446  29.784  35.447  1.00  0.00     0.034 A 
BRANCH  60  74
ATOM     74  C   UNL A   1      46.065  23.677  34.783  1.00  0.00     0.023 A 
ATOM     75  C   UNL A   1      45.149  22.876  35.494  1.00  0.00     0.012 A 
ATOM     76  C   UNL A   1      47.386  23.223  34.601  1.00  0.00     0.148 A 
ATOM     77  C   UNL A   1      45.549  21.658  36.042  1.00  0.00     0.002 A 
ATOM     78  C   UNL A   1      47.763  21.986  35.108  1.00  0.00     0.091 A 
ATOM     79  F   UNL A   1      48.248  24.011  33.943  1.00  0.00    -0.205 F 
ATOM     80  C   UNL A   1      46.851  21.209  35.839  1.00  0.00     0.022 A 
BRANCH  78  81
ATOM     81  S   UNL A   1      49.392  21.282  34.830  1.00  0.00     0.127 S 
ATOM     82  O   UNL A   1      50.261  22.344  35.336  1.00  0.00    -0.237 OA
ATOM     83  O   UNL A   1      49.350  20.080  35.662  1.00  0.00    -0.237 OA
ATOM     84  O   UNL A   1      49.484  21.033  33.399  1.00  0.00    -0.744 OA
ENDBRANCH  78  81
ENDBRANCH  60  74
BRANCH  61  85
ATOM     85  C   UNL A   1      42.605  32.052  30.601  1.00  0.00     0.023 A 
ATOM     86  C   UNL A   1      43.423  32.865  29.792  1.00  0.00     0.012 A 
ATOM     87  C   UNL A   1      41.281  32.457  30.862  1.00  0.00     0.148 A 
ATOM     88  C   UNL A   1      42.945  34.075  29.283  1.00  0.00     0.002 A 
ATOM     89  C   UNL A   1      40.794  33.634  30.305  1.00  0.00     0.091 A 
ATOM     90  F   UNL A   1      40.525  31.681  31.651  1.00  0.00    -0.205 F 
ATOM     91  C   UNL A   1      41.628  34.454  29.531  1.00  0.00     0.022 A 
BRANCH  89  92
ATOM     92  S   UNL A   1      39.082  34.148  30.479  1.00  0.00     0.127 S 
ATOM     93  O   UNL A   1      38.981  35.201  29.472  1.00  0.00    -0.237 OA
ATOM     94  O   UNL A   1      38.366  32.914  30.155  1.00  0.00    -0.237 OA
ATOM     95  O   UNL A   1      38.939  34.584  31.862  1.00  0.00    -0.744 OA
ENDBRANCH  89  92
ENDBRANCH  61  85
BRANCH  73  96
ATOM     96  C   UNL A   1      45.889  30.645  36.603  1.00  0.00     0.023 A 
ATOM     97  C   UNL A   1      47.156  31.260  36.589  1.00  0.00     0.012 A 
ATOM     98  C   UNL A   1      45.007  30.909  37.672  1.00  0.00     0.148 A 
ATOM     99  C   UNL A   1      47.553  32.092  37.637  1.00  0.00     0.002 A 
ATOM    100  C   UNL A   1      45.388  31.782  38.684  1.00  0.00     0.091 A 
ATOM    101  F   UNL A   1      43.809  30.305  37.676  1.00  0.00    -0.205 F 
ATOM    102  C   UNL A   1      46.666  32.363  38.676  1.00  0.00     0.022 A 
BRANCH 100 103
ATOM    103  S   UNL A   1      44.275  32.269  40.008  1.00  0.00     0.127 S 
ATOM    104  O   UNL A   1      45.097  33.221  40.753  1.00  0.00    -0.237 OA
ATOM    105  O   UNL A   1      43.163  32.869  39.271  1.00  0.00    -0.237 OA
ATOM    106  O   UNL A   1      43.938  31.046  40.723  1.00  0.00    -0.744 OA
ENDBRANCH 100 103
ENDBRANCH  73  96
ENDBRANCH  47  48
ENDBRANCH  40  42
ENDBRANCH  39  40
ENDBRANCH  38  39
ENDBRANCH  37  38
ENDBRANCH  36  37
ENDBRANCH  35  36
ENDBRANCH   1  35
TORSDOF 25
ENDMDL
MODEL 2
REMARK VINA RESULT:      -8.8      5.462      6.770
REMARK SMILES CC[C@@H](Oc1ccccc1/C=C1/SC(Nc2ccc(F)cc2)=[NH+]C1=O)C(=O)OCCOCCOCCOC(=O)c1ccc(-c2c3nc(c(-c4cccc(S(=O)(=O)[O-])c4F)c4ccc([nH]4)c(-c4cccc(S(=O)(=O)[O-])c4F)c4nc(c(-c5cccc(S(=O)(=O)[O-])c5F)c5ccc2[nH]5)C=C4)C=C3)cc1
REMARK SMILES IDX 32 1 31 2 30 3 29 4 28 5 26 6 27 7 3 8 2 9 1 10 4 11 5 12
REMARK SMILES IDX 6 13 10 14 7 15 9 16 8 17 11 18 12 19 13 20 24 21 14 22
REMARK SMILES IDX 23 23 25 24 15 25 16 28 17 29 22 30 18 31 21 32 19 33 20 34
REMARK SMILES IDX 33 35 34 36 35 37 36 38 37 39 38 40 39 41 40 42 41 43 102 44
REMARK SMILES IDX 42 45 101 46 43 47 44 48 45 49 95 50 46 51 100 52 94 53
REMARK SMILES IDX 96 54 47 55 99 56 93 57 92 58 48 60 80 61 60 62 79 63 61 64
REMARK SMILES IDX 64 65 78 66 97 67 62 68 63 69 77 71 98 72 65 73 49 74 50 75
REMARK SMILES IDX 58 76 51 77 53 78 59 79 52 80 54 81 55 82 56 83 57 84 81 85
REMARK SMILES IDX 82 86 90 87 83 88 85 89 91 90 84 91 86 92 87 93 88 94 89 95
REMARK SMILES IDX 66 96 67 97 75 98 68 99 70 100 76 101 69 102 71 103 72 104
REMARK SMILES IDX 73 105 74 106
REMARK H PARENT 23 26 15 27 96 59 64 70
REMARK Flexibility Score: inf
ROOT
ATOM      1  C   UNL A   1      37.278  23.679  25.102  1.00  0.00     0.188 C 
ENDROOT
BRANCH   1   2
ATOM      2  O   UNL A   1      35.876  23.824  25.267  1.00  0.00    -0.376 OA
BRANCH   2   3
ATOM      3  C   UNL A   1      35.057  22.869  24.599  1.00  0.00     0.202 C 
BRANCH   3   4
ATOM      4  C   UNL A   1      34.940  22.958  23.065  1.00  0.00     0.261 C 
BRANCH   4   5
ATOM      5  O   UNL A   1      33.600  22.924  22.528  1.00  0.00    -0.461 OA
BRANCH   5   6
ATOM      6  C   UNL A   1      33.225  24.003  21.770  1.00  0.00     0.347 C 
ATOM      7  O   UNL A   1      33.309  24.056  20.546  1.00  0.00    -0.248 OA
BRANCH   6   8
ATOM      8  C   UNL A   1      32.706  25.178  22.610  1.00  0.00     0.282 C 
BRANCH   8   9
ATOM      9  C   UNL A   1      32.808  26.527  21.876  1.00  0.00     0.054 C 
ATOM     10  C   UNL A   1      33.795  27.524  22.478  1.00  0.00     0.008 C 
ENDBRANCH   8   9
BRANCH   8  11
ATOM     11  O   UNL A   1      31.339  24.838  22.866  1.00  0.00    -0.478 OA
BRANCH  11  12
ATOM     12  C   UNL A   1      31.085  24.361  24.123  1.00  0.00     0.127 A 
ATOM     13  C   UNL A   1      31.160  22.991  24.383  1.00  0.00     0.047 A 
ATOM     14  C   UNL A   1      30.681  25.271  25.122  1.00  0.00     0.018 A 
ATOM     15  C   UNL A   1      30.896  22.520  25.668  1.00  0.00     0.004 A 
ATOM     16  C   UNL A   1      30.443  24.783  26.411  1.00  0.00     0.012 A 
ATOM     17  C   UNL A   1      30.549  23.414  26.680  1.00  0.00     0.001 A 
BRANCH  14  18
ATOM     18  C   UNL A   1      30.696  26.728  24.890  1.00  0.00     0.036 C 
ATOM     19  C   UNL A   1      31.587  27.597  25.390  1.00  0.00     0.110 C 
ATOM     20  S   UNL A   1      31.319  29.306  25.449  1.00  0.00     0.006 SA
ATOM     21  C   UNL A   1      32.885  27.291  26.065  1.00  0.00     0.346 C 
ATOM     22  C   UNL A   1      32.703  29.470  26.507  1.00  0.00     0.322 C 
ATOM     23  N   UNL A   1      33.375  28.385  26.723  1.00  0.00    -0.199 N 
ATOM     24  O   UNL A   1      33.494  26.232  25.956  1.00  0.00    -0.240 OA
ATOM     25  N   UNL A   1      32.980  30.710  27.010  1.00  0.00    -0.235 N 
ATOM     26  H   UNL A   1      34.168  28.352  27.306  1.00  0.00     0.316 HD
ATOM     27  H   UNL A   1      32.278  31.399  26.978  1.00  0.00     0.313 HD
BRANCH  25  28
ATOM     28  C   UNL A   1      34.224  31.047  27.571  1.00  0.00     0.125 A 
ATOM     29  C   UNL A   1      35.172  30.063  27.869  1.00  0.00     0.055 A 
ATOM     30  C   UNL A   1      34.601  32.394  27.712  1.00  0.00     0.055 A 
ATOM     31  C   UNL A   1      36.474  30.417  28.236  1.00  0.00     0.043 A 
ATOM     32  C   UNL A   1      35.889  32.753  28.099  1.00  0.00     0.043 A 
ATOM     33  C   UNL A   1      36.821  31.759  28.341  1.00  0.00     0.123 A 
ATOM     34  F   UNL A   1      38.074  32.097  28.673  1.00  0.00    -0.207 F 
ENDBRANCH  25  28
ENDBRANCH  14  18
ENDBRANCH  11  12
ENDBRANCH   8  11
ENDBRANCH   6   8
ENDBRANCH   5   6
ENDBRANCH   4   5
ENDBRANCH   3   4
ENDBRANCH   2   3
ENDBRANCH   1   2
BRANCH   1  35
ATOM     35  C   UNL A   1      37.855  22.296  25.406  1.00  0.00     0.188 C 
BRANCH  35  36
ATOM     36  O   UNL A   1      39.123  22.284  26.038  1.00  0.00    -0.376 OA
BRANCH  36  37
ATOM     37  C   UNL A   1      39.394  23.292  27.010  1.00  0.00     0.202 C 
BRANCH  37  38
ATOM     38  C   UNL A   1      40.748  24.029  27.023  1.00  0.00     0.261 C 
BRANCH  38  39
ATOM     39  O   UNL A   1      40.933  25.060  26.038  1.00  0.00    -0.460 OA
BRANCH  39  40
ATOM     40  C   UNL A   1      42.157  25.624  25.908  1.00  0.00     0.338 C 
ATOM     41  O   UNL A   1      42.975  25.376  25.040  1.00  0.00    -0.246 OA
BRANCH  40  42
ATOM     42  C   UNL A   1      42.210  26.799  26.827  1.00  0.00     0.060 A 
ATOM     43  C   UNL A   1      41.806  28.048  26.331  1.00  0.00     0.016 A 
ATOM     44  C   UNL A   1      42.531  26.665  28.184  1.00  0.00     0.016 A 
ATOM     45  C   UNL A   1      41.758  29.162  27.174  1.00  0.00     0.010 A 
ATOM     46  C   UNL A   1      42.493  27.783  29.023  1.00  0.00     0.010 A 
ATOM     47  C   UNL A   1      42.142  29.047  28.515  1.00  0.00    -0.014 A 
BRANCH  47  48
ATOM     48  C   UNL A   1      42.396  30.265  29.326  1.00  0.00     0.031 A 
ATOM     49  C   UNL A   1      43.775  30.869  29.277  1.00  0.00     0.074 A 
ATOM     50  C   UNL A   1      41.443  30.833  30.090  1.00  0.00     0.049 A 
ATOM     51  N   UNL A   1      44.257  31.898  29.921  1.00  0.00    -0.248 NA
ATOM     52  C   UNL A   1      44.743  30.215  28.378  1.00  0.00     0.031 C 
ATOM     53  C   UNL A   1      40.065  30.364  30.218  1.00  0.00     0.029 A 
ATOM     54  N   UNL A   1      41.507  31.922  30.926  1.00  0.00    -0.354 N 
ATOM     55  C   UNL A   1      45.590  31.993  29.537  1.00  0.00     0.074 A 
ATOM     56  C   UNL A   1      45.843  30.913  28.609  1.00  0.00     0.031 C 
ATOM     57  C   UNL A   1      39.419  31.148  31.103  1.00  0.00     0.029 A 
ATOM     58  C   UNL A   1      40.345  32.152  31.626  1.00  0.00     0.049 A 
ATOM     59  H   UNL A   1      42.310  32.486  31.016  1.00  0.00     0.167 HD
ATOM     60  C   UNL A   1      46.520  32.901  29.912  1.00  0.00     0.034 A 
ATOM     61  C   UNL A   1      40.071  33.051  32.595  1.00  0.00     0.034 A 
ATOM     62  C   UNL A   1      46.270  33.983  30.824  1.00  0.00     0.049 A 
ATOM     63  C   UNL A   1      41.140  34.027  33.026  1.00  0.00     0.074 A 
ATOM     64  C   UNL A   1      47.138  34.982  31.227  1.00  0.00     0.029 A 
ATOM     65  N   UNL A   1      45.076  34.195  31.492  1.00  0.00    -0.354 N 
ATOM     66  N   UNL A   1      42.361  34.174  32.572  1.00  0.00    -0.248 NA
ATOM     67  C   UNL A   1      40.780  34.982  34.088  1.00  0.00     0.031 C 
ATOM     68  C   UNL A   1      46.481  35.772  32.175  1.00  0.00     0.029 A 
ATOM     69  C   UNL A   1      45.188  35.298  32.322  1.00  0.00     0.049 A 
ATOM     70  H   UNL A   1      44.265  33.643  31.392  1.00  0.00     0.167 HD
ATOM     71  C   UNL A   1      42.897  35.260  33.258  1.00  0.00     0.074 A 
ATOM     72  C   UNL A   1      41.863  35.745  34.148  1.00  0.00     0.031 C 
ATOM     73  C   UNL A   1      44.136  35.805  33.166  1.00  0.00     0.034 A 
BRANCH  60  74
ATOM     74  C   UNL A   1      47.904  32.762  29.336  1.00  0.00     0.023 A 
ATOM     75  C   UNL A   1      48.823  31.862  29.913  1.00  0.00     0.012 A 
ATOM     76  C   UNL A   1      48.276  33.492  28.190  1.00  0.00     0.148 A 
ATOM     77  C   UNL A   1      50.101  31.714  29.376  1.00  0.00     0.002 A 
ATOM     78  C   UNL A   1      49.533  33.302  27.632  1.00  0.00     0.091 A 
ATOM     79  F   UNL A   1      47.396  34.361  27.672  1.00  0.00    -0.205 F 
ATOM     80  C   UNL A   1      50.452  32.424  28.231  1.00  0.00     0.022 A 
BRANCH  78  81
ATOM     81  S   UNL A   1      50.051  34.107  26.113  1.00  0.00     0.127 S 
ATOM     82  O   UNL A   1      51.316  33.428  25.837  1.00  0.00    -0.237 OA
ATOM     83  O   UNL A   1      48.962  33.763  25.199  1.00  0.00    -0.237 OA
ATOM     84  O   UNL A   1      50.161  35.525  26.426  1.00  0.00    -0.744 OA
ENDBRANCH  78  81
ENDBRANCH  60  74
BRANCH  61  85
ATOM     85  C   UNL A   1      38.719  33.092  33.226  1.00  0.00     0.023 A 
ATOM     86  C   UNL A   1      38.532  32.549  34.512  1.00  0.00     0.012 A 
ATOM     87  C   UNL A   1      37.615  33.646  32.549  1.00  0.00     0.148 A 
ATOM     88  C   UNL A   1      37.265  32.525  35.098  1.00  0.00     0.002 A 
ATOM     89  C   UNL A   1      36.368  33.670  33.161  1.00  0.00     0.091 A 
ATOM     90  F   UNL A   1      37.809  34.138  31.318  1.00  0.00    -0.205 F 
ATOM     91  C   UNL A   1      36.185  33.094  34.427  1.00  0.00     0.022 A 
BRANCH  89  92
ATOM     92  S   UNL A   1      34.944  34.478  32.422  1.00  0.00     0.127 S 
ATOM     93  O   UNL A   1      33.836  33.721  32.999  1.00  0.00    -0.237 OA
ATOM     94  O   UNL A   1      35.084  35.845  32.923  1.00  0.00    -0.237 OA
ATOM     95  O   UNL A   1      35.117  34.341  30.981  1.00  0.00    -0.744 OA
ENDBRANCH  89  92
ENDBRANCH  61  85
BRANCH  73  96
ATOM     96  C   UNL A   1      44.441  37.024  33.999  1.00  0.00     0.023 A 
ATOM     97  C   UNL A   1      45.065  36.890  35.254  1.00  0.00     0.012 A 
ATOM     98  C   UNL A   1      44.177  38.314  33.494  1.00  0.00     0.148 A 
ATOM     99  C   UNL A   1      45.388  38.018  36.010  1.00  0.00     0.002 A 
ATOM    100  C   UNL A   1      44.551  39.434  34.228  1.00  0.00     0.091 A 
ATOM    101  F   UNL A   1      43.570  38.423  32.303  1.00  0.00    -0.205 F 
ATOM    102  C   UNL A   1      45.143  39.288  35.492  1.00  0.00     0.022 A 
BRANCH 100 103
ATOM    103  S   UNL A   1      44.368  41.107  33.597  1.00  0.00     0.127 S 
ATOM    104  O   UNL A   1      45.555  41.762  34.143  1.00  0.00    -0.237 OA
ATOM    105  O   UNL A   1      44.399  40.895  32.149  1.00  0.00    -0.237 OA
ATOM    106  O   UNL A   1      43.096  41.595  34.110  1.00  0.00    -0.744 OA
ENDBRANCH 100 103
ENDBRANCH  73  96
ENDBRANCH  47  48
ENDBRANCH  40  42
ENDBRANCH  39  40
ENDBRANCH  38  39
ENDBRANCH  37  38
ENDBRANCH  36  37
ENDBRANCH  35  36
ENDBRANCH   1  35
TORSDOF 25
ENDMDL
MODEL 3
REMARK VINA RESULT:      -8.6      3.272      3.732
REMARK SMILES CC[C@@H](Oc1ccccc1/C=C1/SC(Nc2ccc(F)cc2)=[NH+]C1=O)C(=O)OCCOCCOCCOC(=O)c1ccc(-c2c3nc(c(-c4cccc(S(=O)(=O)[O-])c4F)c4ccc([nH]4)c(-c4cccc(S(=O)(=O)[O-])c4F)c4nc(c(-c5cccc(S(=O)(=O)[O-])c5F)c5ccc2[nH]5)C=C4)C=C3)cc1
REMARK SMILES IDX 32 1 31 2 30 3 29 4 28 5 26 6 27 7 3 8 2 9 1 10 4 11 5 12
REMARK SMILES IDX 6 13 10 14 7 15 9 16 8 17 11 18 12 19 13 20 24 21 14 22
REMARK SMILES IDX 23 23 25 24 15 25 16 28 17 29 22 30 18 31 21 32 19 33 20 34
REMARK SMILES IDX 33 35 34 36 35 37 36 38 37 39 38 40 39 41 40 42 41 43 102 44
REMARK SMILES IDX 42 45 101 46 43 47 44 48 45 49 95 50 46 51 100 52 94 53
REMARK SMILES IDX 96 54 47 55 99 56 93 57 92 58 48 60 80 61 60 62 79 63 61 64
REMARK SMILES IDX 64 65 78 66 97 67 62 68 63 69 77 71 98 72 65 73 49 74 50 75
REMARK SMILES IDX 58 76 51 77 53 78 59 79 52 80 54 81 55 82 56 83 57 84 81 85
REMARK SMILES IDX 82 86 90 87 83 88 85 89 91 90 84 91 86 92 87 93 88 94 89 95
REMARK SMILES IDX 66 96 67 97 75 98 68 99 70 100 76 101 69 102 71 103 72 104
REMARK SMILES IDX 73 105 74 106
REMARK H PARENT 23 26 15 27 96 59 64 70
REMARK Flexibility Score: inf
ROOT
ATOM      1  C   UNL A   1      36.960  23.314  24.893  1.00  0.00     0.188 C 
ENDROOT
BRANCH   1   2
ATOM      2  O   UNL A   1      35.664  23.869  25.048  1.00  0.00    -0.376 OA
BRANCH   2   3
ATOM      3  C   UNL A   1      34.654  23.378  24.172  1.00  0.00     0.202 C 
BRANCH   3   4
ATOM      4  C   UNL A   1      34.716  23.790  22.688  1.00  0.00     0.261 C 
BRANCH   4   5
ATOM      5  O   UNL A   1      33.450  23.867  21.997  1.00  0.00    -0.461 OA
BRANCH   5   6
ATOM      6  C   UNL A   1      33.096  25.101  21.518  1.00  0.00     0.347 C 
ATOM      7  O   UNL A   1      33.092  25.411  20.331  1.00  0.00    -0.248 OA
BRANCH   6   8
ATOM      8  C   UNL A   1      32.722  26.093  22.628  1.00  0.00     0.282 C 
BRANCH   8   9
ATOM      9  C   UNL A   1      32.911  27.561  22.204  1.00  0.00     0.054 C 
ATOM     10  C   UNL A   1      34.081  28.286  22.865  1.00  0.00     0.008 C 
ENDBRANCH   8   9
BRANCH   8  11
ATOM     11  O   UNL A   1      31.344  25.811  22.890  1.00  0.00    -0.478 OA
BRANCH  11  12
ATOM     12  C   UNL A   1      31.101  25.131  24.053  1.00  0.00     0.127 A 
ATOM     13  C   UNL A   1      31.057  23.736  24.055  1.00  0.00     0.047 A 
ATOM     14  C   UNL A   1      30.829  25.870  25.223  1.00  0.00     0.018 A 
ATOM     15  C   UNL A   1      30.807  23.058  25.247  1.00  0.00     0.004 A 
ATOM     16  C   UNL A   1      30.604  25.172  26.414  1.00  0.00     0.012 A 
ATOM     17  C   UNL A   1      30.591  23.774  26.424  1.00  0.00     0.001 A 
BRANCH  14  18
ATOM     18  C   UNL A   1      30.972  27.338  25.259  1.00  0.00     0.036 C 
ATOM     19  C   UNL A   1      31.991  28.018  25.805  1.00  0.00     0.110 C 
ATOM     20  S   UNL A   1      31.906  29.702  26.203  1.00  0.00     0.006 SA
ATOM     21  C   UNL A   1      33.308  27.483  26.264  1.00  0.00     0.346 C 
ATOM     22  C   UNL A   1      33.393  29.544  27.112  1.00  0.00     0.322 C 
ATOM     23  N   UNL A   1      33.968  28.386  27.051  1.00  0.00    -0.199 N 
ATOM     24  O   UNL A   1      33.792  26.416  25.898  1.00  0.00    -0.240 OA
ATOM     25  N   UNL A   1      33.843  30.638  27.797  1.00  0.00    -0.235 N 
ATOM     26  H   UNL A   1      34.805  28.176  27.526  1.00  0.00     0.316 HD
ATOM     27  H   UNL A   1      33.214  31.376  27.969  1.00  0.00     0.313 HD
BRANCH  25  28
ATOM     28  C   UNL A   1      35.161  30.757  28.268  1.00  0.00     0.125 A 
ATOM     29  C   UNL A   1      35.916  29.625  28.594  1.00  0.00     0.055 A 
ATOM     30  C   UNL A   1      35.803  32.008  28.283  1.00  0.00     0.055 A 
ATOM     31  C   UNL A   1      37.283  29.736  28.868  1.00  0.00     0.043 A 
ATOM     32  C   UNL A   1      37.159  32.127  28.576  1.00  0.00     0.043 A 
ATOM     33  C   UNL A   1      37.892  30.986  28.849  1.00  0.00     0.123 A 
ATOM     34  F   UNL A   1      39.206  31.088  29.091  1.00  0.00    -0.207 F 
ENDBRANCH  25  28
ENDBRANCH  14  18
ENDBRANCH  11  12
ENDBRANCH   8  11
ENDBRANCH   6   8
ENDBRANCH   5   6
ENDBRANCH   4   5
ENDBRANCH   3   4
ENDBRANCH   2   3
ENDBRANCH   1   2
BRANCH   1  35
ATOM     35  C   UNL A   1      37.033  21.791  24.778  1.00  0.00     0.188 C 
BRANCH  35  36
ATOM     36  O   UNL A   1      38.280  21.208  25.115  1.00  0.00    -0.376 OA
BRANCH  36  37
ATOM     37  C   UNL A   1      39.054  21.831  26.139  1.00  0.00     0.202 C 
BRANCH  37  38
ATOM     38  C   UNL A   1      40.546  21.490  26.315  1.00  0.00     0.261 C 
BRANCH  38  39
ATOM     39  O   UNL A   1      41.469  22.143  25.426  1.00  0.00    -0.460 OA
BRANCH  39  40
ATOM     40  C   UNL A   1      42.777  22.197  25.770  1.00  0.00     0.338 C 
ATOM     41  O   UNL A   1      43.695  21.632  25.203  1.00  0.00    -0.246 OA
BRANCH  40  42
ATOM     42  C   UNL A   1      42.932  23.291  26.774  1.00  0.00     0.060 A 
ATOM     43  C   UNL A   1      43.010  24.613  26.308  1.00  0.00     0.016 A 
ATOM     44  C   UNL A   1      42.879  23.046  28.152  1.00  0.00     0.016 A 
ATOM     45  C   UNL A   1      43.073  25.679  27.210  1.00  0.00     0.010 A 
ATOM     46  C   UNL A   1      42.952  24.113  29.053  1.00  0.00     0.010 A 
ATOM     47  C   UNL A   1      43.087  25.434  28.589  1.00  0.00    -0.014 A 
BRANCH  47  48
ATOM     48  C   UNL A   1      43.466  26.515  29.534  1.00  0.00     0.031 A 
ATOM     49  C   UNL A   1      44.909  26.605  29.958  1.00  0.00     0.074 A 
ATOM     50  C   UNL A   1      42.571  27.398  30.015  1.00  0.00     0.049 A 
ATOM     51  N   UNL A   1      45.481  27.425  30.799  1.00  0.00    -0.248 NA
ATOM     52  C   UNL A   1      45.832  25.631  29.347  1.00  0.00     0.031 C 
ATOM     53  C   UNL A   1      41.149  27.436  29.678  1.00  0.00     0.029 A 
ATOM     54  N   UNL A   1      42.731  28.423  30.917  1.00  0.00    -0.354 N 
ATOM     55  C   UNL A   1      46.816  27.044  30.849  1.00  0.00     0.074 A 
ATOM     56  C   UNL A   1      46.971  25.915  29.958  1.00  0.00     0.031 C 
ATOM     57  C   UNL A   1      40.561  28.420  30.384  1.00  0.00     0.029 A 
ATOM     58  C   UNL A   1      41.556  29.060  31.244  1.00  0.00     0.049 A 
ATOM     59  H   UNL A   1      43.605  28.679  31.292  1.00  0.00     0.167 HD
ATOM     60  C   UNL A   1      47.830  27.588  31.563  1.00  0.00     0.034 A 
ATOM     61  C   UNL A   1      41.309  30.027  32.154  1.00  0.00     0.034 A 
ATOM     62  C   UNL A   1      47.684  28.716  32.439  1.00  0.00     0.049 A 
ATOM     63  C   UNL A   1      42.450  30.588  32.968  1.00  0.00     0.074 A 
ATOM     64  C   UNL A   1      48.663  29.368  33.168  1.00  0.00     0.029 A 
ATOM     65  N   UNL A   1      46.485  29.346  32.726  1.00  0.00    -0.354 N 
ATOM     66  N   UNL A   1      43.727  30.293  32.921  1.00  0.00    -0.248 NA
ATOM     67  C   UNL A   1      42.118  31.640  33.944  1.00  0.00     0.031 C 
ATOM     68  C   UNL A   1      48.047  30.364  33.932  1.00  0.00     0.029 A 
ATOM     69  C   UNL A   1      46.693  30.368  33.638  1.00  0.00     0.049 A 
ATOM     70  H   UNL A   1      45.611  29.104  32.339  1.00  0.00     0.167 HD
ATOM     71  C   UNL A   1      44.352  31.149  33.824  1.00  0.00     0.074 A 
ATOM     72  C   UNL A   1      43.317  31.986  34.393  1.00  0.00     0.031 C 
ATOM     73  C   UNL A   1      45.664  31.230  34.159  1.00  0.00     0.034 A 
BRANCH  60  74
ATOM     74  C   UNL A   1      49.193  26.964  31.427  1.00  0.00     0.023 A 
ATOM     75  C   UNL A   1      49.565  25.889  32.259  1.00  0.00     0.012 A 
ATOM     76  C   UNL A   1      50.088  27.415  30.438  1.00  0.00     0.148 A 
ATOM     77  C   UNL A   1      50.819  25.293  32.129  1.00  0.00     0.002 A 
ATOM     78  C   UNL A   1      51.316  26.785  30.282  1.00  0.00     0.091 A 
ATOM     79  F   UNL A   1      49.725  28.455  29.673  1.00  0.00    -0.205 F 
ATOM     80  C   UNL A   1      51.688  25.733  31.135  1.00  0.00     0.022 A 
BRANCH  78  81
ATOM     81  S   UNL A   1      52.471  27.222  28.979  1.00  0.00     0.127 S 
ATOM     82  O   UNL A   1      53.020  28.480  29.484  1.00  0.00    -0.237 OA
ATOM     83  O   UNL A   1      53.403  26.096  29.006  1.00  0.00    -0.237 OA
ATOM     84  O   UNL A   1      51.681  27.333  27.761  1.00  0.00    -0.744 OA
ENDBRANCH  78  81
ENDBRANCH  60  74
BRANCH  61  85
ATOM     85  C   UNL A   1      39.924  30.549  32.344  1.00  0.00     0.023 A 
ATOM     86  C   UNL A   1      38.926  29.707  32.869  1.00  0.00     0.012 A 
ATOM     87  C   UNL A   1      39.588  31.870  31.985  1.00  0.00     0.148 A 
ATOM     88  C   UNL A   1      37.610  30.157  33.002  1.00  0.00     0.002 A 
ATOM     89  C   UNL A   1      38.290  32.329  32.173  1.00  0.00     0.091 A 
ATOM     90  F   UNL A   1      40.547  32.650  31.467  1.00  0.00    -0.205 F 
ATOM     91  C   UNL A   1      37.295  31.470  32.663  1.00  0.00     0.022 A 
BRANCH  89  92
ATOM     92  S   UNL A   1      37.815  34.035  31.869  1.00  0.00     0.127 S 
ATOM     93  O   UNL A   1      36.381  33.908  31.626  1.00  0.00    -0.237 OA
ATOM     94  O   UNL A   1      38.172  34.673  33.136  1.00  0.00    -0.237 OA
ATOM     95  O   UNL A   1      38.611  34.468  30.728  1.00  0.00    -0.744 OA
ENDBRANCH  89  92
ENDBRANCH  61  85
BRANCH  73  96
ATOM     96  C   UNL A   1      46.082  32.295  35.141  1.00  0.00     0.023 A 
ATOM     97  C   UNL A   1      46.194  31.994  36.513  1.00  0.00     0.012 A 
ATOM     98  C   UNL A   1      46.443  33.581  34.687  1.00  0.00     0.148 A 
ATOM     99  C   UNL A   1      46.621  32.964  37.420  1.00  0.00     0.002 A 
ATOM    100  C   UNL A   1      46.920  34.525  35.588  1.00  0.00     0.091 A 
ATOM    101  F   UNL A   1      46.318  33.854  33.380  1.00  0.00    -0.205 F 
ATOM    102  C   UNL A   1      46.996  34.224  36.957  1.00  0.00     0.022 A 
BRANCH 100 103
ATOM    103  S   UNL A   1      47.522  36.137  35.070  1.00  0.00     0.127 S 
ATOM    104  O   UNL A   1      48.301  36.552  36.234  1.00  0.00    -0.237 OA
ATOM    105  O   UNL A   1      48.319  35.803  33.889  1.00  0.00    -0.237 OA
ATOM    106  O   UNL A   1      46.338  36.940  34.794  1.00  0.00    -0.744 OA
ENDBRANCH 100 103
ENDBRANCH  73  96
ENDBRANCH  47  48
ENDBRANCH  40  42
ENDBRANCH  39  40
ENDBRANCH  38  39
ENDBRANCH  37  38
ENDBRANCH  36  37
ENDBRANCH  35  36
ENDBRANCH   1  35
TORSDOF 25
ENDMDL
