MODEL 1
REMARK VINA RESULT:     -10.5      0.000      0.000
REMARK SMILES CN(C)C(=O)Nc1cccc(/C=C/C(=O)OCCOCCOCCOC(=O)c2ccc(-c3c4nc(c(-c5cccc(S(=O)(=O)[O-])c5F)c5ccc([nH]5)c(-c5cccc(S(=O)(=O)[O-])c5F)c5nc(c(-c6cccc(S(=O)(=O)[O-])c6F)c6ccc3[nH]6)C=C5)C=C4)cc2)n1
REMARK SMILES IDX 21 1 20 2 19 3 18 4 17 5 16 6 14 7 15 8 13 9 12 10 11 11
REMARK SMILES IDX 7 12 8 13 91 14 9 15 10 16 6 17 1 18 2 19 3 20 4 21 5 22
REMARK SMILES IDX 22 24 23 25 24 26 25 27 26 28 27 29 28 30 29 31 90 32 30 33
REMARK SMILES IDX 89 34 31 35 32 36 33 37 83 38 34 39 88 40 82 41 84 42 35 43
REMARK SMILES IDX 87 44 81 45 80 46 36 48 68 49 48 50 67 51 49 52 52 53 66 54
REMARK SMILES IDX 85 55 50 56 51 57 65 59 86 60 53 61 37 62 38 63 46 64 39 65
REMARK SMILES IDX 41 66 47 67 40 68 42 69 43 70 44 71 45 72 69 73 70 74 78 75
REMARK SMILES IDX 71 76 73 77 79 78 72 79 74 80 75 81 76 82 77 83 54 84 55 85
REMARK SMILES IDX 63 86 56 87 58 88 64 89 57 90 59 91 60 92 61 93 62 94
REMARK H PARENT 6 23 84 47 52 58
REMARK Flexibility Score: inf
ROOT
ATOM      1  C   UNL A   1      31.254  29.109  25.085  1.00  0.00     0.188 C 
ENDROOT
BRANCH   1   2
ATOM      2  C   UNL A   1      32.445  28.305  25.638  1.00  0.00     0.188 C 
BRANCH   2   3
ATOM      3  O   UNL A   1      33.731  28.576  25.125  1.00  0.00    -0.376 OA
BRANCH   3   4
ATOM      4  C   UNL A   1      34.007  28.450  23.742  1.00  0.00     0.202 C 
BRANCH   4   5
ATOM      5  C   UNL A   1      32.971  28.112  22.656  1.00  0.00     0.261 C 
BRANCH   5   6
ATOM      6  O   UNL A   1      32.329  26.838  22.746  1.00  0.00    -0.460 OA
BRANCH   6   7
ATOM      7  C   UNL A   1      33.043  25.794  22.255  1.00  0.00     0.330 C 
ATOM      8  O   UNL A   1      33.588  25.736  21.163  1.00  0.00    -0.247 OA
BRANCH   7   9
ATOM      9  C   UNL A   1      33.203  24.725  23.258  1.00  0.00     0.095 C 
ATOM     10  C   UNL A   1      34.212  24.664  24.140  1.00  0.00     0.036 C 
BRANCH  10  11
ATOM     11  C   UNL A   1      34.334  23.580  25.124  1.00  0.00     0.066 A 
ATOM     12  C   UNL A   1      34.809  21.351  25.516  1.00  0.00     0.134 A 
ATOM     13  C   UNL A   1      34.413  21.450  26.841  1.00  0.00     0.047 A 
ATOM     14  N   UNL A   1      34.832  22.406  24.679  1.00  0.00    -0.231 NA
ATOM     15  C   UNL A   1      33.957  22.680  27.307  1.00  0.00     0.006 A 
ATOM     16  C   UNL A   1      33.899  23.760  26.431  1.00  0.00     0.028 A 
BRANCH  12  17
ATOM     17  N   UNL A   1      35.186  20.145  24.942  1.00  0.00    -0.292 N 
ATOM     18  C   UNL A   1      32.488  17.862  23.941  1.00  0.00     0.148 C 
ATOM     19  N   UNL A   1      33.149  19.107  24.290  1.00  0.00    -0.331 N 
ATOM     20  C   UNL A   1      32.442  20.317  23.892  1.00  0.00     0.148 C 
ATOM     21  C   UNL A   1      34.481  19.024  24.655  1.00  0.00     0.322 C 
ATOM     22  O   UNL A   1      35.090  17.952  24.614  1.00  0.00    -0.248 OA
ATOM     23  H   UNL A   1      36.139  20.096  24.700  1.00  0.00     0.173 HD
ENDBRANCH  12  17
ENDBRANCH  10  11
ENDBRANCH   7   9
ENDBRANCH   6   7
ENDBRANCH   5   6
ENDBRANCH   4   5
ENDBRANCH   3   4
ENDBRANCH   2   3
ENDBRANCH   1   2
BRANCH   1  24
ATOM     24  O   UNL A   1      31.149  30.493  25.347  1.00  0.00    -0.376 OA
BRANCH  24  25
ATOM     25  C   UNL A   1      31.770  31.049  26.496  1.00  0.00     0.202 C 
BRANCH  25  26
ATOM     26  C   UNL A   1      31.719  32.535  26.906  1.00  0.00     0.261 C 
BRANCH  26  27
ATOM     27  O   UNL A   1      32.935  33.283  26.857  1.00  0.00    -0.460 OA
BRANCH  27  28
ATOM     28  C   UNL A   1      33.300  33.874  28.019  1.00  0.00     0.338 C 
ATOM     29  O   UNL A   1      32.670  34.712  28.653  1.00  0.00    -0.246 OA
BRANCH  28  30
ATOM     30  C   UNL A   1      34.520  33.226  28.524  1.00  0.00     0.060 A 
ATOM     31  C   UNL A   1      34.407  31.990  29.175  1.00  0.00     0.016 A 
ATOM     32  C   UNL A   1      35.762  33.847  28.385  1.00  0.00     0.016 A 
ATOM     33  C   UNL A   1      35.539  31.373  29.701  1.00  0.00     0.010 A 
ATOM     34  C   UNL A   1      36.893  33.236  28.933  1.00  0.00     0.010 A 
ATOM     35  C   UNL A   1      36.784  32.009  29.614  1.00  0.00    -0.014 A 
BRANCH  35  36
ATOM     36  C   UNL A   1      37.946  31.463  30.353  1.00  0.00     0.031 A 
ATOM     37  C   UNL A   1      38.789  30.405  29.698  1.00  0.00     0.074 A 
ATOM     38  C   UNL A   1      38.237  31.890  31.595  1.00  0.00     0.049 A 
ATOM     39  N   UNL A   1      39.814  29.749  30.177  1.00  0.00    -0.248 NA
ATOM     40  C   UNL A   1      38.425  30.033  28.321  1.00  0.00     0.031 C 
ATOM     41  C   UNL A   1      37.498  32.913  32.332  1.00  0.00     0.029 A 
ATOM     42  N   UNL A   1      39.217  31.486  32.466  1.00  0.00    -0.354 N 
ATOM     43  C   UNL A   1      40.198  28.866  29.176  1.00  0.00     0.074 A 
ATOM     44  C   UNL A   1      39.291  29.063  28.065  1.00  0.00     0.031 C 
ATOM     45  C   UNL A   1      38.030  33.033  33.560  1.00  0.00     0.029 A 
ATOM     46  C   UNL A   1      39.127  32.076  33.703  1.00  0.00     0.049 A 
ATOM     47  H   UNL A   1      39.919  30.837  32.228  1.00  0.00     0.167 HD
ATOM     48  C   UNL A   1      41.218  27.977  29.177  1.00  0.00     0.034 A 
ATOM     49  C   UNL A   1      39.829  31.849  34.832  1.00  0.00     0.034 A 
ATOM     50  C   UNL A   1      42.126  27.791  30.276  1.00  0.00     0.049 A 
ATOM     51  C   UNL A   1      40.942  30.832  34.817  1.00  0.00     0.074 A 
ATOM     52  C   UNL A   1      43.225  26.953  30.352  1.00  0.00     0.029 A 
ATOM     53  N   UNL A   1      42.031  28.436  31.500  1.00  0.00    -0.354 N 
ATOM     54  N   UNL A   1      41.372  30.091  33.824  1.00  0.00    -0.248 NA
ATOM     55  C   UNL A   1      41.689  30.644  36.069  1.00  0.00     0.031 C 
ATOM     56  C   UNL A   1      43.771  27.063  31.635  1.00  0.00     0.029 A 
ATOM     57  C   UNL A   1      43.038  28.000  32.344  1.00  0.00     0.049 A 
ATOM     58  H   UNL A   1      41.349  29.106  31.734  1.00  0.00     0.167 HD
ATOM     59  C   UNL A   1      42.458  29.377  34.322  1.00  0.00     0.074 A 
ATOM     60  C   UNL A   1      42.634  29.791  35.698  1.00  0.00     0.031 C 
ATOM     61  C   UNL A   1      43.233  28.453  33.699  1.00  0.00     0.034 A 
BRANCH  48  62
ATOM     62  C   UNL A   1      41.417  27.140  27.940  1.00  0.00     0.023 A 
ATOM     63  C   UNL A   1      42.043  27.699  26.807  1.00  0.00     0.012 A 
ATOM     64  C   UNL A   1      41.034  25.784  27.921  1.00  0.00     0.148 A 
ATOM     65  C   UNL A   1      42.254  26.932  25.662  1.00  0.00     0.002 A 
ATOM     66  C   UNL A   1      41.290  25.014  26.793  1.00  0.00     0.091 A 
ATOM     67  F   UNL A   1      40.421  25.278  28.999  1.00  0.00    -0.205 F 
ATOM     68  C   UNL A   1      41.888  25.589  25.659  1.00  0.00     0.022 A 
BRANCH  66  69
ATOM     69  S   UNL A   1      40.929  23.257  26.719  1.00  0.00     0.127 S 
ATOM     70  O   UNL A   1      41.778  22.827  25.607  1.00  0.00    -0.237 OA
ATOM     71  O   UNL A   1      41.371  22.796  28.035  1.00  0.00    -0.237 OA
ATOM     72  O   UNL A   1      39.496  23.148  26.486  1.00  0.00    -0.744 OA
ENDBRANCH  66  69
ENDBRANCH  48  62
BRANCH  49  73
ATOM     73  C   UNL A   1      39.514  32.612  36.073  1.00  0.00     0.023 A 
ATOM     74  C   UNL A   1      40.134  33.855  36.303  1.00  0.00     0.012 A 
ATOM     75  C   UNL A   1      38.599  32.115  37.021  1.00  0.00     0.148 A 
ATOM     76  C   UNL A   1      39.875  34.574  37.471  1.00  0.00     0.002 A 
ATOM     77  C   UNL A   1      38.302  32.862  38.155  1.00  0.00     0.091 A 
ATOM     78  F   UNL A   1      38.031  30.923  36.792  1.00  0.00    -0.205 F 
ATOM     79  C   UNL A   1      38.951  34.083  38.391  1.00  0.00     0.022 A 
BRANCH  77  80
ATOM     80  S   UNL A   1      37.041  32.367  39.334  1.00  0.00     0.127 S 
ATOM     81  O   UNL A   1      37.247  33.329  40.414  1.00  0.00    -0.237 OA
ATOM     82  O   UNL A   1      35.814  32.563  38.562  1.00  0.00    -0.237 OA
ATOM     83  O   UNL A   1      37.330  30.979  39.664  1.00  0.00    -0.744 OA
ENDBRANCH  77  80
ENDBRANCH  49  73
BRANCH  61  84
ATOM     84  C   UNL A   1      44.372  27.847  34.480  1.00  0.00     0.023 A 
ATOM     85  C   UNL A   1      45.612  28.512  34.550  1.00  0.00     0.012 A 
ATOM     86  C   UNL A   1      44.188  26.653  35.208  1.00  0.00     0.148 A 
ATOM     87  C   UNL A   1      46.661  27.983  35.302  1.00  0.00     0.002 A 
ATOM     88  C   UNL A   1      45.220  26.159  35.996  1.00  0.00     0.091 A 
ATOM     89  F   UNL A   1      43.007  26.025  35.118  1.00  0.00    -0.205 F 
ATOM     90  C   UNL A   1      46.461  26.814  36.033  1.00  0.00     0.022 A 
BRANCH  88  91
ATOM     91  S   UNL A   1      45.026  24.717  37.050  1.00  0.00     0.127 S 
ATOM     92  O   UNL A   1      46.390  24.520  37.540  1.00  0.00    -0.237 OA
ATOM     93  O   UNL A   1      44.080  25.194  38.058  1.00  0.00    -0.237 OA
ATOM     94  O   UNL A   1      44.513  23.657  36.193  1.00  0.00    -0.744 OA
ENDBRANCH  88  91
ENDBRANCH  61  84
ENDBRANCH  35  36
ENDBRANCH  28  30
ENDBRANCH  27  28
ENDBRANCH  26  27
ENDBRANCH  25  26
ENDBRANCH  24  25
ENDBRANCH   1  24
TORSDOF 22
ENDMDL
MODEL 2
REMARK VINA RESULT:     -10.0      1.050      7.524
REMARK SMILES CN(C)C(=O)Nc1cccc(/C=C/C(=O)OCCOCCOCCOC(=O)c2ccc(-c3c4nc(c(-c5cccc(S(=O)(=O)[O-])c5F)c5ccc([nH]5)c(-c5cccc(S(=O)(=O)[O-])c5F)c5nc(c(-c6cccc(S(=O)(=O)[O-])c6F)c6ccc3[nH]6)C=C5)C=C4)cc2)n1
REMARK SMILES IDX 21 1 20 2 19 3 18 4 17 5 16 6 14 7 15 8 13 9 12 10 11 11
REMARK SMILES IDX 7 12 8 13 91 14 9 15 10 16 6 17 1 18 2 19 3 20 4 21 5 22
REMARK SMILES IDX 22 24 23 25 24 26 25 27 26 28 27 29 28 30 29 31 90 32 30 33
REMARK SMILES IDX 89 34 31 35 32 36 33 37 83 38 34 39 88 40 82 41 84 42 35 43
REMARK SMILES IDX 87 44 81 45 80 46 36 48 68 49 48 50 67 51 49 52 52 53 66 54
REMARK SMILES IDX 85 55 50 56 51 57 65 59 86 60 53 61 37 62 38 63 46 64 39 65
REMARK SMILES IDX 41 66 47 67 40 68 42 69 43 70 44 71 45 72 69 73 70 74 78 75
REMARK SMILES IDX 71 76 73 77 79 78 72 79 74 80 75 81 76 82 77 83 54 84 55 85
REMARK SMILES IDX 63 86 56 87 58 88 64 89 57 90 59 91 60 92 61 93 62 94
REMARK H PARENT 6 23 84 47 52 58
REMARK Flexibility Score: inf
ROOT
ATOM      1  C   UNL A   1      32.469  28.555  27.057  1.00  0.00     0.188 C 
ENDROOT
BRANCH   1   2
ATOM      2  C   UNL A   1      31.512  27.441  26.593  1.00  0.00     0.188 C 
BRANCH   2   3
ATOM      3  O   UNL A   1      31.684  26.908  25.298  1.00  0.00    -0.376 OA
BRANCH   3   4
ATOM      4  C   UNL A   1      31.052  27.496  24.176  1.00  0.00     0.202 C 
BRANCH   4   5
ATOM      5  C   UNL A   1      31.370  27.171  22.705  1.00  0.00     0.261 C 
BRANCH   5   6
ATOM      6  O   UNL A   1      32.750  27.073  22.346  1.00  0.00    -0.460 OA
BRANCH   6   7
ATOM      7  C   UNL A   1      33.154  25.846  21.931  1.00  0.00     0.330 C 
ATOM      8  O   UNL A   1      33.268  25.472  20.775  1.00  0.00    -0.247 OA
BRANCH   7   9
ATOM      9  C   UNL A   1      33.571  25.000  23.064  1.00  0.00     0.095 C 
ATOM     10  C   UNL A   1      33.944  23.716  22.949  1.00  0.00     0.036 C 
BRANCH  10  11
ATOM     11  C   UNL A   1      34.353  22.907  24.105  1.00  0.00     0.066 A 
ATOM     12  C   UNL A   1      33.954  21.044  25.415  1.00  0.00     0.134 A 
ATOM     13  C   UNL A   1      34.914  21.429  26.339  1.00  0.00     0.047 A 
ATOM     14  N   UNL A   1      33.713  21.731  24.282  1.00  0.00    -0.231 NA
ATOM     15  C   UNL A   1      35.612  22.612  26.116  1.00  0.00     0.006 A 
ATOM     16  C   UNL A   1      35.316  23.375  24.990  1.00  0.00     0.028 A 
BRANCH  12  17
ATOM     17  N   UNL A   1      33.146  19.932  25.604  1.00  0.00    -0.292 N 
ATOM     18  C   UNL A   1      34.023  16.899  23.726  1.00  0.00     0.148 C 
ATOM     19  N   UNL A   1      34.190  18.192  24.367  1.00  0.00    -0.331 N 
ATOM     20  C   UNL A   1      35.571  18.581  24.626  1.00  0.00     0.148 C 
ATOM     21  C   UNL A   1      33.064  18.754  24.940  1.00  0.00     0.322 C 
ATOM     22  O   UNL A   1      31.989  18.149  24.965  1.00  0.00    -0.248 OA
ATOM     23  H   UNL A   1      32.519  20.014  26.359  1.00  0.00     0.173 HD
ENDBRANCH  12  17
ENDBRANCH  10  11
ENDBRANCH   7   9
ENDBRANCH   6   7
ENDBRANCH   5   6
ENDBRANCH   4   5
ENDBRANCH   3   4
ENDBRANCH   2   3
ENDBRANCH   1   2
BRANCH   1  24
ATOM     24  O   UNL A   1      31.994  29.874  27.223  1.00  0.00    -0.376 OA
BRANCH  24  25
ATOM     25  C   UNL A   1      32.833  30.977  26.919  1.00  0.00     0.202 C 
BRANCH  25  26
ATOM     26  C   UNL A   1      32.407  32.459  26.954  1.00  0.00     0.261 C 
BRANCH  26  27
ATOM     27  O   UNL A   1      32.878  33.264  28.035  1.00  0.00    -0.460 OA
BRANCH  27  28
ATOM     28  C   UNL A   1      34.052  33.901  27.816  1.00  0.00     0.338 C 
ATOM     29  O   UNL A   1      34.229  34.927  27.168  1.00  0.00    -0.246 OA
BRANCH  28  30
ATOM     30  C   UNL A   1      35.100  33.269  28.632  1.00  0.00     0.060 A 
ATOM     31  C   UNL A   1      36.434  33.642  28.421  1.00  0.00     0.016 A 
ATOM     32  C   UNL A   1      34.773  32.294  29.574  1.00  0.00     0.016 A 
ATOM     33  C   UNL A   1      37.452  33.030  29.149  1.00  0.00     0.010 A 
ATOM     34  C   UNL A   1      35.798  31.666  30.287  1.00  0.00     0.010 A 
ATOM     35  C   UNL A   1      37.143  32.013  30.061  1.00  0.00    -0.014 A 
BRANCH  35  36
ATOM     36  C   UNL A   1      38.230  31.217  30.678  1.00  0.00     0.031 A 
ATOM     37  C   UNL A   1      38.642  31.524  32.090  1.00  0.00     0.074 A 
ATOM     38  C   UNL A   1      38.853  30.247  29.984  1.00  0.00     0.049 A 
ATOM     39  N   UNL A   1      39.601  30.996  32.806  1.00  0.00    -0.248 NA
ATOM     40  C   UNL A   1      37.875  32.570  32.787  1.00  0.00     0.031 C 
ATOM     41  C   UNL A   1      38.539  29.854  28.612  1.00  0.00     0.029 A 
ATOM     42  N   UNL A   1      39.904  29.438  30.337  1.00  0.00    -0.354 N 
ATOM     43  C   UNL A   1      39.574  31.664  34.024  1.00  0.00     0.074 A 
ATOM     44  C   UNL A   1      38.510  32.643  33.947  1.00  0.00     0.031 C 
ATOM     45  C   UNL A   1      39.404  28.901  28.225  1.00  0.00     0.029 A 
ATOM     46  C   UNL A   1      40.348  28.639  29.312  1.00  0.00     0.049 A 
ATOM     47  H   UNL A   1      40.301  29.430  31.238  1.00  0.00     0.167 HD
ATOM     48  C   UNL A   1      40.358  31.476  35.110  1.00  0.00     0.034 A 
ATOM     49  C   UNL A   1      41.412  27.813  29.247  1.00  0.00     0.034 A 
ATOM     50  C   UNL A   1      41.406  30.495  35.189  1.00  0.00     0.049 A 
ATOM     51  C   UNL A   1      42.288  27.642  30.461  1.00  0.00     0.074 A 
ATOM     52  C   UNL A   1      42.220  30.190  36.266  1.00  0.00     0.029 A 
ATOM     53  N   UNL A   1      41.802  29.672  34.145  1.00  0.00    -0.354 N 
ATOM     54  N   UNL A   1      42.177  28.191  31.647  1.00  0.00    -0.248 NA
ATOM     55  C   UNL A   1      43.420  26.710  30.339  1.00  0.00     0.031 C 
ATOM     56  C   UNL A   1      43.133  29.211  35.860  1.00  0.00     0.029 A 
ATOM     57  C   UNL A   1      42.861  28.876  34.545  1.00  0.00     0.049 A 
ATOM     58  H   UNL A   1      41.389  29.656  33.251  1.00  0.00     0.167 HD
ATOM     59  C   UNL A   1      43.198  27.647  32.419  1.00  0.00     0.074 A 
ATOM     60  C   UNL A   1      43.906  26.708  31.573  1.00  0.00     0.031 C 
ATOM     61  C   UNL A   1      43.529  27.910  33.709  1.00  0.00     0.034 A 
BRANCH  48  62
ATOM     62  C   UNL A   1      40.103  32.344  36.315  1.00  0.00     0.023 A 
ATOM     63  C   UNL A   1      40.885  33.498  36.526  1.00  0.00     0.012 A 
ATOM     64  C   UNL A   1      39.054  32.046  37.207  1.00  0.00     0.148 A 
ATOM     65  C   UNL A   1      40.649  34.323  37.624  1.00  0.00     0.002 A 
ATOM     66  C   UNL A   1      38.795  32.898  38.273  1.00  0.00     0.091 A 
ATOM     67  F   UNL A   1      38.338  30.932  37.002  1.00  0.00    -0.205 F 
ATOM     68  C   UNL A   1      39.598  34.030  38.490  1.00  0.00     0.022 A 
BRANCH  66  69
ATOM     69  S   UNL A   1      37.417  32.651  39.397  1.00  0.00     0.127 S 
ATOM     70  O   UNL A   1      36.277  32.695  38.481  1.00  0.00    -0.237 OA
ATOM     71  O   UNL A   1      37.704  31.327  39.949  1.00  0.00    -0.237 OA
ATOM     72  O   UNL A   1      37.483  33.740  40.362  1.00  0.00    -0.744 OA
ENDBRANCH  66  69
ENDBRANCH  48  62
BRANCH  49  73
ATOM     73  C   UNL A   1      41.702  27.067  27.988  1.00  0.00     0.023 A 
ATOM     74  C   UNL A   1      42.262  27.747  26.890  1.00  0.00     0.012 A 
ATOM     75  C   UNL A   1      41.431  25.690  27.879  1.00  0.00     0.148 A 
ATOM     76  C   UNL A   1      42.517  27.075  25.693  1.00  0.00     0.002 A 
ATOM     77  C   UNL A   1      41.738  25.014  26.704  1.00  0.00     0.091 A 
ATOM     78  F   UNL A   1      40.882  25.065  28.930  1.00  0.00    -0.205 F 
ATOM     79  C   UNL A   1      42.265  25.708  25.604  1.00  0.00     0.022 A 
BRANCH  77  80
ATOM     80  S   UNL A   1      41.559  23.235  26.538  1.00  0.00     0.127 S 
ATOM     81  O   UNL A   1      42.145  22.757  27.787  1.00  0.00    -0.237 OA
ATOM     82  O   UNL A   1      40.106  23.087  26.444  1.00  0.00    -0.237 OA
ATOM     83  O   UNL A   1      42.281  22.877  25.325  1.00  0.00    -0.744 OA
ENDBRANCH  77  80
ENDBRANCH  49  73
BRANCH  61  84
ATOM     84  C   UNL A   1      44.684  27.148  34.309  1.00  0.00     0.023 A 
ATOM     85  C   UNL A   1      46.003  27.606  34.124  1.00  0.00     0.012 A 
ATOM     86  C   UNL A   1      44.454  26.018  35.121  1.00  0.00     0.148 A 
ATOM     87  C   UNL A   1      47.078  26.933  34.706  1.00  0.00     0.002 A 
ATOM     88  C   UNL A   1      45.524  25.384  35.741  1.00  0.00     0.091 A 
ATOM     89  F   UNL A   1      43.194  25.587  35.275  1.00  0.00    -0.205 F 
ATOM     90  C   UNL A   1      46.837  25.831  35.523  1.00  0.00     0.022 A 
BRANCH  88  91
ATOM     91  S   UNL A   1      45.306  24.019  36.889  1.00  0.00     0.127 S 
ATOM     92  O   UNL A   1      44.832  22.957  36.002  1.00  0.00    -0.237 OA
ATOM     93  O   UNL A   1      46.663  23.825  37.401  1.00  0.00    -0.237 OA
ATOM     94  O   UNL A   1      44.345  24.478  37.882  1.00  0.00    -0.744 OA
ENDBRANCH  88  91
ENDBRANCH  61  84
ENDBRANCH  35  36
ENDBRANCH  28  30
ENDBRANCH  27  28
ENDBRANCH  26  27
ENDBRANCH  25  26
ENDBRANCH  24  25
ENDBRANCH   1  24
TORSDOF 22
ENDMDL
MODEL 3
REMARK VINA RESULT:      -9.9      1.824      2.605
REMARK SMILES CN(C)C(=O)Nc1cccc(/C=C/C(=O)OCCOCCOCCOC(=O)c2ccc(-c3c4nc(c(-c5cccc(S(=O)(=O)[O-])c5F)c5ccc([nH]5)c(-c5cccc(S(=O)(=O)[O-])c5F)c5nc(c(-c6cccc(S(=O)(=O)[O-])c6F)c6ccc3[nH]6)C=C5)C=C4)cc2)n1
REMARK SMILES IDX 21 1 20 2 19 3 18 4 17 5 16 6 14 7 15 8 13 9 12 10 11 11
REMARK SMILES IDX 7 12 8 13 91 14 9 15 10 16 6 17 1 18 2 19 3 20 4 21 5 22
REMARK SMILES IDX 22 24 23 25 24 26 25 27 26 28 27 29 28 30 29 31 90 32 30 33
REMARK SMILES IDX 89 34 31 35 32 36 33 37 83 38 34 39 88 40 82 41 84 42 35 43
REMARK SMILES IDX 87 44 81 45 80 46 36 48 68 49 48 50 67 51 49 52 52 53 66 54
REMARK SMILES IDX 85 55 50 56 51 57 65 59 86 60 53 61 37 62 38 63 46 64 39 65
REMARK SMILES IDX 41 66 47 67 40 68 42 69 43 70 44 71 45 72 69 73 70 74 78 75
REMARK SMILES IDX 71 76 73 77 79 78 72 79 74 80 75 81 76 82 77 83 54 84 55 85
REMARK SMILES IDX 63 86 56 87 58 88 64 89 57 90 59 91 60 92 61 93 62 94
REMARK H PARENT 6 23 84 47 52 58
REMARK Flexibility Score: inf
ROOT
ATOM      1  C   UNL A   1      33.118  29.192  26.219  1.00  0.00     0.188 C 
ENDROOT
BRANCH   1   2
ATOM      2  C   UNL A   1      31.840  28.427  25.826  1.00  0.00     0.188 C 
BRANCH   2   3
ATOM      3  O   UNL A   1      31.973  27.263  25.039  1.00  0.00    -0.376 OA
BRANCH   3   4
ATOM      4  C   UNL A   1      31.062  26.981  23.992  1.00  0.00     0.202 C 
BRANCH   4   5
ATOM      5  C   UNL A   1      31.430  26.858  22.503  1.00  0.00     0.261 C 
BRANCH   5   6
ATOM      6  O   UNL A   1      32.802  26.599  22.193  1.00  0.00    -0.460 OA
BRANCH   6   7
ATOM      7  C   UNL A   1      33.032  25.456  21.498  1.00  0.00     0.330 C 
ATOM      8  O   UNL A   1      33.073  25.341  20.283  1.00  0.00    -0.247 OA
BRANCH   7   9
ATOM      9  C   UNL A   1      33.356  24.331  22.394  1.00  0.00     0.095 C 
ATOM     10  C   UNL A   1      32.585  23.244  22.548  1.00  0.00     0.036 C 
BRANCH  10  11
ATOM     11  C   UNL A   1      32.945  22.144  23.452  1.00  0.00     0.066 A 
ATOM     12  C   UNL A   1      34.623  21.021  24.580  1.00  0.00     0.134 A 
ATOM     13  C   UNL A   1      33.750  20.021  24.982  1.00  0.00     0.047 A 
ATOM     14  N   UNL A   1      34.226  22.101  23.880  1.00  0.00    -0.231 NA
ATOM     15  C   UNL A   1      32.418  20.106  24.586  1.00  0.00     0.006 A 
ATOM     16  C   UNL A   1      32.010  21.175  23.794  1.00  0.00     0.028 A 
BRANCH  12  17
ATOM     17  N   UNL A   1      35.983  20.969  24.847  1.00  0.00    -0.292 N 
ATOM     18  C   UNL A   1      37.506  23.970  26.321  1.00  0.00     0.148 C 
ATOM     19  N   UNL A   1      36.475  23.016  25.952  1.00  0.00    -0.331 N 
ATOM     20  C   UNL A   1      35.230  23.127  26.702  1.00  0.00     0.148 C 
ATOM     21  C   UNL A   1      36.873  21.933  25.188  1.00  0.00     0.322 C 
ATOM     22  O   UNL A   1      38.059  21.755  24.899  1.00  0.00    -0.248 OA
ATOM     23  H   UNL A   1      36.373  20.068  24.776  1.00  0.00     0.173 HD
ENDBRANCH  12  17
ENDBRANCH  10  11
ENDBRANCH   7   9
ENDBRANCH   6   7
ENDBRANCH   5   6
ENDBRANCH   4   5
ENDBRANCH   3   4
ENDBRANCH   2   3
ENDBRANCH   1   2
BRANCH   1  24
ATOM     24  O   UNL A   1      33.029  30.374  26.985  1.00  0.00    -0.376 OA
BRANCH  24  25
ATOM     25  C   UNL A   1      32.066  31.365  26.659  1.00  0.00     0.202 C 
BRANCH  25  26
ATOM     26  C   UNL A   1      32.045  32.805  27.211  1.00  0.00     0.261 C 
BRANCH  26  27
ATOM     27  O   UNL A   1      33.295  33.477  27.368  1.00  0.00    -0.460 OA
BRANCH  27  28
ATOM     28  C   UNL A   1      33.362  34.342  28.408  1.00  0.00     0.338 C 
ATOM     29  O   UNL A   1      32.547  35.208  28.705  1.00  0.00    -0.246 OA
BRANCH  28  30
ATOM     30  C   UNL A   1      34.501  33.975  29.264  1.00  0.00     0.060 A 
ATOM     31  C   UNL A   1      35.800  34.219  28.797  1.00  0.00     0.016 A 
ATOM     32  C   UNL A   1      34.291  33.366  30.501  1.00  0.00     0.016 A 
ATOM     33  C   UNL A   1      36.899  33.845  29.566  1.00  0.00     0.010 A 
ATOM     34  C   UNL A   1      35.396  32.971  31.260  1.00  0.00     0.010 A 
ATOM     35  C   UNL A   1      36.703  33.186  30.787  1.00  0.00    -0.014 A 
BRANCH  35  36
ATOM     36  C   UNL A   1      37.860  32.599  31.503  1.00  0.00     0.031 A 
ATOM     37  C   UNL A   1      38.590  31.444  30.877  1.00  0.00     0.074 A 
ATOM     38  C   UNL A   1      38.244  33.076  32.701  1.00  0.00     0.049 A 
ATOM     39  N   UNL A   1      39.589  30.743  31.348  1.00  0.00    -0.248 NA
ATOM     40  C   UNL A   1      38.130  31.020  29.545  1.00  0.00     0.031 C 
ATOM     41  C   UNL A   1      37.619  34.193  33.406  1.00  0.00     0.029 A 
ATOM     42  N   UNL A   1      39.237  32.652  33.549  1.00  0.00    -0.354 N 
ATOM     43  C   UNL A   1      39.856  29.776  30.387  1.00  0.00     0.074 A 
ATOM     44  C   UNL A   1      38.909  29.975  29.311  1.00  0.00     0.031 C 
ATOM     45  C   UNL A   1      38.221  34.346  34.598  1.00  0.00     0.029 A 
ATOM     46  C   UNL A   1      39.253  33.320  34.750  1.00  0.00     0.049 A 
ATOM     47  H   UNL A   1      39.876  31.940  33.319  1.00  0.00     0.167 HD
ATOM     48  C   UNL A   1      40.809  28.815  30.396  1.00  0.00     0.034 A 
ATOM     49  C   UNL A   1      39.994  33.108  35.856  1.00  0.00     0.034 A 
ATOM     50  C   UNL A   1      41.756  28.627  31.461  1.00  0.00     0.049 A 
ATOM     51  C   UNL A   1      41.029  32.012  35.852  1.00  0.00     0.074 A 
ATOM     52  C   UNL A   1      42.795  27.715  31.538  1.00  0.00     0.029 A 
ATOM     53  N   UNL A   1      41.771  29.349  32.645  1.00  0.00    -0.354 N 
ATOM     54  N   UNL A   1      41.353  31.183  34.889  1.00  0.00    -0.248 NA
ATOM     55  C   UNL A   1      41.824  31.842  37.078  1.00  0.00     0.031 C 
ATOM     56  C   UNL A   1      43.412  27.860  32.784  1.00  0.00     0.029 A 
ATOM     57  C   UNL A   1      42.786  28.890  33.467  1.00  0.00     0.049 A 
ATOM     58  H   UNL A   1      41.151  30.081  32.868  1.00  0.00     0.167 HD
ATOM     59  C   UNL A   1      42.409  30.420  35.379  1.00  0.00     0.074 A 
ATOM     60  C   UNL A   1      42.684  30.901  36.717  1.00  0.00     0.031 C 
ATOM     61  C   UNL A   1      43.082  29.406  34.780  1.00  0.00     0.034 A 
BRANCH  48  62
ATOM     62  C   UNL A   1      40.883  27.894  29.206  1.00  0.00     0.023 A 
ATOM     63  C   UNL A   1      39.972  26.824  29.089  1.00  0.00     0.012 A 
ATOM     64  C   UNL A   1      41.820  28.121  28.179  1.00  0.00     0.148 A 
ATOM     65  C   UNL A   1      40.013  25.975  27.984  1.00  0.00     0.002 A 
ATOM     66  C   UNL A   1      41.824  27.299  27.059  1.00  0.00     0.091 A 
ATOM     67  F   UNL A   1      42.692  29.129  28.320  1.00  0.00    -0.205 F 
ATOM     68  C   UNL A   1      40.931  26.219  26.965  1.00  0.00     0.022 A 
BRANCH  66  69
ATOM     69  S   UNL A   1      42.913  27.577  25.658  1.00  0.00     0.127 S 
ATOM     70  O   UNL A   1      42.113  28.487  24.838  1.00  0.00    -0.237 OA
ATOM     71  O   UNL A   1      44.078  28.195  26.292  1.00  0.00    -0.237 OA
ATOM     72  O   UNL A   1      43.162  26.267  25.073  1.00  0.00    -0.744 OA
ENDBRANCH  66  69
ENDBRANCH  48  62
BRANCH  49  73
ATOM     73  C   UNL A   1      39.798  33.965  37.060  1.00  0.00     0.023 A 
ATOM     74  C   UNL A   1      40.275  35.290  37.057  1.00  0.00     0.012 A 
ATOM     75  C   UNL A   1      39.138  33.475  38.203  1.00  0.00     0.148 A 
ATOM     76  C   UNL A   1      40.127  36.101  38.183  1.00  0.00     0.002 A 
ATOM     77  C   UNL A   1      38.944  34.305  39.301  1.00  0.00     0.091 A 
ATOM     78  F   UNL A   1      38.706  32.206  38.192  1.00  0.00    -0.205 F 
ATOM     79  C   UNL A   1      39.453  35.613  39.299  1.00  0.00     0.022 A 
BRANCH  77  80
ATOM     80  S   UNL A   1      37.986  33.803  40.734  1.00  0.00     0.127 S 
ATOM     81  O   UNL A   1      37.786  35.077  41.421  1.00  0.00    -0.237 OA
ATOM     82  O   UNL A   1      36.785  33.244  40.113  1.00  0.00    -0.237 OA
ATOM     83  O   UNL A   1      38.809  32.830  41.439  1.00  0.00    -0.744 OA
ENDBRANCH  77  80
ENDBRANCH  49  73
BRANCH  61  84
ATOM     84  C   UNL A   1      44.213  28.763  35.543  1.00  0.00     0.023 A 
ATOM     85  C   UNL A   1      45.520  29.278  35.433  1.00  0.00     0.012 A 
ATOM     86  C   UNL A   1      43.966  27.695  36.429  1.00  0.00     0.148 A 
ATOM     87  C   UNL A   1      46.568  28.719  36.164  1.00  0.00     0.002 A 
ATOM     88  C   UNL A   1      45.005  27.177  37.193  1.00  0.00     0.091 A 
ATOM     89  F   UNL A   1      42.719  27.208  36.511  1.00  0.00    -0.205 F 
ATOM     90  C   UNL A   1      46.308  27.678  37.052  1.00  0.00     0.022 A 
BRANCH  88  91
ATOM     91  S   UNL A   1      44.749  25.903  38.435  1.00  0.00     0.127 S 
ATOM     92  O   UNL A   1      44.011  24.893  37.678  1.00  0.00    -0.237 OA
ATOM     93  O   UNL A   1      46.120  25.526  38.779  1.00  0.00    -0.237 OA
ATOM     94  O   UNL A   1      44.008  26.537  39.516  1.00  0.00    -0.744 OA
ENDBRANCH  88  91
ENDBRANCH  61  84
ENDBRANCH  35  36
ENDBRANCH  28  30
ENDBRANCH  27  28
ENDBRANCH  26  27
ENDBRANCH  25  26
ENDBRANCH  24  25
ENDBRANCH   1  24
TORSDOF 22
ENDMDL
