MODEL 1
REMARK VINA RESULT:     -10.9      0.000      0.000
REMARK SMILES O=C(OCCOCCOCCOC(=O)[C@@H]1CS[C@@H](c2cc(Br)ccc2O)[NH2+]1)c1ccc(-c2c3nc(c(-c4cccc(S(=O)(=O)[O-])c4F)c4ccc([nH]4)c(-c4cccc(S(=O)(=O)[O-])c4F)c4nc(c(-c5cccc(S(=O)(=O)[O-])c5F)c5ccc2[nH]5)C=C4)C=C3)cc1
REMARK SMILES IDX 7 1 6 2 5 3 4 4 3 5 2 6 1 7 28 8 29 9 90 10 30 11 89 12
REMARK SMILES IDX 31 13 32 14 33 15 83 16 34 17 88 18 82 19 84 20 35 21 87 22
REMARK SMILES IDX 81 23 80 24 36 26 68 27 48 28 67 29 49 30 52 31 66 32 85 33
REMARK SMILES IDX 50 34 51 35 65 37 86 38 53 39 37 40 38 41 46 42 39 43 41 44
REMARK SMILES IDX 47 45 40 46 42 47 43 48 44 49 45 50 69 51 70 52 78 53 71 54
REMARK SMILES IDX 73 55 79 56 72 57 74 58 75 59 76 60 77 61 54 62 55 63 63 64
REMARK SMILES IDX 56 65 58 66 64 67 57 68 59 69 60 70 61 71 62 72 8 73 9 74
REMARK SMILES IDX 10 75 11 76 12 77 13 78 14 79 15 80 16 81 27 82 17 83 18 84
REMARK SMILES IDX 19 87 20 88 25 89 21 90 24 91 22 92 23 93 26 94
REMARK H PARENT 84 25 52 36 27 85 27 86 26 95
REMARK Flexibility Score: inf
ROOT
ATOM      1  C   UNL A   1      32.577  28.865  27.046  1.00  0.00     0.188 C 
ENDROOT
BRANCH   1   2
ATOM      2  O   UNL A   1      32.723  30.236  26.676  1.00  0.00    -0.376 OA
BRANCH   2   3
ATOM      3  C   UNL A   1      31.505  30.903  26.326  1.00  0.00     0.202 C 
BRANCH   3   4
ATOM      4  C   UNL A   1      31.384  32.389  26.730  1.00  0.00     0.261 C 
BRANCH   4   5
ATOM      5  O   UNL A   1      32.637  33.099  26.820  1.00  0.00    -0.460 OA
BRANCH   5   6
ATOM      6  C   UNL A   1      33.323  33.480  27.932  1.00  0.00     0.338 C 
ATOM      7  O   UNL A   1      32.876  34.391  28.626  1.00  0.00    -0.246 OA
BRANCH   6   8
ATOM      8  C   UNL A   1      34.601  32.831  28.343  1.00  0.00     0.060 A 
ATOM      9  C   UNL A   1      34.656  31.553  28.879  1.00  0.00     0.016 A 
ATOM     10  C   UNL A   1      35.814  33.503  28.143  1.00  0.00     0.016 A 
ATOM     11  C   UNL A   1      35.814  31.025  29.400  1.00  0.00     0.010 A 
ATOM     12  C   UNL A   1      37.024  32.924  28.558  1.00  0.00     0.010 A 
ATOM     13  C   UNL A   1      37.014  31.702  29.242  1.00  0.00    -0.014 A 
BRANCH  13  14
ATOM     14  C   UNL A   1      38.183  31.119  29.927  1.00  0.00     0.031 A 
ATOM     15  C   UNL A   1      38.427  31.490  31.357  1.00  0.00     0.074 A 
ATOM     16  C   UNL A   1      38.868  30.122  29.332  1.00  0.00     0.049 A 
ATOM     17  N   UNL A   1      39.347  31.053  32.170  1.00  0.00    -0.248 NA
ATOM     18  C   UNL A   1      37.494  32.457  31.965  1.00  0.00     0.031 C 
ATOM     19  C   UNL A   1      38.602  29.608  27.985  1.00  0.00     0.029 A 
ATOM     20  N   UNL A   1      39.895  29.335  29.778  1.00  0.00    -0.354 N 
ATOM     21  C   UNL A   1      39.128  31.715  33.370  1.00  0.00     0.074 A 
ATOM     22  C   UNL A   1      37.992  32.585  33.184  1.00  0.00     0.031 C 
ATOM     23  C   UNL A   1      39.440  28.600  27.711  1.00  0.00     0.029 A 
ATOM     24  C   UNL A   1      40.348  28.440  28.836  1.00  0.00     0.049 A 
ATOM     25  H   UNL A   1      40.272  29.403  30.685  1.00  0.00     0.167 HD
ATOM     26  C   UNL A   1      39.817  31.593  34.526  1.00  0.00     0.034 A 
ATOM     27  C   UNL A   1      41.409  27.615  28.862  1.00  0.00     0.034 A 
ATOM     28  C   UNL A   1      40.943  30.716  34.677  1.00  0.00     0.049 A 
ATOM     29  C   UNL A   1      42.214  27.575  30.128  1.00  0.00     0.074 A 
ATOM     30  C   UNL A   1      41.766  30.550  35.774  1.00  0.00     0.029 A 
ATOM     31  N   UNL A   1      41.408  29.859  33.689  1.00  0.00    -0.354 N 
ATOM     32  N   UNL A   1      42.000  28.211  31.256  1.00  0.00    -0.248 NA
ATOM     33  C   UNL A   1      43.384  26.691  30.141  1.00  0.00     0.031 C 
ATOM     34  C   UNL A   1      42.748  29.614  35.437  1.00  0.00     0.029 A 
ATOM     35  C   UNL A   1      42.513  29.166  34.145  1.00  0.00     0.049 A 
ATOM     36  H   UNL A   1      41.010  29.761  32.794  1.00  0.00     0.167 HD
ATOM     37  C   UNL A   1      42.993  27.787  32.124  1.00  0.00     0.074 A 
ATOM     38  C   UNL A   1      43.785  26.810  31.398  1.00  0.00     0.031 C 
ATOM     39  C   UNL A   1      43.248  28.177  33.397  1.00  0.00     0.034 A 
BRANCH  26  40
ATOM     40  C   UNL A   1      39.383  32.454  35.679  1.00  0.00     0.023 A 
ATOM     41  C   UNL A   1      38.472  31.955  36.633  1.00  0.00     0.012 A 
ATOM     42  C   UNL A   1      39.877  33.765  35.813  1.00  0.00     0.148 A 
ATOM     43  C   UNL A   1      38.036  32.761  37.685  1.00  0.00     0.002 A 
ATOM     44  C   UNL A   1      39.472  34.546  36.887  1.00  0.00     0.091 A 
ATOM     45  F   UNL A   1      40.717  34.227  34.877  1.00  0.00    -0.205 F 
ATOM     46  C   UNL A   1      38.542  34.051  37.816  1.00  0.00     0.022 A 
BRANCH  44  47
ATOM     47  S   UNL A   1      40.112  36.199  37.176  1.00  0.00     0.127 S 
ATOM     48  O   UNL A   1      41.510  35.918  37.510  1.00  0.00    -0.237 OA
ATOM     49  O   UNL A   1      39.915  36.829  35.868  1.00  0.00    -0.237 OA
ATOM     50  O   UNL A   1      39.319  36.759  38.253  1.00  0.00    -0.744 OA
ENDBRANCH  44  47
ENDBRANCH  26  40
BRANCH  27  51
ATOM     51  C   UNL A   1      41.784  26.816  27.661  1.00  0.00     0.023 A 
ATOM     52  C   UNL A   1      42.414  27.429  26.562  1.00  0.00     0.012 A 
ATOM     53  C   UNL A   1      41.510  25.433  27.605  1.00  0.00     0.148 A 
ATOM     54  C   UNL A   1      42.721  26.691  25.416  1.00  0.00     0.002 A 
ATOM     55  C   UNL A   1      41.875  24.692  26.488  1.00  0.00     0.091 A 
ATOM     56  F   UNL A   1      40.897  24.863  28.653  1.00  0.00    -0.205 F 
ATOM     57  C   UNL A   1      42.461  25.323  25.383  1.00  0.00     0.022 A 
BRANCH  55  58
ATOM     58  S   UNL A   1      41.698  22.906  26.433  1.00  0.00     0.127 S 
ATOM     59  O   UNL A   1      40.246  22.751  26.437  1.00  0.00    -0.237 OA
ATOM     60  O   UNL A   1      42.351  22.576  25.165  1.00  0.00    -0.237 OA
ATOM     61  O   UNL A   1      42.400  22.412  27.610  1.00  0.00    -0.744 OA
ENDBRANCH  55  58
ENDBRANCH  27  51
BRANCH  39  62
ATOM     62  C   UNL A   1      44.409  27.516  34.083  1.00  0.00     0.023 A 
ATOM     63  C   UNL A   1      45.691  28.093  34.009  1.00  0.00     0.012 A 
ATOM     64  C   UNL A   1      44.210  26.346  34.838  1.00  0.00     0.148 A 
ATOM     65  C   UNL A   1      46.773  27.485  34.641  1.00  0.00     0.002 A 
ATOM     66  C   UNL A   1      45.280  25.781  35.516  1.00  0.00     0.091 A 
ATOM     67  F   UNL A   1      42.983  25.805  34.874  1.00  0.00    -0.205 F 
ATOM     68  C   UNL A   1      46.565  26.337  35.404  1.00  0.00     0.022 A 
BRANCH  66  69
ATOM     69  S   UNL A   1      45.080  24.371  36.606  1.00  0.00     0.127 S 
ATOM     70  O   UNL A   1      44.097  24.874  37.564  1.00  0.00    -0.237 OA
ATOM     71  O   UNL A   1      44.573  23.345  35.694  1.00  0.00    -0.237 OA
ATOM     72  O   UNL A   1      46.402  24.094  37.152  1.00  0.00    -0.744 OA
ENDBRANCH  66  69
ENDBRANCH  39  62
ENDBRANCH  13  14
ENDBRANCH   6   8
ENDBRANCH   5   6
ENDBRANCH   4   5
ENDBRANCH   3   4
ENDBRANCH   2   3
ENDBRANCH   1   2
BRANCH   1  73
ATOM     73  C   UNL A   1      33.437  27.935  26.187  1.00  0.00     0.188 C 
BRANCH  73  74
ATOM     74  O   UNL A   1      32.747  26.917  25.469  1.00  0.00    -0.376 OA
BRANCH  74  75
ATOM     75  C   UNL A   1      31.340  26.828  25.660  1.00  0.00     0.202 C 
BRANCH  75  76
ATOM     76  C   UNL A   1      30.742  25.511  26.187  1.00  0.00     0.261 C 
BRANCH  76  77
ATOM     77  O   UNL A   1      30.945  24.330  25.389  1.00  0.00    -0.459 OA
BRANCH  77  78
ATOM     78  C   UNL A   1      30.941  23.157  26.096  1.00  0.00     0.365 C 
ATOM     79  O   UNL A   1      29.916  22.614  26.497  1.00  0.00    -0.245 OA
BRANCH  78  80
ATOM     80  C   UNL A   1      32.378  22.660  26.390  1.00  0.00     0.304 C 
ATOM     81  C   UNL A   1      33.492  23.459  25.698  1.00  0.00     0.153 C 
ATOM     82  N   UNL A   1      32.502  21.231  25.996  1.00  0.00    -0.319 N 
ATOM     83  S   UNL A   1      34.175  22.388  24.394  1.00  0.00    -0.087 SA
ATOM     84  C   UNL A   1      32.823  21.220  24.567  1.00  0.00     0.278 C 
ATOM     85  H   UNL A   1      31.623  20.741  26.163  1.00  0.00     0.348 HD
ATOM     86  H   UNL A   1      33.225  20.759  26.540  1.00  0.00     0.348 HD
BRANCH  84  87
ATOM     87  C   UNL A   1      33.006  19.814  24.055  1.00  0.00     0.063 A 
ATOM     88  C   UNL A   1      33.669  18.799  24.768  1.00  0.00     0.030 A 
ATOM     89  C   UNL A   1      32.374  19.456  22.852  1.00  0.00     0.125 A 
ATOM     90  C   UNL A   1      33.683  17.488  24.277  1.00  0.00     0.018 A 
ATOM     91  C   UNL A   1      32.357  18.148  22.378  1.00  0.00     0.048 A 
ATOM     92  Br  UNL A   1      34.612  16.134  25.217  1.00  0.00    -0.051 Br
ATOM     93  C   UNL A   1      33.015  17.157  23.097  1.00  0.00     0.019 A 
BRANCH  89  94
ATOM     94  O   UNL A   1      31.753  20.410  22.095  1.00  0.00    -0.507 OA
ATOM     95  H   UNL A   1      32.091  20.629  21.249  1.00  0.00     0.293 HD
ENDBRANCH  89  94
ENDBRANCH  84  87
ENDBRANCH  78  80
ENDBRANCH  77  78
ENDBRANCH  76  77
ENDBRANCH  75  76
ENDBRANCH  74  75
ENDBRANCH  73  74
ENDBRANCH   1  73
TORSDOF 22
ENDMDL
MODEL 2
REMARK VINA RESULT:     -10.6      5.529     10.862
REMARK SMILES O=C(OCCOCCOCCOC(=O)[C@@H]1CS[C@@H](c2cc(Br)ccc2O)[NH2+]1)c1ccc(-c2c3nc(c(-c4cccc(S(=O)(=O)[O-])c4F)c4ccc([nH]4)c(-c4cccc(S(=O)(=O)[O-])c4F)c4nc(c(-c5cccc(S(=O)(=O)[O-])c5F)c5ccc2[nH]5)C=C4)C=C3)cc1
REMARK SMILES IDX 7 1 6 2 5 3 4 4 3 5 2 6 1 7 28 8 29 9 90 10 30 11 89 12
REMARK SMILES IDX 31 13 32 14 33 15 83 16 34 17 88 18 82 19 84 20 35 21 87 22
REMARK SMILES IDX 81 23 80 24 36 26 68 27 48 28 67 29 49 30 52 31 66 32 85 33
REMARK SMILES IDX 50 34 51 35 65 37 86 38 53 39 37 40 38 41 46 42 39 43 41 44
REMARK SMILES IDX 47 45 40 46 42 47 43 48 44 49 45 50 69 51 70 52 78 53 71 54
REMARK SMILES IDX 73 55 79 56 72 57 74 58 75 59 76 60 77 61 54 62 55 63 63 64
REMARK SMILES IDX 56 65 58 66 64 67 57 68 59 69 60 70 61 71 62 72 8 73 9 74
REMARK SMILES IDX 10 75 11 76 12 77 13 78 14 79 15 80 16 81 27 82 17 83 18 84
REMARK SMILES IDX 19 87 20 88 25 89 21 90 24 91 22 92 23 93 26 94
REMARK H PARENT 84 25 52 36 27 85 27 86 26 95
REMARK Flexibility Score: inf
ROOT
ATOM      1  C   UNL A   1      35.429  22.980  23.375  1.00  0.00     0.188 C 
ENDROOT
BRANCH   1   2
ATOM      2  O   UNL A   1      36.656  22.255  23.469  1.00  0.00    -0.376 OA
BRANCH   2   3
ATOM      3  C   UNL A   1      36.917  21.667  24.749  1.00  0.00     0.202 C 
BRANCH   3   4
ATOM      4  C   UNL A   1      37.834  20.424  24.770  1.00  0.00     0.261 C 
BRANCH   4   5
ATOM      5  O   UNL A   1      38.610  20.261  25.976  1.00  0.00    -0.460 OA
BRANCH   5   6
ATOM      6  C   UNL A   1      39.906  20.608  26.209  1.00  0.00     0.338 C 
ATOM      7  O   UNL A   1      40.796  19.803  25.945  1.00  0.00    -0.246 OA
BRANCH   6   8
ATOM      8  C   UNL A   1      40.288  21.935  26.773  1.00  0.00     0.060 A 
ATOM      9  C   UNL A   1      39.773  23.130  26.295  1.00  0.00     0.016 A 
ATOM     10  C   UNL A   1      41.165  21.996  27.864  1.00  0.00     0.016 A 
ATOM     11  C   UNL A   1      40.247  24.352  26.713  1.00  0.00     0.010 A 
ATOM     12  C   UNL A   1      41.566  23.236  28.384  1.00  0.00     0.010 A 
ATOM     13  C   UNL A   1      41.146  24.422  27.766  1.00  0.00    -0.014 A 
BRANCH  13  14
ATOM     14  C   UNL A   1      41.686  25.759  28.071  1.00  0.00     0.031 A 
ATOM     15  C   UNL A   1      43.043  26.115  27.551  1.00  0.00     0.074 A 
ATOM     16  C   UNL A   1      40.876  26.689  28.618  1.00  0.00     0.049 A 
ATOM     17  N   UNL A   1      43.685  27.246  27.642  1.00  0.00    -0.248 NA
ATOM     18  C   UNL A   1      43.766  25.071  26.801  1.00  0.00     0.031 C 
ATOM     19  C   UNL A   1      39.488  26.456  29.029  1.00  0.00     0.029 A 
ATOM     20  N   UNL A   1      41.072  28.015  28.890  1.00  0.00    -0.354 N 
ATOM     21  C   UNL A   1      44.895  27.041  26.995  1.00  0.00     0.074 A 
ATOM     22  C   UNL A   1      44.906  25.679  26.517  1.00  0.00     0.031 C 
ATOM     23  C   UNL A   1      38.959  27.591  29.503  1.00  0.00     0.029 A 
ATOM     24  C   UNL A   1      39.990  28.617  29.492  1.00  0.00     0.049 A 
ATOM     25  H   UNL A   1      41.906  28.493  28.675  1.00  0.00     0.167 HD
ATOM     26  C   UNL A   1      45.902  27.924  26.813  1.00  0.00     0.034 A 
ATOM     27  C   UNL A   1      39.864  29.847  30.018  1.00  0.00     0.034 A 
ATOM     28  C   UNL A   1      45.858  29.273  27.301  1.00  0.00     0.049 A 
ATOM     29  C   UNL A   1      41.037  30.773  29.887  1.00  0.00     0.074 A 
ATOM     30  C   UNL A   1      46.838  30.244  27.240  1.00  0.00     0.029 A 
ATOM     31  N   UNL A   1      44.768  29.837  27.951  1.00  0.00    -0.354 N 
ATOM     32  N   UNL A   1      42.180  30.565  29.277  1.00  0.00    -0.248 NA
ATOM     33  C   UNL A   1      40.900  32.105  30.485  1.00  0.00     0.031 C 
ATOM     34  C   UNL A   1      46.350  31.387  27.882  1.00  0.00     0.029 A 
ATOM     35  C   UNL A   1      45.051  31.142  28.305  1.00  0.00     0.049 A 
ATOM     36  H   UNL A   1      43.919  29.374  28.133  1.00  0.00     0.167 HD
ATOM     37  C   UNL A   1      42.893  31.747  29.396  1.00  0.00     0.074 A 
ATOM     38  C   UNL A   1      42.033  32.678  30.104  1.00  0.00     0.031 C 
ATOM     39  C   UNL A   1      44.149  32.041  28.979  1.00  0.00     0.034 A 
BRANCH  26  40
ATOM     40  C   UNL A   1      47.126  27.432  26.093  1.00  0.00     0.023 A 
ATOM     41  C   UNL A   1      48.099  26.679  26.781  1.00  0.00     0.012 A 
ATOM     42  C   UNL A   1      47.314  27.724  24.729  1.00  0.00     0.148 A 
ATOM     43  C   UNL A   1      49.256  26.251  26.129  1.00  0.00     0.002 A 
ATOM     44  C   UNL A   1      48.446  27.258  24.075  1.00  0.00     0.091 A 
ATOM     45  F   UNL A   1      46.391  28.468  24.105  1.00  0.00    -0.205 F 
ATOM     46  C   UNL A   1      49.424  26.533  24.776  1.00  0.00     0.022 A 
BRANCH  44  47
ATOM     47  S   UNL A   1      48.726  27.518  22.321  1.00  0.00     0.127 S 
ATOM     48  O   UNL A   1      48.733  26.142  21.818  1.00  0.00    -0.237 OA
ATOM     49  O   UNL A   1      47.545  28.297  21.941  1.00  0.00    -0.237 OA
ATOM     50  O   UNL A   1      49.989  28.223  22.211  1.00  0.00    -0.744 OA
ENDBRANCH  44  47
ENDBRANCH  26  40
BRANCH  27  51
ATOM     51  C   UNL A   1      38.621  30.243  30.740  1.00  0.00     0.023 A 
ATOM     52  C   UNL A   1      38.407  29.838  32.071  1.00  0.00     0.012 A 
ATOM     53  C   UNL A   1      37.638  31.027  30.100  1.00  0.00     0.148 A 
ATOM     54  C   UNL A   1      37.221  30.168  32.733  1.00  0.00     0.002 A 
ATOM     55  C   UNL A   1      36.489  31.404  30.784  1.00  0.00     0.091 A 
ATOM     56  F   UNL A   1      37.847  31.394  28.828  1.00  0.00    -0.205 F 
ATOM     57  C   UNL A   1      36.267  30.957  32.094  1.00  0.00     0.022 A 
BRANCH  55  58
ATOM     58  S   UNL A   1      35.287  32.532  30.073  1.00  0.00     0.127 S 
ATOM     59  O   UNL A   1      34.666  31.697  29.048  1.00  0.00    -0.237 OA
ATOM     60  O   UNL A   1      34.435  32.832  31.225  1.00  0.00    -0.237 OA
ATOM     61  O   UNL A   1      36.061  33.669  29.593  1.00  0.00    -0.744 OA
ENDBRANCH  55  58
ENDBRANCH  27  51
BRANCH  39  62
ATOM     62  C   UNL A   1      44.640  33.433  29.254  1.00  0.00     0.023 A 
ATOM     63  C   UNL A   1      45.271  33.728  30.478  1.00  0.00     0.012 A 
ATOM     64  C   UNL A   1      44.513  34.434  28.273  1.00  0.00     0.148 A 
ATOM     65  C   UNL A   1      45.728  35.017  30.741  1.00  0.00     0.002 A 
ATOM     66  C   UNL A   1      45.026  35.699  28.518  1.00  0.00     0.091 A 
ATOM     67  F   UNL A   1      43.889  34.132  27.125  1.00  0.00    -0.205 F 
ATOM     68  C   UNL A   1      45.617  35.998  29.757  1.00  0.00     0.022 A 
BRANCH  66  69
ATOM     69  S   UNL A   1      45.024  36.986  27.269  1.00  0.00     0.127 S 
ATOM     70  O   UNL A   1      45.893  36.407  26.245  1.00  0.00    -0.237 OA
ATOM     71  O   UNL A   1      43.610  37.056  26.901  1.00  0.00    -0.237 OA
ATOM     72  O   UNL A   1      45.538  38.181  27.924  1.00  0.00    -0.744 OA
ENDBRANCH  66  69
ENDBRANCH  39  62
ENDBRANCH  13  14
ENDBRANCH   6   8
ENDBRANCH   5   6
ENDBRANCH   4   5
ENDBRANCH   3   4
ENDBRANCH   2   3
ENDBRANCH   1   2
BRANCH   1  73
ATOM     73  C   UNL A   1      34.458  22.630  24.504  1.00  0.00     0.188 C 
BRANCH  73  74
ATOM     74  O   UNL A   1      33.721  21.420  24.354  1.00  0.00    -0.376 OA
BRANCH  74  75
ATOM     75  C   UNL A   1      32.671  21.416  23.394  1.00  0.00     0.202 C 
BRANCH  75  76
ATOM     76  C   UNL A   1      31.958  22.740  23.067  1.00  0.00     0.261 C 
BRANCH  76  77
ATOM     77  O   UNL A   1      31.094  23.291  24.078  1.00  0.00    -0.459 OA
BRANCH  77  78
ATOM     78  C   UNL A   1      31.506  24.496  24.583  1.00  0.00     0.365 C 
ATOM     79  O   UNL A   1      31.487  24.768  25.780  1.00  0.00    -0.245 OA
BRANCH  78  80
ATOM     80  C   UNL A   1      31.914  25.480  23.458  1.00  0.00     0.304 C 
ATOM     81  C   UNL A   1      33.075  26.419  23.812  1.00  0.00     0.153 C 
ATOM     82  N   UNL A   1      30.738  26.302  23.066  1.00  0.00    -0.319 N 
ATOM     83  S   UNL A   1      32.365  28.084  24.004  1.00  0.00    -0.087 SA
ATOM     84  C   UNL A   1      30.692  27.433  23.995  1.00  0.00     0.278 C 
ATOM     85  H   UNL A   1      29.883  25.752  23.137  1.00  0.00     0.348 HD
ATOM     86  H   UNL A   1      30.818  26.622  22.099  1.00  0.00     0.348 HD
BRANCH  84  87
ATOM     87  C   UNL A   1      29.551  28.364  23.674  1.00  0.00     0.063 A 
ATOM     88  C   UNL A   1      29.709  29.734  23.403  1.00  0.00     0.030 A 
ATOM     89  C   UNL A   1      28.268  27.813  23.512  1.00  0.00     0.125 A 
ATOM     90  C   UNL A   1      28.614  30.501  22.987  1.00  0.00     0.018 A 
ATOM     91  C   UNL A   1      27.185  28.565  23.067  1.00  0.00     0.048 A 
ATOM     92  Br  UNL A   1      28.821  32.353  22.665  1.00  0.00    -0.051 Br
ATOM     93  C   UNL A   1      27.359  29.918  22.801  1.00  0.00     0.019 A 
BRANCH  89  94
ATOM     94  O   UNL A   1      28.047  26.496  23.804  1.00  0.00    -0.507 OA
ATOM     95  H   UNL A   1      28.346  25.830  23.218  1.00  0.00     0.293 HD
ENDBRANCH  89  94
ENDBRANCH  84  87
ENDBRANCH  78  80
ENDBRANCH  77  78
ENDBRANCH  76  77
ENDBRANCH  75  76
ENDBRANCH  74  75
ENDBRANCH  73  74
ENDBRANCH   1  73
TORSDOF 22
ENDMDL
MODEL 3
REMARK VINA RESULT:     -10.3      2.057      2.573
REMARK SMILES O=C(OCCOCCOCCOC(=O)[C@@H]1CS[C@@H](c2cc(Br)ccc2O)[NH2+]1)c1ccc(-c2c3nc(c(-c4cccc(S(=O)(=O)[O-])c4F)c4ccc([nH]4)c(-c4cccc(S(=O)(=O)[O-])c4F)c4nc(c(-c5cccc(S(=O)(=O)[O-])c5F)c5ccc2[nH]5)C=C4)C=C3)cc1
REMARK SMILES IDX 7 1 6 2 5 3 4 4 3 5 2 6 1 7 28 8 29 9 90 10 30 11 89 12
REMARK SMILES IDX 31 13 32 14 33 15 83 16 34 17 88 18 82 19 84 20 35 21 87 22
REMARK SMILES IDX 81 23 80 24 36 26 68 27 48 28 67 29 49 30 52 31 66 32 85 33
REMARK SMILES IDX 50 34 51 35 65 37 86 38 53 39 37 40 38 41 46 42 39 43 41 44
REMARK SMILES IDX 47 45 40 46 42 47 43 48 44 49 45 50 69 51 70 52 78 53 71 54
REMARK SMILES IDX 73 55 79 56 72 57 74 58 75 59 76 60 77 61 54 62 55 63 63 64
REMARK SMILES IDX 56 65 58 66 64 67 57 68 59 69 60 70 61 71 62 72 8 73 9 74
REMARK SMILES IDX 10 75 11 76 12 77 13 78 14 79 15 80 16 81 27 82 17 83 18 84
REMARK SMILES IDX 19 87 20 88 25 89 21 90 24 91 22 92 23 93 26 94
REMARK H PARENT 84 25 52 36 27 85 27 86 26 95
REMARK Flexibility Score: inf
ROOT
ATOM      1  C   UNL A   1      32.768  29.923  25.740  1.00  0.00     0.188 C 
ENDROOT
BRANCH   1   2
ATOM      2  O   UNL A   1      32.729  30.127  27.152  1.00  0.00    -0.376 OA
BRANCH   2   3
ATOM      3  C   UNL A   1      33.262  31.379  27.599  1.00  0.00     0.202 C 
BRANCH   3   4
ATOM      4  C   UNL A   1      32.638  32.656  26.995  1.00  0.00     0.261 C 
BRANCH   4   5
ATOM      5  O   UNL A   1      32.271  33.667  27.957  1.00  0.00    -0.460 OA
BRANCH   5   6
ATOM      6  C   UNL A   1      33.073  34.552  28.612  1.00  0.00     0.338 C 
ATOM      7  O   UNL A   1      32.820  35.753  28.538  1.00  0.00    -0.246 OA
BRANCH   6   8
ATOM      8  C   UNL A   1      34.249  34.118  29.418  1.00  0.00     0.060 A 
ATOM      9  C   UNL A   1      35.555  34.426  29.068  1.00  0.00     0.016 A 
ATOM     10  C   UNL A   1      34.048  33.409  30.610  1.00  0.00     0.016 A 
ATOM     11  C   UNL A   1      36.637  33.891  29.726  1.00  0.00     0.010 A 
ATOM     12  C   UNL A   1      35.143  32.959  31.363  1.00  0.00     0.010 A 
ATOM     13  C   UNL A   1      36.446  33.154  30.886  1.00  0.00    -0.014 A 
BRANCH  13  14
ATOM     14  C   UNL A   1      37.649  32.526  31.461  1.00  0.00     0.031 A 
ATOM     15  C   UNL A   1      38.106  32.970  32.815  1.00  0.00     0.074 A 
ATOM     16  C   UNL A   1      38.177  31.439  30.862  1.00  0.00     0.049 A 
ATOM     17  N   UNL A   1      39.091  32.517  33.537  1.00  0.00    -0.248 NA
ATOM     18  C   UNL A   1      37.333  34.049  33.461  1.00  0.00     0.031 C 
ATOM     19  C   UNL A   1      37.700  30.859  29.602  1.00  0.00     0.029 A 
ATOM     20  N   UNL A   1      39.194  30.603  31.233  1.00  0.00    -0.354 N 
ATOM     21  C   UNL A   1      39.081  33.272  34.701  1.00  0.00     0.074 A 
ATOM     22  C   UNL A   1      37.995  34.217  34.594  1.00  0.00     0.031 C 
ATOM     23  C   UNL A   1      38.420  29.771  29.303  1.00  0.00     0.029 A 
ATOM     24  C   UNL A   1      39.454  29.614  30.313  1.00  0.00     0.049 A 
ATOM     25  H   UNL A   1      39.692  30.701  32.078  1.00  0.00     0.167 HD
ATOM     26  C   UNL A   1      39.906  33.172  35.766  1.00  0.00     0.034 A 
ATOM     27  C   UNL A   1      40.447  28.709  30.269  1.00  0.00     0.034 A 
ATOM     28  C   UNL A   1      40.975  32.219  35.841  1.00  0.00     0.049 A 
ATOM     29  C   UNL A   1      41.407  28.688  31.422  1.00  0.00     0.074 A 
ATOM     30  C   UNL A   1      41.921  32.061  36.835  1.00  0.00     0.029 A 
ATOM     31  N   UNL A   1      41.244  31.263  34.871  1.00  0.00    -0.354 N 
ATOM     32  N   UNL A   1      41.390  29.413  32.516  1.00  0.00    -0.248 NA
ATOM     33  C   UNL A   1      42.502  27.715  31.356  1.00  0.00     0.031 C 
ATOM     34  C   UNL A   1      42.781  31.027  36.449  1.00  0.00     0.029 A 
ATOM     35  C   UNL A   1      42.346  30.514  35.235  1.00  0.00     0.049 A 
ATOM     36  H   UNL A   1      40.725  31.138  34.043  1.00  0.00     0.167 HD
ATOM     37  C   UNL A   1      42.456  28.970  33.281  1.00  0.00     0.074 A 
ATOM     38  C   UNL A   1      43.073  27.885  32.539  1.00  0.00     0.031 C 
ATOM     39  C   UNL A   1      42.904  29.422  34.478  1.00  0.00     0.034 A 
BRANCH  26  40
ATOM     40  C   UNL A   1      39.690  34.140  36.896  1.00  0.00     0.023 A 
ATOM     41  C   UNL A   1      40.054  35.494  36.749  1.00  0.00     0.012 A 
ATOM     42  C   UNL A   1      39.130  33.702  38.110  1.00  0.00     0.148 A 
ATOM     43  C   UNL A   1      39.892  36.390  37.806  1.00  0.00     0.002 A 
ATOM     44  C   UNL A   1      38.931  34.608  39.143  1.00  0.00     0.091 A 
ATOM     45  F   UNL A   1      38.821  32.404  38.237  1.00  0.00    -0.205 F 
ATOM     46  C   UNL A   1      39.323  35.949  38.997  1.00  0.00     0.022 A 
BRANCH  44  47
ATOM     47  S   UNL A   1      38.151  34.151  40.694  1.00  0.00     0.127 S 
ATOM     48  O   UNL A   1      39.252  33.479  41.388  1.00  0.00    -0.237 OA
ATOM     49  O   UNL A   1      37.793  35.460  41.247  1.00  0.00    -0.237 OA
ATOM     50  O   UNL A   1      37.027  33.301  40.350  1.00  0.00    -0.744 OA
ENDBRANCH  44  47
ENDBRANCH  26  40
BRANCH  27  51
ATOM     51  C   UNL A   1      40.602  27.803  29.095  1.00  0.00     0.023 A 
ATOM     52  C   UNL A   1      39.833  26.629  28.991  1.00  0.00     0.012 A 
ATOM     53  C   UNL A   1      41.524  28.107  28.072  1.00  0.00     0.148 A 
ATOM     54  C   UNL A   1      40.011  25.755  27.916  1.00  0.00     0.002 A 
ATOM     55  C   UNL A   1      41.652  27.265  26.974  1.00  0.00     0.091 A 
ATOM     56  F   UNL A   1      42.262  29.220  28.189  1.00  0.00    -0.205 F 
ATOM     57  C   UNL A   1      40.913  26.077  26.904  1.00  0.00     0.022 A 
BRANCH  55  58
ATOM     58  S   UNL A   1      42.690  27.686  25.570  1.00  0.00     0.127 S 
ATOM     59  O   UNL A   1      42.544  26.503  24.727  1.00  0.00    -0.237 OA
ATOM     60  O   UNL A   1      42.035  28.892  25.060  1.00  0.00    -0.237 OA
ATOM     61  O   UNL A   1      44.016  27.919  26.126  1.00  0.00    -0.744 OA
ENDBRANCH  55  58
ENDBRANCH  27  51
BRANCH  39  62
ATOM     62  C   UNL A   1      44.094  28.716  35.061  1.00  0.00     0.023 A 
ATOM     63  C   UNL A   1      45.395  29.141  34.731  1.00  0.00     0.012 A 
ATOM     64  C   UNL A   1      43.913  27.659  35.972  1.00  0.00     0.148 A 
ATOM     65  C   UNL A   1      46.504  28.491  35.266  1.00  0.00     0.002 A 
ATOM     66  C   UNL A   1      45.021  27.057  36.549  1.00  0.00     0.091 A 
ATOM     67  F   UNL A   1      42.664  27.260  36.252  1.00  0.00    -0.205 F 
ATOM     68  C   UNL A   1      46.317  27.458  36.184  1.00  0.00     0.022 A 
BRANCH  66  69
ATOM     69  S   UNL A   1      44.870  25.799  37.818  1.00  0.00     0.127 S 
ATOM     70  O   UNL A   1      43.995  26.457  38.786  1.00  0.00    -0.237 OA
ATOM     71  O   UNL A   1      44.249  24.695  37.085  1.00  0.00    -0.237 OA
ATOM     72  O   UNL A   1      46.225  25.530  38.280  1.00  0.00    -0.744 OA
ENDBRANCH  66  69
ENDBRANCH  39  62
ENDBRANCH  13  14
ENDBRANCH   6   8
ENDBRANCH   5   6
ENDBRANCH   4   5
ENDBRANCH   3   4
ENDBRANCH   2   3
ENDBRANCH   1   2
BRANCH   1  73
ATOM     73  C   UNL A   1      31.483  29.285  25.208  1.00  0.00     0.188 C 
BRANCH  73  74
ATOM     74  O   UNL A   1      31.429  27.862  25.222  1.00  0.00    -0.376 OA
BRANCH  74  75
ATOM     75  C   UNL A   1      32.461  27.166  24.534  1.00  0.00     0.202 C 
BRANCH  75  76
ATOM     76  C   UNL A   1      32.298  25.657  24.278  1.00  0.00     0.261 C 
BRANCH  76  77
ATOM     77  O   UNL A   1      31.688  24.874  25.321  1.00  0.00    -0.459 OA
BRANCH  77  78
ATOM     78  C   UNL A   1      31.252  23.638  24.924  1.00  0.00     0.365 C 
ATOM     79  O   UNL A   1      30.678  23.434  23.858  1.00  0.00    -0.245 OA
BRANCH  78  80
ATOM     80  C   UNL A   1      31.501  22.565  26.014  1.00  0.00     0.304 C 
ATOM     81  C   UNL A   1      32.767  22.781  26.855  1.00  0.00     0.153 C 
ATOM     82  N   UNL A   1      31.572  21.220  25.383  1.00  0.00    -0.319 N 
ATOM     83  S   UNL A   1      33.955  21.495  26.357  1.00  0.00    -0.087 SA
ATOM     84  C   UNL A   1      32.955  21.043  24.936  1.00  0.00     0.278 C 
ATOM     85  H   UNL A   1      30.936  21.169  24.588  1.00  0.00     0.348 HD
ATOM     86  H   UNL A   1      31.301  20.489  26.041  1.00  0.00     0.348 HD
BRANCH  84  87
ATOM     87  C   UNL A   1      33.161  19.690  24.303  1.00  0.00     0.063 A 
ATOM     88  C   UNL A   1      33.882  18.644  24.905  1.00  0.00     0.030 A 
ATOM     89  C   UNL A   1      32.491  19.409  23.100  1.00  0.00     0.125 A 
ATOM     90  C   UNL A   1      33.916  17.378  24.308  1.00  0.00     0.018 A 
ATOM     91  C   UNL A   1      32.496  18.144  22.521  1.00  0.00     0.048 A 
ATOM     92  Br  UNL A   1      34.922  15.984  25.098  1.00  0.00    -0.051 Br
ATOM     93  C   UNL A   1      33.212  17.121  23.131  1.00  0.00     0.019 A 
BRANCH  89  94
ATOM     94  O   UNL A   1      31.812  20.400  22.447  1.00  0.00    -0.507 OA
ATOM     95  H   UNL A   1      31.533  21.163  22.915  1.00  0.00     0.293 HD
ENDBRANCH  89  94
ENDBRANCH  84  87
ENDBRANCH  78  80
ENDBRANCH  77  78
ENDBRANCH  76  77
ENDBRANCH  75  76
ENDBRANCH  74  75
ENDBRANCH  73  74
ENDBRANCH   1  73
TORSDOF 22
ENDMDL
