MODEL 1
REMARK VINA RESULT:     -10.3      0.000      0.000
REMARK SMILES O=C(OCCOCCOCCOC(=O)c1ccc(CNC(=O)c2cnns2)o1)c1ccc(-c2c3nc(c(-c4cccc(S(=O)(=O)[O-])c4F)c4ccc([nH]4)c(-c4cccc(S(=O)(=O)[O-])c4F)c4nc(c(-c5cccc(S(=O)(=O)[O-])c5F)c5ccc2[nH]5)C=C4)C=C3)cc1
REMARK SMILES IDX 7 1 6 2 5 3 4 4 3 5 2 6 1 7 29 8 30 9 91 10 31 11 90 12
REMARK SMILES IDX 32 13 33 14 34 15 84 16 35 17 89 18 83 19 85 20 36 21 88 22
REMARK SMILES IDX 82 23 81 24 37 26 69 27 49 28 68 29 50 30 53 31 67 32 86 33
REMARK SMILES IDX 51 34 52 35 66 37 87 38 54 39 38 40 39 41 47 42 40 43 42 44
REMARK SMILES IDX 48 45 41 46 43 47 44 48 45 49 46 50 70 51 71 52 79 53 72 54
REMARK SMILES IDX 74 55 80 56 73 57 75 58 76 59 77 60 78 61 55 62 56 63 64 64
REMARK SMILES IDX 57 65 59 66 65 67 58 68 60 69 61 70 62 71 63 72 8 73 9 74
REMARK SMILES IDX 10 75 11 76 12 77 13 78 14 79 15 80 16 81 28 82 17 83 18 84
REMARK SMILES IDX 19 85 20 86 21 87 22 89 23 90 24 91 27 92 25 93 26 94
REMARK H PARENT 85 25 53 36 20 88
REMARK Flexibility Score: inf
ROOT
ATOM      1  C   UNL A   1      40.347  19.901  26.037  1.00  0.00     0.188 C 
ENDROOT
BRANCH   1   2
ATOM      2  O   UNL A   1      41.579  19.440  25.472  1.00  0.00    -0.376 OA
BRANCH   2   3
ATOM      3  C   UNL A   1      42.728  19.905  26.197  1.00  0.00     0.202 C 
BRANCH   3   4
ATOM      4  C   UNL A   1      43.625  20.924  25.464  1.00  0.00     0.261 C 
BRANCH   4   5
ATOM      5  O   UNL A   1      42.959  22.162  25.141  1.00  0.00    -0.460 OA
BRANCH   5   6
ATOM      6  C   UNL A   1      43.403  23.433  25.062  1.00  0.00     0.338 C 
ATOM      7  O   UNL A   1      44.286  23.697  24.250  1.00  0.00    -0.246 OA
BRANCH   6   8
ATOM      8  C   UNL A   1      42.906  24.528  25.941  1.00  0.00     0.060 A 
ATOM      9  C   UNL A   1      43.214  25.880  25.785  1.00  0.00     0.016 A 
ATOM     10  C   UNL A   1      41.996  24.173  26.945  1.00  0.00     0.016 A 
ATOM     11  C   UNL A   1      42.716  26.848  26.657  1.00  0.00     0.010 A 
ATOM     12  C   UNL A   1      41.450  25.141  27.789  1.00  0.00     0.010 A 
ATOM     13  C   UNL A   1      41.843  26.481  27.676  1.00  0.00    -0.014 A 
BRANCH  13  14
ATOM     14  C   UNL A   1      41.449  27.448  28.723  1.00  0.00     0.031 A 
ATOM     15  C   UNL A   1      42.265  27.490  29.978  1.00  0.00     0.074 A 
ATOM     16  C   UNL A   1      40.381  28.250  28.569  1.00  0.00     0.049 A 
ATOM     17  N   UNL A   1      42.015  28.090  31.108  1.00  0.00    -0.248 NA
ATOM     18  C   UNL A   1      43.538  26.747  29.952  1.00  0.00     0.031 C 
ATOM     19  C   UNL A   1      39.573  28.358  27.358  1.00  0.00     0.029 A 
ATOM     20  N   UNL A   1      39.768  29.099  29.456  1.00  0.00    -0.354 N 
ATOM     21  C   UNL A   1      43.068  27.749  31.946  1.00  0.00     0.074 A 
ATOM     22  C   UNL A   1      43.953  26.883  31.200  1.00  0.00     0.031 C 
ATOM     23  C   UNL A   1      38.527  29.166  27.598  1.00  0.00     0.029 A 
ATOM     24  C   UNL A   1      38.578  29.605  28.988  1.00  0.00     0.049 A 
ATOM     25  H   UNL A   1      40.144  29.324  30.339  1.00  0.00     0.167 HD
ATOM     26  C   UNL A   1      43.287  28.139  33.222  1.00  0.00     0.034 A 
ATOM     27  C   UNL A   1      37.618  30.304  29.623  1.00  0.00     0.034 A 
ATOM     28  C   UNL A   1      42.418  29.031  33.934  1.00  0.00     0.049 A 
ATOM     29  C   UNL A   1      37.851  30.700  31.054  1.00  0.00     0.074 A 
ATOM     30  C   UNL A   1      42.544  29.519  35.220  1.00  0.00     0.029 A 
ATOM     31  N   UNL A   1      41.253  29.571  33.406  1.00  0.00    -0.354 N 
ATOM     32  N   UNL A   1      38.878  30.421  31.822  1.00  0.00    -0.248 NA
ATOM     33  C   UNL A   1      36.828  31.535  31.697  1.00  0.00     0.031 C 
ATOM     34  C   UNL A   1      41.447  30.350  35.472  1.00  0.00     0.029 A 
ATOM     35  C   UNL A   1      40.648  30.390  34.338  1.00  0.00     0.049 A 
ATOM     36  H   UNL A   1      40.910  29.396  32.500  1.00  0.00     0.167 HD
ATOM     37  C   UNL A   1      38.652  31.083  33.020  1.00  0.00     0.074 A 
ATOM     38  C   UNL A   1      37.384  31.774  32.880  1.00  0.00     0.031 C 
ATOM     39  C   UNL A   1      39.420  31.117  34.136  1.00  0.00     0.034 A 
BRANCH  26  40
ATOM     40  C   UNL A   1      44.516  27.597  33.894  1.00  0.00     0.023 A 
ATOM     41  C   UNL A   1      45.754  28.249  33.719  1.00  0.00     0.012 A 
ATOM     42  C   UNL A   1      44.460  26.412  34.651  1.00  0.00     0.148 A 
ATOM     43  C   UNL A   1      46.925  27.703  34.244  1.00  0.00     0.002 A 
ATOM     44  C   UNL A   1      45.625  25.895  35.206  1.00  0.00     0.091 A 
ATOM     45  F   UNL A   1      43.281  25.787  34.777  1.00  0.00    -0.205 F 
ATOM     46  C   UNL A   1      46.859  26.530  34.991  1.00  0.00     0.022 A 
BRANCH  44  47
ATOM     47  S   UNL A   1      45.619  24.421  36.230  1.00  0.00     0.127 S 
ATOM     48  O   UNL A   1      47.037  24.279  36.553  1.00  0.00    -0.237 OA
ATOM     49  O   UNL A   1      44.775  24.827  37.355  1.00  0.00    -0.237 OA
ATOM     50  O   UNL A   1      45.047  23.370  35.400  1.00  0.00    -0.744 OA
ENDBRANCH  44  47
ENDBRANCH  26  40
BRANCH  27  51
ATOM     51  C   UNL A   1      36.374  30.670  28.889  1.00  0.00     0.023 A 
ATOM     52  C   UNL A   1      35.516  29.666  28.408  1.00  0.00     0.012 A 
ATOM     53  C   UNL A   1      35.994  32.020  28.751  1.00  0.00     0.148 A 
ATOM     54  C   UNL A   1      34.308  29.998  27.790  1.00  0.00     0.002 A 
ATOM     55  C   UNL A   1      34.763  32.342  28.191  1.00  0.00     0.091 A 
ATOM     56  F   UNL A   1      36.829  32.966  29.205  1.00  0.00    -0.205 F 
ATOM     57  C   UNL A   1      33.924  31.334  27.696  1.00  0.00     0.022 A 
BRANCH  55  58
ATOM     58  S   UNL A   1      34.130  34.024  28.209  1.00  0.00     0.127 S 
ATOM     59  O   UNL A   1      34.989  34.681  27.230  1.00  0.00    -0.237 OA
ATOM     60  O   UNL A   1      32.742  33.830  27.789  1.00  0.00    -0.237 OA
ATOM     61  O   UNL A   1      34.269  34.469  29.590  1.00  0.00    -0.744 OA
ENDBRANCH  55  58
ENDBRANCH  27  51
BRANCH  39  62
ATOM     62  C   UNL A   1      38.954  31.972  35.280  1.00  0.00     0.023 A 
ATOM     63  C   UNL A   1      38.112  31.425  36.264  1.00  0.00     0.012 A 
ATOM     64  C   UNL A   1      39.472  33.272  35.442  1.00  0.00     0.148 A 
ATOM     65  C   UNL A   1      37.787  32.166  37.399  1.00  0.00     0.002 A 
ATOM     66  C   UNL A   1      39.179  33.986  36.595  1.00  0.00     0.091 A 
ATOM     67  F   UNL A   1      40.254  33.773  34.475  1.00  0.00    -0.205 F 
ATOM     68  C   UNL A   1      38.332  33.437  37.573  1.00  0.00     0.022 A 
BRANCH  66  69
ATOM     69  S   UNL A   1      39.919  35.585  36.945  1.00  0.00     0.127 S 
ATOM     70  O   UNL A   1      41.341  35.251  36.982  1.00  0.00    -0.237 OA
ATOM     71  O   UNL A   1      39.506  36.377  35.786  1.00  0.00    -0.237 OA
ATOM     72  O   UNL A   1      39.346  36.024  38.210  1.00  0.00    -0.744 OA
ENDBRANCH  66  69
ENDBRANCH  39  62
ENDBRANCH  13  14
ENDBRANCH   6   8
ENDBRANCH   5   6
ENDBRANCH   4   5
ENDBRANCH   3   4
ENDBRANCH   2   3
ENDBRANCH   1   2
BRANCH   1  73
ATOM     73  C   UNL A   1      39.056  19.313  25.447  1.00  0.00     0.188 C 
BRANCH  73  74
ATOM     74  O   UNL A   1      37.942  20.141  25.142  1.00  0.00    -0.376 OA
BRANCH  74  75
ATOM     75  C   UNL A   1      37.933  21.478  25.599  1.00  0.00     0.202 C 
BRANCH  75  76
ATOM     76  C   UNL A   1      37.168  22.518  24.779  1.00  0.00     0.261 C 
BRANCH  76  77
ATOM     77  O   UNL A   1      36.017  22.033  24.074  1.00  0.00    -0.457 OA
BRANCH  77  78
ATOM     78  C   UNL A   1      35.006  21.600  24.884  1.00  0.00     0.374 C 
ATOM     79  O   UNL A   1      34.832  20.416  25.197  1.00  0.00    -0.242 OA
BRANCH  78  80
ATOM     80  C   UNL A   1      34.088  22.660  25.215  1.00  0.00     0.211 A 
ATOM     81  C   UNL A   1      32.810  22.566  25.738  1.00  0.00     0.058 A 
ATOM     82  O   UNL A   1      34.423  23.985  25.068  1.00  0.00    -0.452 OA
ATOM     83  C   UNL A   1      32.345  23.878  25.944  1.00  0.00     0.048 A 
ATOM     84  C   UNL A   1      33.366  24.717  25.551  1.00  0.00     0.124 A 
BRANCH  84  85
ATOM     85  C   UNL A   1      33.496  26.197  25.589  1.00  0.00     0.191 C 
BRANCH  85  86
ATOM     86  N   UNL A   1      32.695  26.691  26.690  1.00  0.00    -0.344 N 
ATOM     87  C   UNL A   1      31.699  27.631  26.679  1.00  0.00     0.265 C 
ATOM     88  H   UNL A   1      32.896  26.297  27.570  1.00  0.00     0.164 HD
ATOM     89  O   UNL A   1      31.297  28.048  27.766  1.00  0.00    -0.268 OA
BRANCH  87  90
ATOM     90  C   UNL A   1      31.182  28.095  25.423  1.00  0.00     0.133 A 
ATOM     91  C   UNL A   1      30.437  27.484  24.433  1.00  0.00     0.163 A 
ATOM     92  S   UNL A   1      31.377  29.734  24.963  1.00  0.00    -0.007 S 
ATOM     93  N   UNL A   1      30.100  28.298  23.361  1.00  0.00    -0.146 NA
ATOM     94  N   UNL A   1      30.554  29.529  23.521  1.00  0.00    -0.090 NA
ENDBRANCH  87  90
ENDBRANCH  85  86
ENDBRANCH  84  85
ENDBRANCH  78  80
ENDBRANCH  77  78
ENDBRANCH  76  77
ENDBRANCH  75  76
ENDBRANCH  74  75
ENDBRANCH  73  74
ENDBRANCH   1  73
TORSDOF 23
ENDMDL
MODEL 2
REMARK VINA RESULT:      -9.4      4.434      6.488
REMARK SMILES O=C(OCCOCCOCCOC(=O)c1ccc(CNC(=O)c2cnns2)o1)c1ccc(-c2c3nc(c(-c4cccc(S(=O)(=O)[O-])c4F)c4ccc([nH]4)c(-c4cccc(S(=O)(=O)[O-])c4F)c4nc(c(-c5cccc(S(=O)(=O)[O-])c5F)c5ccc2[nH]5)C=C4)C=C3)cc1
REMARK SMILES IDX 7 1 6 2 5 3 4 4 3 5 2 6 1 7 29 8 30 9 91 10 31 11 90 12
REMARK SMILES IDX 32 13 33 14 34 15 84 16 35 17 89 18 83 19 85 20 36 21 88 22
REMARK SMILES IDX 82 23 81 24 37 26 69 27 49 28 68 29 50 30 53 31 67 32 86 33
REMARK SMILES IDX 51 34 52 35 66 37 87 38 54 39 38 40 39 41 47 42 40 43 42 44
REMARK SMILES IDX 48 45 41 46 43 47 44 48 45 49 46 50 70 51 71 52 79 53 72 54
REMARK SMILES IDX 74 55 80 56 73 57 75 58 76 59 77 60 78 61 55 62 56 63 64 64
REMARK SMILES IDX 57 65 59 66 65 67 58 68 60 69 61 70 62 71 63 72 8 73 9 74
REMARK SMILES IDX 10 75 11 76 12 77 13 78 14 79 15 80 16 81 28 82 17 83 18 84
REMARK SMILES IDX 19 85 20 86 21 87 22 89 23 90 24 91 27 92 25 93 26 94
REMARK H PARENT 85 25 53 36 20 88
REMARK Flexibility Score: inf
ROOT
ATOM      1  C   UNL A   1      41.620  19.858  26.095  1.00  0.00     0.188 C 
ENDROOT
BRANCH   1   2
ATOM      2  O   UNL A   1      42.477  19.412  25.038  1.00  0.00    -0.376 OA
BRANCH   2   3
ATOM      3  C   UNL A   1      43.867  19.456  25.397  1.00  0.00     0.202 C 
BRANCH   3   4
ATOM      4  C   UNL A   1      44.855  19.743  24.248  1.00  0.00     0.261 C 
BRANCH   4   5
ATOM      5  O   UNL A   1      45.192  21.138  24.104  1.00  0.00    -0.460 OA
BRANCH   5   6
ATOM      6  C   UNL A   1      44.501  22.266  24.369  1.00  0.00     0.338 C 
ATOM      7  O   UNL A   1      43.642  22.628  23.568  1.00  0.00    -0.246 OA
BRANCH   6   8
ATOM      8  C   UNL A   1      44.756  23.120  25.562  1.00  0.00     0.060 A 
ATOM      9  C   UNL A   1      44.894  22.648  26.868  1.00  0.00     0.016 A 
ATOM     10  C   UNL A   1      44.955  24.487  25.332  1.00  0.00     0.016 A 
ATOM     11  C   UNL A   1      45.123  23.514  27.937  1.00  0.00     0.010 A 
ATOM     12  C   UNL A   1      45.239  25.355  26.388  1.00  0.00     0.010 A 
ATOM     13  C   UNL A   1      45.281  24.877  27.704  1.00  0.00    -0.014 A 
BRANCH  13  14
ATOM     14  C   UNL A   1      45.337  25.836  28.828  1.00  0.00     0.031 A 
ATOM     15  C   UNL A   1      46.636  25.978  29.560  1.00  0.00     0.074 A 
ATOM     16  C   UNL A   1      44.255  26.542  29.202  1.00  0.00     0.049 A 
ATOM     17  N   UNL A   1      46.889  26.586  30.686  1.00  0.00    -0.248 NA
ATOM     18  C   UNL A   1      47.810  25.344  28.934  1.00  0.00     0.031 C 
ATOM     19  C   UNL A   1      42.971  26.550  28.508  1.00  0.00     0.029 A 
ATOM     20  N   UNL A   1      44.055  27.360  30.285  1.00  0.00    -0.354 N 
ATOM     21  C   UNL A   1      48.236  26.356  30.932  1.00  0.00     0.074 A 
ATOM     22  C   UNL A   1      48.744  25.547  29.848  1.00  0.00     0.031 C 
ATOM     23  C   UNL A   1      42.092  27.274  29.218  1.00  0.00     0.029 A 
ATOM     24  C   UNL A   1      42.745  27.753  30.432  1.00  0.00     0.049 A 
ATOM     25  H   UNL A   1      44.776  27.639  30.895  1.00  0.00     0.167 HD
ATOM     26  C   UNL A   1      48.988  26.796  31.966  1.00  0.00     0.034 A 
ATOM     27  C   UNL A   1      42.133  28.386  31.452  1.00  0.00     0.034 A 
ATOM     28  C   UNL A   1      48.476  27.631  33.014  1.00  0.00     0.049 A 
ATOM     29  C   UNL A   1      42.970  28.838  32.615  1.00  0.00     0.074 A 
ATOM     30  C   UNL A   1      49.143  28.162  34.101  1.00  0.00     0.029 A 
ATOM     31  N   UNL A   1      47.158  28.059  33.097  1.00  0.00    -0.354 N 
ATOM     32  N   UNL A   1      44.256  28.665  32.813  1.00  0.00    -0.248 NA
ATOM     33  C   UNL A   1      42.295  29.601  33.674  1.00  0.00     0.031 C 
ATOM     34  C   UNL A   1      48.223  28.905  34.848  1.00  0.00     0.029 A 
ATOM     35  C   UNL A   1      46.988  28.848  34.216  1.00  0.00     0.049 A 
ATOM     36  H   UNL A   1      46.450  27.832  32.452  1.00  0.00     0.167 HD
ATOM     37  C   UNL A   1      44.557  29.338  33.989  1.00  0.00     0.074 A 
ATOM     38  C   UNL A   1      43.315  29.917  34.465  1.00  0.00     0.031 C 
ATOM     39  C   UNL A   1      45.749  29.465  34.620  1.00  0.00     0.034 A 
BRANCH  26  40
ATOM     40  C   UNL A   1      50.430  26.376  31.981  1.00  0.00     0.023 A 
ATOM     41  C   UNL A   1      51.410  27.220  31.417  1.00  0.00     0.012 A 
ATOM     42  C   UNL A   1      50.810  25.125  32.499  1.00  0.00     0.148 A 
ATOM     43  C   UNL A   1      52.737  26.802  31.323  1.00  0.00     0.002 A 
ATOM     44  C   UNL A   1      52.143  24.732  32.438  1.00  0.00     0.091 A 
ATOM     45  F   UNL A   1      49.860  24.322  32.999  1.00  0.00    -0.205 F 
ATOM     46  C   UNL A   1      53.103  25.562  31.838  1.00  0.00     0.022 A 
BRANCH  44  47
ATOM     47  S   UNL A   1      52.709  23.175  33.130  1.00  0.00     0.127 S 
ATOM     48  O   UNL A   1      51.934  22.207  32.357  1.00  0.00    -0.237 OA
ATOM     49  O   UNL A   1      54.139  23.198  32.819  1.00  0.00    -0.237 OA
ATOM     50  O   UNL A   1      52.403  23.244  34.553  1.00  0.00    -0.744 OA
ENDBRANCH  44  47
ENDBRANCH  26  40
BRANCH  27  51
ATOM     51  C   UNL A   1      40.665  28.628  31.387  1.00  0.00     0.023 A 
ATOM     52  C   UNL A   1      39.774  27.748  32.027  1.00  0.00     0.012 A 
ATOM     53  C   UNL A   1      40.155  29.786  30.766  1.00  0.00     0.148 A 
ATOM     54  C   UNL A   1      38.402  28.010  32.040  1.00  0.00     0.002 A 
ATOM     55  C   UNL A   1      38.797  30.073  30.836  1.00  0.00     0.091 A 
ATOM     56  F   UNL A   1      41.017  30.609  30.150  1.00  0.00    -0.205 F 
ATOM     57  C   UNL A   1      37.916  29.178  31.459  1.00  0.00     0.022 A 
BRANCH  55  58
ATOM     58  S   UNL A   1      38.134  31.645  30.273  1.00  0.00     0.127 S 
ATOM     59  O   UNL A   1      39.170  32.580  30.699  1.00  0.00    -0.237 OA
ATOM     60  O   UNL A   1      38.040  31.435  28.828  1.00  0.00    -0.237 OA
ATOM     61  O   UNL A   1      36.841  31.772  30.933  1.00  0.00    -0.744 OA
ENDBRANCH  55  58
ENDBRANCH  27  51
BRANCH  39  62
ATOM     62  C   UNL A   1      45.797  30.308  35.862  1.00  0.00     0.023 A 
ATOM     63  C   UNL A   1      45.766  31.710  35.756  1.00  0.00     0.012 A 
ATOM     64  C   UNL A   1      45.730  29.698  37.129  1.00  0.00     0.148 A 
ATOM     65  C   UNL A   1      45.671  32.498  36.903  1.00  0.00     0.002 A 
ATOM     66  C   UNL A   1      45.591  30.488  38.262  1.00  0.00     0.091 A 
ATOM     67  F   UNL A   1      45.784  28.360  37.198  1.00  0.00    -0.205 F 
ATOM     68  C   UNL A   1      45.567  31.888  38.152  1.00  0.00     0.022 A 
BRANCH  66  69
ATOM     69  S   UNL A   1      45.349  29.782  39.896  1.00  0.00     0.127 S 
ATOM     70  O   UNL A   1      46.692  29.882  40.464  1.00  0.00    -0.237 OA
ATOM     71  O   UNL A   1      44.367  30.694  40.485  1.00  0.00    -0.237 OA
ATOM     72  O   UNL A   1      44.860  28.427  39.680  1.00  0.00    -0.744 OA
ENDBRANCH  66  69
ENDBRANCH  39  62
ENDBRANCH  13  14
ENDBRANCH   6   8
ENDBRANCH   5   6
ENDBRANCH   4   5
ENDBRANCH   3   4
ENDBRANCH   2   3
ENDBRANCH   1   2
BRANCH   1  73
ATOM     73  C   UNL A   1      41.582  21.370  26.360  1.00  0.00     0.188 C 
BRANCH  73  74
ATOM     74  O   UNL A   1      40.524  22.179  25.862  1.00  0.00    -0.376 OA
BRANCH  74  75
ATOM     75  C   UNL A   1      39.216  21.978  26.354  1.00  0.00     0.202 C 
BRANCH  75  76
ATOM     76  C   UNL A   1      38.099  21.698  25.346  1.00  0.00     0.261 C 
BRANCH  76  77
ATOM     77  O   UNL A   1      37.294  22.827  24.978  1.00  0.00    -0.457 OA
BRANCH  77  78
ATOM     78  C   UNL A   1      36.409  22.578  23.968  1.00  0.00     0.374 C 
ATOM     79  O   UNL A   1      36.643  22.804  22.775  1.00  0.00    -0.242 OA
BRANCH  78  80
ATOM     80  C   UNL A   1      35.125  22.154  24.467  1.00  0.00     0.211 A 
ATOM     81  C   UNL A   1      34.028  22.929  24.800  1.00  0.00     0.058 A 
ATOM     82  O   UNL A   1      34.816  20.826  24.645  1.00  0.00    -0.452 OA
ATOM     83  C   UNL A   1      32.996  22.049  25.177  1.00  0.00     0.048 A 
ATOM     84  C   UNL A   1      33.503  20.775  25.043  1.00  0.00     0.124 A 
BRANCH  84  85
ATOM     85  C   UNL A   1      32.877  19.440  25.230  1.00  0.00     0.191 C 
BRANCH  85  86
ATOM     86  N   UNL A   1      32.482  18.942  23.929  1.00  0.00    -0.344 N 
ATOM     87  C   UNL A   1      32.819  17.764  23.316  1.00  0.00     0.265 C 
ATOM     88  H   UNL A   1      31.887  19.533  23.412  1.00  0.00     0.164 HD
ATOM     89  O   UNL A   1      32.537  17.641  22.124  1.00  0.00    -0.268 OA
BRANCH  87  90
ATOM     90  C   UNL A   1      33.490  16.745  24.071  1.00  0.00     0.133 A 
ATOM     91  C   UNL A   1      34.824  16.432  24.246  1.00  0.00     0.163 A 
ATOM     92  S   UNL A   1      32.592  15.681  25.071  1.00  0.00    -0.007 S 
ATOM     93  N   UNL A   1      35.075  15.368  25.100  1.00  0.00    -0.146 NA
ATOM     94  N   UNL A   1      33.958  14.871  25.602  1.00  0.00    -0.090 NA
ENDBRANCH  87  90
ENDBRANCH  85  86
ENDBRANCH  84  85
ENDBRANCH  78  80
ENDBRANCH  77  78
ENDBRANCH  76  77
ENDBRANCH  75  76
ENDBRANCH  74  75
ENDBRANCH  73  74
ENDBRANCH   1  73
TORSDOF 23
ENDMDL
MODEL 3
REMARK VINA RESULT:      -9.2      2.464      2.905
REMARK SMILES O=C(OCCOCCOCCOC(=O)c1ccc(CNC(=O)c2cnns2)o1)c1ccc(-c2c3nc(c(-c4cccc(S(=O)(=O)[O-])c4F)c4ccc([nH]4)c(-c4cccc(S(=O)(=O)[O-])c4F)c4nc(c(-c5cccc(S(=O)(=O)[O-])c5F)c5ccc2[nH]5)C=C4)C=C3)cc1
REMARK SMILES IDX 7 1 6 2 5 3 4 4 3 5 2 6 1 7 29 8 30 9 91 10 31 11 90 12
REMARK SMILES IDX 32 13 33 14 34 15 84 16 35 17 89 18 83 19 85 20 36 21 88 22
REMARK SMILES IDX 82 23 81 24 37 26 69 27 49 28 68 29 50 30 53 31 67 32 86 33
REMARK SMILES IDX 51 34 52 35 66 37 87 38 54 39 38 40 39 41 47 42 40 43 42 44
REMARK SMILES IDX 48 45 41 46 43 47 44 48 45 49 46 50 70 51 71 52 79 53 72 54
REMARK SMILES IDX 74 55 80 56 73 57 75 58 76 59 77 60 78 61 55 62 56 63 64 64
REMARK SMILES IDX 57 65 59 66 65 67 58 68 60 69 61 70 62 71 63 72 8 73 9 74
REMARK SMILES IDX 10 75 11 76 12 77 13 78 14 79 15 80 16 81 28 82 17 83 18 84
REMARK SMILES IDX 19 85 20 86 21 87 22 89 23 90 24 91 27 92 25 93 26 94
REMARK H PARENT 85 25 53 36 20 88
REMARK Flexibility Score: inf
ROOT
ATOM      1  C   UNL A   1      41.329  19.930  26.102  1.00  0.00     0.188 C 
ENDROOT
BRANCH   1   2
ATOM      2  O   UNL A   1      42.334  19.237  25.354  1.00  0.00    -0.376 OA
BRANCH   2   3
ATOM      3  C   UNL A   1      43.666  19.618  25.730  1.00  0.00     0.202 C 
BRANCH   3   4
ATOM      4  C   UNL A   1      44.265  20.823  24.975  1.00  0.00     0.261 C 
BRANCH   4   5
ATOM      5  O   UNL A   1      43.683  22.090  25.344  1.00  0.00    -0.460 OA
BRANCH   5   6
ATOM      6  C   UNL A   1      44.003  23.360  25.021  1.00  0.00     0.338 C 
ATOM      7  O   UNL A   1      44.736  23.552  24.053  1.00  0.00    -0.246 OA
BRANCH   6   8
ATOM      8  C   UNL A   1      43.548  24.542  25.805  1.00  0.00     0.060 A 
ATOM      9  C   UNL A   1      43.816  25.871  25.474  1.00  0.00     0.016 A 
ATOM     10  C   UNL A   1      42.720  24.292  26.906  1.00  0.00     0.016 A 
ATOM     11  C   UNL A   1      43.362  26.926  26.266  1.00  0.00     0.010 A 
ATOM     12  C   UNL A   1      42.215  25.344  27.673  1.00  0.00     0.010 A 
ATOM     13  C   UNL A   1      42.571  26.667  27.381  1.00  0.00    -0.014 A 
BRANCH  13  14
ATOM     14  C   UNL A   1      42.234  27.742  28.337  1.00  0.00     0.031 A 
ATOM     15  C   UNL A   1      43.183  27.995  29.468  1.00  0.00     0.074 A 
ATOM     16  C   UNL A   1      41.102  28.458  28.216  1.00  0.00     0.049 A 
ATOM     17  N   UNL A   1      43.023  28.727  30.535  1.00  0.00    -0.248 NA
ATOM     18  C   UNL A   1      44.493  27.325  29.381  1.00  0.00     0.031 C 
ATOM     19  C   UNL A   1      40.156  28.360  27.108  1.00  0.00     0.029 A 
ATOM     20  N   UNL A   1      40.538  29.383  29.057  1.00  0.00    -0.354 N 
ATOM     21  C   UNL A   1      44.185  28.558  31.275  1.00  0.00     0.074 A 
ATOM     22  C   UNL A   1      45.037  27.649  30.542  1.00  0.00     0.031 C 
ATOM     23  C   UNL A   1      39.091  29.135  27.370  1.00  0.00     0.029 A 
ATOM     24  C   UNL A   1      39.270  29.758  28.677  1.00  0.00     0.049 A 
ATOM     25  H   UNL A   1      40.995  29.744  29.851  1.00  0.00     0.167 HD
ATOM     26  C   UNL A   1      44.520  29.125  32.455  1.00  0.00     0.034 A 
ATOM     27  C   UNL A   1      38.342  30.483  29.332  1.00  0.00     0.034 A 
ATOM     28  C   UNL A   1      43.679  30.056  33.150  1.00  0.00     0.049 A 
ATOM     29  C   UNL A   1      38.709  31.078  30.662  1.00  0.00     0.074 A 
ATOM     30  C   UNL A   1      43.917  30.717  34.339  1.00  0.00     0.029 A 
ATOM     31  N   UNL A   1      42.427  30.458  32.704  1.00  0.00    -0.354 N 
ATOM     32  N   UNL A   1      39.833  30.959  31.327  1.00  0.00    -0.248 NA
ATOM     33  C   UNL A   1      37.710  31.935  31.314  1.00  0.00     0.031 C 
ATOM     34  C   UNL A   1      42.801  31.514  34.617  1.00  0.00     0.029 A 
ATOM     35  C   UNL A   1      41.877  31.359  33.593  1.00  0.00     0.049 A 
ATOM     36  H   UNL A   1      41.996  30.145  31.876  1.00  0.00     0.167 HD
ATOM     37  C   UNL A   1      39.700  31.763  32.452  1.00  0.00     0.074 A 
ATOM     38  C   UNL A   1      38.380  32.360  32.381  1.00  0.00     0.031 C 
ATOM     39  C   UNL A   1      40.586  31.986  33.452  1.00  0.00     0.034 A 
BRANCH  26  40
ATOM     40  C   UNL A   1      45.853  28.744  33.035  1.00  0.00     0.023 A 
ATOM     41  C   UNL A   1      45.930  27.706  33.987  1.00  0.00     0.012 A 
ATOM     42  C   UNL A   1      47.019  29.449  32.683  1.00  0.00     0.148 A 
ATOM     43  C   UNL A   1      47.140  27.410  34.616  1.00  0.00     0.002 A 
ATOM     44  C   UNL A   1      48.228  29.121  33.286  1.00  0.00     0.091 A 
ATOM     45  F   UNL A   1      46.919  30.456  31.804  1.00  0.00    -0.205 F 
ATOM     46  C   UNL A   1      48.287  28.113  34.262  1.00  0.00     0.022 A 
BRANCH  44  47
ATOM     47  S   UNL A   1      49.764  29.938  32.845  1.00  0.00     0.127 S 
ATOM     48  O   UNL A   1      50.175  30.509  34.126  1.00  0.00    -0.237 OA
ATOM     49  O   UNL A   1      50.590  28.820  32.384  1.00  0.00    -0.237 OA
ATOM     50  O   UNL A   1      49.415  30.894  31.804  1.00  0.00    -0.744 OA
ENDBRANCH  44  47
ENDBRANCH  26  40
BRANCH  27  51
ATOM     51  C   UNL A   1      37.000  30.681  28.715  1.00  0.00     0.023 A 
ATOM     52  C   UNL A   1      36.195  29.571  28.402  1.00  0.00     0.012 A 
ATOM     53  C   UNL A   1      36.482  31.977  28.524  1.00  0.00     0.148 A 
ATOM     54  C   UNL A   1      34.904  29.748  27.900  1.00  0.00     0.002 A 
ATOM     55  C   UNL A   1      35.176  32.147  28.081  1.00  0.00     0.091 A 
ATOM     56  F   UNL A   1      37.267  33.025  28.815  1.00  0.00    -0.205 F 
ATOM     57  C   UNL A   1      34.389  31.034  27.754  1.00  0.00     0.022 A 
BRANCH  55  58
ATOM     58  S   UNL A   1      34.393  33.764  28.050  1.00  0.00     0.127 S 
ATOM     59  O   UNL A   1      33.021  33.428  27.682  1.00  0.00    -0.237 OA
ATOM     60  O   UNL A   1      34.575  34.216  29.429  1.00  0.00    -0.237 OA
ATOM     61  O   UNL A   1      35.151  34.536  27.073  1.00  0.00    -0.744 OA
ENDBRANCH  55  58
ENDBRANCH  27  51
BRANCH  39  62
ATOM     62  C   UNL A   1      40.196  32.960  34.527  1.00  0.00     0.023 A 
ATOM     63  C   UNL A   1      40.473  34.329  34.364  1.00  0.00     0.012 A 
ATOM     64  C   UNL A   1      39.432  32.524  35.627  1.00  0.00     0.148 A 
ATOM     65  C   UNL A   1      39.994  35.256  35.288  1.00  0.00     0.002 A 
ATOM     66  C   UNL A   1      38.922  33.458  36.518  1.00  0.00     0.091 A 
ATOM     67  F   UNL A   1      39.204  31.210  35.767  1.00  0.00    -0.205 F 
ATOM     68  C   UNL A   1      39.207  34.824  36.354  1.00  0.00     0.022 A 
BRANCH  66  69
ATOM     69  S   UNL A   1      37.817  32.998  37.857  1.00  0.00     0.127 S 
ATOM     70  O   UNL A   1      38.242  31.628  38.134  1.00  0.00    -0.237 OA
ATOM     71  O   UNL A   1      38.167  33.969  38.895  1.00  0.00    -0.237 OA
ATOM     72  O   UNL A   1      36.467  33.141  37.330  1.00  0.00    -0.744 OA
ENDBRANCH  66  69
ENDBRANCH  39  62
ENDBRANCH  13  14
ENDBRANCH   6   8
ENDBRANCH   5   6
ENDBRANCH   4   5
ENDBRANCH   3   4
ENDBRANCH   2   3
ENDBRANCH   1   2
BRANCH   1  73
ATOM     73  C   UNL A   1      39.877  19.477  25.891  1.00  0.00     0.188 C 
BRANCH  73  74
ATOM     74  O   UNL A   1      38.895  20.369  25.379  1.00  0.00    -0.376 OA
BRANCH  74  75
ATOM     75  C   UNL A   1      37.636  19.857  24.996  1.00  0.00     0.202 C 
BRANCH  75  76
ATOM     76  C   UNL A   1      36.494  20.848  24.760  1.00  0.00     0.261 C 
BRANCH  76  77
ATOM     77  O   UNL A   1      36.873  22.228  24.671  1.00  0.00    -0.457 OA
BRANCH  77  78
ATOM     78  C   UNL A   1      36.175  22.942  23.739  1.00  0.00     0.374 C 
ATOM     79  O   UNL A   1      36.574  23.147  22.587  1.00  0.00    -0.242 OA
BRANCH  78  80
ATOM     80  C   UNL A   1      34.991  23.544  24.297  1.00  0.00     0.211 A 
ATOM     81  C   UNL A   1      34.836  24.179  25.517  1.00  0.00     0.058 A 
ATOM     82  O   UNL A   1      33.802  23.588  23.607  1.00  0.00    -0.452 OA
ATOM     83  C   UNL A   1      33.511  24.652  25.576  1.00  0.00     0.048 A 
ATOM     84  C   UNL A   1      32.920  24.299  24.383  1.00  0.00     0.124 A 
BRANCH  84  85
ATOM     85  C   UNL A   1      31.566  24.572  23.834  1.00  0.00     0.191 C 
BRANCH  85  86
ATOM     86  N   UNL A   1      31.693  24.782  22.406  1.00  0.00    -0.344 N 
ATOM     87  C   UNL A   1      31.761  25.959  21.709  1.00  0.00     0.265 C 
ATOM     88  H   UNL A   1      31.735  23.963  21.860  1.00  0.00     0.164 HD
ATOM     89  O   UNL A   1      31.657  25.902  20.483  1.00  0.00    -0.268 OA
BRANCH  87  90
ATOM     90  C   UNL A   1      31.934  27.192  22.424  1.00  0.00     0.133 A 
ATOM     91  C   UNL A   1      31.047  28.040  23.058  1.00  0.00     0.163 A 
ATOM     92  S   UNL A   1      33.506  27.816  22.698  1.00  0.00    -0.007 S 
ATOM     93  N   UNL A   1      31.622  29.141  23.677  1.00  0.00    -0.146 NA
ATOM     94  N   UNL A   1      32.938  29.140  23.548  1.00  0.00    -0.090 NA
ENDBRANCH  87  90
ENDBRANCH  85  86
ENDBRANCH  84  85
ENDBRANCH  78  80
ENDBRANCH  77  78
ENDBRANCH  76  77
ENDBRANCH  75  76
ENDBRANCH  74  75
ENDBRANCH  73  74
ENDBRANCH   1  73
TORSDOF 23
ENDMDL
