MODEL 1
REMARK VINA RESULT:     -11.8      0.000      0.000
REMARK SMILES Cc1ccccc1/[NH+]=C1\S[C@@H](CC(=O)Nc2ccc(C(=O)OCCOCCOCCOC(=O)c3ccc(-c4c5nc(c(-c6cccc(S(=O)(=O)[O-])c6F)c6ccc([nH]6)c(-c6cccc(S(=O)(=O)[O-])c6F)c6nc(c(-c7cccc(S(=O)(=O)[O-])c7F)c7ccc4[nH]7)C=C6)C=C5)cc3)cc2)C(=O)N1C
REMARK SMILES IDX 26 1 25 2 24 3 23 4 22 5 20 6 21 7 19 8 16 9 17 10 98 11
REMARK SMILES IDX 18 12 97 13 15 14 13 15 14 16 12 18 11 19 8 20 9 21 10 23
REMARK SMILES IDX 101 24 99 25 102 26 100 27 7 28 1 29 2 30 3 31 4 32 6 33
REMARK SMILES IDX 5 34 27 35 28 36 29 37 30 38 31 39 32 40 33 41 34 42 35 43
REMARK SMILES IDX 96 44 36 45 95 46 37 47 38 48 39 49 89 50 40 51 94 52 88 53
REMARK SMILES IDX 90 54 41 55 93 56 87 57 86 58 42 60 74 61 54 62 73 63 55 64
REMARK SMILES IDX 58 65 72 66 91 67 56 68 57 69 71 71 92 72 59 73 43 74 44 75
REMARK SMILES IDX 52 76 45 77 47 78 53 79 46 80 48 81 49 82 50 83 51 84 75 85
REMARK SMILES IDX 76 86 84 87 77 88 79 89 85 90 78 91 80 92 81 93 82 94 83 95
REMARK SMILES IDX 60 96 61 97 69 98 62 99 64 100 70 101 63 102 65 103 66 104
REMARK SMILES IDX 67 105 68 106
REMARK H PARENT 15 17 8 22 90 59 58 70
REMARK Flexibility Score: inf
ROOT
ATOM      1  C   UNL A   1      31.948  28.774  26.459  1.00  0.00     0.188 C 
ENDROOT
BRANCH   1   2
ATOM      2  O   UNL A   1      31.125  27.847  25.774  1.00  0.00    -0.376 OA
BRANCH   2   3
ATOM      3  C   UNL A   1      31.200  26.554  26.429  1.00  0.00     0.202 C 
BRANCH   3   4
ATOM      4  C   UNL A   1      29.903  25.582  26.184  1.00  0.00     0.261 C 
BRANCH   4   5
ATOM      5  O   UNL A   1      29.601  24.233  26.923  1.00  0.00    -0.460 OA
BRANCH   5   6
ATOM      6  C   UNL A   1      29.821  22.883  26.862  1.00  0.00     0.338 C 
ATOM      7  O   UNL A   1      29.036  21.962  26.993  1.00  0.00    -0.246 OA
BRANCH   6   8
ATOM      8  C   UNL A   1      31.220  22.457  26.574  1.00  0.00     0.060 A 
ATOM      9  C   UNL A   1      33.766  22.365  25.501  1.00  0.00     0.041 A 
ATOM     10  C   UNL A   1      32.753  21.572  24.960  1.00  0.00     0.027 A 
ATOM     11  C   UNL A   1      33.603  22.964  26.742  1.00  0.00     0.027 A 
ATOM     12  C   UNL A   1      31.471  21.624  25.497  1.00  0.00     0.018 A 
ATOM     13  C   UNL A   1      32.313  23.019  27.280  1.00  0.00     0.018 A 
BRANCH   9  14
ATOM     14  N   UNL A   1      34.733  22.866  24.614  1.00  0.00    -0.326 N 
ATOM     15  C   UNL A   1      34.424  23.203  23.307  1.00  0.00     0.226 C 
ATOM     16  O   UNL A   1      35.308  23.240  22.448  1.00  0.00    -0.275 OA
ATOM     17  H   UNL A   1      35.658  22.980  24.932  1.00  0.00     0.169 HD
BRANCH  15  18
ATOM     18  C   UNL A   1      32.998  23.619  22.980  1.00  0.00     0.128 C 
BRANCH  18  19
ATOM     19  C   UNL A   1      32.562  25.008  23.410  1.00  0.00     0.183 C 
ATOM     20  N   UNL A   1      31.486  28.450  22.601  1.00  0.00    -0.234 N 
ATOM     21  C   UNL A   1      32.134  27.349  22.545  1.00  0.00     0.319 C 
ATOM     22  H   UNL A   1      32.062  29.230  22.773  1.00  0.00     0.313 HD
ATOM     23  S   UNL A   1      31.730  25.772  22.005  1.00  0.00    -0.022 SA
ATOM     24  N   UNL A   1      33.353  27.273  23.168  1.00  0.00    -0.193 N 
ATOM     25  C   UNL A   1      33.567  26.075  23.830  1.00  0.00     0.324 C 
ATOM     26  C   UNL A   1      34.148  28.458  23.425  1.00  0.00     0.301 C 
ATOM     27  O   UNL A   1      34.339  25.937  24.775  1.00  0.00    -0.245 OA
BRANCH  20  28
ATOM     28  C   UNL A   1      30.127  28.781  22.470  1.00  0.00     0.128 A 
ATOM     29  C   UNL A   1      28.781  26.844  23.573  1.00  0.00     0.049 C 
ATOM     30  C   UNL A   1      28.947  28.211  22.984  1.00  0.00    -0.004 A 
ATOM     31  C   UNL A   1      27.743  28.953  22.927  1.00  0.00     0.008 A 
ATOM     32  C   UNL A   1      27.664  30.196  22.310  1.00  0.00     0.001 A 
ATOM     33  C   UNL A   1      29.995  30.023  21.805  1.00  0.00     0.052 A 
ATOM     34  C   UNL A   1      28.792  30.721  21.716  1.00  0.00     0.004 A 
ENDBRANCH  20  28
ENDBRANCH  18  19
ENDBRANCH  15  18
ENDBRANCH   9  14
ENDBRANCH   6   8
ENDBRANCH   5   6
ENDBRANCH   4   5
ENDBRANCH   3   4
ENDBRANCH   2   3
ENDBRANCH   1   2
BRANCH   1  35
ATOM     35  C   UNL A   1      31.694  30.242  26.148  1.00  0.00     0.188 C 
BRANCH  35  36
ATOM     36  O   UNL A   1      32.641  31.220  26.582  1.00  0.00    -0.376 OA
BRANCH  36  37
ATOM     37  C   UNL A   1      33.569  30.860  27.603  1.00  0.00     0.202 C 
BRANCH  37  38
ATOM     38  C   UNL A   1      34.754  29.926  27.241  1.00  0.00     0.261 C 
BRANCH  38  39
ATOM     39  O   UNL A   1      35.725  29.802  28.295  1.00  0.00    -0.460 OA
BRANCH  39  40
ATOM     40  C   UNL A   1      36.164  30.984  28.842  1.00  0.00     0.338 C 
ATOM     41  O   UNL A   1      35.806  32.093  28.501  1.00  0.00    -0.246 OA
BRANCH  40  42
ATOM     42  C   UNL A   1      37.355  30.619  29.665  1.00  0.00     0.060 A 
ATOM     43  C   UNL A   1      38.562  31.281  29.614  1.00  0.00     0.016 A 
ATOM     44  C   UNL A   1      37.404  29.397  30.246  1.00  0.00     0.016 A 
ATOM     45  C   UNL A   1      39.804  30.584  29.825  1.00  0.00     0.010 A 
ATOM     46  C   UNL A   1      38.644  28.722  30.211  1.00  0.00     0.010 A 
ATOM     47  C   UNL A   1      39.911  29.195  29.843  1.00  0.00    -0.014 A 
BRANCH  47  48
ATOM     48  C   UNL A   1      41.230  28.393  29.268  1.00  0.00     0.031 A 
ATOM     49  C   UNL A   1      41.490  26.885  28.747  1.00  0.00     0.074 A 
ATOM     50  C   UNL A   1      42.417  29.052  29.345  1.00  0.00     0.049 A 
ATOM     51  N   UNL A   1      42.043  25.890  29.409  1.00  0.00    -0.248 NA
ATOM     52  C   UNL A   1      41.251  26.406  27.370  1.00  0.00     0.031 C 
ATOM     53  C   UNL A   1      43.745  28.500  29.073  1.00  0.00     0.029 A 
ATOM     54  N   UNL A   1      42.714  30.258  29.985  1.00  0.00    -0.354 N 
ATOM     55  C   UNL A   1      41.992  24.727  28.587  1.00  0.00     0.074 A 
ATOM     56  C   UNL A   1      41.241  25.074  27.428  1.00  0.00     0.031 C 
ATOM     57  C   UNL A   1      44.608  29.106  29.909  1.00  0.00     0.029 A 
ATOM     58  C   UNL A   1      43.838  29.997  30.766  1.00  0.00     0.049 A 
ATOM     59  H   UNL A   1      42.231  31.112  29.901  1.00  0.00     0.167 HD
ATOM     60  C   UNL A   1      42.876  23.681  28.603  1.00  0.00     0.034 A 
ATOM     61  C   UNL A   1      43.829  30.033  32.133  1.00  0.00     0.034 A 
ATOM     62  C   UNL A   1      44.026  24.112  29.356  1.00  0.00     0.049 A 
ATOM     63  C   UNL A   1      44.351  28.742  32.749  1.00  0.00     0.074 A 
ATOM     64  C   UNL A   1      45.136  24.830  28.946  1.00  0.00     0.029 A 
ATOM     65  N   UNL A   1      43.942  24.215  30.722  1.00  0.00    -0.354 N 
ATOM     66  N   UNL A   1      44.551  27.626  32.098  1.00  0.00    -0.248 NA
ATOM     67  C   UNL A   1      44.673  28.612  34.166  1.00  0.00     0.031 C 
ATOM     68  C   UNL A   1      45.674  25.461  30.088  1.00  0.00     0.029 A 
ATOM     69  C   UNL A   1      44.931  25.064  31.186  1.00  0.00     0.049 A 
ATOM     70  H   UNL A   1      43.279  23.755  31.286  1.00  0.00     0.167 HD
ATOM     71  C   UNL A   1      44.910  26.629  32.979  1.00  0.00     0.074 A 
ATOM     72  C   UNL A   1      45.036  27.322  34.248  1.00  0.00     0.031 C 
ATOM     73  C   UNL A   1      45.024  25.314  32.609  1.00  0.00     0.034 A 
BRANCH  60  74
ATOM     74  C   UNL A   1      42.954  22.560  27.538  1.00  0.00     0.023 A 
ATOM     75  C   UNL A   1      42.142  21.415  27.729  1.00  0.00     0.012 A 
ATOM     76  C   UNL A   1      43.792  22.530  26.390  1.00  0.00     0.148 A 
ATOM     77  C   UNL A   1      42.233  20.269  26.927  1.00  0.00     0.002 A 
ATOM     78  C   UNL A   1      43.909  21.361  25.607  1.00  0.00     0.091 A 
ATOM     79  F   UNL A   1      44.481  23.632  26.053  1.00  0.00    -0.205 F 
ATOM     80  C   UNL A   1      43.138  20.230  25.883  1.00  0.00     0.022 A 
BRANCH  78  81
ATOM     81  S   UNL A   1      45.161  21.183  24.316  1.00  0.00     0.127 S 
ATOM     82  O   UNL A   1      44.647  22.020  23.225  1.00  0.00    -0.237 OA
ATOM     83  O   UNL A   1      46.356  21.723  24.954  1.00  0.00    -0.237 OA
ATOM     84  O   UNL A   1      45.140  19.760  23.998  1.00  0.00    -0.744 OA
ENDBRANCH  78  81
ENDBRANCH  60  74
BRANCH  61  85
ATOM     85  C   UNL A   1      42.874  30.994  32.812  1.00  0.00     0.023 A 
ATOM     86  C   UNL A   1      43.181  32.380  32.746  1.00  0.00     0.012 A 
ATOM     87  C   UNL A   1      41.602  30.640  33.314  1.00  0.00     0.148 A 
ATOM     88  C   UNL A   1      42.250  33.367  33.090  1.00  0.00     0.002 A 
ATOM     89  C   UNL A   1      40.664  31.634  33.639  1.00  0.00     0.091 A 
ATOM     90  F   UNL A   1      41.263  29.346  33.375  1.00  0.00    -0.205 F 
ATOM     91  C   UNL A   1      40.991  32.995  33.541  1.00  0.00     0.022 A 
BRANCH  89  92
ATOM     92  S   UNL A   1      38.926  31.209  33.912  1.00  0.00     0.127 S 
ATOM     93  O   UNL A   1      38.913  29.757  33.728  1.00  0.00    -0.237 OA
ATOM     94  O   UNL A   1      38.669  31.633  35.282  1.00  0.00    -0.237 OA
ATOM     95  O   UNL A   1      38.265  31.967  32.854  1.00  0.00    -0.744 OA
ENDBRANCH  89  92
ENDBRANCH  61  85
BRANCH  73  96
ATOM     96  C   UNL A   1      45.184  24.099  33.521  1.00  0.00     0.023 A 
ATOM     97  C   UNL A   1      44.177  23.134  33.680  1.00  0.00     0.012 A 
ATOM     98  C   UNL A   1      46.443  23.791  34.118  1.00  0.00     0.148 A 
ATOM     99  C   UNL A   1      44.384  21.959  34.411  1.00  0.00     0.002 A 
ATOM    100  C   UNL A   1      46.684  22.558  34.716  1.00  0.00     0.091 A 
ATOM    101  F   UNL A   1      47.430  24.701  34.131  1.00  0.00    -0.205 F 
ATOM    102  C   UNL A   1      45.646  21.651  34.899  1.00  0.00     0.022 A 
BRANCH 100 103
ATOM    103  S   UNL A   1      48.372  22.032  35.064  1.00  0.00     0.127 S 
ATOM    104  O   UNL A   1      48.576  22.517  36.426  1.00  0.00    -0.237 OA
ATOM    105  O   UNL A   1      48.286  20.575  34.945  1.00  0.00    -0.237 OA
ATOM    106  O   UNL A   1      49.168  22.665  34.020  1.00  0.00    -0.744 OA
ENDBRANCH 100 103
ENDBRANCH  73  96
ENDBRANCH  47  48
ENDBRANCH  40  42
ENDBRANCH  39  40
ENDBRANCH  38  39
ENDBRANCH  37  38
ENDBRANCH  36  37
ENDBRANCH  35  36
ENDBRANCH   1  35
TORSDOF 24
ENDMDL
MODEL 2
REMARK VINA RESULT:     -11.5      1.735      2.569
REMARK SMILES Cc1ccccc1/[NH+]=C1\S[C@@H](CC(=O)Nc2ccc(C(=O)OCCOCCOCCOC(=O)c3ccc(-c4c5nc(c(-c6cccc(S(=O)(=O)[O-])c6F)c6ccc([nH]6)c(-c6cccc(S(=O)(=O)[O-])c6F)c6nc(c(-c7cccc(S(=O)(=O)[O-])c7F)c7ccc4[nH]7)C=C6)C=C5)cc3)cc2)C(=O)N1C
REMARK SMILES IDX 26 1 25 2 24 3 23 4 22 5 20 6 21 7 19 8 16 9 17 10 98 11
REMARK SMILES IDX 18 12 97 13 15 14 13 15 14 16 12 18 11 19 8 20 9 21 10 23
REMARK SMILES IDX 101 24 99 25 102 26 100 27 7 28 1 29 2 30 3 31 4 32 6 33
REMARK SMILES IDX 5 34 27 35 28 36 29 37 30 38 31 39 32 40 33 41 34 42 35 43
REMARK SMILES IDX 96 44 36 45 95 46 37 47 38 48 39 49 89 50 40 51 94 52 88 53
REMARK SMILES IDX 90 54 41 55 93 56 87 57 86 58 42 60 74 61 54 62 73 63 55 64
REMARK SMILES IDX 58 65 72 66 91 67 56 68 57 69 71 71 92 72 59 73 43 74 44 75
REMARK SMILES IDX 52 76 45 77 47 78 53 79 46 80 48 81 49 82 50 83 51 84 75 85
REMARK SMILES IDX 76 86 84 87 77 88 79 89 85 90 78 91 80 92 81 93 82 94 83 95
REMARK SMILES IDX 60 96 61 97 69 98 62 99 64 100 70 101 63 102 65 103 66 104
REMARK SMILES IDX 67 105 68 106
REMARK H PARENT 15 17 8 22 90 59 58 70
REMARK Flexibility Score: inf
ROOT
ATOM      1  C   UNL A   1      32.070  28.965  26.494  1.00  0.00     0.188 C 
ENDROOT
BRANCH   1   2
ATOM      2  O   UNL A   1      31.646  27.806  25.801  1.00  0.00    -0.376 OA
BRANCH   2   3
ATOM      3  C   UNL A   1      31.069  26.862  26.740  1.00  0.00     0.202 C 
BRANCH   3   4
ATOM      4  C   UNL A   1      30.120  25.709  26.062  1.00  0.00     0.261 C 
BRANCH   4   5
ATOM      5  O   UNL A   1      29.564  24.429  26.773  1.00  0.00    -0.460 OA
BRANCH   5   6
ATOM      6  C   UNL A   1      29.801  23.092  26.958  1.00  0.00     0.338 C 
ATOM      7  O   UNL A   1      29.046  22.214  27.333  1.00  0.00    -0.246 OA
BRANCH   6   8
ATOM      8  C   UNL A   1      31.178  22.619  26.638  1.00  0.00     0.060 A 
ATOM      9  C   UNL A   1      33.694  22.441  25.508  1.00  0.00     0.041 A 
ATOM     10  C   UNL A   1      32.643  21.684  24.990  1.00  0.00     0.027 A 
ATOM     11  C   UNL A   1      33.580  23.044  26.752  1.00  0.00     0.027 A 
ATOM     12  C   UNL A   1      31.376  21.779  25.556  1.00  0.00     0.018 A 
ATOM     13  C   UNL A   1      32.306  23.142  27.319  1.00  0.00     0.018 A 
BRANCH   9  14
ATOM     14  N   UNL A   1      34.658  22.909  24.600  1.00  0.00    -0.326 N 
ATOM     15  C   UNL A   1      34.337  23.230  23.291  1.00  0.00     0.226 C 
ATOM     16  O   UNL A   1      35.209  23.236  22.419  1.00  0.00    -0.275 OA
ATOM     17  H   UNL A   1      35.589  23.012  24.903  1.00  0.00     0.169 HD
BRANCH  15  18
ATOM     18  C   UNL A   1      32.914  23.666  22.976  1.00  0.00     0.128 C 
BRANCH  18  19
ATOM     19  C   UNL A   1      32.508  25.069  23.390  1.00  0.00     0.183 C 
ATOM     20  N   UNL A   1      31.484  28.517  22.541  1.00  0.00    -0.234 N 
ATOM     21  C   UNL A   1      32.112  27.404  22.495  1.00  0.00     0.319 C 
ATOM     22  H   UNL A   1      32.076  29.289  22.694  1.00  0.00     0.313 HD
ATOM     23  S   UNL A   1      31.672  25.827  21.984  1.00  0.00    -0.022 SA
ATOM     24  N   UNL A   1      33.337  27.315  23.103  1.00  0.00    -0.193 N 
ATOM     25  C   UNL A   1      33.538  26.123  23.781  1.00  0.00     0.324 C 
ATOM     26  C   UNL A   1      34.157  28.489  23.332  1.00  0.00     0.301 C 
ATOM     27  O   UNL A   1      34.320  25.987  24.719  1.00  0.00    -0.245 OA
BRANCH  20  28
ATOM     28  C   UNL A   1      30.130  28.871  22.422  1.00  0.00     0.128 A 
ATOM     29  C   UNL A   1      28.770  27.030  23.663  1.00  0.00     0.049 C 
ATOM     30  C   UNL A   1      28.951  28.357  22.994  1.00  0.00    -0.004 A 
ATOM     31  C   UNL A   1      27.762  29.122  22.922  1.00  0.00     0.008 A 
ATOM     32  C   UNL A   1      27.694  30.329  22.238  1.00  0.00     0.001 A 
ATOM     33  C   UNL A   1      30.009  30.076  21.692  1.00  0.00     0.052 A 
ATOM     34  C   UNL A   1      28.819  30.795  21.590  1.00  0.00     0.004 A 
ENDBRANCH  20  28
ENDBRANCH  18  19
ENDBRANCH  15  18
ENDBRANCH   9  14
ENDBRANCH   6   8
ENDBRANCH   5   6
ENDBRANCH   4   5
ENDBRANCH   3   4
ENDBRANCH   2   3
ENDBRANCH   1   2
BRANCH   1  35
ATOM     35  C   UNL A   1      31.504  30.285  25.991  1.00  0.00     0.188 C 
BRANCH  35  36
ATOM     36  O   UNL A   1      32.180  31.502  26.311  1.00  0.00    -0.376 OA
BRANCH  36  37
ATOM     37  C   UNL A   1      32.897  31.575  27.542  1.00  0.00     0.202 C 
BRANCH  37  38
ATOM     38  C   UNL A   1      34.409  31.229  27.548  1.00  0.00     0.261 C 
BRANCH  38  39
ATOM     39  O   UNL A   1      35.100  31.710  28.714  1.00  0.00    -0.460 OA
BRANCH  39  40
ATOM     40  C   UNL A   1      35.876  32.829  28.528  1.00  0.00     0.338 C 
ATOM     41  O   UNL A   1      35.847  33.550  27.551  1.00  0.00    -0.246 OA
BRANCH  40  42
ATOM     42  C   UNL A   1      36.927  32.762  29.586  1.00  0.00     0.060 A 
ATOM     43  C   UNL A   1      38.027  33.590  29.635  1.00  0.00     0.016 A 
ATOM     44  C   UNL A   1      37.022  31.647  30.348  1.00  0.00     0.016 A 
ATOM     45  C   UNL A   1      39.286  33.126  30.157  1.00  0.00     0.010 A 
ATOM     46  C   UNL A   1      38.323  31.173  30.627  1.00  0.00     0.010 A 
ATOM     47  C   UNL A   1      39.566  31.784  30.407  1.00  0.00    -0.014 A 
BRANCH  47  48
ATOM     48  C   UNL A   1      41.061  31.128  30.193  1.00  0.00     0.031 A 
ATOM     49  C   UNL A   1      41.601  29.747  29.549  1.00  0.00     0.074 A 
ATOM     50  C   UNL A   1      42.097  31.785  30.780  1.00  0.00     0.049 A 
ATOM     51  N   UNL A   1      41.981  28.658  30.184  1.00  0.00    -0.248 NA
ATOM     52  C   UNL A   1      41.873  29.526  28.113  1.00  0.00     0.031 C 
ATOM     53  C   UNL A   1      43.480  31.318  30.890  1.00  0.00     0.029 A 
ATOM     54  N   UNL A   1      42.065  32.858  31.675  1.00  0.00    -0.354 N 
ATOM     55  C   UNL A   1      42.301  27.667  29.212  1.00  0.00     0.074 A 
ATOM     56  C   UNL A   1      41.953  28.206  27.942  1.00  0.00     0.031 C 
ATOM     57  C   UNL A   1      43.964  31.777  32.059  1.00  0.00     0.029 A 
ATOM     58  C   UNL A   1      42.882  32.479  32.738  1.00  0.00     0.049 A 
ATOM     59  H   UNL A   1      41.570  33.702  31.574  1.00  0.00     0.167 HD
ATOM     60  C   UNL A   1      43.212  26.652  29.354  1.00  0.00     0.034 A 
ATOM     61  C   UNL A   1      42.416  32.262  34.005  1.00  0.00     0.034 A 
ATOM     62  C   UNL A   1      44.006  26.959  30.516  1.00  0.00     0.049 A 
ATOM     63  C   UNL A   1      42.807  30.890  34.537  1.00  0.00     0.074 A 
ATOM     64  C   UNL A   1      45.127  27.763  30.636  1.00  0.00     0.029 A 
ATOM     65  N   UNL A   1      43.464  26.807  31.768  1.00  0.00    -0.354 N 
ATOM     66  N   UNL A   1      43.302  29.918  33.817  1.00  0.00    -0.248 NA
ATOM     67  C   UNL A   1      42.648  30.507  35.936  1.00  0.00     0.031 C 
ATOM     68  C   UNL A   1      45.201  28.183  31.981  1.00  0.00     0.029 A 
ATOM     69  C   UNL A   1      44.170  27.575  32.676  1.00  0.00     0.049 A 
ATOM     70  H   UNL A   1      42.691  26.238  31.986  1.00  0.00     0.167 HD
ATOM     71  C   UNL A   1      43.427  28.782  34.589  1.00  0.00     0.074 A 
ATOM     72  C   UNL A   1      43.067  29.231  35.921  1.00  0.00     0.031 C 
ATOM     73  C   UNL A   1      43.764  27.560  34.066  1.00  0.00     0.034 A 
BRANCH  60  74
ATOM     74  C   UNL A   1      43.730  25.749  28.209  1.00  0.00     0.023 A 
ATOM     75  C   UNL A   1      44.876  26.182  27.499  1.00  0.00     0.012 A 
ATOM     76  C   UNL A   1      43.152  24.532  27.755  1.00  0.00     0.148 A 
ATOM     77  C   UNL A   1      45.351  25.539  26.347  1.00  0.00     0.002 A 
ATOM     78  C   UNL A   1      43.609  23.908  26.574  1.00  0.00     0.091 A 
ATOM     79  F   UNL A   1      42.156  23.975  28.462  1.00  0.00    -0.205 F 
ATOM     80  C   UNL A   1      44.700  24.419  25.867  1.00  0.00     0.022 A 
BRANCH  78  81
ATOM     81  S   UNL A   1      42.732  22.527  25.807  1.00  0.00     0.127 S 
ATOM     82  O   UNL A   1      43.183  22.569  24.411  1.00  0.00    -0.237 OA
ATOM     83  O   UNL A   1      43.237  21.378  26.550  1.00  0.00    -0.237 OA
ATOM     84  O   UNL A   1      41.324  22.874  25.960  1.00  0.00    -0.744 OA
ENDBRANCH  78  81
ENDBRANCH  60  74
BRANCH  61  85
ATOM     85  C   UNL A   1      41.215  33.062  34.466  1.00  0.00     0.023 A 
ATOM     86  C   UNL A   1      41.413  34.442  34.744  1.00  0.00     0.012 A 
ATOM     87  C   UNL A   1      39.882  32.597  34.434  1.00  0.00     0.148 A 
ATOM     88  C   UNL A   1      40.345  35.330  34.910  1.00  0.00     0.002 A 
ATOM     89  C   UNL A   1      38.812  33.497  34.581  1.00  0.00     0.091 A 
ATOM     90  F   UNL A   1      39.647  31.309  34.156  1.00  0.00    -0.205 F 
ATOM     91  C   UNL A   1      39.042  34.858  34.831  1.00  0.00     0.022 A 
BRANCH  89  92
ATOM     92  S   UNL A   1      37.123  32.997  34.165  1.00  0.00     0.127 S 
ATOM     93  O   UNL A   1      36.367  33.375  35.360  1.00  0.00    -0.237 OA
ATOM     94  O   UNL A   1      36.799  33.791  32.987  1.00  0.00    -0.237 OA
ATOM     95  O   UNL A   1      37.278  31.560  33.966  1.00  0.00    -0.744 OA
ENDBRANCH  89  92
ENDBRANCH  61  85
BRANCH  73  96
ATOM     96  C   UNL A   1      43.710  26.201  34.761  1.00  0.00     0.023 A 
ATOM     97  C   UNL A   1      42.526  25.456  34.874  1.00  0.00     0.012 A 
ATOM     98  C   UNL A   1      44.906  25.540  35.173  1.00  0.00     0.148 A 
ATOM     99  C   UNL A   1      42.514  24.156  35.394  1.00  0.00     0.002 A 
ATOM    100  C   UNL A   1      44.905  24.200  35.548  1.00  0.00     0.091 A 
ATOM    101  F   UNL A   1      46.069  26.208  35.222  1.00  0.00    -0.205 F 
ATOM    102  C   UNL A   1      43.705  23.512  35.698  1.00  0.00     0.022 A 
BRANCH 100 103
ATOM    103  S   UNL A   1      46.452  23.281  35.638  1.00  0.00     0.127 S 
ATOM    104  O   UNL A   1      47.033  23.516  34.318  1.00  0.00    -0.237 OA
ATOM    105  O   UNL A   1      47.156  23.944  36.738  1.00  0.00    -0.237 OA
ATOM    106  O   UNL A   1      46.042  21.915  35.936  1.00  0.00    -0.744 OA
ENDBRANCH 100 103
ENDBRANCH  73  96
ENDBRANCH  47  48
ENDBRANCH  40  42
ENDBRANCH  39  40
ENDBRANCH  38  39
ENDBRANCH  37  38
ENDBRANCH  36  37
ENDBRANCH  35  36
ENDBRANCH   1  35
TORSDOF 24
ENDMDL
MODEL 3
REMARK VINA RESULT:     -11.2      3.012      3.683
REMARK SMILES Cc1ccccc1/[NH+]=C1\S[C@@H](CC(=O)Nc2ccc(C(=O)OCCOCCOCCOC(=O)c3ccc(-c4c5nc(c(-c6cccc(S(=O)(=O)[O-])c6F)c6ccc([nH]6)c(-c6cccc(S(=O)(=O)[O-])c6F)c6nc(c(-c7cccc(S(=O)(=O)[O-])c7F)c7ccc4[nH]7)C=C6)C=C5)cc3)cc2)C(=O)N1C
REMARK SMILES IDX 26 1 25 2 24 3 23 4 22 5 20 6 21 7 19 8 16 9 17 10 98 11
REMARK SMILES IDX 18 12 97 13 15 14 13 15 14 16 12 18 11 19 8 20 9 21 10 23
REMARK SMILES IDX 101 24 99 25 102 26 100 27 7 28 1 29 2 30 3 31 4 32 6 33
REMARK SMILES IDX 5 34 27 35 28 36 29 37 30 38 31 39 32 40 33 41 34 42 35 43
REMARK SMILES IDX 96 44 36 45 95 46 37 47 38 48 39 49 89 50 40 51 94 52 88 53
REMARK SMILES IDX 90 54 41 55 93 56 87 57 86 58 42 60 74 61 54 62 73 63 55 64
REMARK SMILES IDX 58 65 72 66 91 67 56 68 57 69 71 71 92 72 59 73 43 74 44 75
REMARK SMILES IDX 52 76 45 77 47 78 53 79 46 80 48 81 49 82 50 83 51 84 75 85
REMARK SMILES IDX 76 86 84 87 77 88 79 89 85 90 78 91 80 92 81 93 82 94 83 95
REMARK SMILES IDX 60 96 61 97 69 98 62 99 64 100 70 101 63 102 65 103 66 104
REMARK SMILES IDX 67 105 68 106
REMARK H PARENT 15 17 8 22 90 59 58 70
REMARK Flexibility Score: inf
ROOT
ATOM      1  C   UNL A   1      32.633  28.821  26.759  1.00  0.00     0.188 C 
ENDROOT
BRANCH   1   2
ATOM      2  O   UNL A   1      31.692  28.067  26.016  1.00  0.00    -0.376 OA
BRANCH   2   3
ATOM      3  C   UNL A   1      31.447  26.802  26.683  1.00  0.00     0.202 C 
BRANCH   3   4
ATOM      4  C   UNL A   1      30.317  25.854  25.968  1.00  0.00     0.261 C 
BRANCH   4   5
ATOM      5  O   UNL A   1      29.688  24.548  26.565  1.00  0.00    -0.460 OA
BRANCH   5   6
ATOM      6  C   UNL A   1      30.007  23.319  27.077  1.00  0.00     0.338 C 
ATOM      7  O   UNL A   1      29.350  22.580  27.787  1.00  0.00    -0.246 OA
BRANCH   6   8
ATOM      8  C   UNL A   1      31.345  22.778  26.703  1.00  0.00     0.060 A 
ATOM      9  C   UNL A   1      33.817  22.494  25.499  1.00  0.00     0.041 A 
ATOM     10  C   UNL A   1      32.709  21.819  24.984  1.00  0.00     0.027 A 
ATOM     11  C   UNL A   1      33.770  23.058  26.766  1.00  0.00     0.027 A 
ATOM     12  C   UNL A   1      31.465  21.967  25.588  1.00  0.00     0.018 A 
ATOM     13  C   UNL A   1      32.518  23.209  27.371  1.00  0.00     0.018 A 
BRANCH   9  14
ATOM     14  N   UNL A   1      34.783  22.938  24.582  1.00  0.00    -0.326 N 
ATOM     15  C   UNL A   1      34.468  23.216  23.262  1.00  0.00     0.226 C 
ATOM     16  O   UNL A   1      35.344  23.199  22.395  1.00  0.00    -0.275 OA
ATOM     17  H   UNL A   1      35.712  23.054  24.887  1.00  0.00     0.169 HD
BRANCH  15  18
ATOM     18  C   UNL A   1      33.045  23.636  22.926  1.00  0.00     0.128 C 
BRANCH  18  19
ATOM     19  C   UNL A   1      32.604  25.019  23.372  1.00  0.00     0.183 C 
ATOM     20  N   UNL A   1      31.535  28.472  22.599  1.00  0.00    -0.234 N 
ATOM     21  C   UNL A   1      32.184  27.371  22.535  1.00  0.00     0.319 C 
ATOM     22  H   UNL A   1      32.109  29.249  22.788  1.00  0.00     0.313 HD
ATOM     23  S   UNL A   1      31.786  25.802  21.969  1.00  0.00    -0.022 SA
ATOM     24  N   UNL A   1      33.396  27.287  23.168  1.00  0.00    -0.193 N 
ATOM     25  C   UNL A   1      33.604  26.079  23.816  1.00  0.00     0.324 C 
ATOM     26  C   UNL A   1      34.189  28.468  23.451  1.00  0.00     0.301 C 
ATOM     27  O   UNL A   1      34.367  25.929  24.768  1.00  0.00    -0.245 OA
BRANCH  20  28
ATOM     28  C   UNL A   1      30.177  28.804  22.458  1.00  0.00     0.128 A 
ATOM     29  C   UNL A   1      28.825  26.921  23.644  1.00  0.00     0.049 C 
ATOM     30  C   UNL A   1      28.996  28.262  22.999  1.00  0.00    -0.004 A 
ATOM     31  C   UNL A   1      27.796  29.007  22.915  1.00  0.00     0.008 A 
ATOM     32  C   UNL A   1      27.721  30.224  22.248  1.00  0.00     0.001 A 
ATOM     33  C   UNL A   1      30.050  30.019  21.744  1.00  0.00     0.052 A 
ATOM     34  C   UNL A   1      28.850  30.719  21.630  1.00  0.00     0.004 A 
ENDBRANCH  20  28
ENDBRANCH  18  19
ENDBRANCH  15  18
ENDBRANCH   9  14
ENDBRANCH   6   8
ENDBRANCH   5   6
ENDBRANCH   4   5
ENDBRANCH   3   4
ENDBRANCH   2   3
ENDBRANCH   1   2
BRANCH   1  35
ATOM     35  C   UNL A   1      32.372  30.319  26.835  1.00  0.00     0.188 C 
BRANCH  35  36
ATOM     36  O   UNL A   1      33.375  31.174  27.385  1.00  0.00    -0.376 OA
BRANCH  36  37
ATOM     37  C   UNL A   1      34.589  30.586  27.846  1.00  0.00     0.202 C 
BRANCH  37  38
ATOM     38  C   UNL A   1      35.864  31.466  27.924  1.00  0.00     0.261 C 
BRANCH  38  39
ATOM     39  O   UNL A   1      36.792  31.037  28.935  1.00  0.00    -0.460 OA
BRANCH  39  40
ATOM     40  C   UNL A   1      36.634  29.746  29.381  1.00  0.00     0.338 C 
ATOM     41  O   UNL A   1      35.884  29.396  30.270  1.00  0.00    -0.246 OA
BRANCH  40  42
ATOM     42  C   UNL A   1      37.768  28.981  28.784  1.00  0.00     0.060 A 
ATOM     43  C   UNL A   1      38.571  28.113  29.492  1.00  0.00     0.016 A 
ATOM     44  C   UNL A   1      38.274  29.375  27.593  1.00  0.00     0.016 A 
ATOM     45  C   UNL A   1      39.961  27.943  29.158  1.00  0.00     0.010 A 
ATOM     46  C   UNL A   1      39.679  29.352  27.455  1.00  0.00     0.010 A 
ATOM     47  C   UNL A   1      40.652  28.791  28.294  1.00  0.00    -0.014 A 
BRANCH  47  48
ATOM     48  C   UNL A   1      42.241  29.172  28.499  1.00  0.00     0.031 A 
ATOM     49  C   UNL A   1      43.631  28.426  28.141  1.00  0.00     0.074 A 
ATOM     50  C   UNL A   1      42.505  30.282  29.238  1.00  0.00     0.049 A 
ATOM     51  N   UNL A   1      44.411  27.746  28.956  1.00  0.00    -0.248 NA
ATOM     52  C   UNL A   1      44.323  28.494  26.837  1.00  0.00     0.031 C 
ATOM     53  C   UNL A   1      43.817  30.729  29.711  1.00  0.00     0.029 A 
ATOM     54  N   UNL A   1      41.627  31.070  29.986  1.00  0.00    -0.354 N 
ATOM     55  C   UNL A   1      45.481  27.199  28.190  1.00  0.00     0.074 A 
ATOM     56  C   UNL A   1      45.207  27.496  26.825  1.00  0.00     0.031 C 
ATOM     57  C   UNL A   1      43.630  31.317  30.907  1.00  0.00     0.029 A 
ATOM     58  C   UNL A   1      42.217  31.194  31.242  1.00  0.00     0.049 A 
ATOM     59  H   UNL A   1      40.772  31.456  29.688  1.00  0.00     0.167 HD
ATOM     60  C   UNL A   1      46.746  26.924  28.642  1.00  0.00     0.034 A 
ATOM     61  C   UNL A   1      41.676  30.669  32.383  1.00  0.00     0.034 A 
ATOM     62  C   UNL A   1      46.889  27.577  29.918  1.00  0.00     0.049 A 
ATOM     63  C   UNL A   1      42.657  29.774  33.129  1.00  0.00     0.074 A 
ATOM     64  C   UNL A   1      47.246  28.883  30.209  1.00  0.00     0.029 A 
ATOM     65  N   UNL A   1      46.256  27.060  31.019  1.00  0.00    -0.354 N 
ATOM     66  N   UNL A   1      43.789  29.334  32.646  1.00  0.00    -0.248 NA
ATOM     67  C   UNL A   1      42.418  29.293  34.486  1.00  0.00     0.031 C 
ATOM     68  C   UNL A   1      46.725  29.186  31.485  1.00  0.00     0.029 A 
ATOM     69  C   UNL A   1      46.121  28.044  31.982  1.00  0.00     0.049 A 
ATOM     70  H   UNL A   1      45.945  26.131  31.111  1.00  0.00     0.167 HD
ATOM     71  C   UNL A   1      44.367  28.456  33.538  1.00  0.00     0.074 A 
ATOM     72  C   UNL A   1      43.498  28.524  34.698  1.00  0.00     0.031 C 
ATOM     73  C   UNL A   1      45.476  27.709  33.235  1.00  0.00     0.034 A 
BRANCH  60  74
ATOM     74  C   UNL A   1      47.959  26.576  27.746  1.00  0.00     0.023 A 
ATOM     75  C   UNL A   1      48.539  25.293  27.894  1.00  0.00     0.012 A 
ATOM     76  C   UNL A   1      48.594  27.428  26.801  1.00  0.00     0.148 A 
ATOM     77  C   UNL A   1      49.729  24.912  27.259  1.00  0.00     0.002 A 
ATOM     78  C   UNL A   1      49.812  27.057  26.192  1.00  0.00     0.091 A 
ATOM     79  F   UNL A   1      48.023  28.603  26.490  1.00  0.00    -0.205 F 
ATOM     80  C   UNL A   1      50.383  25.804  26.430  1.00  0.00     0.022 A 
BRANCH  78  81
ATOM     81  S   UNL A   1      50.794  28.211  25.209  1.00  0.00     0.127 S 
ATOM     82  O   UNL A   1      50.149  28.171  23.891  1.00  0.00    -0.237 OA
ATOM     83  O   UNL A   1      50.604  29.473  25.915  1.00  0.00    -0.237 OA
ATOM     84  O   UNL A   1      52.129  27.625  25.205  1.00  0.00    -0.744 OA
ENDBRANCH  78  81
ENDBRANCH  60  74
BRANCH  61  85
ATOM     85  C   UNL A   1      40.167  30.566  32.471  1.00  0.00     0.023 A 
ATOM     86  C   UNL A   1      39.598  29.263  32.479  1.00  0.00     0.012 A 
ATOM     87  C   UNL A   1      39.305  31.647  32.760  1.00  0.00     0.148 A 
ATOM     88  C   UNL A   1      38.262  29.036  32.826  1.00  0.00     0.002 A 
ATOM     89  C   UNL A   1      37.969  31.411  33.128  1.00  0.00     0.091 A 
ATOM     90  F   UNL A   1      39.803  32.889  32.783  1.00  0.00    -0.205 F 
ATOM     91  C   UNL A   1      37.444  30.111  33.148  1.00  0.00     0.022 A 
BRANCH  89  92
ATOM     92  S   UNL A   1      36.970  32.728  33.865  1.00  0.00     0.127 S 
ATOM     93  O   UNL A   1      37.631  33.944  33.389  1.00  0.00    -0.237 OA
ATOM     94  O   UNL A   1      35.642  32.521  33.302  1.00  0.00    -0.237 OA
ATOM     95  O   UNL A   1      37.129  32.461  35.290  1.00  0.00    -0.744 OA
ENDBRANCH  89  92
ENDBRANCH  61  85
BRANCH  73  96
ATOM     96  C   UNL A   1      46.067  26.550  34.035  1.00  0.00     0.023 A 
ATOM     97  C   UNL A   1      47.120  26.720  34.948  1.00  0.00     0.012 A 
ATOM     98  C   UNL A   1      45.453  25.262  34.023  1.00  0.00     0.148 A 
ATOM     99  C   UNL A   1      47.565  25.679  35.771  1.00  0.00     0.002 A 
ATOM    100  C   UNL A   1      45.802  24.280  34.946  1.00  0.00     0.091 A 
ATOM    101  F   UNL A   1      44.524  24.960  33.102  1.00  0.00    -0.205 F 
ATOM    102  C   UNL A   1      46.885  24.470  35.798  1.00  0.00     0.022 A 
BRANCH 100 103
ATOM    103  S   UNL A   1      44.735  22.850  35.197  1.00  0.00     0.127 S 
ATOM    104  O   UNL A   1      45.053  22.016  34.040  1.00  0.00    -0.237 OA
ATOM    105  O   UNL A   1      45.206  22.318  36.477  1.00  0.00    -0.237 OA
ATOM    106  O   UNL A   1      43.390  23.410  35.247  1.00  0.00    -0.744 OA
ENDBRANCH 100 103
ENDBRANCH  73  96
ENDBRANCH  47  48
ENDBRANCH  40  42
ENDBRANCH  39  40
ENDBRANCH  38  39
ENDBRANCH  37  38
ENDBRANCH  36  37
ENDBRANCH  35  36
ENDBRANCH   1  35
TORSDOF 24
ENDMDL
