MODEL 1
REMARK VINA RESULT:     -10.0      0.000      0.000
REMARK SMILES CCC(CC)COc1cc2c(cc1Cl)C=C(C(=O)OCCOCCOCCOC(=O)c1ccc(-c3c4nc(c(-c5cccc(S(=O)(=O)[O-])c5F)c5ccc([nH]5)c(-c5cccc(S(=O)(=O)[O-])c5F)c5nc(c(-c6cccc(S(=O)(=O)[O-])c6F)c6ccc3[nH]6)C=C5)C=C4)cc1)[C@@H](C(F)(F)F)O2
REMARK SMILES IDX 23 1 22 2 21 3 20 4 19 5 17 6 18 7 16 8 8 9 9 10 13 11 10 12
REMARK SMILES IDX 12 13 14 14 11 15 99 16 15 17 94 18 7 19 6 20 3 21 2 22 1 23
REMARK SMILES IDX 4 24 5 25 95 26 96 27 97 28 98 29 24 30 25 31 26 32 27 33
REMARK SMILES IDX 28 34 29 35 30 36 31 37 32 38 93 39 33 40 92 41 34 42 35 43
REMARK SMILES IDX 36 44 86 45 37 46 91 47 85 48 87 49 38 50 90 51 84 52 83 53
REMARK SMILES IDX 39 55 71 56 51 57 70 58 52 59 55 60 69 61 88 62 53 63 54 64
REMARK SMILES IDX 68 66 89 67 56 68 40 69 41 70 49 71 42 72 44 73 50 74 43 75
REMARK SMILES IDX 45 76 46 77 47 78 48 79 72 80 73 81 81 82 74 83 76 84 82 85
REMARK SMILES IDX 75 86 77 87 78 88 79 89 80 90 57 91 58 92 66 93 59 94 61 95
REMARK SMILES IDX 67 96 60 97 62 98 63 99 64 100 65 101
REMARK H PARENT 87 54 55 65
REMARK Flexibility Score: inf
ROOT
ATOM      1  C   UNL A   1      34.082  31.015  28.030  1.00  0.00     0.188 C 
ENDROOT
BRANCH   1   2
ATOM      2  O   UNL A   1      33.273  31.095  26.870  1.00  0.00    -0.376 OA
BRANCH   2   3
ATOM      3  C   UNL A   1      32.144  30.242  26.803  1.00  0.00     0.202 C 
BRANCH   3   4
ATOM      4  C   UNL A   1      31.861  29.496  25.488  1.00  0.00     0.261 C 
BRANCH   4   5
ATOM      5  O   UNL A   1      32.111  28.081  25.496  1.00  0.00    -0.460 OA
BRANCH   5   6
ATOM      6  C   UNL A   1      33.168  27.662  24.768  1.00  0.00     0.338 C 
ATOM      7  O   UNL A   1      34.037  28.377  24.301  1.00  0.00    -0.246 OA
BRANCH   6   8
ATOM      8  C   UNL A   1      33.188  26.184  24.707  1.00  0.00     0.087 C 
ATOM      9  C   UNL A   1      34.661  21.406  24.894  1.00  0.00     0.141 A 
ATOM     10  C   UNL A   1      33.475  22.014  24.458  1.00  0.00     0.095 A 
ATOM     11  C   UNL A   1      35.691  22.203  25.411  1.00  0.00     0.083 A 
ATOM     12  C   UNL A   1      33.314  23.400  24.598  1.00  0.00     0.131 A 
ATOM     13  C   UNL A   1      35.465  23.549  25.687  1.00  0.00     0.036 A 
ATOM     14  Cl  UNL A   1      37.296  21.617  25.642  1.00  0.00    -0.080 Cl
ATOM     15  C   UNL A   1      34.279  24.150  25.276  1.00  0.00     0.019 A 
ATOM     16  O   UNL A   1      32.200  23.983  24.050  1.00  0.00    -0.475 OA
ATOM     17  C   UNL A   1      34.103  25.577  25.471  1.00  0.00     0.027 C 
ATOM     18  C   UNL A   1      32.277  25.423  23.776  1.00  0.00     0.316 C 
BRANCH   9  19
ATOM     19  O   UNL A   1      34.855  20.066  24.679  1.00  0.00    -0.492 OA
BRANCH  19  20
ATOM     20  C   UNL A   1      33.642  19.273  24.718  1.00  0.00     0.233 C 
BRANCH  20  21
ATOM     21  C   UNL A   1      33.881  17.827  25.222  1.00  0.00     0.026 C 
BRANCH  21  22
ATOM     22  C   UNL A   1      32.549  17.173  25.658  1.00  0.00     0.003 C 
ATOM     23  C   UNL A   1      32.525  15.664  25.457  1.00  0.00     0.004 C 
ENDBRANCH  21  22
BRANCH  21  24
ATOM     24  C   UNL A   1      34.663  16.953  24.214  1.00  0.00     0.003 C 
ATOM     25  C   UNL A   1      34.080  16.870  22.813  1.00  0.00     0.004 C 
ENDBRANCH  21  24
ENDBRANCH  20  21
ENDBRANCH  19  20
ENDBRANCH   9  19
BRANCH  18  26
ATOM     26  C   UNL A   1      32.645  25.684  22.308  1.00  0.00     0.430 C 
ATOM     27  F   UNL A   1      33.946  26.036  22.175  1.00  0.00    -0.167 F 
ATOM     28  F   UNL A   1      32.468  24.568  21.555  1.00  0.00    -0.167 F 
ATOM     29  F   UNL A   1      31.899  26.664  21.753  1.00  0.00    -0.167 F 
ENDBRANCH  18  26
ENDBRANCH   6   8
ENDBRANCH   5   6
ENDBRANCH   4   5
ENDBRANCH   3   4
ENDBRANCH   2   3
ENDBRANCH   1   2
BRANCH   1  30
ATOM     30  C   UNL A   1      34.648  32.386  28.459  1.00  0.00     0.188 C 
BRANCH  30  31
ATOM     31  O   UNL A   1      34.199  33.567  27.803  1.00  0.00    -0.376 OA
BRANCH  31  32
ATOM     32  C   UNL A   1      33.037  34.225  28.299  1.00  0.00     0.202 C 
BRANCH  32  33
ATOM     33  C   UNL A   1      33.190  35.284  29.402  1.00  0.00     0.261 C 
BRANCH  33  34
ATOM     34  O   UNL A   1      32.498  34.987  30.626  1.00  0.00    -0.460 OA
BRANCH  34  35
ATOM     35  C   UNL A   1      32.938  35.658  31.729  1.00  0.00     0.338 C 
ATOM     36  O   UNL A   1      32.401  36.585  32.287  1.00  0.00    -0.246 OA
BRANCH  35  37
ATOM     37  C   UNL A   1      34.105  34.929  32.280  1.00  0.00     0.060 A 
ATOM     38  C   UNL A   1      33.951  33.685  32.893  1.00  0.00     0.016 A 
ATOM     39  C   UNL A   1      35.371  35.522  32.185  1.00  0.00     0.016 A 
ATOM     40  C   UNL A   1      35.075  33.033  33.413  1.00  0.00     0.010 A 
ATOM     41  C   UNL A   1      36.486  34.882  32.730  1.00  0.00     0.010 A 
ATOM     42  C   UNL A   1      36.346  33.629  33.342  1.00  0.00    -0.014 A 
BRANCH  42  43
ATOM     43  C   UNL A   1      37.549  32.884  33.785  1.00  0.00     0.031 A 
ATOM     44  C   UNL A   1      38.070  31.702  33.024  1.00  0.00     0.074 A 
ATOM     45  C   UNL A   1      38.157  33.274  34.920  1.00  0.00     0.049 A 
ATOM     46  N   UNL A   1      39.134  30.981  33.265  1.00  0.00    -0.248 NA
ATOM     47  C   UNL A   1      37.302  31.269  31.847  1.00  0.00     0.031 C 
ATOM     48  C   UNL A   1      37.715  34.379  35.772  1.00  0.00     0.029 A 
ATOM     49  N   UNL A   1      39.265  32.780  35.558  1.00  0.00    -0.354 N 
ATOM     50  C   UNL A   1      39.171  30.009  32.274  1.00  0.00     0.074 A 
ATOM     51  C   UNL A   1      38.008  30.221  31.435  1.00  0.00     0.031 C 
ATOM     52  C   UNL A   1      38.543  34.478  36.823  1.00  0.00     0.029 A 
ATOM     53  C   UNL A   1      39.566  33.441  36.725  1.00  0.00     0.049 A 
ATOM     54  H   UNL A   1      39.795  32.024  35.214  1.00  0.00     0.167 HD
ATOM     55  C   UNL A   1      40.103  29.047  32.070  1.00  0.00     0.034 A 
ATOM     56  C   UNL A   1      40.556  33.240  37.615  1.00  0.00     0.034 A 
ATOM     57  C   UNL A   1      41.264  28.842  32.898  1.00  0.00     0.049 A 
ATOM     58  C   UNL A   1      41.570  32.161  37.368  1.00  0.00     0.074 A 
ATOM     59  C   UNL A   1      42.290  27.929  32.724  1.00  0.00     0.029 A 
ATOM     60  N   UNL A   1      41.549  29.544  34.058  1.00  0.00    -0.354 N 
ATOM     61  N   UNL A   1      41.666  31.343  36.349  1.00  0.00    -0.248 NA
ATOM     62  C   UNL A   1      42.626  31.997  38.377  1.00  0.00     0.031 C 
ATOM     63  C   UNL A   1      43.188  28.068  33.788  1.00  0.00     0.029 A 
ATOM     64  C   UNL A   1      42.727  29.075  34.618  1.00  0.00     0.049 A 
ATOM     65  H   UNL A   1      40.996  30.267  34.430  1.00  0.00     0.167 HD
ATOM     66  C   UNL A   1      42.798  30.573  36.587  1.00  0.00     0.074 A 
ATOM     67  C   UNL A   1      43.369  31.040  37.833  1.00  0.00     0.031 C 
ATOM     68  C   UNL A   1      43.306  29.561  35.843  1.00  0.00     0.034 A 
BRANCH  55  69
ATOM     69  C   UNL A   1      39.956  28.164  30.861  1.00  0.00     0.023 A 
ATOM     70  C   UNL A   1      38.988  27.140  30.881  1.00  0.00     0.012 A 
ATOM     71  C   UNL A   1      40.669  28.425  29.675  1.00  0.00     0.148 A 
ATOM     72  C   UNL A   1      38.735  26.383  29.738  1.00  0.00     0.002 A 
ATOM     73  C   UNL A   1      40.392  27.684  28.532  1.00  0.00     0.091 A 
ATOM     74  F   UNL A   1      41.591  29.398  29.685  1.00  0.00    -0.205 F 
ATOM     75  C   UNL A   1      39.428  26.662  28.563  1.00  0.00     0.022 A 
BRANCH  73  76
ATOM     76  S   UNL A   1      41.184  27.994  26.950  1.00  0.00     0.127 S 
ATOM     77  O   UNL A   1      40.635  29.303  26.599  1.00  0.00    -0.237 OA
ATOM     78  O   UNL A   1      42.601  28.003  27.314  1.00  0.00    -0.237 OA
ATOM     79  O   UNL A   1      40.781  26.900  26.076  1.00  0.00    -0.744 OA
ENDBRANCH  73  76
ENDBRANCH  55  69
BRANCH  56  80
ATOM     80  C   UNL A   1      40.661  34.139  38.793  1.00  0.00     0.023 A 
ATOM     81  C   UNL A   1      41.526  35.247  38.735  1.00  0.00     0.012 A 
ATOM     82  C   UNL A   1      39.857  33.943  39.931  1.00  0.00     0.148 A 
ATOM     83  C   UNL A   1      41.595  36.146  39.799  1.00  0.00     0.002 A 
ATOM     84  C   UNL A   1      39.901  34.863  40.970  1.00  0.00     0.091 A 
ATOM     85  F   UNL A   1      39.044  32.878  39.956  1.00  0.00    -0.205 F 
ATOM     86  C   UNL A   1      40.777  35.960  40.911  1.00  0.00     0.022 A 
BRANCH  84  87
ATOM     87  S   UNL A   1      38.815  34.767  42.397  1.00  0.00     0.127 S 
ATOM     88  O   UNL A   1      39.450  35.707  43.319  1.00  0.00    -0.237 OA
ATOM     89  O   UNL A   1      37.544  35.220  41.834  1.00  0.00    -0.237 OA
ATOM     90  O   UNL A   1      38.833  33.372  42.817  1.00  0.00    -0.744 OA
ENDBRANCH  84  87
ENDBRANCH  56  80
BRANCH  68  91
ATOM     91  C   UNL A   1      44.539  28.867  36.357  1.00  0.00     0.023 A 
ATOM     92  C   UNL A   1      45.804  29.434  36.103  1.00  0.00     0.012 A 
ATOM     93  C   UNL A   1      44.445  27.709  37.154  1.00  0.00     0.148 A 
ATOM     94  C   UNL A   1      46.959  28.849  36.620  1.00  0.00     0.002 A 
ATOM     95  C   UNL A   1      45.599  27.150  37.693  1.00  0.00     0.091 A 
ATOM     96  F   UNL A   1      43.233  27.180  37.371  1.00  0.00    -0.205 F 
ATOM     97  C   UNL A   1      46.856  27.715  37.422  1.00  0.00     0.022 A 
BRANCH  95  98
ATOM     98  S   UNL A   1      45.564  25.729  38.792  1.00  0.00     0.127 S 
ATOM     99  O   UNL A   1      46.979  25.578  39.128  1.00  0.00    -0.237 OA
ATOM    100  O   UNL A   1      44.723  26.205  39.890  1.00  0.00    -0.237 OA
ATOM    101  O   UNL A   1      44.989  24.636  38.019  1.00  0.00    -0.744 OA
ENDBRANCH  95  98
ENDBRANCH  68  91
ENDBRANCH  42  43
ENDBRANCH  35  37
ENDBRANCH  34  35
ENDBRANCH  33  34
ENDBRANCH  32  33
ENDBRANCH  31  32
ENDBRANCH  30  31
ENDBRANCH   1  30
TORSDOF 26
ENDMDL
MODEL 2
REMARK VINA RESULT:      -9.7      1.865      2.309
REMARK SMILES CCC(CC)COc1cc2c(cc1Cl)C=C(C(=O)OCCOCCOCCOC(=O)c1ccc(-c3c4nc(c(-c5cccc(S(=O)(=O)[O-])c5F)c5ccc([nH]5)c(-c5cccc(S(=O)(=O)[O-])c5F)c5nc(c(-c6cccc(S(=O)(=O)[O-])c6F)c6ccc3[nH]6)C=C5)C=C4)cc1)[C@@H](C(F)(F)F)O2
REMARK SMILES IDX 23 1 22 2 21 3 20 4 19 5 17 6 18 7 16 8 8 9 9 10 13 11 10 12
REMARK SMILES IDX 12 13 14 14 11 15 99 16 15 17 94 18 7 19 6 20 3 21 2 22 1 23
REMARK SMILES IDX 4 24 5 25 95 26 96 27 97 28 98 29 24 30 25 31 26 32 27 33
REMARK SMILES IDX 28 34 29 35 30 36 31 37 32 38 93 39 33 40 92 41 34 42 35 43
REMARK SMILES IDX 36 44 86 45 37 46 91 47 85 48 87 49 38 50 90 51 84 52 83 53
REMARK SMILES IDX 39 55 71 56 51 57 70 58 52 59 55 60 69 61 88 62 53 63 54 64
REMARK SMILES IDX 68 66 89 67 56 68 40 69 41 70 49 71 42 72 44 73 50 74 43 75
REMARK SMILES IDX 45 76 46 77 47 78 48 79 72 80 73 81 81 82 74 83 76 84 82 85
REMARK SMILES IDX 75 86 77 87 78 88 79 89 80 90 57 91 58 92 66 93 59 94 61 95
REMARK SMILES IDX 67 96 60 97 62 98 63 99 64 100 65 101
REMARK H PARENT 87 54 55 65
REMARK Flexibility Score: inf
ROOT
ATOM      1  C   UNL A   1      35.090  32.155  28.735  1.00  0.00     0.188 C 
ENDROOT
BRANCH   1   2
ATOM      2  O   UNL A   1      34.285  31.696  27.665  1.00  0.00    -0.376 OA
BRANCH   2   3
ATOM      3  C   UNL A   1      34.375  30.325  27.323  1.00  0.00     0.202 C 
BRANCH   3   4
ATOM      4  C   UNL A   1      33.553  29.807  26.130  1.00  0.00     0.261 C 
BRANCH   4   5
ATOM      5  O   UNL A   1      34.187  28.812  25.309  1.00  0.00    -0.460 OA
BRANCH   5   6
ATOM      6  C   UNL A   1      33.392  28.193  24.410  1.00  0.00     0.338 C 
ATOM      7  O   UNL A   1      32.966  28.687  23.381  1.00  0.00    -0.246 OA
BRANCH   6   8
ATOM      8  C   UNL A   1      33.200  26.777  24.793  1.00  0.00     0.087 C 
ATOM      9  C   UNL A   1      32.363  21.847  24.634  1.00  0.00     0.141 A 
ATOM     10  C   UNL A   1      32.493  22.750  25.698  1.00  0.00     0.095 A 
ATOM     11  C   UNL A   1      32.490  22.313  23.318  1.00  0.00     0.083 A 
ATOM     12  C   UNL A   1      32.807  24.091  25.435  1.00  0.00     0.131 A 
ATOM     13  C   UNL A   1      32.950  23.604  23.074  1.00  0.00     0.036 A 
ATOM     14  Cl  UNL A   1      32.005  21.383  21.950  1.00  0.00    -0.080 Cl
ATOM     15  C   UNL A   1      33.104  24.497  24.131  1.00  0.00     0.019 A 
ATOM     16  O   UNL A   1      32.805  24.977  26.483  1.00  0.00    -0.475 OA
ATOM     17  C   UNL A   1      33.476  25.870  23.850  1.00  0.00     0.027 C 
ATOM     18  C   UNL A   1      32.650  26.397  26.145  1.00  0.00     0.316 C 
BRANCH   9  19
ATOM     19  O   UNL A   1      31.971  20.557  24.884  1.00  0.00    -0.492 OA
BRANCH  19  20
ATOM     20  C   UNL A   1      33.053  19.665  25.250  1.00  0.00     0.233 C 
BRANCH  20  21
ATOM     21  C   UNL A   1      33.330  18.578  24.180  1.00  0.00     0.026 C 
BRANCH  21  22
ATOM     22  C   UNL A   1      33.852  17.281  24.840  1.00  0.00     0.003 C 
ATOM     23  C   UNL A   1      32.903  16.714  25.885  1.00  0.00     0.004 C 
ENDBRANCH  21  22
BRANCH  21  24
ATOM     24  C   UNL A   1      32.123  18.320  23.249  1.00  0.00     0.003 C 
ATOM     25  C   UNL A   1      32.455  18.028  21.794  1.00  0.00     0.004 C 
ENDBRANCH  21  24
ENDBRANCH  20  21
ENDBRANCH  19  20
ENDBRANCH   9  19
BRANCH  18  26
ATOM     26  C   UNL A   1      31.186  26.840  26.291  1.00  0.00     0.430 C 
ATOM     27  F   UNL A   1      30.782  27.581  25.232  1.00  0.00    -0.167 F 
ATOM     28  F   UNL A   1      30.355  25.767  26.351  1.00  0.00    -0.167 F 
ATOM     29  F   UNL A   1      30.975  27.572  27.405  1.00  0.00    -0.167 F 
ENDBRANCH  18  26
ENDBRANCH   6   8
ENDBRANCH   5   6
ENDBRANCH   4   5
ENDBRANCH   3   4
ENDBRANCH   2   3
ENDBRANCH   1   2
BRANCH   1  30
ATOM     30  C   UNL A   1      35.256  33.691  28.743  1.00  0.00     0.188 C 
BRANCH  30  31
ATOM     31  O   UNL A   1      34.414  34.491  27.922  1.00  0.00    -0.376 OA
BRANCH  31  32
ATOM     32  C   UNL A   1      33.205  35.003  28.476  1.00  0.00     0.202 C 
BRANCH  32  33
ATOM     33  C   UNL A   1      33.263  35.801  29.788  1.00  0.00     0.261 C 
BRANCH  33  34
ATOM     34  O   UNL A   1      32.598  35.183  30.902  1.00  0.00    -0.460 OA
BRANCH  34  35
ATOM     35  C   UNL A   1      33.040  35.562  32.135  1.00  0.00     0.338 C 
ATOM     36  O   UNL A   1      32.464  36.257  32.939  1.00  0.00    -0.246 OA
BRANCH  35  37
ATOM     37  C   UNL A   1      34.279  34.809  32.438  1.00  0.00     0.060 A 
ATOM     38  C   UNL A   1      35.535  35.346  32.153  1.00  0.00     0.016 A 
ATOM     39  C   UNL A   1      34.165  33.533  33.008  1.00  0.00     0.016 A 
ATOM     40  C   UNL A   1      36.682  34.599  32.442  1.00  0.00     0.010 A 
ATOM     41  C   UNL A   1      35.310  32.778  33.269  1.00  0.00     0.010 A 
ATOM     42  C   UNL A   1      36.577  33.310  32.994  1.00  0.00    -0.014 A 
BRANCH  42  43
ATOM     43  C   UNL A   1      37.795  32.572  33.409  1.00  0.00     0.031 A 
ATOM     44  C   UNL A   1      38.344  31.436  32.598  1.00  0.00     0.074 A 
ATOM     45  C   UNL A   1      38.390  32.923  34.563  1.00  0.00     0.049 A 
ATOM     46  N   UNL A   1      39.423  30.728  32.811  1.00  0.00    -0.248 NA
ATOM     47  C   UNL A   1      37.590  31.040  31.399  1.00  0.00     0.031 C 
ATOM     48  C   UNL A   1      37.921  33.979  35.462  1.00  0.00     0.029 A 
ATOM     49  N   UNL A   1      39.506  32.425  35.184  1.00  0.00    -0.354 N 
ATOM     50  C   UNL A   1      39.485  29.803  31.778  1.00  0.00     0.074 A 
ATOM     51  C   UNL A   1      38.321  30.027  30.944  1.00  0.00     0.031 C 
ATOM     52  C   UNL A   1      38.742  34.048  36.520  1.00  0.00     0.029 A 
ATOM     53  C   UNL A   1      39.788  33.039  36.380  1.00  0.00     0.049 A 
ATOM     54  H   UNL A   1      40.053  31.697  34.809  1.00  0.00     0.167 HD
ATOM     55  C   UNL A   1      40.439  28.872  31.535  1.00  0.00     0.034 A 
ATOM     56  C   UNL A   1      40.779  32.820  37.265  1.00  0.00     0.034 A 
ATOM     57  C   UNL A   1      41.601  28.656  32.359  1.00  0.00     0.049 A 
ATOM     58  C   UNL A   1      41.817  31.775  36.975  1.00  0.00     0.074 A 
ATOM     59  C   UNL A   1      42.648  27.773  32.148  1.00  0.00     0.029 A 
ATOM     60  N   UNL A   1      41.866  29.310  33.550  1.00  0.00    -0.354 N 
ATOM     61  N   UNL A   1      41.935  31.006  35.921  1.00  0.00    -0.248 NA
ATOM     62  C   UNL A   1      42.873  31.589  37.980  1.00  0.00     0.031 C 
ATOM     63  C   UNL A   1      43.538  27.884  33.222  1.00  0.00     0.029 A 
ATOM     64  C   UNL A   1      43.052  28.843  34.095  1.00  0.00     0.049 A 
ATOM     65  H   UNL A   1      41.296  30.004  33.952  1.00  0.00     0.167 HD
ATOM     66  C   UNL A   1      43.083  30.252  36.129  1.00  0.00     0.074 A 
ATOM     67  C   UNL A   1      43.639  30.674  37.398  1.00  0.00     0.031 C 
ATOM     68  C   UNL A   1      43.616  29.285  35.343  1.00  0.00     0.034 A 
BRANCH  55  69
ATOM     69  C   UNL A   1      40.316  28.042  30.287  1.00  0.00     0.023 A 
ATOM     70  C   UNL A   1      39.292  27.076  30.211  1.00  0.00     0.012 A 
ATOM     71  C   UNL A   1      41.113  28.301  29.156  1.00  0.00     0.148 A 
ATOM     72  C   UNL A   1      39.067  26.375  29.028  1.00  0.00     0.002 A 
ATOM     73  C   UNL A   1      40.864  27.617  27.971  1.00  0.00     0.091 A 
ATOM     74  F   UNL A   1      42.086  29.217  29.257  1.00  0.00    -0.205 F 
ATOM     75  C   UNL A   1      39.844  26.653  27.906  1.00  0.00     0.022 A 
BRANCH  73  76
ATOM     76  S   UNL A   1      41.768  27.935  26.451  1.00  0.00     0.127 S 
ATOM     77  O   UNL A   1      43.133  27.589  26.844  1.00  0.00    -0.237 OA
ATOM     78  O   UNL A   1      41.142  26.995  25.521  1.00  0.00    -0.237 OA
ATOM     79  O   UNL A   1      41.552  29.341  26.141  1.00  0.00    -0.744 OA
ENDBRANCH  73  76
ENDBRANCH  55  69
BRANCH  56  80
ATOM     80  C   UNL A   1      40.860  33.667  38.483  1.00  0.00     0.023 A 
ATOM     81  C   UNL A   1      40.241  33.227  39.667  1.00  0.00     0.012 A 
ATOM     82  C   UNL A   1      41.607  34.860  38.490  1.00  0.00     0.148 A 
ATOM     83  C   UNL A   1      40.359  33.968  40.843  1.00  0.00     0.002 A 
ATOM     84  C   UNL A   1      41.753  35.572  39.673  1.00  0.00     0.091 A 
ATOM     85  F   UNL A   1      42.184  35.252  37.346  1.00  0.00    -0.205 F 
ATOM     86  C   UNL A   1      41.121  35.134  40.848  1.00  0.00     0.022 A 
BRANCH  84  87
ATOM     87  S   UNL A   1      42.796  37.028  39.806  1.00  0.00     0.127 S 
ATOM     88  O   UNL A   1      44.033  36.567  39.179  1.00  0.00    -0.237 OA
ATOM     89  O   UNL A   1      42.039  38.009  39.029  1.00  0.00    -0.237 OA
ATOM     90  O   UNL A   1      42.890  37.320  41.230  1.00  0.00    -0.744 OA
ENDBRANCH  84  87
ENDBRANCH  56  80
BRANCH  68  91
ATOM     91  C   UNL A   1      44.861  28.596  35.831  1.00  0.00     0.023 A 
ATOM     92  C   UNL A   1      46.120  29.156  35.533  1.00  0.00     0.012 A 
ATOM     93  C   UNL A   1      44.789  27.449  36.647  1.00  0.00     0.148 A 
ATOM     94  C   UNL A   1      47.288  28.576  36.025  1.00  0.00     0.002 A 
ATOM     95  C   UNL A   1      45.957  26.896  37.160  1.00  0.00     0.091 A 
ATOM     96  F   UNL A   1      43.582  26.926  36.906  1.00  0.00    -0.205 F 
ATOM     97  C   UNL A   1      47.206  27.453  36.846  1.00  0.00     0.022 A 
BRANCH  95  98
ATOM     98  S   UNL A   1      45.951  25.490  38.280  1.00  0.00     0.127 S 
ATOM     99  O   UNL A   1      45.398  24.436  37.431  1.00  0.00    -0.237 OA
ATOM    100  O   UNL A   1      47.372  25.338  38.595  1.00  0.00    -0.237 OA
ATOM    101  O   UNL A   1      45.118  25.879  39.411  1.00  0.00    -0.744 OA
ENDBRANCH  95  98
ENDBRANCH  68  91
ENDBRANCH  42  43
ENDBRANCH  35  37
ENDBRANCH  34  35
ENDBRANCH  33  34
ENDBRANCH  32  33
ENDBRANCH  31  32
ENDBRANCH  30  31
ENDBRANCH   1  30
TORSDOF 26
ENDMDL
MODEL 3
REMARK VINA RESULT:      -9.3      8.496     10.071
REMARK SMILES CCC(CC)COc1cc2c(cc1Cl)C=C(C(=O)OCCOCCOCCOC(=O)c1ccc(-c3c4nc(c(-c5cccc(S(=O)(=O)[O-])c5F)c5ccc([nH]5)c(-c5cccc(S(=O)(=O)[O-])c5F)c5nc(c(-c6cccc(S(=O)(=O)[O-])c6F)c6ccc3[nH]6)C=C5)C=C4)cc1)[C@@H](C(F)(F)F)O2
REMARK SMILES IDX 23 1 22 2 21 3 20 4 19 5 17 6 18 7 16 8 8 9 9 10 13 11 10 12
REMARK SMILES IDX 12 13 14 14 11 15 99 16 15 17 94 18 7 19 6 20 3 21 2 22 1 23
REMARK SMILES IDX 4 24 5 25 95 26 96 27 97 28 98 29 24 30 25 31 26 32 27 33
REMARK SMILES IDX 28 34 29 35 30 36 31 37 32 38 93 39 33 40 92 41 34 42 35 43
REMARK SMILES IDX 36 44 86 45 37 46 91 47 85 48 87 49 38 50 90 51 84 52 83 53
REMARK SMILES IDX 39 55 71 56 51 57 70 58 52 59 55 60 69 61 88 62 53 63 54 64
REMARK SMILES IDX 68 66 89 67 56 68 40 69 41 70 49 71 42 72 44 73 50 74 43 75
REMARK SMILES IDX 45 76 46 77 47 78 48 79 72 80 73 81 81 82 74 83 76 84 82 85
REMARK SMILES IDX 75 86 77 87 78 88 79 89 80 90 57 91 58 92 66 93 59 94 61 95
REMARK SMILES IDX 67 96 60 97 62 98 63 99 64 100 65 101
REMARK H PARENT 87 54 55 65
REMARK Flexibility Score: inf
ROOT
ATOM      1  C   UNL A   1      33.976  29.600  27.549  1.00  0.00     0.188 C 
ENDROOT
BRANCH   1   2
ATOM      2  O   UNL A   1      32.808  29.936  26.821  1.00  0.00    -0.376 OA
BRANCH   2   3
ATOM      3  C   UNL A   1      32.839  29.746  25.419  1.00  0.00     0.202 C 
BRANCH   3   4
ATOM      4  C   UNL A   1      32.345  28.406  24.846  1.00  0.00     0.261 C 
BRANCH   4   5
ATOM      5  O   UNL A   1      32.785  27.223  25.533  1.00  0.00    -0.460 OA
BRANCH   5   6
ATOM      6  C   UNL A   1      31.841  26.561  26.237  1.00  0.00     0.338 C 
ATOM      7  O   UNL A   1      30.951  27.077  26.890  1.00  0.00    -0.246 OA
BRANCH   6   8
ATOM      8  C   UNL A   1      31.969  25.105  26.012  1.00  0.00     0.087 C 
ATOM      9  C   UNL A   1      33.831  20.529  25.220  1.00  0.00     0.141 A 
ATOM     10  C   UNL A   1      32.520  21.027  25.235  1.00  0.00     0.095 A 
ATOM     11  C   UNL A   1      34.899  21.398  25.481  1.00  0.00     0.083 A 
ATOM     12  C   UNL A   1      32.293  22.370  25.568  1.00  0.00     0.131 A 
ATOM     13  C   UNL A   1      34.656  22.684  25.957  1.00  0.00     0.036 A 
ATOM     14  Cl  UNL A   1      36.539  20.985  25.145  1.00  0.00    -0.080 Cl
ATOM     15  C   UNL A   1      33.354  23.173  25.996  1.00  0.00     0.019 A 
ATOM     16  O   UNL A   1      31.017  22.861  25.453  1.00  0.00    -0.475 OA
ATOM     17  C   UNL A   1      33.126  24.551  26.389  1.00  0.00     0.027 C 
ATOM     18  C   UNL A   1      30.880  24.317  25.327  1.00  0.00     0.316 C 
BRANCH   9  19
ATOM     19  O   UNL A   1      34.061  19.241  24.811  1.00  0.00    -0.492 OA
BRANCH  19  20
ATOM     20  C   UNL A   1      33.096  18.277  25.300  1.00  0.00     0.233 C 
BRANCH  20  21
ATOM     21  C   UNL A   1      32.877  17.091  24.325  1.00  0.00     0.026 C 
BRANCH  21  22
ATOM     22  C   UNL A   1      33.291  17.482  22.888  1.00  0.00     0.003 C 
ATOM     23  C   UNL A   1      32.170  18.137  22.096  1.00  0.00     0.004 C 
ENDBRANCH  21  22
BRANCH  21  24
ATOM     24  C   UNL A   1      33.553  15.783  24.798  1.00  0.00     0.003 C 
ATOM     25  C   UNL A   1      34.949  15.929  25.380  1.00  0.00     0.004 C 
ENDBRANCH  21  24
ENDBRANCH  20  21
ENDBRANCH  19  20
ENDBRANCH   9  19
BRANCH  18  26
ATOM     26  C   UNL A   1      30.742  24.731  23.854  1.00  0.00     0.430 C 
ATOM     27  F   UNL A   1      29.965  25.830  23.716  1.00  0.00    -0.167 F 
ATOM     28  F   UNL A   1      31.951  25.044  23.320  1.00  0.00    -0.167 F 
ATOM     29  F   UNL A   1      30.207  23.755  23.089  1.00  0.00    -0.167 F 
ENDBRANCH  18  26
ENDBRANCH   6   8
ENDBRANCH   5   6
ENDBRANCH   4   5
ENDBRANCH   3   4
ENDBRANCH   2   3
ENDBRANCH   1   2
BRANCH   1  30
ATOM     30  C   UNL A   1      34.962  30.782  27.676  1.00  0.00     0.188 C 
BRANCH  30  31
ATOM     31  O   UNL A   1      34.460  32.092  27.915  1.00  0.00    -0.376 OA
BRANCH  31  32
ATOM     32  C   UNL A   1      35.310  33.046  28.545  1.00  0.00     0.202 C 
BRANCH  32  33
ATOM     33  C   UNL A   1      36.791  32.700  28.763  1.00  0.00     0.261 C 
BRANCH  33  34
ATOM     34  O   UNL A   1      37.204  32.649  30.139  1.00  0.00    -0.460 OA
BRANCH  34  35
ATOM     35  C   UNL A   1      37.576  33.842  30.686  1.00  0.00     0.338 C 
ATOM     36  O   UNL A   1      36.971  34.494  31.504  1.00  0.00    -0.246 OA
BRANCH  35  37
ATOM     37  C   UNL A   1      38.968  34.131  30.270  1.00  0.00     0.060 A 
ATOM     38  C   UNL A   1      40.039  33.895  31.132  1.00  0.00     0.016 A 
ATOM     39  C   UNL A   1      39.189  34.659  28.991  1.00  0.00     0.016 A 
ATOM     40  C   UNL A   1      41.339  34.193  30.709  1.00  0.00     0.010 A 
ATOM     41  C   UNL A   1      40.485  34.982  28.582  1.00  0.00     0.010 A 
ATOM     42  C   UNL A   1      41.570  34.744  29.436  1.00  0.00    -0.014 A 
BRANCH  42  43
ATOM     43  C   UNL A   1      42.955  34.945  28.946  1.00  0.00     0.031 A 
ATOM     44  C   UNL A   1      43.890  33.793  28.730  1.00  0.00     0.074 A 
ATOM     45  C   UNL A   1      43.376  36.204  28.726  1.00  0.00     0.049 A 
ATOM     46  N   UNL A   1      45.112  33.810  28.263  1.00  0.00    -0.248 NA
ATOM     47  C   UNL A   1      43.398  32.452  29.082  1.00  0.00     0.031 C 
ATOM     48  C   UNL A   1      42.574  37.407  28.947  1.00  0.00     0.029 A 
ATOM     49  N   UNL A   1      44.583  36.679  28.282  1.00  0.00    -0.354 N 
ATOM     50  C   UNL A   1      45.541  32.490  28.262  1.00  0.00     0.074 A 
ATOM     51  C   UNL A   1      44.451  31.695  28.793  1.00  0.00     0.031 C 
ATOM     52  C   UNL A   1      43.311  38.485  28.639  1.00  0.00     0.029 A 
ATOM     53  C   UNL A   1      44.637  38.051  28.210  1.00  0.00     0.049 A 
ATOM     54  H   UNL A   1      45.337  36.096  28.039  1.00  0.00     0.167 HD
ATOM     55  C   UNL A   1      46.724  31.987  27.833  1.00  0.00     0.034 A 
ATOM     56  C   UNL A   1      45.639  38.869  27.835  1.00  0.00     0.034 A 
ATOM     57  C   UNL A   1      47.803  32.777  27.297  1.00  0.00     0.049 A 
ATOM     58  C   UNL A   1      46.942  38.285  27.373  1.00  0.00     0.074 A 
ATOM     59  C   UNL A   1      49.012  32.338  26.782  1.00  0.00     0.029 A 
ATOM     60  N   UNL A   1      47.815  34.160  27.217  1.00  0.00    -0.354 N 
ATOM     61  N   UNL A   1      47.278  37.025  27.247  1.00  0.00    -0.248 NA
ATOM     62  C   UNL A   1      47.992  39.233  26.975  1.00  0.00     0.031 C 
ATOM     63  C   UNL A   1      49.761  33.458  26.405  1.00  0.00     0.029 A 
ATOM     64  C   UNL A   1      49.015  34.592  26.675  1.00  0.00     0.049 A 
ATOM     65  H   UNL A   1      47.081  34.748  27.504  1.00  0.00     0.167 HD
ATOM     66  C   UNL A   1      48.573  37.026  26.745  1.00  0.00     0.074 A 
ATOM     67  C   UNL A   1      48.953  38.413  26.566  1.00  0.00     0.031 C 
ATOM     68  C   UNL A   1      49.378  35.971  26.473  1.00  0.00     0.034 A 
BRANCH  55  69
ATOM     69  C   UNL A   1      46.910  30.495  27.859  1.00  0.00     0.023 A 
ATOM     70  C   UNL A   1      47.360  29.886  29.047  1.00  0.00     0.012 A 
ATOM     71  C   UNL A   1      46.519  29.692  26.770  1.00  0.00     0.148 A 
ATOM     72  C   UNL A   1      47.426  28.498  29.151  1.00  0.00     0.002 A 
ATOM     73  C   UNL A   1      46.561  28.307  26.891  1.00  0.00     0.091 A 
ATOM     74  F   UNL A   1      46.103  30.295  25.648  1.00  0.00    -0.205 F 
ATOM     75  C   UNL A   1      47.016  27.710  28.078  1.00  0.00     0.022 A 
BRANCH  73  76
ATOM     76  S   UNL A   1      46.006  27.196  25.593  1.00  0.00     0.127 S 
ATOM     77  O   UNL A   1      46.347  25.892  26.158  1.00  0.00    -0.237 OA
ATOM     78  O   UNL A   1      44.573  27.483  25.537  1.00  0.00    -0.237 OA
ATOM     79  O   UNL A   1      46.754  27.567  24.399  1.00  0.00    -0.744 OA
ENDBRANCH  73  76
ENDBRANCH  55  69
BRANCH  56  80
ATOM     80  C   UNL A   1      45.407  40.336  27.825  1.00  0.00     0.023 A 
ATOM     81  C   UNL A   1      45.606  41.071  29.008  1.00  0.00     0.012 A 
ATOM     82  C   UNL A   1      45.067  41.010  26.636  1.00  0.00     0.148 A 
ATOM     83  C   UNL A   1      45.462  42.458  29.010  1.00  0.00     0.002 A 
ATOM     84  C   UNL A   1      44.964  42.395  26.637  1.00  0.00     0.091 A 
ATOM     85  F   UNL A   1      44.884  40.281  25.526  1.00  0.00    -0.205 F 
ATOM     86  C   UNL A   1      45.151  43.120  27.825  1.00  0.00     0.022 A 
BRANCH  84  87
ATOM     87  S   UNL A   1      44.669  43.346  25.143  1.00  0.00     0.127 S 
ATOM     88  O   UNL A   1      44.817  44.717  25.627  1.00  0.00    -0.237 OA
ATOM     89  O   UNL A   1      45.748  42.878  24.274  1.00  0.00    -0.237 OA
ATOM     90  O   UNL A   1      43.330  42.982  24.699  1.00  0.00    -0.744 OA
ENDBRANCH  84  87
ENDBRANCH  56  80
BRANCH  68  91
ATOM     91  C   UNL A   1      50.764  36.262  25.965  1.00  0.00     0.023 A 
ATOM     92  C   UNL A   1      50.961  36.475  24.586  1.00  0.00     0.012 A 
ATOM     93  C   UNL A   1      51.851  36.405  26.850  1.00  0.00     0.148 A 
ATOM     94  C   UNL A   1      52.221  36.810  24.092  1.00  0.00     0.002 A 
ATOM     95  C   UNL A   1      53.098  36.771  26.354  1.00  0.00     0.091 A 
ATOM     96  F   UNL A   1      51.644  36.184  28.156  1.00  0.00    -0.205 F 
ATOM     97  C   UNL A   1      53.286  36.967  24.977  1.00  0.00     0.022 A 
BRANCH  95  98
ATOM     98  S   UNL A   1      54.515  37.063  27.420  1.00  0.00     0.127 S 
ATOM     99  O   UNL A   1      55.602  37.166  26.447  1.00  0.00    -0.237 OA
ATOM    100  O   UNL A   1      54.159  38.323  28.073  1.00  0.00    -0.237 OA
ATOM    101  O   UNL A   1      54.589  35.916  28.316  1.00  0.00    -0.744 OA
ENDBRANCH  95  98
ENDBRANCH  68  91
ENDBRANCH  42  43
ENDBRANCH  35  37
ENDBRANCH  34  35
ENDBRANCH  33  34
ENDBRANCH  32  33
ENDBRANCH  31  32
ENDBRANCH  30  31
ENDBRANCH   1  30
TORSDOF 26
ENDMDL
