MODEL 1
REMARK VINA RESULT:      -9.4      0.000      0.000
REMARK SMILES C[C@H]([NH2+]CCc1ccco1)[C@@H](C)C(=O)OCCOCCOCCOC(=O)c1ccc(-c2c3nc(c(-c4cccc(S(=O)(=O)[O-])c4F)c4ccc([nH]4)c(-c4cccc(S(=O)(=O)[O-])c4F)c4nc(c(-c5cccc(S(=O)(=O)[O-])c5F)c5ccc2[nH]5)C=C4)C=C3)cc1
REMARK SMILES IDX 19 1 18 2 17 3 16 4 15 5 13 6 14 7 11 8 12 9 2 10 1 11 3 12
REMARK SMILES IDX 4 15 5 16 6 17 7 18 10 19 8 20 9 21 20 22 21 23 22 24 23 25
REMARK SMILES IDX 24 26 25 27 26 28 27 29 28 30 89 31 29 32 88 33 30 34 31 35
REMARK SMILES IDX 32 36 82 37 33 38 87 39 81 40 83 41 34 42 86 43 80 44 79 45
REMARK SMILES IDX 35 47 67 48 47 49 66 50 48 51 51 52 65 53 84 54 49 55 50 56
REMARK SMILES IDX 64 58 85 59 52 60 36 61 37 62 45 63 38 64 40 65 46 66 39 67
REMARK SMILES IDX 41 68 42 69 43 70 44 71 68 72 69 73 77 74 70 75 72 76 78 77
REMARK SMILES IDX 71 78 73 79 74 80 75 81 76 82 53 83 54 84 62 85 55 86 57 87
REMARK SMILES IDX 63 88 56 89 58 90 59 91 60 92 61 93
REMARK H PARENT 3 13 3 14 83 46 51 57
REMARK Flexibility Score: inf
ROOT
ATOM      1  C   UNL A   1      33.631  32.447  27.819  1.00  0.00     0.188 C 
ENDROOT
BRANCH   1   2
ATOM      2  O   UNL A   1      34.066  31.203  28.346  1.00  0.00    -0.376 OA
BRANCH   2   3
ATOM      3  C   UNL A   1      34.642  30.231  27.483  1.00  0.00     0.202 C 
BRANCH   3   4
ATOM      4  C   UNL A   1      33.811  29.675  26.306  1.00  0.00     0.261 C 
BRANCH   4   5
ATOM      5  O   UNL A   1      32.716  28.751  26.589  1.00  0.00    -0.463 OA
BRANCH   5   6
ATOM      6  C   UNL A   1      32.382  27.914  25.569  1.00  0.00     0.314 C 
ATOM      7  O   UNL A   1      32.939  27.955  24.472  1.00  0.00    -0.252 OA
BRANCH   6   8
ATOM      8  C   UNL A   1      31.205  26.944  25.790  1.00  0.00     0.154 C 
ATOM      9  C   UNL A   1      31.846  25.700  26.432  1.00  0.00     0.026 C 
BRANCH   8  10
ATOM     10  C   UNL A   1      30.172  26.547  24.676  1.00  0.00     0.193 C 
ATOM     11  C   UNL A   1      30.698  25.463  23.717  1.00  0.00     0.076 C 
BRANCH  10  12
ATOM     12  N   UNL A   1      29.915  27.749  23.836  1.00  0.00    -0.343 N 
ATOM     13  H   UNL A   1      30.476  27.668  22.989  1.00  0.00     0.346 HD
ATOM     14  H   UNL A   1      30.163  28.556  24.409  1.00  0.00     0.346 HD
BRANCH  12  15
ATOM     15  C   UNL A   1      28.513  27.940  23.440  1.00  0.00     0.268 C 
BRANCH  15  16
ATOM     16  C   UNL A   1      28.368  28.976  22.308  1.00  0.00     0.136 C 
BRANCH  16  17
ATOM     17  C   UNL A   1      28.581  30.397  22.721  1.00  0.00     0.109 A 
ATOM     18  C   UNL A   1      28.180  31.598  22.170  1.00  0.00     0.046 A 
ATOM     19  O   UNL A   1      29.323  30.630  23.842  1.00  0.00    -0.469 OA
ATOM     20  C   UNL A   1      28.692  32.617  23.009  1.00  0.00     0.042 A 
ATOM     21  C   UNL A   1      29.376  31.977  24.014  1.00  0.00     0.195 A 
ENDBRANCH  16  17
ENDBRANCH  15  16
ENDBRANCH  12  15
ENDBRANCH  10  12
ENDBRANCH   8  10
ENDBRANCH   6   8
ENDBRANCH   5   6
ENDBRANCH   4   5
ENDBRANCH   3   4
ENDBRANCH   2   3
ENDBRANCH   1   2
BRANCH   1  22
ATOM     22  C   UNL A   1      34.064  33.726  28.525  1.00  0.00     0.188 C 
BRANCH  22  23
ATOM     23  O   UNL A   1      33.496  33.918  29.802  1.00  0.00    -0.376 OA
BRANCH  23  24
ATOM     24  C   UNL A   1      34.049  34.903  30.653  1.00  0.00     0.202 C 
BRANCH  24  25
ATOM     25  C   UNL A   1      34.666  34.341  31.939  1.00  0.00     0.261 C 
BRANCH  25  26
ATOM     26  O   UNL A   1      34.890  32.919  31.932  1.00  0.00    -0.460 OA
BRANCH  26  27
ATOM     27  C   UNL A   1      35.852  32.459  32.765  1.00  0.00     0.338 C 
ATOM     28  O   UNL A   1      35.864  32.547  33.986  1.00  0.00    -0.246 OA
BRANCH  27  29
ATOM     29  C   UNL A   1      36.769  31.599  31.986  1.00  0.00     0.060 A 
ATOM     30  C   UNL A   1      37.582  30.691  32.680  1.00  0.00     0.016 A 
ATOM     31  C   UNL A   1      36.826  31.676  30.594  1.00  0.00     0.016 A 
ATOM     32  C   UNL A   1      38.499  29.902  31.991  1.00  0.00     0.010 A 
ATOM     33  C   UNL A   1      37.762  30.899  29.904  1.00  0.00     0.010 A 
ATOM     34  C   UNL A   1      38.639  30.049  30.605  1.00  0.00    -0.014 A 
BRANCH  34  35
ATOM     35  C   UNL A   1      39.856  29.520  29.943  1.00  0.00     0.031 A 
ATOM     36  C   UNL A   1      41.045  30.438  29.815  1.00  0.00     0.074 A 
ATOM     37  C   UNL A   1      39.934  28.251  29.504  1.00  0.00     0.049 A 
ATOM     38  N   UNL A   1      42.203  30.227  29.248  1.00  0.00    -0.248 NA
ATOM     39  C   UNL A   1      40.903  31.780  30.409  1.00  0.00     0.031 C 
ATOM     40  C   UNL A   1      38.872  27.253  29.599  1.00  0.00     0.029 A 
ATOM     41  N   UNL A   1      40.961  27.593  28.872  1.00  0.00    -0.354 N 
ATOM     42  C   UNL A   1      42.909  31.418  29.378  1.00  0.00     0.074 A 
ATOM     43  C   UNL A   1      42.046  32.351  30.066  1.00  0.00     0.031 C 
ATOM     44  C   UNL A   1      39.293  26.113  29.024  1.00  0.00     0.029 A 
ATOM     45  C   UNL A   1      40.640  26.311  28.491  1.00  0.00     0.049 A 
ATOM     46  H   UNL A   1      41.841  28.001  28.706  1.00  0.00     0.167 HD
ATOM     47  C   UNL A   1      44.168  31.709  28.974  1.00  0.00     0.034 A 
ATOM     48  C   UNL A   1      41.347  25.414  27.774  1.00  0.00     0.034 A 
ATOM     49  C   UNL A   1      45.035  30.773  28.313  1.00  0.00     0.049 A 
ATOM     50  C   UNL A   1      42.735  25.773  27.306  1.00  0.00     0.074 A 
ATOM     51  C   UNL A   1      46.340  30.960  27.891  1.00  0.00     0.029 A 
ATOM     52  N   UNL A   1      44.685  29.478  27.966  1.00  0.00    -0.354 N 
ATOM     53  N   UNL A   1      43.420  26.874  27.507  1.00  0.00    -0.248 NA
ATOM     54  C   UNL A   1      43.461  24.749  26.540  1.00  0.00     0.031 C 
ATOM     55  C   UNL A   1      46.765  29.788  27.257  1.00  0.00     0.029 A 
ATOM     56  C   UNL A   1      45.743  28.856  27.327  1.00  0.00     0.049 A 
ATOM     57  H   UNL A   1      43.811  29.063  28.148  1.00  0.00     0.167 HD
ATOM     58  C   UNL A   1      44.668  26.659  26.929  1.00  0.00     0.074 A 
ATOM     59  C   UNL A   1      44.652  25.314  26.393  1.00  0.00     0.031 C 
ATOM     60  C   UNL A   1      45.730  27.500  26.840  1.00  0.00     0.034 A 
BRANCH  47  61
ATOM     61  C   UNL A   1      44.680  33.100  29.241  1.00  0.00     0.023 A 
ATOM     62  C   UNL A   1      45.313  33.398  30.466  1.00  0.00     0.012 A 
ATOM     63  C   UNL A   1      44.563  34.106  28.262  1.00  0.00     0.148 A 
ATOM     64  C   UNL A   1      45.785  34.684  30.726  1.00  0.00     0.002 A 
ATOM     65  C   UNL A   1      45.083  35.370  28.508  1.00  0.00     0.091 A 
ATOM     66  F   UNL A   1      43.936  33.810  27.114  1.00  0.00    -0.205 F 
ATOM     67  C   UNL A   1      45.680  35.666  29.744  1.00  0.00     0.022 A 
BRANCH  65  68
ATOM     68  S   UNL A   1      45.069  36.679  27.280  1.00  0.00     0.127 S 
ATOM     69  O   UNL A   1      43.638  36.819  27.012  1.00  0.00    -0.237 OA
ATOM     70  O   UNL A   1      45.663  37.795  28.017  1.00  0.00    -0.237 OA
ATOM     71  O   UNL A   1      45.867  36.194  26.164  1.00  0.00    -0.744 OA
ENDBRANCH  65  68
ENDBRANCH  47  61
BRANCH  48  72
ATOM     72  C   UNL A   1      40.766  24.077  27.459  1.00  0.00     0.023 A 
ATOM     73  C   UNL A   1      41.366  22.913  27.979  1.00  0.00     0.012 A 
ATOM     74  C   UNL A   1      39.631  23.953  26.634  1.00  0.00     0.148 A 
ATOM     75  C   UNL A   1      40.870  21.650  27.653  1.00  0.00     0.002 A 
ATOM     76  C   UNL A   1      39.108  22.695  26.359  1.00  0.00     0.091 A 
ATOM     77  F   UNL A   1      39.086  25.071  26.133  1.00  0.00    -0.205 F 
ATOM     78  C   UNL A   1      39.738  21.541  26.851  1.00  0.00     0.022 A 
BRANCH  76  79
ATOM     79  S   UNL A   1      37.587  22.463  25.432  1.00  0.00     0.127 S 
ATOM     80  O   UNL A   1      37.516  23.700  24.660  1.00  0.00    -0.237 OA
ATOM     81  O   UNL A   1      37.894  21.264  24.651  1.00  0.00    -0.237 OA
ATOM     82  O   UNL A   1      36.541  22.282  26.429  1.00  0.00    -0.744 OA
ENDBRANCH  76  79
ENDBRANCH  48  72
BRANCH  60  83
ATOM     83  C   UNL A   1      46.984  26.976  26.185  1.00  0.00     0.023 A 
ATOM     84  C   UNL A   1      47.166  27.107  24.793  1.00  0.00     0.012 A 
ATOM     85  C   UNL A   1      48.005  26.394  26.962  1.00  0.00     0.148 A 
ATOM     86  C   UNL A   1      48.321  26.619  24.181  1.00  0.00     0.002 A 
ATOM     87  C   UNL A   1      49.177  25.962  26.352  1.00  0.00     0.091 A 
ATOM     88  F   UNL A   1      47.810  26.263  28.282  1.00  0.00    -0.205 F 
ATOM     89  C   UNL A   1      49.329  26.058  24.960  1.00  0.00     0.022 A 
BRANCH  87  90
ATOM     90  S   UNL A   1      50.569  25.321  27.290  1.00  0.00     0.127 S 
ATOM     91  O   UNL A   1      49.963  24.184  27.982  1.00  0.00    -0.237 OA
ATOM     92  O   UNL A   1      51.515  24.961  26.234  1.00  0.00    -0.237 OA
ATOM     93  O   UNL A   1      51.010  26.413  28.148  1.00  0.00    -0.744 OA
ENDBRANCH  87  90
ENDBRANCH  60  83
ENDBRANCH  34  35
ENDBRANCH  27  29
ENDBRANCH  26  27
ENDBRANCH  25  26
ENDBRANCH  24  25
ENDBRANCH  23  24
ENDBRANCH  22  23
ENDBRANCH   1  22
TORSDOF 25
ENDMDL
MODEL 2
REMARK VINA RESULT:      -9.2      1.677      3.030
REMARK SMILES C[C@H]([NH2+]CCc1ccco1)[C@@H](C)C(=O)OCCOCCOCCOC(=O)c1ccc(-c2c3nc(c(-c4cccc(S(=O)(=O)[O-])c4F)c4ccc([nH]4)c(-c4cccc(S(=O)(=O)[O-])c4F)c4nc(c(-c5cccc(S(=O)(=O)[O-])c5F)c5ccc2[nH]5)C=C4)C=C3)cc1
REMARK SMILES IDX 19 1 18 2 17 3 16 4 15 5 13 6 14 7 11 8 12 9 2 10 1 11 3 12
REMARK SMILES IDX 4 15 5 16 6 17 7 18 10 19 8 20 9 21 20 22 21 23 22 24 23 25
REMARK SMILES IDX 24 26 25 27 26 28 27 29 28 30 89 31 29 32 88 33 30 34 31 35
REMARK SMILES IDX 32 36 82 37 33 38 87 39 81 40 83 41 34 42 86 43 80 44 79 45
REMARK SMILES IDX 35 47 67 48 47 49 66 50 48 51 51 52 65 53 84 54 49 55 50 56
REMARK SMILES IDX 64 58 85 59 52 60 36 61 37 62 45 63 38 64 40 65 46 66 39 67
REMARK SMILES IDX 41 68 42 69 43 70 44 71 68 72 69 73 77 74 70 75 72 76 78 77
REMARK SMILES IDX 71 78 73 79 74 80 75 81 76 82 53 83 54 84 62 85 55 86 57 87
REMARK SMILES IDX 63 88 56 89 58 90 59 91 60 92 61 93
REMARK H PARENT 3 13 3 14 83 46 51 57
REMARK Flexibility Score: inf
ROOT
ATOM      1  C   UNL A   1      33.656  33.131  28.009  1.00  0.00     0.188 C 
ENDROOT
BRANCH   1   2
ATOM      2  O   UNL A   1      34.530  32.033  28.220  1.00  0.00    -0.376 OA
BRANCH   2   3
ATOM      3  C   UNL A   1      34.572  30.971  27.274  1.00  0.00     0.202 C 
BRANCH   3   4
ATOM      4  C   UNL A   1      33.280  30.188  26.955  1.00  0.00     0.261 C 
BRANCH   4   5
ATOM      5  O   UNL A   1      32.852  30.070  25.564  1.00  0.00    -0.463 OA
BRANCH   5   6
ATOM      6  C   UNL A   1      31.823  29.206  25.343  1.00  0.00     0.314 C 
ATOM      7  O   UNL A   1      31.340  28.512  26.238  1.00  0.00    -0.252 OA
BRANCH   6   8
ATOM      8  C   UNL A   1      31.317  29.045  23.897  1.00  0.00     0.154 C 
ATOM      9  C   UNL A   1      29.988  29.822  23.865  1.00  0.00     0.026 C 
BRANCH   8  10
ATOM     10  C   UNL A   1      31.194  27.666  23.157  1.00  0.00     0.193 C 
ATOM     11  C   UNL A   1      29.825  26.990  23.355  1.00  0.00     0.076 C 
BRANCH  10  12
ATOM     12  N   UNL A   1      32.199  26.738  23.741  1.00  0.00    -0.343 N 
ATOM     13  H   UNL A   1      31.760  25.825  23.852  1.00  0.00     0.346 HD
ATOM     14  H   UNL A   1      32.494  27.155  24.624  1.00  0.00     0.346 HD
BRANCH  12  15
ATOM     15  C   UNL A   1      33.420  26.563  22.941  1.00  0.00     0.268 C 
BRANCH  15  16
ATOM     16  C   UNL A   1      33.578  25.115  22.436  1.00  0.00     0.136 C 
BRANCH  16  17
ATOM     17  C   UNL A   1      34.073  24.140  23.456  1.00  0.00     0.109 A 
ATOM     18  C   UNL A   1      35.154  23.282  23.477  1.00  0.00     0.046 A 
ATOM     19  O   UNL A   1      33.356  24.006  24.610  1.00  0.00    -0.469 OA
ATOM     20  C   UNL A   1      35.102  22.598  24.716  1.00  0.00     0.042 A 
ATOM     21  C   UNL A   1      33.993  23.077  25.370  1.00  0.00     0.195 A 
ENDBRANCH  16  17
ENDBRANCH  15  16
ENDBRANCH  12  15
ENDBRANCH  10  12
ENDBRANCH   8  10
ENDBRANCH   6   8
ENDBRANCH   5   6
ENDBRANCH   4   5
ENDBRANCH   3   4
ENDBRANCH   2   3
ENDBRANCH   1   2
BRANCH   1  22
ATOM     22  C   UNL A   1      33.867  34.396  28.832  1.00  0.00     0.188 C 
BRANCH  22  23
ATOM     23  O   UNL A   1      33.216  34.404  30.084  1.00  0.00    -0.376 OA
BRANCH  23  24
ATOM     24  C   UNL A   1      33.631  35.335  31.063  1.00  0.00     0.202 C 
BRANCH  24  25
ATOM     25  C   UNL A   1      34.690  34.793  32.030  1.00  0.00     0.261 C 
BRANCH  25  26
ATOM     26  O   UNL A   1      34.833  33.361  32.030  1.00  0.00    -0.460 OA
BRANCH  26  27
ATOM     27  C   UNL A   1      35.784  32.853  32.847  1.00  0.00     0.338 C 
ATOM     28  O   UNL A   1      35.802  32.907  34.070  1.00  0.00    -0.246 OA
BRANCH  27  29
ATOM     29  C   UNL A   1      36.675  31.989  32.042  1.00  0.00     0.060 A 
ATOM     30  C   UNL A   1      37.491  31.065  32.712  1.00  0.00     0.016 A 
ATOM     31  C   UNL A   1      36.707  32.079  30.650  1.00  0.00     0.016 A 
ATOM     32  C   UNL A   1      38.384  30.271  31.997  1.00  0.00     0.010 A 
ATOM     33  C   UNL A   1      37.620  31.298  29.935  1.00  0.00     0.010 A 
ATOM     34  C   UNL A   1      38.499  30.430  30.611  1.00  0.00    -0.014 A 
BRANCH  34  35
ATOM     35  C   UNL A   1      39.697  29.893  29.920  1.00  0.00     0.031 A 
ATOM     36  C   UNL A   1      40.930  30.758  29.870  1.00  0.00     0.074 A 
ATOM     37  C   UNL A   1      39.719  28.657  29.388  1.00  0.00     0.049 A 
ATOM     38  N   UNL A   1      42.083  30.534  29.298  1.00  0.00    -0.248 NA
ATOM     39  C   UNL A   1      40.846  32.058  30.561  1.00  0.00     0.031 C 
ATOM     40  C   UNL A   1      38.609  27.708  29.401  1.00  0.00     0.029 A 
ATOM     41  N   UNL A   1      40.719  27.998  28.717  1.00  0.00    -0.354 N 
ATOM     42  C   UNL A   1      42.844  31.676  29.521  1.00  0.00     0.074 A 
ATOM     43  C   UNL A   1      42.019  32.597  30.270  1.00  0.00     0.031 C 
ATOM     44  C   UNL A   1      38.981  26.594  28.746  1.00  0.00     0.029 A 
ATOM     45  C   UNL A   1      40.342  26.766  28.240  1.00  0.00     0.049 A 
ATOM     46  H   UNL A   1      41.621  28.374  28.588  1.00  0.00     0.167 HD
ATOM     47  C   UNL A   1      44.120  31.934  29.150  1.00  0.00     0.034 A 
ATOM     48  C   UNL A   1      41.012  25.891  27.463  1.00  0.00     0.034 A 
ATOM     49  C   UNL A   1      44.949  31.009  28.427  1.00  0.00     0.049 A 
ATOM     50  C   UNL A   1      42.422  26.215  27.034  1.00  0.00     0.074 A 
ATOM     51  C   UNL A   1      46.265  31.162  28.030  1.00  0.00     0.029 A 
ATOM     52  N   UNL A   1      44.540  29.762  27.982  1.00  0.00    -0.354 N 
ATOM     53  N   UNL A   1      43.157  27.263  27.321  1.00  0.00    -0.248 NA
ATOM     54  C   UNL A   1      43.107  25.216  26.199  1.00  0.00     0.031 C 
ATOM     55  C   UNL A   1      46.641  30.021  27.314  1.00  0.00     0.029 A 
ATOM     56  C   UNL A   1      45.574  29.137  27.306  1.00  0.00     0.049 A 
ATOM     57  H   UNL A   1      43.645  29.377  28.126  1.00  0.00     0.167 HD
ATOM     58  C   UNL A   1      44.399  27.031  26.738  1.00  0.00     0.074 A 
ATOM     59  C   UNL A   1      44.324  25.731  26.104  1.00  0.00     0.031 C 
ATOM     60  C   UNL A   1      45.501  27.824  26.720  1.00  0.00     0.034 A 
BRANCH  47  61
ATOM     61  C   UNL A   1      44.695  33.275  29.524  1.00  0.00     0.023 A 
ATOM     62  C   UNL A   1      45.334  33.448  30.769  1.00  0.00     0.012 A 
ATOM     63  C   UNL A   1      44.631  34.357  28.623  1.00  0.00     0.148 A 
ATOM     64  C   UNL A   1      45.865  34.687  31.128  1.00  0.00     0.002 A 
ATOM     65  C   UNL A   1      45.209  35.573  28.967  1.00  0.00     0.091 A 
ATOM     66  F   UNL A   1      43.999  34.179  27.455  1.00  0.00    -0.205 F 
ATOM     67  C   UNL A   1      45.812  35.745  30.223  1.00  0.00     0.022 A 
BRANCH  65  68
ATOM     68  S   UNL A   1      45.265  36.970  27.842  1.00  0.00     0.127 S 
ATOM     69  O   UNL A   1      45.549  38.075  28.756  1.00  0.00    -0.237 OA
ATOM     70  O   UNL A   1      46.375  36.608  26.961  1.00  0.00    -0.237 OA
ATOM     71  O   UNL A   1      43.963  37.018  27.193  1.00  0.00    -0.744 OA
ENDBRANCH  65  68
ENDBRANCH  47  61
BRANCH  48  72
ATOM     72  C   UNL A   1      40.372  24.610  27.045  1.00  0.00     0.023 A 
ATOM     73  C   UNL A   1      39.135  24.633  26.371  1.00  0.00     0.012 A 
ATOM     74  C   UNL A   1      40.974  23.369  27.329  1.00  0.00     0.148 A 
ATOM     75  C   UNL A   1      38.493  23.444  26.020  1.00  0.00     0.002 A 
ATOM     76  C   UNL A   1      40.357  22.191  26.927  1.00  0.00     0.091 A 
ATOM     77  F   UNL A   1      42.142  23.367  27.989  1.00  0.00    -0.205 F 
ATOM     78  C   UNL A   1      39.107  22.225  26.290  1.00  0.00     0.022 A 
BRANCH  76  79
ATOM     79  S   UNL A   1      41.127  20.580  27.128  1.00  0.00     0.127 S 
ATOM     80  O   UNL A   1      40.399  19.777  26.148  1.00  0.00    -0.237 OA
ATOM     81  O   UNL A   1      42.518  20.869  26.778  1.00  0.00    -0.237 OA
ATOM     82  O   UNL A   1      40.918  20.214  28.521  1.00  0.00    -0.744 OA
ENDBRANCH  76  79
ENDBRANCH  48  72
BRANCH  60  83
ATOM     83  C   UNL A   1      46.736  27.289  26.037  1.00  0.00     0.023 A 
ATOM     84  C   UNL A   1      46.929  27.495  24.657  1.00  0.00     0.012 A 
ATOM     85  C   UNL A   1      47.729  26.620  26.780  1.00  0.00     0.148 A 
ATOM     86  C   UNL A   1      48.066  26.998  24.018  1.00  0.00     0.002 A 
ATOM     87  C   UNL A   1      48.885  26.178  26.148  1.00  0.00     0.091 A 
ATOM     88  F   UNL A   1      47.523  26.419  28.090  1.00  0.00    -0.205 F 
ATOM     89  C   UNL A   1      49.047  26.351  24.765  1.00  0.00     0.022 A 
BRANCH  87  90
ATOM     90  S   UNL A   1      50.246  25.426  27.049  1.00  0.00     0.127 S 
ATOM     91  O   UNL A   1      50.576  26.472  28.016  1.00  0.00    -0.237 OA
ATOM     92  O   UNL A   1      49.617  24.238  27.625  1.00  0.00    -0.237 OA
ATOM     93  O   UNL A   1      51.275  25.143  26.057  1.00  0.00    -0.744 OA
ENDBRANCH  87  90
ENDBRANCH  60  83
ENDBRANCH  34  35
ENDBRANCH  27  29
ENDBRANCH  26  27
ENDBRANCH  25  26
ENDBRANCH  24  25
ENDBRANCH  23  24
ENDBRANCH  22  23
ENDBRANCH   1  22
TORSDOF 25
ENDMDL
MODEL 3
REMARK VINA RESULT:      -9.2      4.894      9.704
REMARK SMILES C[C@H]([NH2+]CCc1ccco1)[C@@H](C)C(=O)OCCOCCOCCOC(=O)c1ccc(-c2c3nc(c(-c4cccc(S(=O)(=O)[O-])c4F)c4ccc([nH]4)c(-c4cccc(S(=O)(=O)[O-])c4F)c4nc(c(-c5cccc(S(=O)(=O)[O-])c5F)c5ccc2[nH]5)C=C4)C=C3)cc1
REMARK SMILES IDX 19 1 18 2 17 3 16 4 15 5 13 6 14 7 11 8 12 9 2 10 1 11 3 12
REMARK SMILES IDX 4 15 5 16 6 17 7 18 10 19 8 20 9 21 20 22 21 23 22 24 23 25
REMARK SMILES IDX 24 26 25 27 26 28 27 29 28 30 89 31 29 32 88 33 30 34 31 35
REMARK SMILES IDX 32 36 82 37 33 38 87 39 81 40 83 41 34 42 86 43 80 44 79 45
REMARK SMILES IDX 35 47 67 48 47 49 66 50 48 51 51 52 65 53 84 54 49 55 50 56
REMARK SMILES IDX 64 58 85 59 52 60 36 61 37 62 45 63 38 64 40 65 46 66 39 67
REMARK SMILES IDX 41 68 42 69 43 70 44 71 68 72 69 73 77 74 70 75 72 76 78 77
REMARK SMILES IDX 71 78 73 79 74 80 75 81 76 82 53 83 54 84 62 85 55 86 57 87
REMARK SMILES IDX 63 88 56 89 58 90 59 91 60 92 61 93
REMARK H PARENT 3 13 3 14 83 46 51 57
REMARK Flexibility Score: inf
ROOT
ATOM      1  C   UNL A   1      29.466  29.536  23.215  1.00  0.00     0.188 C 
ENDROOT
BRANCH   1   2
ATOM      2  O   UNL A   1      28.537  28.463  23.175  1.00  0.00    -0.376 OA
BRANCH   2   3
ATOM      3  C   UNL A   1      29.009  27.123  23.124  1.00  0.00     0.202 C 
BRANCH   3   4
ATOM      4  C   UNL A   1      29.186  26.330  24.437  1.00  0.00     0.261 C 
BRANCH   4   5
ATOM      5  O   UNL A   1      30.324  25.424  24.566  1.00  0.00    -0.463 OA
BRANCH   5   6
ATOM      6  C   UNL A   1      30.687  25.123  25.843  1.00  0.00     0.314 C 
ATOM      7  O   UNL A   1      30.737  25.972  26.732  1.00  0.00    -0.252 OA
BRANCH   6   8
ATOM      8  C   UNL A   1      31.127  23.678  26.144  1.00  0.00     0.154 C 
ATOM      9  C   UNL A   1      29.924  23.052  26.873  1.00  0.00     0.026 C 
BRANCH   8  10
ATOM     10  C   UNL A   1      32.482  23.299  26.843  1.00  0.00     0.193 C 
ATOM     11  C   UNL A   1      33.721  23.773  26.061  1.00  0.00     0.076 C 
BRANCH  10  12
ATOM     12  N   UNL A   1      32.572  21.815  26.897  1.00  0.00    -0.343 N 
ATOM     13  H   UNL A   1      31.690  21.457  27.263  1.00  0.00     0.346 HD
ATOM     14  H   UNL A   1      33.373  21.599  27.491  1.00  0.00     0.346 HD
BRANCH  12  15
ATOM     15  C   UNL A   1      32.829  21.161  25.606  1.00  0.00     0.268 C 
BRANCH  15  16
ATOM     16  C   UNL A   1      33.627  19.852  25.769  1.00  0.00     0.136 C 
BRANCH  16  17
ATOM     17  C   UNL A   1      33.497  18.887  24.635  1.00  0.00     0.109 A 
ATOM     18  C   UNL A   1      34.269  17.816  24.229  1.00  0.00     0.046 A 
ATOM     19  O   UNL A   1      32.444  19.045  23.782  1.00  0.00    -0.469 OA
ATOM     20  C   UNL A   1      33.645  17.284  23.075  1.00  0.00     0.042 A 
ATOM     21  C   UNL A   1      32.536  18.064  22.846  1.00  0.00     0.195 A 
ENDBRANCH  16  17
ENDBRANCH  15  16
ENDBRANCH  12  15
ENDBRANCH  10  12
ENDBRANCH   8  10
ENDBRANCH   6   8
ENDBRANCH   5   6
ENDBRANCH   4   5
ENDBRANCH   3   4
ENDBRANCH   2   3
ENDBRANCH   1   2
BRANCH   1  22
ATOM     22  C   UNL A   1      30.945  29.224  23.027  1.00  0.00     0.188 C 
BRANCH  22  23
ATOM     23  O   UNL A   1      31.621  28.829  24.201  1.00  0.00    -0.376 OA
BRANCH  23  24
ATOM     24  C   UNL A   1      32.752  29.566  24.618  1.00  0.00     0.202 C 
BRANCH  24  25
ATOM     25  C   UNL A   1      33.162  29.310  26.073  1.00  0.00     0.261 C 
BRANCH  25  26
ATOM     26  O   UNL A   1      32.585  30.213  27.034  1.00  0.00    -0.460 OA
BRANCH  26  27
ATOM     27  C   UNL A   1      33.257  31.366  27.252  1.00  0.00     0.338 C 
ATOM     28  O   UNL A   1      32.785  32.496  27.264  1.00  0.00    -0.246 OA
BRANCH  27  29
ATOM     29  C   UNL A   1      34.614  31.030  27.735  1.00  0.00     0.060 A 
ATOM     30  C   UNL A   1      34.914  29.685  27.998  1.00  0.00     0.016 A 
ATOM     31  C   UNL A   1      35.582  32.018  27.921  1.00  0.00     0.016 A 
ATOM     32  C   UNL A   1      36.161  29.331  28.507  1.00  0.00     0.010 A 
ATOM     33  C   UNL A   1      36.826  31.665  28.453  1.00  0.00     0.010 A 
ATOM     34  C   UNL A   1      37.101  30.328  28.797  1.00  0.00    -0.014 A 
BRANCH  34  35
ATOM     35  C   UNL A   1      38.242  30.005  29.689  1.00  0.00     0.031 A 
ATOM     36  C   UNL A   1      39.289  29.050  29.177  1.00  0.00     0.074 A 
ATOM     37  C   UNL A   1      38.379  30.570  30.902  1.00  0.00     0.049 A 
ATOM     38  N   UNL A   1      40.353  28.583  29.773  1.00  0.00    -0.248 NA
ATOM     39  C   UNL A   1      39.106  28.553  27.801  1.00  0.00     0.031 C 
ATOM     40  C   UNL A   1      37.459  31.534  31.499  1.00  0.00     0.029 A 
ATOM     41  N   UNL A   1      39.352  30.395  31.856  1.00  0.00    -0.354 N 
ATOM     42  C   UNL A   1      40.941  27.708  28.866  1.00  0.00     0.074 A 
ATOM     43  C   UNL A   1      40.109  27.699  27.684  1.00  0.00     0.031 C 
ATOM     44  C   UNL A   1      37.898  31.850  32.731  1.00  0.00     0.029 A 
ATOM     45  C   UNL A   1      39.111  31.085  33.020  1.00  0.00     0.049 A 
ATOM     46  H   UNL A   1      40.145  29.827  31.720  1.00  0.00     0.167 HD
ATOM     47  C   UNL A   1      42.078  26.985  28.996  1.00  0.00     0.034 A 
ATOM     48  C   UNL A   1      39.780  31.079  34.191  1.00  0.00     0.034 A 
ATOM     49  C   UNL A   1      42.919  27.013  30.162  1.00  0.00     0.049 A 
ATOM     50  C   UNL A   1      41.027  30.240  34.323  1.00  0.00     0.074 A 
ATOM     51  C   UNL A   1      44.109  26.341  30.380  1.00  0.00     0.029 A 
ATOM     52  N   UNL A   1      42.655  27.742  31.310  1.00  0.00    -0.354 N 
ATOM     53  N   UNL A   1      41.615  29.481  33.429  1.00  0.00    -0.248 NA
ATOM     54  C   UNL A   1      41.721  30.284  35.618  1.00  0.00     0.031 C 
ATOM     55  C   UNL A   1      44.545  26.638  31.675  1.00  0.00     0.029 A 
ATOM     56  C   UNL A   1      43.653  27.531  32.245  1.00  0.00     0.049 A 
ATOM     57  H   UNL A   1      41.872  28.325  31.441  1.00  0.00     0.167 HD
ATOM     58  C   UNL A   1      42.766  28.992  34.039  1.00  0.00     0.074 A 
ATOM     59  C   UNL A   1      42.804  29.561  35.370  1.00  0.00     0.031 C 
ATOM     60  C   UNL A   1      43.703  28.141  33.549  1.00  0.00     0.034 A 
BRANCH  47  61
ATOM     61  C   UNL A   1      42.477  26.103  27.842  1.00  0.00     0.023 A 
ATOM     62  C   UNL A   1      43.370  26.582  26.861  1.00  0.00     0.012 A 
ATOM     63  C   UNL A   1      41.991  24.784  27.749  1.00  0.00     0.148 A 
ATOM     64  C   UNL A   1      43.741  25.776  25.785  1.00  0.00     0.002 A 
ATOM     65  C   UNL A   1      42.407  23.970  26.703  1.00  0.00     0.091 A 
ATOM     66  F   UNL A   1      41.125  24.355  28.677  1.00  0.00    -0.205 F 
ATOM     67  C   UNL A   1      43.269  24.468  25.712  1.00  0.00     0.022 A 
BRANCH  65  68
ATOM     68  S   UNL A   1      41.920  22.248  26.563  1.00  0.00     0.127 S 
ATOM     69  O   UNL A   1      40.472  22.363  26.392  1.00  0.00    -0.237 OA
ATOM     70  O   UNL A   1      42.643  21.823  25.364  1.00  0.00    -0.237 OA
ATOM     71  O   UNL A   1      42.352  21.605  27.795  1.00  0.00    -0.744 OA
ENDBRANCH  65  68
ENDBRANCH  47  61
BRANCH  48  72
ATOM     72  C   UNL A   1      39.300  31.904  35.337  1.00  0.00     0.023 A 
ATOM     73  C   UNL A   1      38.350  31.375  36.232  1.00  0.00     0.012 A 
ATOM     74  C   UNL A   1      39.769  33.217  35.533  1.00  0.00     0.148 A 
ATOM     75  C   UNL A   1      37.849  32.150  37.279  1.00  0.00     0.002 A 
ATOM     76  C   UNL A   1      39.308  33.964  36.611  1.00  0.00     0.091 A 
ATOM     77  F   UNL A   1      40.658  33.711  34.659  1.00  0.00    -0.205 F 
ATOM     78  C   UNL A   1      38.332  33.440  37.473  1.00  0.00     0.022 A 
BRANCH  76  79
ATOM     79  S   UNL A   1      39.959  35.591  37.008  1.00  0.00     0.127 S 
ATOM     80  O   UNL A   1      39.233  35.912  38.235  1.00  0.00    -0.237 OA
ATOM     81  O   UNL A   1      41.382  35.306  37.190  1.00  0.00    -0.237 OA
ATOM     82  O   UNL A   1      39.653  36.430  35.858  1.00  0.00    -0.744 OA
ENDBRANCH  76  79
ENDBRANCH  48  72
BRANCH  60  83
ATOM     83  C   UNL A   1      44.881  27.813  34.434  1.00  0.00     0.023 A 
ATOM     84  C   UNL A   1      46.019  28.644  34.437  1.00  0.00     0.012 A 
ATOM     85  C   UNL A   1      44.837  26.701  35.298  1.00  0.00     0.148 A 
ATOM     86  C   UNL A   1      47.114  28.342  35.248  1.00  0.00     0.002 A 
ATOM     87  C   UNL A   1      45.907  26.440  36.144  1.00  0.00     0.091 A 
ATOM     88  F   UNL A   1      43.753  25.912  35.272  1.00  0.00    -0.205 F 
ATOM     89  C   UNL A   1      47.053  27.249  36.108  1.00  0.00     0.022 A 
BRANCH  87  90
ATOM     90  S   UNL A   1      45.873  25.114  37.357  1.00  0.00     0.127 S 
ATOM     91  O   UNL A   1      45.358  23.999  36.564  1.00  0.00    -0.237 OA
ATOM     92  O   UNL A   1      47.283  24.998  37.730  1.00  0.00    -0.237 OA
ATOM     93  O   UNL A   1      45.002  25.574  38.429  1.00  0.00    -0.744 OA
ENDBRANCH  87  90
ENDBRANCH  60  83
ENDBRANCH  34  35
ENDBRANCH  27  29
ENDBRANCH  26  27
ENDBRANCH  25  26
ENDBRANCH  24  25
ENDBRANCH  23  24
ENDBRANCH  22  23
ENDBRANCH   1  22
TORSDOF 25
ENDMDL
