MODEL 1
REMARK VINA RESULT:     -10.7      0.000      0.000
REMARK SMILES NS(=O)(=O)c1ccc(-c2coc(=O)n2-c2ccc(C(=O)OCCOCCOCCOC(=O)c3ccc(-c4c5nc(c(-c6cccc(S(=O)(=O)[O-])c6F)c6ccc([nH]6)c(-c6cccc(S(=O)(=O)[O-])c6F)c6nc(c(-c7cccc(S(=O)(=O)[O-])c7F)c7ccc4[nH]7)C=C6)C=C5)cc3)cc2)cc1
REMARK SMILES IDX 25 1 24 2 23 3 22 4 21 5 19 6 20 7 18 8 15 9 16 10 97 11
REMARK SMILES IDX 17 12 96 13 14 14 9 15 10 16 11 17 12 18 13 19 8 20 5 21
REMARK SMILES IDX 6 22 99 23 7 24 98 25 2 26 3 27 4 28 1 29 26 32 27 33 28 34
REMARK SMILES IDX 29 35 30 36 31 37 32 38 33 39 34 40 95 41 35 42 94 43 36 44
REMARK SMILES IDX 37 45 38 46 88 47 39 48 93 49 87 50 89 51 40 52 92 53 86 54
REMARK SMILES IDX 85 55 41 57 73 58 53 59 72 60 54 61 57 62 71 63 90 64 55 65
REMARK SMILES IDX 56 66 70 68 91 69 58 70 42 71 43 72 51 73 44 74 46 75 52 76
REMARK SMILES IDX 45 77 47 78 48 79 49 80 50 81 74 82 75 83 83 84 76 85 78 86
REMARK SMILES IDX 84 87 77 88 79 89 80 90 81 91 82 92 59 93 60 94 68 95 61 96
REMARK SMILES IDX 63 97 69 98 62 99 64 100 65 101 66 102 67 103
REMARK H PARENT 1 30 1 31 89 56 57 67
REMARK Flexibility Score: inf
ROOT
ATOM      1  C   UNL A   1      33.313  35.262  28.979  1.00  0.00     0.188 C 
ENDROOT
BRANCH   1   2
ATOM      2  O   UNL A   1      32.541  34.241  28.386  1.00  0.00    -0.376 OA
BRANCH   2   3
ATOM      3  C   UNL A   1      33.094  32.975  28.078  1.00  0.00     0.202 C 
BRANCH   3   4
ATOM      4  C   UNL A   1      32.655  32.078  26.905  1.00  0.00     0.261 C 
BRANCH   4   5
ATOM      5  O   UNL A   1      32.442  30.694  27.191  1.00  0.00    -0.460 OA
BRANCH   5   6
ATOM      6  C   UNL A   1      33.549  29.915  27.181  1.00  0.00     0.338 C 
ATOM      7  O   UNL A   1      34.668  30.215  27.561  1.00  0.00    -0.246 OA
BRANCH   6   8
ATOM      8  C   UNL A   1      33.180  28.541  26.786  1.00  0.00     0.060 A 
ATOM      9  C   UNL A   1      32.477  26.011  25.828  1.00  0.00     0.053 A 
ATOM     10  C   UNL A   1      33.706  26.571  25.468  1.00  0.00     0.028 A 
ATOM     11  C   UNL A   1      31.666  26.675  26.766  1.00  0.00     0.028 A 
ATOM     12  C   UNL A   1      34.037  27.851  25.917  1.00  0.00     0.018 A 
ATOM     13  C   UNL A   1      32.019  27.932  27.258  1.00  0.00     0.018 A 
BRANCH   9  14
ATOM     14  N   UNL A   1      31.980  24.891  25.125  1.00  0.00    -0.242 N 
ATOM     15  C   UNL A   1      30.979  24.885  24.192  1.00  0.00     0.095 A 
ATOM     16  C   UNL A   1      30.888  23.639  23.748  1.00  0.00     0.228 A 
ATOM     17  O   UNL A   1      31.797  22.758  24.332  1.00  0.00    -0.415 OA
ATOM     18  C   UNL A   1      32.512  23.606  25.181  1.00  0.00     0.424 A 
ATOM     19  O   UNL A   1      33.453  23.207  25.861  1.00  0.00    -0.223 OA
BRANCH  15  20
ATOM     20  C   UNL A   1      30.325  26.078  23.657  1.00  0.00     0.002 A 
ATOM     21  C   UNL A   1      29.217  28.491  22.787  1.00  0.00     0.082 A 
ATOM     22  C   UNL A   1      30.489  28.128  22.350  1.00  0.00     0.022 A 
ATOM     23  C   UNL A   1      28.482  27.651  23.633  1.00  0.00     0.022 A 
ATOM     24  C   UNL A   1      31.035  26.919  22.778  1.00  0.00     0.012 A 
ATOM     25  C   UNL A   1      29.036  26.441  24.061  1.00  0.00     0.012 A 
BRANCH  21  26
ATOM     26  S   UNL A   1      28.528  30.034  22.273  1.00  0.00     0.238 S 
ATOM     27  O   UNL A   1      27.127  30.078  22.624  1.00  0.00    -0.207 OA
ATOM     28  O   UNL A   1      29.015  30.343  20.951  1.00  0.00    -0.207 OA
BRANCH  26  29
ATOM     29  N   UNL A   1      29.269  31.127  23.313  1.00  0.00    -0.225 NA
ATOM     30  H   UNL A   1      30.147  30.733  23.650  1.00  0.00     0.137 HD
ATOM     31  H   UNL A   1      28.653  31.315  24.104  1.00  0.00     0.137 HD
ENDBRANCH  26  29
ENDBRANCH  21  26
ENDBRANCH  15  20
ENDBRANCH   9  14
ENDBRANCH   6   8
ENDBRANCH   5   6
ENDBRANCH   4   5
ENDBRANCH   3   4
ENDBRANCH   2   3
ENDBRANCH   1   2
BRANCH   1  32
ATOM     32  C   UNL A   1      32.714  36.172  30.070  1.00  0.00     0.188 C 
BRANCH  32  33
ATOM     33  O   UNL A   1      33.560  36.817  30.999  1.00  0.00    -0.376 OA
BRANCH  33  34
ATOM     34  C   UNL A   1      33.465  36.627  32.400  1.00  0.00     0.202 C 
BRANCH  34  35
ATOM     35  C   UNL A   1      34.095  35.494  33.207  1.00  0.00     0.261 C 
BRANCH  35  36
ATOM     36  O   UNL A   1      34.917  34.601  32.492  1.00  0.00    -0.460 OA
BRANCH  36  37
ATOM     37  C   UNL A   1      34.471  33.330  32.532  1.00  0.00     0.338 C 
ATOM     38  O   UNL A   1      33.454  32.923  33.070  1.00  0.00    -0.246 OA
BRANCH  37  39
ATOM     39  C   UNL A   1      35.459  32.464  31.895  1.00  0.00     0.060 A 
ATOM     40  C   UNL A   1      36.394  31.867  32.742  1.00  0.00     0.016 A 
ATOM     41  C   UNL A   1      35.638  32.549  30.506  1.00  0.00     0.016 A 
ATOM     42  C   UNL A   1      37.630  31.577  32.222  1.00  0.00     0.010 A 
ATOM     43  C   UNL A   1      36.879  32.271  29.992  1.00  0.00     0.010 A 
ATOM     44  C   UNL A   1      37.878  31.887  30.879  1.00  0.00    -0.014 A 
BRANCH  44  45
ATOM     45  C   UNL A   1      39.242  31.788  30.423  1.00  0.00     0.031 A 
ATOM     46  C   UNL A   1      39.564  30.475  29.841  1.00  0.00     0.074 A 
ATOM     47  C   UNL A   1      40.099  32.821  30.497  1.00  0.00     0.049 A 
ATOM     48  N   UNL A   1      40.303  29.557  30.365  1.00  0.00    -0.248 NA
ATOM     49  C   UNL A   1      38.835  30.063  28.636  1.00  0.00     0.031 C 
ATOM     50  C   UNL A   1      39.802  34.225  30.800  1.00  0.00     0.029 A 
ATOM     51  N   UNL A   1      41.417  32.843  30.173  1.00  0.00    -0.354 N 
ATOM     52  C   UNL A   1      40.323  28.535  29.426  1.00  0.00     0.074 A 
ATOM     53  C   UNL A   1      39.253  28.806  28.501  1.00  0.00     0.031 C 
ATOM     54  C   UNL A   1      40.841  34.988  30.391  1.00  0.00     0.029 A 
ATOM     55  C   UNL A   1      41.911  34.118  29.931  1.00  0.00     0.049 A 
ATOM     56  H   UNL A   1      41.971  32.032  30.116  1.00  0.00     0.167 HD
ATOM     57  C   UNL A   1      41.387  27.696  29.328  1.00  0.00     0.034 A 
ATOM     58  C   UNL A   1      43.073  34.410  29.299  1.00  0.00     0.034 A 
ATOM     59  C   UNL A   1      42.243  27.779  30.481  1.00  0.00     0.049 A 
ATOM     60  C   UNL A   1      43.931  33.203  29.369  1.00  0.00     0.074 A 
ATOM     61  C   UNL A   1      42.084  27.565  31.835  1.00  0.00     0.029 A 
ATOM     62  N   UNL A   1      43.399  28.510  30.339  1.00  0.00    -0.354 N 
ATOM     63  N   UNL A   1      44.448  32.749  30.476  1.00  0.00    -0.248 NA
ATOM     64  C   UNL A   1      43.874  32.249  28.271  1.00  0.00     0.031 C 
ATOM     65  C   UNL A   1      42.902  28.548  32.463  1.00  0.00     0.029 A 
ATOM     66  C   UNL A   1      43.549  29.276  31.462  1.00  0.00     0.049 A 
ATOM     67  H   UNL A   1      44.009  28.485  29.567  1.00  0.00     0.167 HD
ATOM     68  C   UNL A   1      44.345  31.368  30.364  1.00  0.00     0.074 A 
ATOM     69  C   UNL A   1      44.104  31.119  28.945  1.00  0.00     0.031 C 
ATOM     70  C   UNL A   1      44.168  30.584  31.469  1.00  0.00     0.034 A 
BRANCH  57  71
ATOM     71  C   UNL A   1      41.864  27.086  28.037  1.00  0.00     0.023 A 
ATOM     72  C   UNL A   1      41.957  27.939  26.917  1.00  0.00     0.012 A 
ATOM     73  C   UNL A   1      41.954  25.695  27.802  1.00  0.00     0.148 A 
ATOM     74  C   UNL A   1      42.088  27.428  25.622  1.00  0.00     0.002 A 
ATOM     75  C   UNL A   1      42.173  25.197  26.526  1.00  0.00     0.091 A 
ATOM     76  F   UNL A   1      41.686  24.829  28.784  1.00  0.00    -0.205 F 
ATOM     77  C   UNL A   1      42.208  26.057  25.426  1.00  0.00     0.022 A 
BRANCH  75  78
ATOM     78  S   UNL A   1      42.388  23.439  26.230  1.00  0.00     0.127 S 
ATOM     79  O   UNL A   1      42.898  23.432  24.863  1.00  0.00    -0.237 OA
ATOM     80  O   UNL A   1      43.365  23.081  27.259  1.00  0.00    -0.237 OA
ATOM     81  O   UNL A   1      41.072  22.847  26.429  1.00  0.00    -0.744 OA
ENDBRANCH  75  78
ENDBRANCH  57  71
BRANCH  58  82
ATOM     82  C   UNL A   1      43.396  35.550  28.412  1.00  0.00     0.023 A 
ATOM     83  C   UNL A   1      42.657  35.737  27.228  1.00  0.00     0.012 A 
ATOM     84  C   UNL A   1      44.226  36.605  28.855  1.00  0.00     0.148 A 
ATOM     85  C   UNL A   1      42.713  36.947  26.528  1.00  0.00     0.002 A 
ATOM     86  C   UNL A   1      44.285  37.804  28.151  1.00  0.00     0.091 A 
ATOM     87  F   UNL A   1      44.881  36.470  30.016  1.00  0.00    -0.205 F 
ATOM     88  C   UNL A   1      43.520  37.982  26.992  1.00  0.00     0.022 A 
BRANCH  86  89
ATOM     89  S   UNL A   1      45.282  39.193  28.709  1.00  0.00     0.127 S 
ATOM     90  O   UNL A   1      44.540  39.642  29.888  1.00  0.00    -0.237 OA
ATOM     91  O   UNL A   1      46.561  38.550  28.998  1.00  0.00    -0.237 OA
ATOM     92  O   UNL A   1      45.287  40.147  27.607  1.00  0.00    -0.744 OA
ENDBRANCH  86  89
ENDBRANCH  58  82
BRANCH  70  93
ATOM     93  C   UNL A   1      44.370  31.215  32.823  1.00  0.00     0.023 A 
ATOM     94  C   UNL A   1      45.640  31.306  33.431  1.00  0.00     0.012 A 
ATOM     95  C   UNL A   1      43.285  31.890  33.410  1.00  0.00     0.148 A 
ATOM     96  C   UNL A   1      45.817  32.032  34.612  1.00  0.00     0.002 A 
ATOM     97  C   UNL A   1      43.476  32.651  34.557  1.00  0.00     0.091 A 
ATOM     98  F   UNL A   1      42.085  31.798  32.817  1.00  0.00    -0.205 F 
ATOM     99  C   UNL A   1      44.739  32.716  35.167  1.00  0.00     0.022 A 
BRANCH  97 100
ATOM    100  S   UNL A   1      42.159  33.659  35.239  1.00  0.00     0.127 S 
ATOM    101  O   UNL A   1      42.807  34.264  36.400  1.00  0.00    -0.237 OA
ATOM    102  O   UNL A   1      41.874  34.590  34.143  1.00  0.00    -0.237 OA
ATOM    103  O   UNL A   1      41.065  32.742  35.535  1.00  0.00    -0.744 OA
ENDBRANCH  97 100
ENDBRANCH  70  93
ENDBRANCH  44  45
ENDBRANCH  37  39
ENDBRANCH  36  37
ENDBRANCH  35  36
ENDBRANCH  34  35
ENDBRANCH  33  34
ENDBRANCH  32  33
ENDBRANCH   1  32
TORSDOF 24
ENDMDL
MODEL 2
REMARK VINA RESULT:     -10.5      2.061      2.593
REMARK SMILES NS(=O)(=O)c1ccc(-c2coc(=O)n2-c2ccc(C(=O)OCCOCCOCCOC(=O)c3ccc(-c4c5nc(c(-c6cccc(S(=O)(=O)[O-])c6F)c6ccc([nH]6)c(-c6cccc(S(=O)(=O)[O-])c6F)c6nc(c(-c7cccc(S(=O)(=O)[O-])c7F)c7ccc4[nH]7)C=C6)C=C5)cc3)cc2)cc1
REMARK SMILES IDX 25 1 24 2 23 3 22 4 21 5 19 6 20 7 18 8 15 9 16 10 97 11
REMARK SMILES IDX 17 12 96 13 14 14 9 15 10 16 11 17 12 18 13 19 8 20 5 21
REMARK SMILES IDX 6 22 99 23 7 24 98 25 2 26 3 27 4 28 1 29 26 32 27 33 28 34
REMARK SMILES IDX 29 35 30 36 31 37 32 38 33 39 34 40 95 41 35 42 94 43 36 44
REMARK SMILES IDX 37 45 38 46 88 47 39 48 93 49 87 50 89 51 40 52 92 53 86 54
REMARK SMILES IDX 85 55 41 57 73 58 53 59 72 60 54 61 57 62 71 63 90 64 55 65
REMARK SMILES IDX 56 66 70 68 91 69 58 70 42 71 43 72 51 73 44 74 46 75 52 76
REMARK SMILES IDX 45 77 47 78 48 79 49 80 50 81 74 82 75 83 83 84 76 85 78 86
REMARK SMILES IDX 84 87 77 88 79 89 80 90 81 91 82 92 59 93 60 94 68 95 61 96
REMARK SMILES IDX 63 97 69 98 62 99 64 100 65 101 66 102 67 103
REMARK H PARENT 1 30 1 31 89 56 57 67
REMARK Flexibility Score: inf
ROOT
ATOM      1  C   UNL A   1      34.896  34.888  28.497  1.00  0.00     0.188 C 
ENDROOT
BRANCH   1   2
ATOM      2  O   UNL A   1      34.832  33.607  27.909  1.00  0.00    -0.376 OA
BRANCH   2   3
ATOM      3  C   UNL A   1      33.596  33.007  27.569  1.00  0.00     0.202 C 
BRANCH   3   4
ATOM      4  C   UNL A   1      33.164  31.582  27.967  1.00  0.00     0.261 C 
BRANCH   4   5
ATOM      5  O   UNL A   1      33.228  30.578  26.953  1.00  0.00    -0.460 OA
BRANCH   5   6
ATOM      6  C   UNL A   1      34.099  29.568  27.179  1.00  0.00     0.338 C 
ATOM      7  O   UNL A   1      35.138  29.616  27.816  1.00  0.00    -0.246 OA
BRANCH   6   8
ATOM      8  C   UNL A   1      33.529  28.303  26.674  1.00  0.00     0.060 A 
ATOM      9  C   UNL A   1      32.449  26.000  25.515  1.00  0.00     0.053 A 
ATOM     10  C   UNL A   1      33.737  26.414  25.163  1.00  0.00     0.028 A 
ATOM     11  C   UNL A   1      31.763  26.679  26.538  1.00  0.00     0.028 A 
ATOM     12  C   UNL A   1      34.258  27.586  25.715  1.00  0.00     0.018 A 
ATOM     13  C   UNL A   1      32.303  27.821  27.130  1.00  0.00     0.018 A 
BRANCH   9  14
ATOM     14  N   UNL A   1      31.781  25.033  24.731  1.00  0.00    -0.242 N 
ATOM     15  C   UNL A   1      30.735  25.250  23.875  1.00  0.00     0.095 A 
ATOM     16  C   UNL A   1      30.469  24.082  23.306  1.00  0.00     0.228 A 
ATOM     17  O   UNL A   1      31.296  23.041  23.725  1.00  0.00    -0.415 OA
ATOM     18  C   UNL A   1      32.155  23.698  24.610  1.00  0.00     0.424 A 
ATOM     19  O   UNL A   1      33.079  23.118  25.175  1.00  0.00    -0.223 OA
BRANCH  15  20
ATOM     20  C   UNL A   1      30.201  26.563  23.520  1.00  0.00     0.002 A 
ATOM     21  C   UNL A   1      29.050  28.960  22.663  1.00  0.00     0.082 A 
ATOM     22  C   UNL A   1      28.290  28.071  23.421  1.00  0.00     0.022 A 
ATOM     23  C   UNL A   1      30.385  28.677  22.350  1.00  0.00     0.022 A 
ATOM     24  C   UNL A   1      28.871  26.881  23.855  1.00  0.00     0.012 A 
ATOM     25  C   UNL A   1      30.961  27.479  22.786  1.00  0.00     0.012 A 
BRANCH  21  26
ATOM     26  S   UNL A   1      28.315  30.459  22.085  1.00  0.00     0.238 S 
ATOM     27  O   UNL A   1      27.321  30.907  23.032  1.00  0.00    -0.207 OA
ATOM     28  O   UNL A   1      28.052  30.332  20.672  1.00  0.00    -0.207 OA
BRANCH  26  29
ATOM     29  N   UNL A   1      29.577  31.561  22.229  1.00  0.00    -0.225 NA
ATOM     30  H   UNL A   1      29.480  32.076  23.104  1.00  0.00     0.137 HD
ATOM     31  H   UNL A   1      29.550  32.213  21.446  1.00  0.00     0.137 HD
ENDBRANCH  26  29
ENDBRANCH  21  26
ENDBRANCH  15  20
ENDBRANCH   9  14
ENDBRANCH   6   8
ENDBRANCH   5   6
ENDBRANCH   4   5
ENDBRANCH   3   4
ENDBRANCH   2   3
ENDBRANCH   1   2
BRANCH   1  32
ATOM     32  C   UNL A   1      33.704  35.862  28.399  1.00  0.00     0.188 C 
BRANCH  32  33
ATOM     33  O   UNL A   1      32.865  36.070  29.516  1.00  0.00    -0.376 OA
BRANCH  33  34
ATOM     34  C   UNL A   1      32.922  35.277  30.690  1.00  0.00     0.202 C 
BRANCH  34  35
ATOM     35  C   UNL A   1      32.706  35.761  32.122  1.00  0.00     0.261 C 
BRANCH  35  36
ATOM     36  O   UNL A   1      33.766  35.538  33.023  1.00  0.00    -0.460 OA
BRANCH  36  37
ATOM     37  C   UNL A   1      34.167  34.251  33.055  1.00  0.00     0.338 C 
ATOM     38  O   UNL A   1      33.457  33.258  33.044  1.00  0.00    -0.246 OA
BRANCH  37  39
ATOM     39  C   UNL A   1      35.619  34.214  33.202  1.00  0.00     0.060 A 
ATOM     40  C   UNL A   1      36.355  34.904  32.238  1.00  0.00     0.016 A 
ATOM     41  C   UNL A   1      36.189  33.249  34.046  1.00  0.00     0.016 A 
ATOM     42  C   UNL A   1      37.614  34.443  31.948  1.00  0.00     0.010 A 
ATOM     43  C   UNL A   1      37.443  32.781  33.745  1.00  0.00     0.010 A 
ATOM     44  C   UNL A   1      38.088  33.321  32.638  1.00  0.00    -0.014 A 
BRANCH  44  45
ATOM     45  C   UNL A   1      39.309  32.722  32.158  1.00  0.00     0.031 A 
ATOM     46  C   UNL A   1      39.087  31.494  31.380  1.00  0.00     0.074 A 
ATOM     47  C   UNL A   1      40.514  33.277  32.383  1.00  0.00     0.049 A 
ATOM     48  N   UNL A   1      39.344  30.286  31.750  1.00  0.00    -0.248 NA
ATOM     49  C   UNL A   1      38.321  31.605  30.132  1.00  0.00     0.031 C 
ATOM     50  C   UNL A   1      40.813  34.616  32.900  1.00  0.00     0.029 A 
ATOM     51  N   UNL A   1      41.737  32.788  32.053  1.00  0.00    -0.354 N 
ATOM     52  C   UNL A   1      38.989  29.497  30.664  1.00  0.00     0.074 A 
ATOM     53  C   UNL A   1      38.183  30.322  29.802  1.00  0.00     0.031 C 
ATOM     54  C   UNL A   1      42.097  34.920  32.603  1.00  0.00     0.029 A 
ATOM     55  C   UNL A   1      42.731  33.757  32.005  1.00  0.00     0.049 A 
ATOM     56  H   UNL A   1      41.904  31.837  31.867  1.00  0.00     0.167 HD
ATOM     57  C   UNL A   1      39.610  28.311  30.429  1.00  0.00     0.034 A 
ATOM     58  C   UNL A   1      43.942  33.620  31.415  1.00  0.00     0.034 A 
ATOM     59  C   UNL A   1      40.356  27.860  31.573  1.00  0.00     0.049 A 
ATOM     60  C   UNL A   1      44.213  32.167  31.291  1.00  0.00     0.074 A 
ATOM     61  C   UNL A   1      40.046  27.541  32.880  1.00  0.00     0.029 A 
ATOM     62  N   UNL A   1      41.717  28.049  31.534  1.00  0.00    -0.354 N 
ATOM     63  N   UNL A   1      44.430  31.385  32.310  1.00  0.00    -0.248 NA
ATOM     64  C   UNL A   1      43.824  31.494  30.060  1.00  0.00     0.031 C 
ATOM     65  C   UNL A   1      41.162  27.988  33.644  1.00  0.00     0.029 A 
ATOM     66  C   UNL A   1      42.110  28.511  32.760  1.00  0.00     0.049 A 
ATOM     67  H   UNL A   1      42.304  27.880  30.762  1.00  0.00     0.167 HD
ATOM     68  C   UNL A   1      43.766  30.207  31.989  1.00  0.00     0.074 A 
ATOM     69  C   UNL A   1      43.524  30.288  30.550  1.00  0.00     0.031 C 
ATOM     70  C   UNL A   1      43.216  29.422  32.961  1.00  0.00     0.034 A 
BRANCH  57  71
ATOM     71  C   UNL A   1      39.860  27.749  29.055  1.00  0.00     0.023 A 
ATOM     72  C   UNL A   1      39.266  26.506  28.750  1.00  0.00     0.012 A 
ATOM     73  C   UNL A   1      40.853  28.228  28.171  1.00  0.00     0.148 A 
ATOM     74  C   UNL A   1      39.673  25.757  27.642  1.00  0.00     0.002 A 
ATOM     75  C   UNL A   1      41.191  27.522  27.024  1.00  0.00     0.091 A 
ATOM     76  F   UNL A   1      41.587  29.296  28.498  1.00  0.00    -0.205 F 
ATOM     77  C   UNL A   1      40.628  26.270  26.772  1.00  0.00     0.022 A 
BRANCH  75  78
ATOM     78  S   UNL A   1      42.379  28.169  25.843  1.00  0.00     0.127 S 
ATOM     79  O   UNL A   1      42.404  27.107  24.842  1.00  0.00    -0.237 OA
ATOM     80  O   UNL A   1      41.730  29.409  25.416  1.00  0.00    -0.237 OA
ATOM     81  O   UNL A   1      43.609  28.371  26.597  1.00  0.00    -0.744 OA
ENDBRANCH  75  78
ENDBRANCH  57  71
BRANCH  58  82
ATOM     82  C   UNL A   1      44.760  34.632  30.710  1.00  0.00     0.023 A 
ATOM     83  C   UNL A   1      46.091  34.851  31.116  1.00  0.00     0.012 A 
ATOM     84  C   UNL A   1      44.340  35.176  29.475  1.00  0.00     0.148 A 
ATOM     85  C   UNL A   1      46.984  35.558  30.302  1.00  0.00     0.002 A 
ATOM     86  C   UNL A   1      45.229  35.885  28.674  1.00  0.00     0.091 A 
ATOM     87  F   UNL A   1      43.099  34.918  29.043  1.00  0.00    -0.205 F 
ATOM     88  C   UNL A   1      46.557  36.068  29.080  1.00  0.00     0.022 A 
BRANCH  86  89
ATOM     89  S   UNL A   1      44.754  36.546  27.071  1.00  0.00     0.127 S 
ATOM     90  O   UNL A   1      44.407  35.330  26.334  1.00  0.00    -0.237 OA
ATOM     91  O   UNL A   1      43.619  37.397  27.419  1.00  0.00    -0.237 OA
ATOM     92  O   UNL A   1      45.931  37.238  26.560  1.00  0.00    -0.744 OA
ENDBRANCH  86  89
ENDBRANCH  58  82
BRANCH  70  93
ATOM     93  C   UNL A   1      43.587  29.708  34.395  1.00  0.00     0.023 A 
ATOM     94  C   UNL A   1      44.767  29.207  34.984  1.00  0.00     0.012 A 
ATOM     95  C   UNL A   1      42.820  30.649  35.104  1.00  0.00     0.148 A 
ATOM     96  C   UNL A   1      45.158  29.616  36.261  1.00  0.00     0.002 A 
ATOM     97  C   UNL A   1      43.238  31.090  36.353  1.00  0.00     0.091 A 
ATOM     98  F   UNL A   1      41.703  31.120  34.528  1.00  0.00    -0.205 F 
ATOM     99  C   UNL A   1      44.402  30.568  36.940  1.00  0.00     0.022 A 
BRANCH  97 100
ATOM    100  S   UNL A   1      42.381  32.409  37.214  1.00  0.00     0.127 S 
ATOM    101  O   UNL A   1      42.414  33.488  36.229  1.00  0.00    -0.237 OA
ATOM    102  O   UNL A   1      41.055  31.829  37.441  1.00  0.00    -0.237 OA
ATOM    103  O   UNL A   1      43.139  32.649  38.435  1.00  0.00    -0.744 OA
ENDBRANCH  97 100
ENDBRANCH  70  93
ENDBRANCH  44  45
ENDBRANCH  37  39
ENDBRANCH  36  37
ENDBRANCH  35  36
ENDBRANCH  34  35
ENDBRANCH  33  34
ENDBRANCH  32  33
ENDBRANCH   1  32
TORSDOF 24
ENDMDL
MODEL 3
REMARK VINA RESULT:     -10.3      2.446      6.230
REMARK SMILES NS(=O)(=O)c1ccc(-c2coc(=O)n2-c2ccc(C(=O)OCCOCCOCCOC(=O)c3ccc(-c4c5nc(c(-c6cccc(S(=O)(=O)[O-])c6F)c6ccc([nH]6)c(-c6cccc(S(=O)(=O)[O-])c6F)c6nc(c(-c7cccc(S(=O)(=O)[O-])c7F)c7ccc4[nH]7)C=C6)C=C5)cc3)cc2)cc1
REMARK SMILES IDX 25 1 24 2 23 3 22 4 21 5 19 6 20 7 18 8 15 9 16 10 97 11
REMARK SMILES IDX 17 12 96 13 14 14 9 15 10 16 11 17 12 18 13 19 8 20 5 21
REMARK SMILES IDX 6 22 99 23 7 24 98 25 2 26 3 27 4 28 1 29 26 32 27 33 28 34
REMARK SMILES IDX 29 35 30 36 31 37 32 38 33 39 34 40 95 41 35 42 94 43 36 44
REMARK SMILES IDX 37 45 38 46 88 47 39 48 93 49 87 50 89 51 40 52 92 53 86 54
REMARK SMILES IDX 85 55 41 57 73 58 53 59 72 60 54 61 57 62 71 63 90 64 55 65
REMARK SMILES IDX 56 66 70 68 91 69 58 70 42 71 43 72 51 73 44 74 46 75 52 76
REMARK SMILES IDX 45 77 47 78 48 79 49 80 50 81 74 82 75 83 83 84 76 85 78 86
REMARK SMILES IDX 84 87 77 88 79 89 80 90 81 91 82 92 59 93 60 94 68 95 61 96
REMARK SMILES IDX 63 97 69 98 62 99 64 100 65 101 66 102 67 103
REMARK H PARENT 1 30 1 31 89 56 57 67
REMARK Flexibility Score: inf
ROOT
ATOM      1  C   UNL A   1      33.786  35.374  28.643  1.00  0.00     0.188 C 
ENDROOT
BRANCH   1   2
ATOM      2  O   UNL A   1      33.033  34.182  28.628  1.00  0.00    -0.376 OA
BRANCH   2   3
ATOM      3  C   UNL A   1      33.518  33.004  28.011  1.00  0.00     0.202 C 
BRANCH   3   4
ATOM      4  C   UNL A   1      32.638  31.865  27.460  1.00  0.00     0.261 C 
BRANCH   4   5
ATOM      5  O   UNL A   1      33.259  30.939  26.567  1.00  0.00    -0.460 OA
BRANCH   5   6
ATOM      6  C   UNL A   1      33.954  29.936  27.150  1.00  0.00     0.338 C 
ATOM      7  O   UNL A   1      34.784  30.030  28.039  1.00  0.00    -0.246 OA
BRANCH   6   8
ATOM      8  C   UNL A   1      33.445  28.637  26.666  1.00  0.00     0.060 A 
ATOM      9  C   UNL A   1      32.456  26.272  25.551  1.00  0.00     0.053 A 
ATOM     10  C   UNL A   1      33.672  26.794  25.102  1.00  0.00     0.028 A 
ATOM     11  C   UNL A   1      31.807  26.878  26.643  1.00  0.00     0.028 A 
ATOM     12  C   UNL A   1      34.145  27.996  25.634  1.00  0.00     0.018 A 
ATOM     13  C   UNL A   1      32.304  28.051  27.212  1.00  0.00     0.018 A 
BRANCH   9  14
ATOM     14  N   UNL A   1      31.802  25.267  24.804  1.00  0.00    -0.242 N 
ATOM     15  C   UNL A   1      30.743  25.435  23.952  1.00  0.00     0.095 A 
ATOM     16  C   UNL A   1      30.498  24.244  23.423  1.00  0.00     0.228 A 
ATOM     17  O   UNL A   1      31.351  23.235  23.866  1.00  0.00    -0.415 OA
ATOM     18  C   UNL A   1      32.204  23.937  24.721  1.00  0.00     0.424 A 
ATOM     19  O   UNL A   1      33.145  23.396  25.295  1.00  0.00    -0.223 OA
BRANCH  15  20
ATOM     20  C   UNL A   1      30.178  26.724  23.561  1.00  0.00     0.002 A 
ATOM     21  C   UNL A   1      28.996  29.074  22.618  1.00  0.00     0.082 A 
ATOM     22  C   UNL A   1      28.205  28.120  23.256  1.00  0.00     0.022 A 
ATOM     23  C   UNL A   1      30.375  28.877  22.469  1.00  0.00     0.022 A 
ATOM     24  C   UNL A   1      28.799  26.954  23.734  1.00  0.00     0.012 A 
ATOM     25  C   UNL A   1      30.965  27.704  22.948  1.00  0.00     0.012 A 
BRANCH  21  26
ATOM     26  S   UNL A   1      28.248  30.543  21.985  1.00  0.00     0.238 S 
ATOM     27  O   UNL A   1      27.339  31.085  22.968  1.00  0.00    -0.207 OA
ATOM     28  O   UNL A   1      27.873  30.318  20.610  1.00  0.00    -0.207 OA
BRANCH  26  29
ATOM     29  N   UNL A   1      29.538  31.621  21.948  1.00  0.00    -0.225 NA
ATOM     30  H   UNL A   1      29.491  32.178  21.095  1.00  0.00     0.137 HD
ATOM     31  H   UNL A   1      30.415  31.102  21.969  1.00  0.00     0.137 HD
ENDBRANCH  26  29
ENDBRANCH  21  26
ENDBRANCH  15  20
ENDBRANCH   9  14
ENDBRANCH   6   8
ENDBRANCH   5   6
ENDBRANCH   4   5
ENDBRANCH   3   4
ENDBRANCH   2   3
ENDBRANCH   1   2
BRANCH   1  32
ATOM     32  C   UNL A   1      33.176  36.687  29.173  1.00  0.00     0.188 C 
BRANCH  32  33
ATOM     33  O   UNL A   1      32.586  36.728  30.456  1.00  0.00    -0.376 OA
BRANCH  33  34
ATOM     34  C   UNL A   1      33.156  37.422  31.553  1.00  0.00     0.202 C 
BRANCH  34  35
ATOM     35  C   UNL A   1      33.832  36.797  32.770  1.00  0.00     0.261 C 
BRANCH  35  36
ATOM     36  O   UNL A   1      34.761  35.771  32.511  1.00  0.00    -0.460 OA
BRANCH  36  37
ATOM     37  C   UNL A   1      34.275  34.542  32.776  1.00  0.00     0.338 C 
ATOM     38  O   UNL A   1      33.106  34.190  32.750  1.00  0.00    -0.246 OA
BRANCH  37  39
ATOM     39  C   UNL A   1      35.376  33.682  33.202  1.00  0.00     0.060 A 
ATOM     40  C   UNL A   1      36.552  34.329  33.583  1.00  0.00     0.016 A 
ATOM     41  C   UNL A   1      35.329  32.316  32.886  1.00  0.00     0.016 A 
ATOM     42  C   UNL A   1      37.735  33.657  33.404  1.00  0.00     0.010 A 
ATOM     43  C   UNL A   1      36.513  31.651  32.695  1.00  0.00     0.010 A 
ATOM     44  C   UNL A   1      37.693  32.367  32.861  1.00  0.00    -0.014 A 
BRANCH  44  45
ATOM     45  C   UNL A   1      38.950  31.777  32.473  1.00  0.00     0.031 A 
ATOM     46  C   UNL A   1      39.777  31.367  33.618  1.00  0.00     0.074 A 
ATOM     47  C   UNL A   1      39.286  31.596  31.183  1.00  0.00     0.049 A 
ATOM     48  N   UNL A   1      40.857  31.935  34.035  1.00  0.00    -0.248 NA
ATOM     49  C   UNL A   1      39.245  30.330  34.510  1.00  0.00     0.031 C 
ATOM     50  C   UNL A   1      38.432  31.715  29.998  1.00  0.00     0.029 A 
ATOM     51  N   UNL A   1      40.455  31.122  30.680  1.00  0.00    -0.354 N 
ATOM     52  C   UNL A   1      41.273  31.164  35.112  1.00  0.00     0.074 A 
ATOM     53  C   UNL A   1      40.154  30.339  35.484  1.00  0.00     0.031 C 
ATOM     54  C   UNL A   1      39.030  31.079  28.965  1.00  0.00     0.029 A 
ATOM     55  C   UNL A   1      40.349  30.635  29.384  1.00  0.00     0.049 A 
ATOM     56  H   UNL A   1      41.299  31.125  31.186  1.00  0.00     0.167 HD
ATOM     57  C   UNL A   1      42.589  31.072  35.440  1.00  0.00     0.034 A 
ATOM     58  C   UNL A   1      41.249  29.837  28.761  1.00  0.00     0.034 A 
ATOM     59  C   UNL A   1      43.374  32.094  34.799  1.00  0.00     0.049 A 
ATOM     60  C   UNL A   1      42.541  29.989  29.471  1.00  0.00     0.074 A 
ATOM     61  C   UNL A   1      43.376  33.474  34.805  1.00  0.00     0.029 A 
ATOM     62  N   UNL A   1      44.100  31.711  33.697  1.00  0.00    -0.354 N 
ATOM     63  N   UNL A   1      43.247  31.085  29.458  1.00  0.00    -0.248 NA
ATOM     64  C   UNL A   1      42.852  29.061  30.549  1.00  0.00     0.031 C 
ATOM     65  C   UNL A   1      43.721  33.848  33.474  1.00  0.00     0.029 A 
ATOM     66  C   UNL A   1      43.955  32.681  32.743  1.00  0.00     0.049 A 
ATOM     67  H   UNL A   1      44.632  30.887  33.610  1.00  0.00     0.167 HD
ATOM     68  C   UNL A   1      43.738  31.196  30.753  1.00  0.00     0.074 A 
ATOM     69  C   UNL A   1      43.569  29.867  31.337  1.00  0.00     0.031 C 
ATOM     70  C   UNL A   1      43.956  32.418  31.320  1.00  0.00     0.034 A 
BRANCH  57  71
ATOM     71  C   UNL A   1      43.228  29.842  36.027  1.00  0.00     0.023 A 
ATOM     72  C   UNL A   1      44.048  30.021  37.160  1.00  0.00     0.012 A 
ATOM     73  C   UNL A   1      43.290  28.591  35.372  1.00  0.00     0.148 A 
ATOM     74  C   UNL A   1      44.920  29.018  37.593  1.00  0.00     0.002 A 
ATOM     75  C   UNL A   1      44.092  27.568  35.858  1.00  0.00     0.091 A 
ATOM     76  F   UNL A   1      42.688  28.420  34.191  1.00  0.00    -0.205 F 
ATOM     77  C   UNL A   1      44.935  27.786  36.949  1.00  0.00     0.022 A 
BRANCH  75  78
ATOM     78  S   UNL A   1      44.103  25.944  35.093  1.00  0.00     0.127 S 
ATOM     79  O   UNL A   1      42.682  25.613  35.086  1.00  0.00    -0.237 OA
ATOM     80  O   UNL A   1      44.678  26.235  33.779  1.00  0.00    -0.237 OA
ATOM     81  O   UNL A   1      44.952  25.119  35.943  1.00  0.00    -0.744 OA
ENDBRANCH  75  78
ENDBRANCH  57  71
BRANCH  58  82
ATOM     82  C   UNL A   1      41.018  28.757  27.776  1.00  0.00     0.023 A 
ATOM     83  C   UNL A   1      41.533  28.887  26.472  1.00  0.00     0.012 A 
ATOM     84  C   UNL A   1      40.546  27.489  28.184  1.00  0.00     0.148 A 
ATOM     85  C   UNL A   1      41.610  27.784  25.614  1.00  0.00     0.002 A 
ATOM     86  C   UNL A   1      40.616  26.397  27.325  1.00  0.00     0.091 A 
ATOM     87  F   UNL A   1      40.118  27.332  29.443  1.00  0.00    -0.205 F 
ATOM     88  C   UNL A   1      41.159  26.539  26.042  1.00  0.00     0.022 A 
BRANCH  86  89
ATOM     89  S   UNL A   1      40.080  24.753  27.820  1.00  0.00     0.127 S 
ATOM     90  O   UNL A   1      41.296  24.209  28.426  1.00  0.00    -0.237 OA
ATOM     91  O   UNL A   1      39.009  25.057  28.765  1.00  0.00    -0.237 OA
ATOM     92  O   UNL A   1      39.671  24.081  26.594  1.00  0.00    -0.744 OA
ENDBRANCH  86  89
ENDBRANCH  58  82
BRANCH  70  93
ATOM     93  C   UNL A   1      43.925  33.630  30.423  1.00  0.00     0.023 A 
ATOM     94  C   UNL A   1      42.742  34.359  30.180  1.00  0.00     0.012 A 
ATOM     95  C   UNL A   1      45.148  34.147  29.962  1.00  0.00     0.148 A 
ATOM     96  C   UNL A   1      42.776  35.563  29.471  1.00  0.00     0.002 A 
ATOM     97  C   UNL A   1      45.184  35.368  29.301  1.00  0.00     0.091 A 
ATOM     98  F   UNL A   1      46.266  33.444  30.206  1.00  0.00    -0.205 F 
ATOM     99  C   UNL A   1      43.999  36.075  29.045  1.00  0.00     0.022 A 
BRANCH  97 100
ATOM    100  S   UNL A   1      46.738  36.140  28.848  1.00  0.00     0.127 S 
ATOM    101  O   UNL A   1      46.303  37.185  27.924  1.00  0.00    -0.237 OA
ATOM    102  O   UNL A   1      47.235  36.631  30.136  1.00  0.00    -0.237 OA
ATOM    103  O   UNL A   1      47.554  35.084  28.264  1.00  0.00    -0.744 OA
ENDBRANCH  97 100
ENDBRANCH  70  93
ENDBRANCH  44  45
ENDBRANCH  37  39
ENDBRANCH  36  37
ENDBRANCH  35  36
ENDBRANCH  34  35
ENDBRANCH  33  34
ENDBRANCH  32  33
ENDBRANCH   1  32
TORSDOF 24
ENDMDL
