MODEL 1
REMARK VINA RESULT:     -10.3      0.000      0.000
REMARK SMILES CCCCNC(=O)c1ncccc1C(=O)OCCOCCOCCOC(=O)c1ccc(-c2c3nc(c(-c4cccc(S(=O)(=O)[O-])c4F)c4ccc([nH]4)c(-c4cccc(S(=O)(=O)[O-])c4F)c4nc(c(-c5cccc(S(=O)(=O)[O-])c5F)c5ccc2[nH]5)C=C4)C=C3)cc1
REMARK SMILES IDX 20 1 19 2 18 3 17 4 16 5 14 6 15 7 13 8 8 9 9 10 10 11 12 12
REMARK SMILES IDX 11 13 6 14 5 15 7 17 4 18 3 19 2 20 1 21 21 22 22 23 23 24
REMARK SMILES IDX 24 25 25 26 26 27 27 28 28 29 29 30 90 31 30 32 89 33 31 34
REMARK SMILES IDX 32 35 33 36 83 37 34 38 88 39 82 40 84 41 35 42 87 43 81 44
REMARK SMILES IDX 80 45 36 47 68 48 48 49 67 50 49 51 52 52 66 53 85 54 50 55
REMARK SMILES IDX 51 56 65 58 86 59 53 60 37 61 38 62 46 63 39 64 41 65 47 66
REMARK SMILES IDX 40 67 42 68 43 69 44 70 45 71 69 72 70 73 78 74 71 75 73 76
REMARK SMILES IDX 79 77 72 78 74 79 75 80 76 81 77 82 54 83 55 84 63 85 56 86
REMARK SMILES IDX 58 87 64 88 57 89 59 90 60 91 61 92 62 93
REMARK H PARENT 5 16 84 46 52 57
REMARK Flexibility Score: inf
ROOT
ATOM      1  C   UNL A   1      34.244  21.741  26.754  1.00  0.00     0.188 C 
ENDROOT
BRANCH   1   2
ATOM      2  O   UNL A   1      33.373  22.846  27.009  1.00  0.00    -0.376 OA
BRANCH   2   3
ATOM      3  C   UNL A   1      32.112  22.811  26.342  1.00  0.00     0.202 C 
BRANCH   3   4
ATOM      4  C   UNL A   1      31.022  23.801  26.800  1.00  0.00     0.261 C 
BRANCH   4   5
ATOM      5  O   UNL A   1      31.437  25.168  26.740  1.00  0.00    -0.460 OA
BRANCH   5   6
ATOM      6  C   UNL A   1      30.682  26.015  25.993  1.00  0.00     0.340 C 
ATOM      7  O   UNL A   1      29.596  25.762  25.514  1.00  0.00    -0.246 OA
BRANCH   6   8
ATOM      8  C   UNL A   1      31.360  27.334  25.998  1.00  0.00     0.091 A 
ATOM      9  C   UNL A   1      31.713  27.987  24.823  1.00  0.00     0.142 A 
ATOM     10  N   UNL A   1      32.222  29.260  24.809  1.00  0.00    -0.250 NA
ATOM     11  C   UNL A   1      32.388  29.890  25.989  1.00  0.00     0.112 A 
ATOM     12  C   UNL A   1      31.564  28.023  27.209  1.00  0.00     0.020 A 
ATOM     13  C   UNL A   1      32.074  29.318  27.206  1.00  0.00     0.021 A 
BRANCH   9  14
ATOM     14  C   UNL A   1      31.600  27.378  23.467  1.00  0.00     0.270 C 
ATOM     15  N   UNL A   1      30.512  27.641  22.661  1.00  0.00    -0.351 N 
ATOM     16  H   UNL A   1      30.574  27.313  21.735  1.00  0.00     0.163 HD
ATOM     17  O   UNL A   1      32.525  26.679  23.058  1.00  0.00    -0.267 OA
BRANCH  15  18
ATOM     18  C   UNL A   1      29.291  28.338  23.006  1.00  0.00     0.116 C 
BRANCH  18  19
ATOM     19  C   UNL A   1      29.235  29.766  22.497  1.00  0.00     0.021 C 
BRANCH  19  20
ATOM     20  C   UNL A   1      28.951  30.831  23.555  1.00  0.00    -0.002 C 
ATOM     21  C   UNL A   1      28.471  32.134  22.935  1.00  0.00     0.004 C 
ENDBRANCH  19  20
ENDBRANCH  18  19
ENDBRANCH  15  18
ENDBRANCH   9  14
ENDBRANCH   6   8
ENDBRANCH   5   6
ENDBRANCH   4   5
ENDBRANCH   3   4
ENDBRANCH   2   3
ENDBRANCH   1   2
BRANCH   1  22
ATOM     22  C   UNL A   1      34.190  21.365  25.271  1.00  0.00     0.188 C 
BRANCH  22  23
ATOM     23  O   UNL A   1      35.497  21.238  24.708  1.00  0.00    -0.376 OA
BRANCH  23  24
ATOM     24  C   UNL A   1      36.105  19.970  24.938  1.00  0.00     0.202 C 
BRANCH  24  25
ATOM     25  C   UNL A   1      37.635  20.007  24.949  1.00  0.00     0.261 C 
BRANCH  25  26
ATOM     26  O   UNL A   1      38.178  21.234  25.460  1.00  0.00    -0.460 OA
BRANCH  26  27
ATOM     27  C   UNL A   1      39.363  21.126  26.118  1.00  0.00     0.338 C 
ATOM     28  O   UNL A   1      40.039  20.122  26.259  1.00  0.00    -0.246 OA
BRANCH  27  29
ATOM     29  C   UNL A   1      39.776  22.464  26.599  1.00  0.00     0.060 A 
ATOM     30  C   UNL A   1      39.117  23.601  26.113  1.00  0.00     0.016 A 
ATOM     31  C   UNL A   1      40.818  22.596  27.521  1.00  0.00     0.016 A 
ATOM     32  C   UNL A   1      39.496  24.875  26.557  1.00  0.00     0.010 A 
ATOM     33  C   UNL A   1      41.194  23.868  27.962  1.00  0.00     0.010 A 
ATOM     34  C   UNL A   1      40.542  25.019  27.480  1.00  0.00    -0.014 A 
BRANCH  34  35
ATOM     35  C   UNL A   1      41.091  26.357  27.819  1.00  0.00     0.031 A 
ATOM     36  C   UNL A   1      42.545  26.608  27.536  1.00  0.00     0.074 A 
ATOM     37  C   UNL A   1      40.364  27.305  28.442  1.00  0.00     0.049 A 
ATOM     38  N   UNL A   1      43.255  27.685  27.740  1.00  0.00    -0.248 NA
ATOM     39  C   UNL A   1      43.300  25.484  26.957  1.00  0.00     0.031 C 
ATOM     40  C   UNL A   1      38.959  27.192  28.818  1.00  0.00     0.029 A 
ATOM     41  N   UNL A   1      40.727  28.550  28.903  1.00  0.00    -0.354 N 
ATOM     42  C   UNL A   1      44.541  27.368  27.328  1.00  0.00     0.074 A 
ATOM     43  C   UNL A   1      44.523  25.986  26.898  1.00  0.00     0.031 C 
ATOM     44  C   UNL A   1      38.589  28.293  29.495  1.00  0.00     0.029 A 
ATOM     45  C   UNL A   1      39.728  29.202  29.589  1.00  0.00     0.049 A 
ATOM     46  H   UNL A   1      41.619  28.938  28.755  1.00  0.00     0.167 HD
ATOM     47  C   UNL A   1      45.638  28.157  27.282  1.00  0.00     0.034 A 
ATOM     48  C   UNL A   1      39.726  30.397  30.214  1.00  0.00     0.034 A 
ATOM     49  C   UNL A   1      45.667  29.527  27.710  1.00  0.00     0.049 A 
ATOM     50  C   UNL A   1      40.958  31.265  30.149  1.00  0.00     0.074 A 
ATOM     51  C   UNL A   1      46.712  30.430  27.636  1.00  0.00     0.029 A 
ATOM     52  N   UNL A   1      44.610  30.184  28.321  1.00  0.00    -0.354 N 
ATOM     53  N   UNL A   1      42.108  31.025  29.567  1.00  0.00    -0.248 NA
ATOM     54  C   UNL A   1      40.875  32.590  30.783  1.00  0.00     0.031 C 
ATOM     55  C   UNL A   1      46.295  31.625  28.232  1.00  0.00     0.029 A 
ATOM     56  C   UNL A   1      44.982  31.475  28.650  1.00  0.00     0.049 A 
ATOM     57  H   UNL A   1      43.725  29.789  28.494  1.00  0.00     0.167 HD
ATOM     58  C   UNL A   1      42.867  32.181  29.726  1.00  0.00     0.074 A 
ATOM     59  C   UNL A   1      42.041  33.126  30.447  1.00  0.00     0.031 C 
ATOM     60  C   UNL A   1      44.136  32.432  29.316  1.00  0.00     0.034 A 
BRANCH  47  61
ATOM     61  C   UNL A   1      46.887  27.541  26.718  1.00  0.00     0.023 A 
ATOM     62  C   UNL A   1      47.768  26.852  27.578  1.00  0.00     0.012 A 
ATOM     63  C   UNL A   1      47.203  27.664  25.354  1.00  0.00     0.148 A 
ATOM     64  C   UNL A   1      48.972  26.341  27.098  1.00  0.00     0.002 A 
ATOM     65  C   UNL A   1      48.385  27.115  24.874  1.00  0.00     0.091 A 
ATOM     66  F   UNL A   1      46.367  28.349  24.561  1.00  0.00    -0.205 F 
ATOM     67  C   UNL A   1      49.276  26.466  25.746  1.00  0.00     0.022 A 
BRANCH  65  68
ATOM     68  S   UNL A   1      48.835  27.172  23.137  1.00  0.00     0.127 S 
ATOM     69  O   UNL A   1      50.295  27.217  23.213  1.00  0.00    -0.237 OA
ATOM     70  O   UNL A   1      48.289  25.910  22.635  1.00  0.00    -0.237 OA
ATOM     71  O   UNL A   1      48.195  28.363  22.598  1.00  0.00    -0.744 OA
ENDBRANCH  65  68
ENDBRANCH  47  61
BRANCH  48  72
ATOM     72  C   UNL A   1      38.494  30.887  30.898  1.00  0.00     0.023 A 
ATOM     73  C   UNL A   1      38.317  30.627  32.272  1.00  0.00     0.012 A 
ATOM     74  C   UNL A   1      37.496  31.596  30.201  1.00  0.00     0.148 A 
ATOM     75  C   UNL A   1      37.154  31.029  32.930  1.00  0.00     0.002 A 
ATOM     76  C   UNL A   1      36.357  32.030  30.871  1.00  0.00     0.091 A 
ATOM     77  F   UNL A   1      37.680  31.827  28.893  1.00  0.00    -0.205 F 
ATOM     78  C   UNL A   1      36.177  31.734  32.232  1.00  0.00     0.022 A 
BRANCH  76  79
ATOM     79  S   UNL A   1      35.078  33.015  30.081  1.00  0.00     0.127 S 
ATOM     80  O   UNL A   1      35.866  34.061  29.431  1.00  0.00    -0.237 OA
ATOM     81  O   UNL A   1      34.470  32.048  29.167  1.00  0.00    -0.237 OA
ATOM     82  O   UNL A   1      34.203  33.465  31.155  1.00  0.00    -0.744 OA
ENDBRANCH  76  79
ENDBRANCH  48  72
BRANCH  60  83
ATOM     83  C   UNL A   1      44.722  33.791  29.602  1.00  0.00     0.023 A 
ATOM     84  C   UNL A   1      45.440  34.010  30.793  1.00  0.00     0.012 A 
ATOM     85  C   UNL A   1      44.657  34.817  28.636  1.00  0.00     0.148 A 
ATOM     86  C   UNL A   1      46.067  35.233  31.030  1.00  0.00     0.002 A 
ATOM     87  C   UNL A   1      45.327  36.016  28.856  1.00  0.00     0.091 A 
ATOM     88  F   UNL A   1      43.952  34.599  27.516  1.00  0.00    -0.205 F 
ATOM     89  C   UNL A   1      46.023  36.230  30.056  1.00  0.00     0.022 A 
BRANCH  87  90
ATOM     90  S   UNL A   1      45.416  37.309  27.612  1.00  0.00     0.127 S 
ATOM     91  O   UNL A   1      45.982  36.591  26.472  1.00  0.00    -0.237 OA
ATOM     92  O   UNL A   1      44.011  37.690  27.456  1.00  0.00    -0.237 OA
ATOM     93  O   UNL A   1      46.262  38.352  28.179  1.00  0.00    -0.744 OA
ENDBRANCH  87  90
ENDBRANCH  60  83
ENDBRANCH  34  35
ENDBRANCH  27  29
ENDBRANCH  26  27
ENDBRANCH  25  26
ENDBRANCH  24  25
ENDBRANCH  23  24
ENDBRANCH  22  23
ENDBRANCH   1  22
TORSDOF 24
ENDMDL
MODEL 2
REMARK VINA RESULT:      -9.8      5.734     10.662
REMARK SMILES CCCCNC(=O)c1ncccc1C(=O)OCCOCCOCCOC(=O)c1ccc(-c2c3nc(c(-c4cccc(S(=O)(=O)[O-])c4F)c4ccc([nH]4)c(-c4cccc(S(=O)(=O)[O-])c4F)c4nc(c(-c5cccc(S(=O)(=O)[O-])c5F)c5ccc2[nH]5)C=C4)C=C3)cc1
REMARK SMILES IDX 20 1 19 2 18 3 17 4 16 5 14 6 15 7 13 8 8 9 9 10 10 11 12 12
REMARK SMILES IDX 11 13 6 14 5 15 7 17 4 18 3 19 2 20 1 21 21 22 22 23 23 24
REMARK SMILES IDX 24 25 25 26 26 27 27 28 28 29 29 30 90 31 30 32 89 33 31 34
REMARK SMILES IDX 32 35 33 36 83 37 34 38 88 39 82 40 84 41 35 42 87 43 81 44
REMARK SMILES IDX 80 45 36 47 68 48 48 49 67 50 49 51 52 52 66 53 85 54 50 55
REMARK SMILES IDX 51 56 65 58 86 59 53 60 37 61 38 62 46 63 39 64 41 65 47 66
REMARK SMILES IDX 40 67 42 68 43 69 44 70 45 71 69 72 70 73 78 74 71 75 73 76
REMARK SMILES IDX 79 77 72 78 74 79 75 80 76 81 77 82 54 83 55 84 63 85 56 86
REMARK SMILES IDX 58 87 64 88 57 89 59 90 60 91 61 92 62 93
REMARK H PARENT 5 16 84 46 52 57
REMARK Flexibility Score: inf
ROOT
ATOM      1  C   UNL A   1      35.205  31.834  28.448  1.00  0.00     0.188 C 
ENDROOT
BRANCH   1   2
ATOM      2  O   UNL A   1      34.454  31.121  27.461  1.00  0.00    -0.376 OA
BRANCH   2   3
ATOM      3  C   UNL A   1      34.706  29.720  27.381  1.00  0.00     0.202 C 
BRANCH   3   4
ATOM      4  C   UNL A   1      34.180  28.959  26.146  1.00  0.00     0.261 C 
BRANCH   4   5
ATOM      5  O   UNL A   1      32.881  28.395  26.341  1.00  0.00    -0.460 OA
BRANCH   5   6
ATOM      6  C   UNL A   1      31.855  28.936  25.633  1.00  0.00     0.340 C 
ATOM      7  O   UNL A   1      31.593  30.119  25.555  1.00  0.00    -0.246 OA
BRANCH   6   8
ATOM      8  C   UNL A   1      31.216  27.838  24.868  1.00  0.00     0.091 A 
ATOM      9  C   UNL A   1      31.296  27.759  23.483  1.00  0.00     0.142 A 
ATOM     10  N   UNL A   1      30.821  26.685  22.775  1.00  0.00    -0.250 NA
ATOM     11  C   UNL A   1      30.249  25.676  23.461  1.00  0.00     0.112 A 
ATOM     12  C   UNL A   1      30.598  26.769  25.544  1.00  0.00     0.020 A 
ATOM     13  C   UNL A   1      30.118  25.671  24.836  1.00  0.00     0.021 A 
BRANCH   9  14
ATOM     14  C   UNL A   1      31.879  28.826  22.622  1.00  0.00     0.270 C 
ATOM     15  N   UNL A   1      31.086  29.823  22.093  1.00  0.00    -0.351 N 
ATOM     16  H   UNL A   1      31.563  30.563  21.650  1.00  0.00     0.163 HD
ATOM     17  O   UNL A   1      33.095  28.833  22.437  1.00  0.00    -0.267 OA
BRANCH  15  18
ATOM     18  C   UNL A   1      29.642  29.919  22.108  1.00  0.00     0.116 C 
BRANCH  18  19
ATOM     19  C   UNL A   1      29.085  30.614  23.337  1.00  0.00     0.021 C 
BRANCH  19  20
ATOM     20  C   UNL A   1      28.099  31.747  23.061  1.00  0.00    -0.002 C 
ATOM     21  C   UNL A   1      28.801  33.086  22.900  1.00  0.00     0.004 C 
ENDBRANCH  19  20
ENDBRANCH  18  19
ENDBRANCH  15  18
ENDBRANCH   9  14
ENDBRANCH   6   8
ENDBRANCH   5   6
ENDBRANCH   4   5
ENDBRANCH   3   4
ENDBRANCH   2   3
ENDBRANCH   1   2
BRANCH   1  22
ATOM     22  C   UNL A   1      35.175  33.335  28.144  1.00  0.00     0.188 C 
BRANCH  22  23
ATOM     23  O   UNL A   1      33.882  33.897  28.371  1.00  0.00    -0.376 OA
BRANCH  23  24
ATOM     24  C   UNL A   1      33.872  35.321  28.417  1.00  0.00     0.202 C 
BRANCH  24  25
ATOM     25  C   UNL A   1      33.053  35.900  29.574  1.00  0.00     0.261 C 
BRANCH  25  26
ATOM     26  O   UNL A   1      32.830  34.969  30.644  1.00  0.00    -0.460 OA
BRANCH  26  27
ATOM     27  C   UNL A   1      33.470  35.248  31.811  1.00  0.00     0.338 C 
ATOM     28  O   UNL A   1      33.135  36.053  32.662  1.00  0.00    -0.246 OA
BRANCH  27  29
ATOM     29  C   UNL A   1      34.641  34.352  31.949  1.00  0.00     0.060 A 
ATOM     30  C   UNL A   1      34.470  33.083  32.519  1.00  0.00     0.016 A 
ATOM     31  C   UNL A   1      35.907  34.767  31.526  1.00  0.00     0.016 A 
ATOM     32  C   UNL A   1      35.567  32.223  32.658  1.00  0.00     0.010 A 
ATOM     33  C   UNL A   1      36.999  33.907  31.667  1.00  0.00     0.010 A 
ATOM     34  C   UNL A   1      36.842  32.632  32.239  1.00  0.00    -0.014 A 
BRANCH  34  35
ATOM     35  C   UNL A   1      38.050  31.824  32.550  1.00  0.00     0.031 A 
ATOM     36  C   UNL A   1      38.817  32.163  33.797  1.00  0.00     0.074 A 
ATOM     37  C   UNL A   1      38.522  30.873  31.720  1.00  0.00     0.049 A 
ATOM     38  N   UNL A   1      39.896  31.611  34.282  1.00  0.00    -0.248 NA
ATOM     39  C   UNL A   1      38.300  33.289  34.593  1.00  0.00     0.031 C 
ATOM     40  C   UNL A   1      37.914  30.463  30.460  1.00  0.00     0.029 A 
ATOM     41  N   UNL A   1      39.657  30.099  31.803  1.00  0.00    -0.354 N 
ATOM     42  C   UNL A   1      40.197  32.326  35.432  1.00  0.00     0.074 A 
ATOM     43  C   UNL A   1      39.208  33.377  35.551  1.00  0.00     0.031 C 
ATOM     44  C   UNL A   1      38.701  29.553  29.859  1.00  0.00     0.029 A 
ATOM     45  C   UNL A   1      39.867  29.300  30.702  1.00  0.00     0.049 A 
ATOM     46  H   UNL A   1      40.263  30.115  32.578  1.00  0.00     0.167 HD
ATOM     47  C   UNL A   1      41.187  32.118  36.328  1.00  0.00     0.034 A 
ATOM     48  C   UNL A   1      40.876  28.456  30.408  1.00  0.00     0.034 A 
ATOM     49  C   UNL A   1      42.174  31.082  36.217  1.00  0.00     0.049 A 
ATOM     50  C   UNL A   1      41.971  28.233  31.422  1.00  0.00     0.074 A 
ATOM     51  C   UNL A   1      43.174  30.746  37.110  1.00  0.00     0.029 A 
ATOM     52  N   UNL A   1      42.304  30.233  35.129  1.00  0.00    -0.354 N 
ATOM     53  N   UNL A   1      42.122  28.775  32.606  1.00  0.00    -0.248 NA
ATOM     54  C   UNL A   1      43.005  27.244  31.082  1.00  0.00     0.031 C 
ATOM     55  C   UNL A   1      43.929  29.712  36.548  1.00  0.00     0.029 A 
ATOM     56  C   UNL A   1      43.382  29.385  35.317  1.00  0.00     0.049 A 
ATOM     57  H   UNL A   1      41.716  30.233  34.339  1.00  0.00     0.167 HD
ATOM     58  C   UNL A   1      43.240  28.164  33.168  1.00  0.00     0.074 A 
ATOM     59  C   UNL A   1      43.719  27.200  32.199  1.00  0.00     0.031 C 
ATOM     60  C   UNL A   1      43.819  28.387  34.374  1.00  0.00     0.034 A 
BRANCH  47  61
ATOM     61  C   UNL A   1      41.217  33.030  37.522  1.00  0.00     0.023 A 
ATOM     62  C   UNL A   1      40.441  32.711  38.657  1.00  0.00     0.012 A 
ATOM     63  C   UNL A   1      41.984  34.208  37.515  1.00  0.00     0.148 A 
ATOM     64  C   UNL A   1      40.387  33.578  39.745  1.00  0.00     0.002 A 
ATOM     65  C   UNL A   1      41.959  35.047  38.621  1.00  0.00     0.091 A 
ATOM     66  F   UNL A   1      42.691  34.507  36.415  1.00  0.00    -0.205 F 
ATOM     67  C   UNL A   1      41.151  34.742  39.730  1.00  0.00     0.022 A 
BRANCH  65  68
ATOM     68  S   UNL A   1      42.956  36.536  38.721  1.00  0.00     0.127 S 
ATOM     69  O   UNL A   1      44.306  35.981  38.817  1.00  0.00    -0.237 OA
ATOM     70  O   UNL A   1      42.656  37.194  37.448  1.00  0.00    -0.237 OA
ATOM     71  O   UNL A   1      42.485  37.253  39.897  1.00  0.00    -0.744 OA
ENDBRANCH  65  68
ENDBRANCH  47  61
BRANCH  48  72
ATOM     72  C   UNL A   1      40.871  27.693  29.125  1.00  0.00     0.023 A 
ATOM     73  C   UNL A   1      40.005  26.591  28.981  1.00  0.00     0.012 A 
ATOM     74  C   UNL A   1      41.718  28.044  28.056  1.00  0.00     0.148 A 
ATOM     75  C   UNL A   1      40.011  25.828  27.813  1.00  0.00     0.002 A 
ATOM     76  C   UNL A   1      41.690  27.304  26.878  1.00  0.00     0.091 A 
ATOM     77  F   UNL A   1      42.538  29.092  28.214  1.00  0.00    -0.205 F 
ATOM     78  C   UNL A   1      40.848  26.186  26.761  1.00  0.00     0.022 A 
BRANCH  76  79
ATOM     79  S   UNL A   1      42.671  27.734  25.435  1.00  0.00     0.127 S 
ATOM     80  O   UNL A   1      41.848  28.769  24.811  1.00  0.00    -0.237 OA
ATOM     81  O   UNL A   1      43.910  28.219  26.043  1.00  0.00    -0.237 OA
ATOM     82  O   UNL A   1      42.814  26.502  24.671  1.00  0.00    -0.744 OA
ENDBRANCH  76  79
ENDBRANCH  48  72
BRANCH  60  83
ATOM     83  C   UNL A   1      45.024  27.563  34.750  1.00  0.00     0.023 A 
ATOM     84  C   UNL A   1      46.319  28.053  34.492  1.00  0.00     0.012 A 
ATOM     85  C   UNL A   1      44.872  26.355  35.463  1.00  0.00     0.148 A 
ATOM     86  C   UNL A   1      47.443  27.346  34.917  1.00  0.00     0.002 A 
ATOM     87  C   UNL A   1      45.996  25.682  35.928  1.00  0.00     0.091 A 
ATOM     88  F   UNL A   1      43.632  25.893  35.682  1.00  0.00    -0.205 F 
ATOM     89  C   UNL A   1      47.282  26.169  35.647  1.00  0.00     0.022 A 
BRANCH  87  90
ATOM     90  S   UNL A   1      45.879  24.221  36.968  1.00  0.00     0.127 S 
ATOM     91  O   UNL A   1      45.279  23.250  36.056  1.00  0.00    -0.237 OA
ATOM     92  O   UNL A   1      47.281  23.961  37.299  1.00  0.00    -0.237 OA
ATOM     93  O   UNL A   1      45.055  24.605  38.107  1.00  0.00    -0.744 OA
ENDBRANCH  87  90
ENDBRANCH  60  83
ENDBRANCH  34  35
ENDBRANCH  27  29
ENDBRANCH  26  27
ENDBRANCH  25  26
ENDBRANCH  24  25
ENDBRANCH  23  24
ENDBRANCH  22  23
ENDBRANCH   1  22
TORSDOF 24
ENDMDL
MODEL 3
REMARK VINA RESULT:      -9.6      5.164     10.690
REMARK SMILES CCCCNC(=O)c1ncccc1C(=O)OCCOCCOCCOC(=O)c1ccc(-c2c3nc(c(-c4cccc(S(=O)(=O)[O-])c4F)c4ccc([nH]4)c(-c4cccc(S(=O)(=O)[O-])c4F)c4nc(c(-c5cccc(S(=O)(=O)[O-])c5F)c5ccc2[nH]5)C=C4)C=C3)cc1
REMARK SMILES IDX 20 1 19 2 18 3 17 4 16 5 14 6 15 7 13 8 8 9 9 10 10 11 12 12
REMARK SMILES IDX 11 13 6 14 5 15 7 17 4 18 3 19 2 20 1 21 21 22 22 23 23 24
REMARK SMILES IDX 24 25 25 26 26 27 27 28 28 29 29 30 90 31 30 32 89 33 31 34
REMARK SMILES IDX 32 35 33 36 83 37 34 38 88 39 82 40 84 41 35 42 87 43 81 44
REMARK SMILES IDX 80 45 36 47 68 48 48 49 67 50 49 51 52 52 66 53 85 54 50 55
REMARK SMILES IDX 51 56 65 58 86 59 53 60 37 61 38 62 46 63 39 64 41 65 47 66
REMARK SMILES IDX 40 67 42 68 43 69 44 70 45 71 69 72 70 73 78 74 71 75 73 76
REMARK SMILES IDX 79 77 72 78 74 79 75 80 76 81 77 82 54 83 55 84 63 85 56 86
REMARK SMILES IDX 58 87 64 88 57 89 59 90 60 91 61 92 62 93
REMARK H PARENT 5 16 84 46 52 57
REMARK Flexibility Score: inf
ROOT
ATOM      1  C   UNL A   1      31.944  28.123  26.025  1.00  0.00     0.188 C 
ENDROOT
BRANCH   1   2
ATOM      2  O   UNL A   1      32.256  26.876  25.398  1.00  0.00    -0.376 OA
BRANCH   2   3
ATOM      3  C   UNL A   1      31.138  26.088  24.992  1.00  0.00     0.202 C 
BRANCH   3   4
ATOM      4  C   UNL A   1      31.233  25.334  23.650  1.00  0.00     0.261 C 
BRANCH   4   5
ATOM      5  O   UNL A   1      32.577  25.038  23.261  1.00  0.00    -0.460 OA
BRANCH   5   6
ATOM      6  C   UNL A   1      32.925  23.728  23.173  1.00  0.00     0.340 C 
ATOM      7  O   UNL A   1      32.570  22.957  22.305  1.00  0.00    -0.246 OA
BRANCH   6   8
ATOM      8  C   UNL A   1      33.923  23.462  24.237  1.00  0.00     0.091 A 
ATOM      9  C   UNL A   1      33.662  22.598  25.294  1.00  0.00     0.142 A 
ATOM     10  N   UNL A   1      34.616  22.243  26.213  1.00  0.00    -0.250 NA
ATOM     11  C   UNL A   1      35.850  22.767  26.078  1.00  0.00     0.112 A 
ATOM     12  C   UNL A   1      35.221  23.997  24.143  1.00  0.00     0.020 A 
ATOM     13  C   UNL A   1      36.200  23.639  25.066  1.00  0.00     0.021 A 
BRANCH   9  14
ATOM     14  C   UNL A   1      32.329  21.984  25.557  1.00  0.00     0.270 C 
ATOM     15  N   UNL A   1      32.135  20.626  25.421  1.00  0.00    -0.351 N 
ATOM     16  H   UNL A   1      31.270  20.280  25.741  1.00  0.00     0.163 HD
ATOM     17  O   UNL A   1      31.416  22.708  25.951  1.00  0.00    -0.267 OA
BRANCH  15  18
ATOM     18  C   UNL A   1      33.044  19.643  24.868  1.00  0.00     0.116 C 
BRANCH  18  19
ATOM     19  C   UNL A   1      32.405  18.289  24.618  1.00  0.00     0.021 C 
BRANCH  19  20
ATOM     20  C   UNL A   1      32.790  17.188  25.605  1.00  0.00    -0.002 C 
ATOM     21  C   UNL A   1      33.136  15.887  24.898  1.00  0.00     0.004 C 
ENDBRANCH  19  20
ENDBRANCH  18  19
ENDBRANCH  15  18
ENDBRANCH   9  14
ENDBRANCH   6   8
ENDBRANCH   5   6
ENDBRANCH   4   5
ENDBRANCH   3   4
ENDBRANCH   2   3
ENDBRANCH   1   2
BRANCH   1  22
ATOM     22  C   UNL A   1      31.245  29.050  25.027  1.00  0.00     0.188 C 
BRANCH  22  23
ATOM     23  O   UNL A   1      31.542  30.424  25.281  1.00  0.00    -0.376 OA
BRANCH  23  24
ATOM     24  C   UNL A   1      32.125  30.662  26.559  1.00  0.00     0.202 C 
BRANCH  24  25
ATOM     25  C   UNL A   1      32.087  32.129  26.995  1.00  0.00     0.261 C 
BRANCH  25  26
ATOM     26  O   UNL A   1      32.940  32.420  28.113  1.00  0.00    -0.460 OA
BRANCH  26  27
ATOM     27  C   UNL A   1      34.062  33.134  27.829  1.00  0.00     0.338 C 
ATOM     28  O   UNL A   1      34.122  34.238  27.317  1.00  0.00    -0.246 OA
BRANCH  27  29
ATOM     29  C   UNL A   1      35.246  32.390  28.312  1.00  0.00     0.060 A 
ATOM     30  C   UNL A   1      35.100  31.057  28.719  1.00  0.00     0.016 A 
ATOM     31  C   UNL A   1      36.498  33.009  28.372  1.00  0.00     0.016 A 
ATOM     32  C   UNL A   1      36.211  30.339  29.180  1.00  0.00     0.010 A 
ATOM     33  C   UNL A   1      37.604  32.290  28.832  1.00  0.00     0.010 A 
ATOM     34  C   UNL A   1      37.471  30.952  29.246  1.00  0.00    -0.014 A 
BRANCH  34  35
ATOM     35  C   UNL A   1      38.620  30.281  29.908  1.00  0.00     0.031 A 
ATOM     36  C   UNL A   1      39.002  30.746  31.285  1.00  0.00     0.074 A 
ATOM     37  C   UNL A   1      39.372  29.349  29.291  1.00  0.00     0.049 A 
ATOM     38  N   UNL A   1      39.959  30.323  32.066  1.00  0.00    -0.248 NA
ATOM     39  C   UNL A   1      38.200  31.846  31.848  1.00  0.00     0.031 C 
ATOM     40  C   UNL A   1      39.152  28.830  27.946  1.00  0.00     0.029 A 
ATOM     41  N   UNL A   1      40.507  28.695  29.712  1.00  0.00    -0.354 N 
ATOM     42  C   UNL A   1      39.886  31.111  33.206  1.00  0.00     0.074 A 
ATOM     43  C   UNL A   1      38.815  32.062  32.999  1.00  0.00     0.031 C 
ATOM     44  C   UNL A   1      40.144  27.979  27.628  1.00  0.00     0.029 A 
ATOM     45  C   UNL A   1      41.065  27.878  28.757  1.00  0.00     0.049 A 
ATOM     46  H   UNL A   1      40.885  28.803  30.615  1.00  0.00     0.167 HD
ATOM     47  C   UNL A   1      40.621  31.038  34.338  1.00  0.00     0.034 A 
ATOM     48  C   UNL A   1      42.185  27.126  28.787  1.00  0.00     0.034 A 
ATOM     49  C   UNL A   1      41.688  30.101  34.551  1.00  0.00     0.049 A 
ATOM     50  C   UNL A   1      42.990  27.055  30.061  1.00  0.00     0.074 A 
ATOM     51  C   UNL A   1      42.444  29.903  35.692  1.00  0.00     0.029 A 
ATOM     52  N   UNL A   1      42.170  29.226  33.591  1.00  0.00    -0.354 N 
ATOM     53  N   UNL A   1      42.780  27.657  31.206  1.00  0.00    -0.248 NA
ATOM     54  C   UNL A   1      44.159  26.161  30.062  1.00  0.00     0.031 C 
ATOM     55  C   UNL A   1      43.406  28.927  35.410  1.00  0.00     0.029 A 
ATOM     56  C   UNL A   1      43.229  28.498  34.104  1.00  0.00     0.049 A 
ATOM     57  H   UNL A   1      41.812  29.136  32.678  1.00  0.00     0.167 HD
ATOM     58  C   UNL A   1      43.760  27.182  32.075  1.00  0.00     0.074 A 
ATOM     59  C   UNL A   1      44.556  26.233  31.326  1.00  0.00     0.031 C 
ATOM     60  C   UNL A   1      43.982  27.511  33.372  1.00  0.00     0.034 A 
BRANCH  47  61
ATOM     61  C   UNL A   1      40.260  31.996  35.438  1.00  0.00     0.023 A 
ATOM     62  C   UNL A   1      41.076  33.123  35.672  1.00  0.00     0.012 A 
ATOM     63  C   UNL A   1      39.136  31.772  36.253  1.00  0.00     0.148 A 
ATOM     64  C   UNL A   1      40.811  33.983  36.735  1.00  0.00     0.002 A 
ATOM     65  C   UNL A   1      38.853  32.658  37.284  1.00  0.00     0.091 A 
ATOM     66  F   UNL A   1      38.391  30.680  36.032  1.00  0.00    -0.205 F 
ATOM     67  C   UNL A   1      39.696  33.754  37.536  1.00  0.00     0.022 A 
BRANCH  65  68
ATOM     68  S   UNL A   1      37.405  32.482  38.331  1.00  0.00     0.127 S 
ATOM     69  O   UNL A   1      37.352  31.032  38.519  1.00  0.00    -0.237 OA
ATOM     70  O   UNL A   1      37.793  33.237  39.524  1.00  0.00    -0.237 OA
ATOM     71  O   UNL A   1      36.299  33.061  37.583  1.00  0.00    -0.744 OA
ENDBRANCH  65  68
ENDBRANCH  47  61
BRANCH  48  72
ATOM     72  C   UNL A   1      42.580  26.316  27.599  1.00  0.00     0.023 A 
ATOM     73  C   UNL A   1      43.365  26.907  26.589  1.00  0.00     0.012 A 
ATOM     74  C   UNL A   1      42.179  24.973  27.456  1.00  0.00     0.148 A 
ATOM     75  C   UNL A   1      43.711  26.191  25.442  1.00  0.00     0.002 A 
ATOM     76  C   UNL A   1      42.561  24.251  26.329  1.00  0.00     0.091 A 
ATOM     77  F   UNL A   1      41.428  24.430  28.424  1.00  0.00    -0.205 F 
ATOM     78  C   UNL A   1      43.314  24.864  25.314  1.00  0.00     0.022 A 
BRANCH  76  79
ATOM     79  S   UNL A   1      42.168  22.512  26.108  1.00  0.00     0.127 S 
ATOM     80  O   UNL A   1      42.874  22.201  24.867  1.00  0.00    -0.237 OA
ATOM     81  O   UNL A   1      42.750  21.914  27.311  1.00  0.00    -0.237 OA
ATOM     82  O   UNL A   1      40.715  22.438  26.039  1.00  0.00    -0.744 OA
ENDBRANCH  76  79
ENDBRANCH  48  72
BRANCH  60  83
ATOM     83  C   UNL A   1      45.112  26.826  34.098  1.00  0.00     0.023 A 
ATOM     84  C   UNL A   1      46.392  27.413  34.116  1.00  0.00     0.012 A 
ATOM     85  C   UNL A   1      44.875  25.661  34.856  1.00  0.00     0.148 A 
ATOM     86  C   UNL A   1      47.424  26.840  34.859  1.00  0.00     0.002 A 
ATOM     87  C   UNL A   1      45.894  25.125  35.635  1.00  0.00     0.091 A 
ATOM     88  F   UNL A   1      43.655  25.105  34.811  1.00  0.00    -0.205 F 
ATOM     89  C   UNL A   1      47.172  25.706  35.630  1.00  0.00     0.022 A 
BRANCH  87  90
ATOM     90  S   UNL A   1      45.629  23.734  36.741  1.00  0.00     0.127 S 
ATOM     91  O   UNL A   1      44.401  24.128  37.429  1.00  0.00    -0.237 OA
ATOM     92  O   UNL A   1      45.472  22.617  35.807  1.00  0.00    -0.237 OA
ATOM     93  O   UNL A   1      46.819  23.655  37.578  1.00  0.00    -0.744 OA
ENDBRANCH  87  90
ENDBRANCH  60  83
ENDBRANCH  34  35
ENDBRANCH  27  29
ENDBRANCH  26  27
ENDBRANCH  25  26
ENDBRANCH  24  25
ENDBRANCH  23  24
ENDBRANCH  22  23
ENDBRANCH   1  22
TORSDOF 24
ENDMDL
