MODEL 1
REMARK VINA RESULT:      -8.7      0.000      0.000
REMARK SMILES Cc1c(-c2nn(-c3ccccc3)cc2/C=N/O)nnn1-c1ccc(C(=O)OCCOCCOCCOC(=O)c2ccc(-c3c4nc(c(-c5cccc(S(=O)(=O)[O-])c5F)c5ccc([nH]5)c(-c5cccc(S(=O)(=O)[O-])c5F)c5nc(c(-c6cccc(S(=O)(=O)[O-])c6F)c6ccc3[nH]6)C=C5)C=C4)cc2)cc1
REMARK SMILES IDX 31 1 30 2 29 3 28 4 27 5 25 6 26 7 24 8 21 9 22 10 103 11
REMARK SMILES IDX 23 12 102 13 20 14 1 15 2 16 3 17 18 18 19 19 4 20 5 21
REMARK SMILES IDX 14 22 6 23 13 24 15 25 16 26 17 27 7 29 8 30 12 31 9 32
REMARK SMILES IDX 11 33 10 34 32 35 33 36 34 37 35 38 36 39 37 40 38 41 39 42
REMARK SMILES IDX 40 43 101 44 41 45 100 46 42 47 43 48 44 49 94 50 45 51
REMARK SMILES IDX 99 52 93 53 95 54 46 55 98 56 92 57 91 58 47 60 79 61 59 62
REMARK SMILES IDX 78 63 60 64 63 65 77 66 96 67 61 68 62 69 76 71 97 72 64 73
REMARK SMILES IDX 48 74 49 75 57 76 50 77 52 78 58 79 51 80 53 81 54 82 55 83
REMARK SMILES IDX 56 84 80 85 81 86 89 87 82 88 84 89 90 90 83 91 85 92 86 93
REMARK SMILES IDX 87 94 88 95 65 96 66 97 74 98 67 99 69 100 75 101 68 102
REMARK SMILES IDX 70 103 71 104 72 105 73 106
REMARK H PARENT 17 28 95 59 63 70
REMARK Flexibility Score: inf
ROOT
ATOM      1  C   UNL A   1      51.168  25.129  37.887  1.00  0.00     0.188 C 
ENDROOT
BRANCH   1   2
ATOM      2  O   UNL A   1      51.713  24.471  36.751  1.00  0.00    -0.376 OA
BRANCH   2   3
ATOM      3  C   UNL A   1      51.242  23.185  36.374  1.00  0.00     0.202 C 
BRANCH   3   4
ATOM      4  C   UNL A   1      50.027  23.025  35.439  1.00  0.00     0.261 C 
BRANCH   4   5
ATOM      5  O   UNL A   1      48.848  22.461  36.035  1.00  0.00    -0.460 OA
BRANCH   5   6
ATOM      6  C   UNL A   1      48.508  21.226  35.605  1.00  0.00     0.338 C 
ATOM      7  O   UNL A   1      48.707  20.749  34.502  1.00  0.00    -0.246 OA
BRANCH   6   8
ATOM      8  C   UNL A   1      47.957  20.425  36.720  1.00  0.00     0.060 A 
ATOM      9  C   UNL A   1      46.658  19.165  38.838  1.00  0.00     0.067 A 
ATOM     10  C   UNL A   1      46.070  19.160  37.569  1.00  0.00     0.029 A 
ATOM     11  C   UNL A   1      47.950  19.685  39.018  1.00  0.00     0.029 A 
ATOM     12  C   UNL A   1      46.705  19.825  36.522  1.00  0.00     0.018 A 
ATOM     13  C   UNL A   1      48.611  20.300  37.948  1.00  0.00     0.018 A 
BRANCH   9  14
ATOM     14  N   UNL A   1      45.870  18.750  39.940  1.00  0.00    -0.217 N 
ATOM     15  C   UNL A   1      46.378  16.239  39.964  1.00  0.00     0.069 C 
ATOM     16  C   UNL A   1      45.715  17.471  40.452  1.00  0.00     0.071 A 
ATOM     17  C   UNL A   1      44.946  17.672  41.582  1.00  0.00     0.137 A 
ATOM     18  N   UNL A   1      44.692  18.998  41.757  1.00  0.00    -0.128 NA
ATOM     19  N   UNL A   1      45.307  19.655  40.782  1.00  0.00    -0.061 NA
BRANCH  17  20
ATOM     20  C   UNL A   1      44.528  16.678  42.565  1.00  0.00     0.124 A 
ATOM     21  N   UNL A   1      43.978  15.511  42.204  1.00  0.00    -0.165 NA
ATOM     22  C   UNL A   1      44.577  16.843  43.967  1.00  0.00     0.044 A 
ATOM     23  N   UNL A   1      43.589  14.944  43.367  1.00  0.00    -0.240 N 
ATOM     24  C   UNL A   1      43.921  15.726  44.450  1.00  0.00     0.125 A 
BRANCH  22  25
ATOM     25  C   UNL A   1      45.138  17.886  44.787  1.00  0.00     0.166 C 
ATOM     26  N   UNL A   1      44.585  18.192  45.912  1.00  0.00    -0.097 NA
BRANCH  26  27
ATOM     27  O   UNL A   1      45.286  19.251  46.500  1.00  0.00    -0.411 OA
ATOM     28  H   UNL A   1      44.847  20.057  46.688  1.00  0.00     0.330 HD
ENDBRANCH  26  27
ENDBRANCH  22  25
BRANCH  23  29
ATOM     29  C   UNL A   1      42.906  13.702  43.383  1.00  0.00     0.065 A 
ATOM     30  C   UNL A   1      43.371  12.671  44.211  1.00  0.00     0.028 A 
ATOM     31  C   UNL A   1      41.776  13.501  42.581  1.00  0.00     0.028 A 
ATOM     32  C   UNL A   1      42.684  11.458  44.261  1.00  0.00     0.002 A 
ATOM     33  C   UNL A   1      41.121  12.268  42.604  1.00  0.00     0.002 A 
ATOM     34  C   UNL A   1      41.565  11.253  43.453  1.00  0.00     0.000 A 
ENDBRANCH  23  29
ENDBRANCH  17  20
ENDBRANCH   9  14
ENDBRANCH   6   8
ENDBRANCH   5   6
ENDBRANCH   4   5
ENDBRANCH   3   4
ENDBRANCH   2   3
ENDBRANCH   1   2
BRANCH   1  35
ATOM     35  C   UNL A   1      50.302  26.400  37.727  1.00  0.00     0.188 C 
BRANCH  35  36
ATOM     36  O   UNL A   1      48.935  26.228  38.040  1.00  0.00    -0.376 OA
BRANCH  36  37
ATOM     37  C   UNL A   1      48.474  25.051  38.684  1.00  0.00     0.202 C 
BRANCH  37  38
ATOM     38  C   UNL A   1      47.137  24.376  38.366  1.00  0.00     0.261 C 
BRANCH  38  39
ATOM     39  O   UNL A   1      46.576  24.668  37.104  1.00  0.00    -0.460 OA
BRANCH  39  40
ATOM     40  C   UNL A   1      45.453  23.977  36.823  1.00  0.00     0.338 C 
ATOM     41  O   UNL A   1      45.275  22.781  36.970  1.00  0.00    -0.246 OA
BRANCH  40  42
ATOM     42  C   UNL A   1      44.462  24.904  36.269  1.00  0.00     0.060 A 
ATOM     43  C   UNL A   1      43.582  24.388  35.314  1.00  0.00     0.016 A 
ATOM     44  C   UNL A   1      44.612  26.282  36.486  1.00  0.00     0.016 A 
ATOM     45  C   UNL A   1      43.025  25.260  34.409  1.00  0.00     0.010 A 
ATOM     46  C   UNL A   1      44.065  27.151  35.573  1.00  0.00     0.010 A 
ATOM     47  C   UNL A   1      43.370  26.611  34.491  1.00  0.00    -0.014 A 
BRANCH  47  48
ATOM     48  C   UNL A   1      43.134  27.419  33.316  1.00  0.00     0.031 A 
ATOM     49  C   UNL A   1      41.962  28.310  33.363  1.00  0.00     0.074 A 
ATOM     50  C   UNL A   1      44.013  27.412  32.298  1.00  0.00     0.049 A 
ATOM     51  N   UNL A   1      40.939  28.307  32.575  1.00  0.00    -0.248 NA
ATOM     52  C   UNL A   1      41.882  29.267  34.473  1.00  0.00     0.031 C 
ATOM     53  C   UNL A   1      45.359  26.827  32.290  1.00  0.00     0.029 A 
ATOM     54  N   UNL A   1      43.957  28.090  31.118  1.00  0.00    -0.354 N 
ATOM     55  C   UNL A   1      40.183  29.407  32.960  1.00  0.00     0.074 A 
ATOM     56  C   UNL A   1      40.717  29.860  34.221  1.00  0.00     0.031 C 
ATOM     57  C   UNL A   1      46.079  27.412  31.310  1.00  0.00     0.029 A 
ATOM     58  C   UNL A   1      45.211  28.311  30.568  1.00  0.00     0.049 A 
ATOM     59  H   UNL A   1      43.117  28.391  30.702  1.00  0.00     0.167 HD
ATOM     60  C   UNL A   1      39.325  30.022  32.107  1.00  0.00     0.034 A 
ATOM     61  C   UNL A   1      45.529  29.273  29.671  1.00  0.00     0.034 A 
ATOM     62  C   UNL A   1      39.002  29.217  30.962  1.00  0.00     0.049 A 
ATOM     63  C   UNL A   1      44.274  29.711  29.012  1.00  0.00     0.074 A 
ATOM     64  C   UNL A   1      38.488  27.949  30.777  1.00  0.00     0.029 A 
ATOM     65  N   UNL A   1      39.529  29.587  29.748  1.00  0.00    -0.354 N 
ATOM     66  N   UNL A   1      43.562  28.959  28.216  1.00  0.00    -0.248 NA
ATOM     67  C   UNL A   1      43.583  30.871  29.554  1.00  0.00     0.031 C 
ATOM     68  C   UNL A   1      39.148  27.446  29.619  1.00  0.00     0.029 A 
ATOM     69  C   UNL A   1      40.011  28.446  29.163  1.00  0.00     0.049 A 
ATOM     70  H   UNL A   1      39.555  30.497  29.372  1.00  0.00     0.167 HD
ATOM     71  C   UNL A   1      42.243  29.296  28.498  1.00  0.00     0.074 A 
ATOM     72  C   UNL A   1      42.326  30.557  29.231  1.00  0.00     0.031 C 
ATOM     73  C   UNL A   1      41.227  28.387  28.379  1.00  0.00     0.034 A 
BRANCH  60  74
ATOM     74  C   UNL A   1      39.022  31.492  32.161  1.00  0.00     0.023 A 
ATOM     75  C   UNL A   1      39.931  32.379  31.551  1.00  0.00     0.012 A 
ATOM     76  C   UNL A   1      38.018  32.053  32.981  1.00  0.00     0.148 A 
ATOM     77  C   UNL A   1      39.848  33.759  31.758  1.00  0.00     0.002 A 
ATOM     78  C   UNL A   1      37.881  33.429  33.103  1.00  0.00     0.091 A 
ATOM     79  F   UNL A   1      37.268  31.264  33.761  1.00  0.00    -0.205 F 
ATOM     80  C   UNL A   1      38.810  34.288  32.517  1.00  0.00     0.022 A 
BRANCH  78  81
ATOM     81  S   UNL A   1      36.486  34.123  33.995  1.00  0.00     0.127 S 
ATOM     82  O   UNL A   1      37.110  34.539  35.247  1.00  0.00    -0.237 OA
ATOM     83  O   UNL A   1      36.067  35.217  33.117  1.00  0.00    -0.237 OA
ATOM     84  O   UNL A   1      35.526  33.028  34.074  1.00  0.00    -0.744 OA
ENDBRANCH  78  81
ENDBRANCH  60  74
BRANCH  61  85
ATOM     85  C   UNL A   1      46.809  30.011  29.563  1.00  0.00     0.023 A 
ATOM     86  C   UNL A   1      47.079  31.076  30.441  1.00  0.00     0.012 A 
ATOM     87  C   UNL A   1      47.861  29.555  28.733  1.00  0.00     0.148 A 
ATOM     88  C   UNL A   1      48.348  31.667  30.487  1.00  0.00     0.002 A 
ATOM     89  C   UNL A   1      49.107  30.173  28.751  1.00  0.00     0.091 A 
ATOM     90  F   UNL A   1      47.680  28.456  27.988  1.00  0.00    -0.205 F 
ATOM     91  C   UNL A   1      49.359  31.224  29.637  1.00  0.00     0.022 A 
BRANCH  89  92
ATOM     92  S   UNL A   1      50.417  29.662  27.629  1.00  0.00     0.127 S 
ATOM     93  O   UNL A   1      50.697  28.297  28.074  1.00  0.00    -0.237 OA
ATOM     94  O   UNL A   1      49.765  29.760  26.326  1.00  0.00    -0.237 OA
ATOM     95  O   UNL A   1      51.512  30.595  27.871  1.00  0.00    -0.744 OA
ENDBRANCH  89  92
ENDBRANCH  61  85
BRANCH  73  96
ATOM     96  C   UNL A   1      41.499  27.068  27.689  1.00  0.00     0.023 A 
ATOM     97  C   UNL A   1      41.302  26.913  26.302  1.00  0.00     0.012 A 
ATOM     98  C   UNL A   1      42.167  26.048  28.393  1.00  0.00     0.148 A 
ATOM     99  C   UNL A   1      41.732  25.763  25.636  1.00  0.00     0.002 A 
ATOM    100  C   UNL A   1      42.638  24.925  27.719  1.00  0.00     0.091 A 
ATOM    101  F   UNL A   1      42.363  26.206  29.712  1.00  0.00    -0.205 F 
ATOM    102  C   UNL A   1      42.413  24.775  26.342  1.00  0.00     0.022 A 
BRANCH 100 103
ATOM    103  S   UNL A   1      43.648  23.686  28.540  1.00  0.00     0.127 S 
ATOM    104  O   UNL A   1      44.632  24.507  29.241  1.00  0.00    -0.237 OA
ATOM    105  O   UNL A   1      42.682  23.014  29.412  1.00  0.00    -0.237 OA
ATOM    106  O   UNL A   1      44.173  22.837  27.477  1.00  0.00    -0.744 OA
ENDBRANCH 100 103
ENDBRANCH  73  96
ENDBRANCH  47  48
ENDBRANCH  40  42
ENDBRANCH  39  40
ENDBRANCH  38  39
ENDBRANCH  37  38
ENDBRANCH  36  37
ENDBRANCH  35  36
ENDBRANCH   1  35
TORSDOF 25
ENDMDL
MODEL 2
REMARK VINA RESULT:      -8.7      8.346     14.551
REMARK SMILES Cc1c(-c2nn(-c3ccccc3)cc2/C=N/O)nnn1-c1ccc(C(=O)OCCOCCOCCOC(=O)c2ccc(-c3c4nc(c(-c5cccc(S(=O)(=O)[O-])c5F)c5ccc([nH]5)c(-c5cccc(S(=O)(=O)[O-])c5F)c5nc(c(-c6cccc(S(=O)(=O)[O-])c6F)c6ccc3[nH]6)C=C5)C=C4)cc2)cc1
REMARK SMILES IDX 31 1 30 2 29 3 28 4 27 5 25 6 26 7 24 8 21 9 22 10 103 11
REMARK SMILES IDX 23 12 102 13 20 14 1 15 2 16 3 17 18 18 19 19 4 20 5 21
REMARK SMILES IDX 14 22 6 23 13 24 15 25 16 26 17 27 7 29 8 30 12 31 9 32
REMARK SMILES IDX 11 33 10 34 32 35 33 36 34 37 35 38 36 39 37 40 38 41 39 42
REMARK SMILES IDX 40 43 101 44 41 45 100 46 42 47 43 48 44 49 94 50 45 51
REMARK SMILES IDX 99 52 93 53 95 54 46 55 98 56 92 57 91 58 47 60 79 61 59 62
REMARK SMILES IDX 78 63 60 64 63 65 77 66 96 67 61 68 62 69 76 71 97 72 64 73
REMARK SMILES IDX 48 74 49 75 57 76 50 77 52 78 58 79 51 80 53 81 54 82 55 83
REMARK SMILES IDX 56 84 80 85 81 86 89 87 82 88 84 89 90 90 83 91 85 92 86 93
REMARK SMILES IDX 87 94 88 95 65 96 66 97 74 98 67 99 69 100 75 101 68 102
REMARK SMILES IDX 70 103 71 104 72 105 73 106
REMARK H PARENT 17 28 95 59 63 70
REMARK Flexibility Score: inf
ROOT
ATOM      1  C   UNL A   1      41.418  28.617  29.259  1.00  0.00     0.188 C 
ENDROOT
BRANCH   1   2
ATOM      2  O   UNL A   1      41.613  27.309  28.739  1.00  0.00    -0.376 OA
BRANCH   2   3
ATOM      3  C   UNL A   1      42.924  26.841  28.453  1.00  0.00     0.202 C 
BRANCH   3   4
ATOM      4  C   UNL A   1      43.498  25.599  29.160  1.00  0.00     0.261 C 
BRANCH   4   5
ATOM      5  O   UNL A   1      43.491  24.383  28.395  1.00  0.00    -0.460 OA
BRANCH   5   6
ATOM      6  C   UNL A   1      42.763  23.369  28.913  1.00  0.00     0.338 C 
ATOM      7  O   UNL A   1      42.836  22.910  30.039  1.00  0.00    -0.246 OA
BRANCH   6   8
ATOM      8  C   UNL A   1      41.718  22.942  27.956  1.00  0.00     0.060 A 
ATOM      9  C   UNL A   1      39.517  22.190  26.424  1.00  0.00     0.067 A 
ATOM     10  C   UNL A   1      39.679  23.532  26.783  1.00  0.00     0.029 A 
ATOM     11  C   UNL A   1      40.519  21.252  26.718  1.00  0.00     0.029 A 
ATOM     12  C   UNL A   1      40.761  23.896  27.583  1.00  0.00     0.018 A 
ATOM     13  C   UNL A   1      41.636  21.634  27.471  1.00  0.00     0.018 A 
BRANCH   9  14
ATOM     14  N   UNL A   1      38.274  21.793  25.873  1.00  0.00    -0.217 N 
ATOM     15  C   UNL A   1      36.958  23.984  26.044  1.00  0.00     0.069 C 
ATOM     16  C   UNL A   1      37.126  22.552  25.704  1.00  0.00     0.071 A 
ATOM     17  C   UNL A   1      36.281  21.703  25.017  1.00  0.00     0.137 A 
ATOM     18  N   UNL A   1      36.902  20.520  24.755  1.00  0.00    -0.128 NA
ATOM     19  N   UNL A   1      38.138  20.603  25.231  1.00  0.00    -0.061 NA
BRANCH  17  20
ATOM     20  C   UNL A   1      34.947  21.995  24.503  1.00  0.00     0.124 A 
ATOM     21  N   UNL A   1      34.673  23.130  23.847  1.00  0.00    -0.165 NA
ATOM     22  C   UNL A   1      33.803  21.187  24.689  1.00  0.00     0.044 A 
ATOM     23  N   UNL A   1      33.333  23.108  23.674  1.00  0.00    -0.240 N 
ATOM     24  C   UNL A   1      32.774  21.957  24.182  1.00  0.00     0.125 A 
BRANCH  22  25
ATOM     25  C   UNL A   1      33.644  19.876  25.263  1.00  0.00     0.166 C 
ATOM     26  N   UNL A   1      33.939  18.827  24.571  1.00  0.00    -0.097 NA
BRANCH  26  27
ATOM     27  O   UNL A   1      33.665  17.681  25.328  1.00  0.00    -0.411 OA
ATOM     28  H   UNL A   1      32.779  17.453  25.529  1.00  0.00     0.330 HD
ENDBRANCH  26  27
ENDBRANCH  22  25
BRANCH  23  29
ATOM     29  C   UNL A   1      32.657  24.189  23.055  1.00  0.00     0.065 A 
ATOM     30  C   UNL A   1      33.201  24.771  21.902  1.00  0.00     0.028 A 
ATOM     31  C   UNL A   1      31.456  24.675  23.586  1.00  0.00     0.028 A 
ATOM     32  C   UNL A   1      32.523  25.811  21.264  1.00  0.00     0.002 A 
ATOM     33  C   UNL A   1      30.808  25.746  22.967  1.00  0.00     0.002 A 
ATOM     34  C   UNL A   1      31.333  26.303  21.800  1.00  0.00     0.000 A 
ENDBRANCH  23  29
ENDBRANCH  17  20
ENDBRANCH   9  14
ENDBRANCH   6   8
ENDBRANCH   5   6
ENDBRANCH   4   5
ENDBRANCH   3   4
ENDBRANCH   2   3
ENDBRANCH   1   2
BRANCH   1  35
ATOM     35  C   UNL A   1      40.723  28.832  30.624  1.00  0.00     0.188 C 
BRANCH  35  36
ATOM     36  O   UNL A   1      39.690  29.796  30.616  1.00  0.00    -0.376 OA
BRANCH  36  37
ATOM     37  C   UNL A   1      38.779  29.885  29.532  1.00  0.00     0.202 C 
BRANCH  37  38
ATOM     38  C   UNL A   1      37.947  31.132  29.222  1.00  0.00     0.261 C 
BRANCH  38  39
ATOM     39  O   UNL A   1      38.130  32.235  30.084  1.00  0.00    -0.460 OA
BRANCH  39  40
ATOM     40  C   UNL A   1      36.984  32.810  30.500  1.00  0.00     0.338 C 
ATOM     41  O   UNL A   1      36.050  33.166  29.803  1.00  0.00    -0.246 OA
BRANCH  40  42
ATOM     42  C   UNL A   1      37.046  32.975  31.955  1.00  0.00     0.060 A 
ATOM     43  C   UNL A   1      37.370  34.247  32.431  1.00  0.00     0.016 A 
ATOM     44  C   UNL A   1      37.069  31.838  32.776  1.00  0.00     0.016 A 
ATOM     45  C   UNL A   1      37.948  34.347  33.674  1.00  0.00     0.010 A 
ATOM     46  C   UNL A   1      37.659  31.936  34.014  1.00  0.00     0.010 A 
ATOM     47  C   UNL A   1      38.183  33.172  34.392  1.00  0.00    -0.014 A 
BRANCH  47  48
ATOM     48  C   UNL A   1      39.148  33.242  35.465  1.00  0.00     0.031 A 
ATOM     49  C   UNL A   1      38.607  33.483  36.814  1.00  0.00     0.074 A 
ATOM     50  C   UNL A   1      40.449  32.991  35.228  1.00  0.00     0.049 A 
ATOM     51  N   UNL A   1      38.867  34.474  37.600  1.00  0.00    -0.248 NA
ATOM     52  C   UNL A   1      37.590  32.551  37.313  1.00  0.00     0.031 C 
ATOM     53  C   UNL A   1      41.036  32.423  34.008  1.00  0.00     0.029 A 
ATOM     54  N   UNL A   1      41.495  33.019  36.098  1.00  0.00    -0.354 N 
ATOM     55  C   UNL A   1      38.208  34.176  38.786  1.00  0.00     0.074 A 
ATOM     56  C   UNL A   1      37.316  33.079  38.504  1.00  0.00     0.031 C 
ATOM     57  C   UNL A   1      42.241  31.899  34.313  1.00  0.00     0.029 A 
ATOM     58  C   UNL A   1      42.543  32.201  35.702  1.00  0.00     0.049 A 
ATOM     59  H   UNL A   1      41.507  33.561  36.920  1.00  0.00     0.167 HD
ATOM     60  C   UNL A   1      38.609  34.687  39.978  1.00  0.00     0.034 A 
ATOM     61  C   UNL A   1      43.504  31.691  36.507  1.00  0.00     0.034 A 
ATOM     62  C   UNL A   1      39.483  35.818  39.836  1.00  0.00     0.049 A 
ATOM     63  C   UNL A   1      43.553  32.521  37.736  1.00  0.00     0.074 A 
ATOM     64  C   UNL A   1      39.404  37.035  39.188  1.00  0.00     0.029 A 
ATOM     65  N   UNL A   1      40.811  35.645  40.144  1.00  0.00    -0.354 N 
ATOM     66  N   UNL A   1      43.945  33.767  37.764  1.00  0.00    -0.248 NA
ATOM     67  C   UNL A   1      42.783  32.086  38.890  1.00  0.00     0.031 C 
ATOM     68  C   UNL A   1      40.726  37.296  38.726  1.00  0.00     0.029 A 
ATOM     69  C   UNL A   1      41.530  36.229  39.134  1.00  0.00     0.049 A 
ATOM     70  H   UNL A   1      41.176  35.189  40.937  1.00  0.00     0.167 HD
ATOM     71  C   UNL A   1      43.119  34.376  38.703  1.00  0.00     0.074 A 
ATOM     72  C   UNL A   1      42.517  33.271  39.445  1.00  0.00     0.031 C 
ATOM     73  C   UNL A   1      42.766  35.694  38.602  1.00  0.00     0.034 A 
BRANCH  60  74
ATOM     74  C   UNL A   1      38.451  33.959  41.282  1.00  0.00     0.023 A 
ATOM     75  C   UNL A   1      37.926  34.670  42.379  1.00  0.00     0.012 A 
ATOM     76  C   UNL A   1      39.013  32.689  41.540  1.00  0.00     0.148 A 
ATOM     77  C   UNL A   1      37.968  34.142  43.673  1.00  0.00     0.002 A 
ATOM     78  C   UNL A   1      38.962  32.129  42.810  1.00  0.00     0.091 A 
ATOM     79  F   UNL A   1      39.723  32.062  40.593  1.00  0.00    -0.205 F 
ATOM     80  C   UNL A   1      38.466  32.862  43.887  1.00  0.00     0.022 A 
BRANCH  78  81
ATOM     81  S   UNL A   1      39.507  30.440  43.075  1.00  0.00     0.127 S 
ATOM     82  O   UNL A   1      38.707  29.711  42.096  1.00  0.00    -0.237 OA
ATOM     83  O   UNL A   1      40.937  30.522  42.771  1.00  0.00    -0.237 OA
ATOM     84  O   UNL A   1      39.216  30.182  44.481  1.00  0.00    -0.744 OA
ENDBRANCH  78  81
ENDBRANCH  60  74
BRANCH  61  85
ATOM     85  C   UNL A   1      44.174  30.376  36.383  1.00  0.00     0.023 A 
ATOM     86  C   UNL A   1      45.579  30.306  36.352  1.00  0.00     0.012 A 
ATOM     87  C   UNL A   1      43.453  29.163  36.495  1.00  0.00     0.148 A 
ATOM     88  C   UNL A   1      46.239  29.072  36.424  1.00  0.00     0.002 A 
ATOM     89  C   UNL A   1      44.112  27.938  36.523  1.00  0.00     0.091 A 
ATOM     90  F   UNL A   1      42.125  29.203  36.668  1.00  0.00    -0.205 F 
ATOM     91  C   UNL A   1      45.509  27.889  36.500  1.00  0.00     0.022 A 
BRANCH  89  92
ATOM     92  S   UNL A   1      43.199  26.389  36.566  1.00  0.00     0.127 S 
ATOM     93  O   UNL A   1      44.201  25.447  37.066  1.00  0.00    -0.237 OA
ATOM     94  O   UNL A   1      42.121  26.691  37.503  1.00  0.00    -0.237 OA
ATOM     95  O   UNL A   1      42.800  26.144  35.184  1.00  0.00    -0.744 OA
ENDBRANCH  89  92
ENDBRANCH  61  85
BRANCH  73  96
ATOM     96  C   UNL A   1      43.484  36.573  37.602  1.00  0.00     0.023 A 
ATOM     97  C   UNL A   1      43.171  36.526  36.228  1.00  0.00     0.012 A 
ATOM     98  C   UNL A   1      44.316  37.608  38.068  1.00  0.00     0.148 A 
ATOM     99  C   UNL A   1      43.692  37.465  35.336  1.00  0.00     0.002 A 
ATOM    100  C   UNL A   1      44.795  38.572  37.185  1.00  0.00     0.091 A 
ATOM    101  F   UNL A   1      44.602  37.656  39.379  1.00  0.00    -0.205 F 
ATOM    102  C   UNL A   1      44.493  38.497  35.817  1.00  0.00     0.022 A 
BRANCH 100 103
ATOM    103  S   UNL A   1      45.711  40.007  37.761  1.00  0.00     0.127 S 
ATOM    104  O   UNL A   1      46.476  40.380  36.574  1.00  0.00    -0.237 OA
ATOM    105  O   UNL A   1      44.645  40.944  38.119  1.00  0.00    -0.237 OA
ATOM    106  O   UNL A   1      46.496  39.543  38.900  1.00  0.00    -0.744 OA
ENDBRANCH 100 103
ENDBRANCH  73  96
ENDBRANCH  47  48
ENDBRANCH  40  42
ENDBRANCH  39  40
ENDBRANCH  38  39
ENDBRANCH  37  38
ENDBRANCH  36  37
ENDBRANCH  35  36
ENDBRANCH   1  35
TORSDOF 25
ENDMDL
MODEL 3
REMARK VINA RESULT:      -8.7      9.494     20.413
REMARK SMILES Cc1c(-c2nn(-c3ccccc3)cc2/C=N/O)nnn1-c1ccc(C(=O)OCCOCCOCCOC(=O)c2ccc(-c3c4nc(c(-c5cccc(S(=O)(=O)[O-])c5F)c5ccc([nH]5)c(-c5cccc(S(=O)(=O)[O-])c5F)c5nc(c(-c6cccc(S(=O)(=O)[O-])c6F)c6ccc3[nH]6)C=C5)C=C4)cc2)cc1
REMARK SMILES IDX 31 1 30 2 29 3 28 4 27 5 25 6 26 7 24 8 21 9 22 10 103 11
REMARK SMILES IDX 23 12 102 13 20 14 1 15 2 16 3 17 18 18 19 19 4 20 5 21
REMARK SMILES IDX 14 22 6 23 13 24 15 25 16 26 17 27 7 29 8 30 12 31 9 32
REMARK SMILES IDX 11 33 10 34 32 35 33 36 34 37 35 38 36 39 37 40 38 41 39 42
REMARK SMILES IDX 40 43 101 44 41 45 100 46 42 47 43 48 44 49 94 50 45 51
REMARK SMILES IDX 99 52 93 53 95 54 46 55 98 56 92 57 91 58 47 60 79 61 59 62
REMARK SMILES IDX 78 63 60 64 63 65 77 66 96 67 61 68 62 69 76 71 97 72 64 73
REMARK SMILES IDX 48 74 49 75 57 76 50 77 52 78 58 79 51 80 53 81 54 82 55 83
REMARK SMILES IDX 56 84 80 85 81 86 89 87 82 88 84 89 90 90 83 91 85 92 86 93
REMARK SMILES IDX 87 94 88 95 65 96 66 97 74 98 67 99 69 100 75 101 68 102
REMARK SMILES IDX 70 103 71 104 72 105 73 106
REMARK H PARENT 17 28 95 59 63 70
REMARK Flexibility Score: inf
ROOT
ATOM      1  C   UNL A   1      45.896  37.720  27.797  1.00  0.00     0.188 C 
ENDROOT
BRANCH   1   2
ATOM      2  O   UNL A   1      44.699  38.185  27.188  1.00  0.00    -0.376 OA
BRANCH   2   3
ATOM      3  C   UNL A   1      43.601  37.303  27.003  1.00  0.00     0.202 C 
BRANCH   3   4
ATOM      4  C   UNL A   1      42.177  37.702  27.436  1.00  0.00     0.261 C 
BRANCH   4   5
ATOM      5  O   UNL A   1      41.512  38.659  26.597  1.00  0.00    -0.460 OA
BRANCH   5   6
ATOM      6  C   UNL A   1      41.606  39.949  26.990  1.00  0.00     0.338 C 
ATOM      7  O   UNL A   1      41.274  40.418  28.064  1.00  0.00    -0.246 OA
BRANCH   6   8
ATOM      8  C   UNL A   1      42.318  40.748  25.969  1.00  0.00     0.060 A 
ATOM      9  C   UNL A   1      43.719  42.494  24.309  1.00  0.00     0.067 A 
ATOM     10  C   UNL A   1      44.409  41.772  25.289  1.00  0.00     0.029 A 
ATOM     11  C   UNL A   1      42.358  42.245  24.074  1.00  0.00     0.029 A 
ATOM     12  C   UNL A   1      43.698  40.931  26.142  1.00  0.00     0.018 A 
ATOM     13  C   UNL A   1      41.658  41.353  24.895  1.00  0.00     0.018 A 
BRANCH   9  14
ATOM     14  N   UNL A   1      44.399  43.552  23.658  1.00  0.00    -0.217 N 
ATOM     15  C   UNL A   1      44.481  42.656  21.259  1.00  0.00     0.069 C 
ATOM     16  C   UNL A   1      44.760  43.649  22.323  1.00  0.00     0.071 A 
ATOM     17  C   UNL A   1      45.276  44.926  22.225  1.00  0.00     0.137 A 
ATOM     18  N   UNL A   1      45.190  45.569  23.422  1.00  0.00    -0.128 NA
ATOM     19  N   UNL A   1      44.601  44.743  24.278  1.00  0.00    -0.061 NA
BRANCH  17  20
ATOM     20  C   UNL A   1      45.752  45.607  21.025  1.00  0.00     0.124 A 
ATOM     21  N   UNL A   1      45.124  46.679  20.522  1.00  0.00    -0.165 NA
ATOM     22  C   UNL A   1      46.844  45.197  20.229  1.00  0.00     0.044 A 
ATOM     23  N   UNL A   1      45.753  46.923  19.351  1.00  0.00    -0.240 N 
ATOM     24  C   UNL A   1      46.786  46.039  19.135  1.00  0.00     0.125 A 
BRANCH  22  25
ATOM     25  C   UNL A   1      47.826  44.160  20.418  1.00  0.00     0.166 C 
ATOM     26  N   UNL A   1      48.872  44.115  19.663  1.00  0.00    -0.097 NA
BRANCH  26  27
ATOM     27  O   UNL A   1      49.650  43.006  20.015  1.00  0.00    -0.411 OA
ATOM     28  H   UNL A   1      49.243  42.246  20.382  1.00  0.00     0.330 HD
ENDBRANCH  26  27
ENDBRANCH  22  25
BRANCH  23  29
ATOM     29  C   UNL A   1      45.325  47.967  18.495  1.00  0.00     0.065 A 
ATOM     30  C   UNL A   1      44.064  48.547  18.692  1.00  0.00     0.028 A 
ATOM     31  C   UNL A   1      46.151  48.421  17.458  1.00  0.00     0.028 A 
ATOM     32  C   UNL A   1      43.650  49.601  17.877  1.00  0.00     0.002 A 
ATOM     33  C   UNL A   1      45.709  49.446  16.619  1.00  0.00     0.002 A 
ATOM     34  C   UNL A   1      44.467  50.045  16.837  1.00  0.00     0.000 A 
ENDBRANCH  23  29
ENDBRANCH  17  20
ENDBRANCH   9  14
ENDBRANCH   6   8
ENDBRANCH   5   6
ENDBRANCH   4   5
ENDBRANCH   3   4
ENDBRANCH   2   3
ENDBRANCH   1   2
BRANCH   1  35
ATOM     35  C   UNL A   1      47.267  38.325  27.414  1.00  0.00     0.188 C 
BRANCH  35  36
ATOM     36  O   UNL A   1      48.385  37.566  27.830  1.00  0.00    -0.376 OA
BRANCH  36  37
ATOM     37  C   UNL A   1      48.357  36.824  29.038  1.00  0.00     0.202 C 
BRANCH  37  38
ATOM     38  C   UNL A   1      48.340  37.464  30.429  1.00  0.00     0.261 C 
BRANCH  38  39
ATOM     39  O   UNL A   1      47.099  37.459  31.103  1.00  0.00    -0.460 OA
BRANCH  39  40
ATOM     40  C   UNL A   1      46.842  36.325  31.785  1.00  0.00     0.338 C 
ATOM     41  O   UNL A   1      47.622  35.697  32.478  1.00  0.00    -0.246 OA
BRANCH  40  42
ATOM     42  C   UNL A   1      45.451  35.936  31.535  1.00  0.00     0.060 A 
ATOM     43  C   UNL A   1      44.490  36.434  32.417  1.00  0.00     0.016 A 
ATOM     44  C   UNL A   1      45.180  34.889  30.641  1.00  0.00     0.016 A 
ATOM     45  C   UNL A   1      43.322  35.726  32.571  1.00  0.00     0.010 A 
ATOM     46  C   UNL A   1      44.018  34.173  30.806  1.00  0.00     0.010 A 
ATOM     47  C   UNL A   1      43.162  34.546  31.842  1.00  0.00    -0.014 A 
BRANCH  47  48
ATOM     48  C   UNL A   1      42.163  33.614  32.314  1.00  0.00     0.031 A 
ATOM     49  C   UNL A   1      40.816  33.752  31.734  1.00  0.00     0.074 A 
ATOM     50  C   UNL A   1      42.503  32.622  33.158  1.00  0.00     0.049 A 
ATOM     51  N   UNL A   1      39.713  34.001  32.357  1.00  0.00    -0.248 NA
ATOM     52  C   UNL A   1      40.698  33.686  30.273  1.00  0.00     0.031 C 
ATOM     53  C   UNL A   1      43.858  32.198  33.530  1.00  0.00     0.029 A 
ATOM     54  N   UNL A   1      41.709  31.666  33.714  1.00  0.00    -0.354 N 
ATOM     55  C   UNL A   1      38.723  33.910  31.387  1.00  0.00     0.074 A 
ATOM     56  C   UNL A   1      39.391  33.878  30.109  1.00  0.00     0.031 C 
ATOM     57  C   UNL A   1      43.802  30.931  33.992  1.00  0.00     0.029 A 
ATOM     58  C   UNL A   1      42.410  30.518  34.051  1.00  0.00     0.049 A 
ATOM     59  H   UNL A   1      40.742  31.778  33.861  1.00  0.00     0.167 HD
ATOM     60  C   UNL A   1      37.433  33.625  31.703  1.00  0.00     0.034 A 
ATOM     61  C   UNL A   1      41.883  29.283  34.218  1.00  0.00     0.034 A 
ATOM     62  C   UNL A   1      37.143  33.816  33.097  1.00  0.00     0.049 A 
ATOM     63  C   UNL A   1      40.430  29.441  34.473  1.00  0.00     0.074 A 
ATOM     64  C   UNL A   1      37.268  34.869  33.982  1.00  0.00     0.029 A 
ATOM     65  N   UNL A   1      36.951  32.698  33.871  1.00  0.00    -0.354 N 
ATOM     66  N   UNL A   1      39.930  29.991  35.547  1.00  0.00    -0.248 NA
ATOM     67  C   UNL A   1      39.520  29.345  33.343  1.00  0.00     0.031 C 
ATOM     68  C   UNL A   1      37.618  34.268  35.225  1.00  0.00     0.029 A 
ATOM     69  C   UNL A   1      37.670  32.887  35.023  1.00  0.00     0.049 A 
ATOM     70  H   UNL A   1      36.403  31.912  33.643  1.00  0.00     0.167 HD
ATOM     71  C   UNL A   1      38.814  30.689  35.099  1.00  0.00     0.074 A 
ATOM     72  C   UNL A   1      38.545  30.152  33.767  1.00  0.00     0.031 C 
ATOM     73  C   UNL A   1      38.390  31.836  35.712  1.00  0.00     0.034 A 
BRANCH  60  74
ATOM     74  C   UNL A   1      36.510  32.868  30.792  1.00  0.00     0.023 A 
ATOM     75  C   UNL A   1      36.751  31.494  30.597  1.00  0.00     0.012 A 
ATOM     76  C   UNL A   1      35.571  33.490  29.940  1.00  0.00     0.148 A 
ATOM     77  C   UNL A   1      36.092  30.777  29.594  1.00  0.00     0.002 A 
ATOM     78  C   UNL A   1      34.848  32.752  29.012  1.00  0.00     0.091 A 
ATOM     79  F   UNL A   1      35.459  34.825  29.921  1.00  0.00    -0.205 F 
ATOM     80  C   UNL A   1      35.124  31.399  28.814  1.00  0.00     0.022 A 
BRANCH  78  81
ATOM     81  S   UNL A   1      33.527  33.524  28.074  1.00  0.00     0.127 S 
ATOM     82  O   UNL A   1      32.872  32.366  27.473  1.00  0.00    -0.237 OA
ATOM     83  O   UNL A   1      32.756  34.199  29.119  1.00  0.00    -0.237 OA
ATOM     84  O   UNL A   1      34.212  34.434  27.164  1.00  0.00    -0.744 OA
ENDBRANCH  78  81
ENDBRANCH  60  74
BRANCH  61  85
ATOM     85  C   UNL A   1      42.519  27.985  33.894  1.00  0.00     0.023 A 
ATOM     86  C   UNL A   1      43.401  27.890  32.802  1.00  0.00     0.012 A 
ATOM     87  C   UNL A   1      42.425  26.874  34.766  1.00  0.00     0.148 A 
ATOM     88  C   UNL A   1      44.157  26.731  32.586  1.00  0.00     0.002 A 
ATOM     89  C   UNL A   1      43.145  25.709  34.523  1.00  0.00     0.091 A 
ATOM     90  F   UNL A   1      41.703  26.982  35.890  1.00  0.00    -0.205 F 
ATOM     91  C   UNL A   1      44.024  25.637  33.438  1.00  0.00     0.022 A 
BRANCH  89  92
ATOM     92  S   UNL A   1      42.955  24.260  35.572  1.00  0.00     0.127 S 
ATOM     93  O   UNL A   1      43.612  23.215  34.785  1.00  0.00    -0.237 OA
ATOM     94  O   UNL A   1      43.671  24.656  36.781  1.00  0.00    -0.237 OA
ATOM     95  O   UNL A   1      41.515  24.074  35.709  1.00  0.00    -0.744 OA
ENDBRANCH  89  92
ENDBRANCH  61  85
BRANCH  73  96
ATOM     96  C   UNL A   1      38.986  32.219  37.048  1.00  0.00     0.023 A 
ATOM     97  C   UNL A   1      40.138  33.028  37.133  1.00  0.00     0.012 A 
ATOM     98  C   UNL A   1      38.262  31.953  38.226  1.00  0.00     0.148 A 
ATOM     99  C   UNL A   1      40.574  33.537  38.358  1.00  0.00     0.002 A 
ATOM    100  C   UNL A   1      38.671  32.502  39.438  1.00  0.00     0.091 A 
ATOM    101  F   UNL A   1      37.158  31.193  38.139  1.00  0.00    -0.205 F 
ATOM    102  C   UNL A   1      39.832  33.286  39.509  1.00  0.00     0.022 A 
BRANCH 100 103
ATOM    103  S   UNL A   1      37.682  32.338  40.930  1.00  0.00     0.127 S 
ATOM    104  O   UNL A   1      36.386  32.854  40.498  1.00  0.00    -0.237 OA
ATOM    105  O   UNL A   1      37.713  30.895  41.176  1.00  0.00    -0.237 OA
ATOM    106  O   UNL A   1      38.369  33.125  41.947  1.00  0.00    -0.744 OA
ENDBRANCH 100 103
ENDBRANCH  73  96
ENDBRANCH  47  48
ENDBRANCH  40  42
ENDBRANCH  39  40
ENDBRANCH  38  39
ENDBRANCH  37  38
ENDBRANCH  36  37
ENDBRANCH  35  36
ENDBRANCH   1  35
TORSDOF 25
ENDMDL
