MODEL 1
REMARK VINA RESULT:      -8.9      0.000      0.000
REMARK SMILES Cc1ccccc1C(=O)Nc1cc(C(=O)OCCOCCOCCOC(=O)c2ccc(-c3c4nc(c(-c5cccc(S(=O)(=O)[O-])c5F)c5ccc([nH]5)c(-c5cccc(S(=O)(=O)[O-])c5F)c5nc(c(-c6cccc(S(=O)(=O)[O-])c6F)c6ccc3[nH]6)C=C5)C=C4)cc2)ccc1N1CC[NH+](CC(=O)Nc2ccc(F)cc2)CC1
REMARK SMILES IDX 20 1 19 2 18 3 17 4 16 5 14 6 15 7 13 8 11 9 12 10 93 11
REMARK SMILES IDX 92 12 91 13 10 14 8 15 9 16 7 18 1 19 2 20 3 21 4 22 6 23
REMARK SMILES IDX 5 24 94 25 95 26 110 27 96 28 109 29 97 30 98 32 99 33
REMARK SMILES IDX 100 34 101 35 102 37 103 38 108 39 104 40 107 41 105 42
REMARK SMILES IDX 106 43 21 44 22 45 23 46 24 47 25 48 26 49 27 50 28 51 29 52
REMARK SMILES IDX 90 53 30 54 89 55 31 56 32 57 33 58 83 59 34 60 88 61 82 62
REMARK SMILES IDX 84 63 35 64 87 65 81 66 80 67 36 69 68 70 48 71 67 72 49 73
REMARK SMILES IDX 52 74 66 75 85 76 50 77 51 78 65 80 86 81 53 82 37 83 38 84
REMARK SMILES IDX 46 85 39 86 41 87 47 88 40 89 42 90 43 91 44 92 45 93 69 94
REMARK SMILES IDX 70 95 78 96 71 97 73 98 79 99 72 100 74 101 75 102 76 103
REMARK SMILES IDX 77 104 54 105 55 106 63 107 56 108 58 109 64 110 57 111
REMARK SMILES IDX 59 112 60 113 61 114 62 115
REMARK H PARENT 10 17 97 31 101 36 84 68 52 79
REMARK Flexibility Score: inf
ROOT
ATOM      1  C   UNL A   1      37.119  34.400  34.200  1.00  0.00     0.188 C 
ENDROOT
BRANCH   1   2
ATOM      2  O   UNL A   1      36.097  35.310  33.823  1.00  0.00    -0.376 OA
BRANCH   2   3
ATOM      3  C   UNL A   1      35.270  34.889  32.749  1.00  0.00     0.202 C 
BRANCH   3   4
ATOM      4  C   UNL A   1      34.083  35.778  32.363  1.00  0.00     0.261 C 
BRANCH   4   5
ATOM      5  O   UNL A   1      33.365  35.887  30.978  1.00  0.00    -0.460 OA
BRANCH   5   6
ATOM      6  C   UNL A   1      33.266  35.463  29.595  1.00  0.00     0.338 C 
ATOM      7  O   UNL A   1      32.444  36.161  28.991  1.00  0.00    -0.246 OA
BRANCH   6   8
ATOM      8  C   UNL A   1      33.986  34.296  28.517  1.00  0.00     0.062 A 
ATOM      9  C   UNL A   1      34.423  31.790  28.043  1.00  0.00     0.065 A 
ATOM     10  C   UNL A   1      33.615  32.981  28.000  1.00  0.00     0.044 A 
ATOM     11  C   UNL A   1      35.743  31.954  28.542  1.00  0.00     0.061 A 
ATOM     12  C   UNL A   1      36.197  33.289  28.609  1.00  0.00     0.029 A 
ATOM     13  C   UNL A   1      35.355  34.404  28.592  1.00  0.00     0.018 A 
BRANCH   9  14
ATOM     14  N   UNL A   1      33.939  30.436  27.844  1.00  0.00    -0.320 N 
ATOM     15  C   UNL A   1      33.548  29.434  26.927  1.00  0.00     0.255 C 
ATOM     16  O   UNL A   1      33.442  28.308  27.446  1.00  0.00    -0.269 OA
ATOM     17  H   UNL A   1      33.838  30.045  28.742  1.00  0.00     0.170 HD
BRANCH  15  18
ATOM     18  C   UNL A   1      33.148  29.475  25.452  1.00  0.00     0.043 A 
ATOM     19  C   UNL A   1      31.026  31.278  25.809  1.00  0.00     0.045 C 
ATOM     20  C   UNL A   1      31.431  29.987  25.146  1.00  0.00    -0.038 A 
ATOM     21  C   UNL A   1      30.345  29.020  23.966  1.00  0.00     0.004 A 
ATOM     22  C   UNL A   1      31.023  27.529  23.056  1.00  0.00     0.000 A 
ATOM     23  C   UNL A   1      33.875  28.060  24.481  1.00  0.00     0.014 A 
ATOM     24  C   UNL A   1      32.794  27.027  23.320  1.00  0.00     0.001 A 
ENDBRANCH  15  18
ENDBRANCH   9  14
BRANCH  11  25
ATOM     25  N   UNL A   1      36.598  30.936  29.001  1.00  0.00    -0.359 N 
ATOM     26  C   UNL A   1      36.288  30.299  30.325  1.00  0.00     0.178 C 
ATOM     27  C   UNL A   1      38.024  30.926  28.706  1.00  0.00     0.178 C 
ATOM     28  C   UNL A   1      37.187  29.084  30.718  1.00  0.00     0.284 C 
ATOM     29  C   UNL A   1      38.538  29.484  28.808  1.00  0.00     0.284 C 
ATOM     30  N   UNL A   1      38.559  29.004  30.186  1.00  0.00    -0.324 N 
ATOM     31  H   UNL A   1      38.824  28.019  30.218  1.00  0.00     0.348 HD
BRANCH  30  32
ATOM     32  C   UNL A   1      39.661  29.543  31.014  1.00  0.00     0.364 C 
BRANCH  32  33
ATOM     33  C   UNL A   1      40.818  28.628  31.410  1.00  0.00     0.279 C 
ATOM     34  O   UNL A   1      40.755  28.023  32.494  1.00  0.00    -0.268 OA
ATOM     35  N   UNL A   1      41.929  28.366  30.653  1.00  0.00    -0.321 N 
ATOM     36  H   UNL A   1      42.424  27.590  31.002  1.00  0.00     0.170 HD
BRANCH  35  37
ATOM     37  C   UNL A   1      42.563  28.906  29.508  1.00  0.00     0.041 A 
ATOM     38  C   UNL A   1      43.235  27.978  28.687  1.00  0.00     0.029 A 
ATOM     39  C   UNL A   1      42.677  30.255  29.183  1.00  0.00     0.029 A 
ATOM     40  C   UNL A   1      44.057  28.391  27.630  1.00  0.00     0.041 A 
ATOM     41  C   UNL A   1      43.542  30.678  28.159  1.00  0.00     0.041 A 
ATOM     42  C   UNL A   1      44.224  29.745  27.392  1.00  0.00     0.123 A 
ATOM     43  F   UNL A   1      45.028  30.153  26.405  1.00  0.00    -0.207 F 
ENDBRANCH  35  37
ENDBRANCH  32  33
ENDBRANCH  30  32
ENDBRANCH  11  25
ENDBRANCH   6   8
ENDBRANCH   5   6
ENDBRANCH   4   5
ENDBRANCH   3   4
ENDBRANCH   2   3
ENDBRANCH   1   2
BRANCH   1  44
ATOM     44  C   UNL A   1      38.046  33.945  33.065  1.00  0.00     0.188 C 
BRANCH  44  45
ATOM     45  O   UNL A   1      37.771  32.700  32.484  1.00  0.00    -0.376 OA
BRANCH  45  46
ATOM     46  C   UNL A   1      37.279  31.745  33.425  1.00  0.00     0.202 C 
BRANCH  46  47
ATOM     47  C   UNL A   1      38.236  30.863  34.355  1.00  0.00     0.261 C 
BRANCH  47  48
ATOM     48  O   UNL A   1      39.504  31.489  34.860  1.00  0.00    -0.460 OA
BRANCH  48  49
ATOM     49  C   UNL A   1      39.892  32.053  36.065  1.00  0.00     0.338 C 
ATOM     50  O   UNL A   1      39.124  32.113  37.025  1.00  0.00    -0.246 OA
BRANCH  49  51
ATOM     51  C   UNL A   1      41.362  32.210  36.381  1.00  0.00     0.060 A 
ATOM     52  C   UNL A   1      42.140  33.164  35.770  1.00  0.00     0.016 A 
ATOM     53  C   UNL A   1      42.027  31.599  37.434  1.00  0.00     0.016 A 
ATOM     54  C   UNL A   1      43.548  33.067  35.873  1.00  0.00     0.010 A 
ATOM     55  C   UNL A   1      43.414  31.334  37.312  1.00  0.00     0.010 A 
ATOM     56  C   UNL A   1      44.150  31.879  36.262  1.00  0.00    -0.014 A 
BRANCH  56  57
ATOM     57  C   UNL A   1      45.414  31.116  35.744  1.00  0.00     0.031 A 
ATOM     58  C   UNL A   1      45.263  30.637  34.339  1.00  0.00     0.074 A 
ATOM     59  C   UNL A   1      46.522  30.425  36.314  1.00  0.00     0.049 A 
ATOM     60  N   UNL A   1      46.012  29.683  33.959  1.00  0.00    -0.248 NA
ATOM     61  C   UNL A   1      44.221  30.977  33.429  1.00  0.00     0.031 C 
ATOM     62  C   UNL A   1      47.862  30.140  35.725  1.00  0.00     0.029 A 
ATOM     63  N   UNL A   1      46.786  29.846  37.550  1.00  0.00    -0.354 N 
ATOM     64  C   UNL A   1      45.750  29.001  32.717  1.00  0.00     0.074 A 
ATOM     65  C   UNL A   1      44.558  30.200  32.399  1.00  0.00     0.031 C 
ATOM     66  C   UNL A   1      48.572  29.267  36.486  1.00  0.00     0.029 A 
ATOM     67  C   UNL A   1      47.846  29.005  37.701  1.00  0.00     0.049 A 
ATOM     68  H   UNL A   1      46.204  30.043  38.318  1.00  0.00     0.167 HD
ATOM     69  C   UNL A   1      46.492  27.483  31.901  1.00  0.00     0.034 A 
ATOM     70  C   UNL A   1      48.048  28.157  38.749  1.00  0.00     0.034 A 
ATOM     71  C   UNL A   1      47.789  26.428  32.472  1.00  0.00     0.049 A 
ATOM     72  C   UNL A   1      48.472  26.810  38.220  1.00  0.00     0.074 A 
ATOM     73  C   UNL A   1      49.194  26.656  32.531  1.00  0.00     0.029 A 
ATOM     74  N   UNL A   1      47.652  25.326  33.335  1.00  0.00    -0.354 N 
ATOM     75  N   UNL A   1      48.568  26.544  36.938  1.00  0.00    -0.248 NA
ATOM     76  C   UNL A   1      48.762  25.649  39.057  1.00  0.00     0.031 C 
ATOM     77  C   UNL A   1      49.695  26.088  33.734  1.00  0.00     0.029 A 
ATOM     78  C   UNL A   1      48.674  25.366  34.321  1.00  0.00     0.049 A 
ATOM     79  H   UNL A   1      46.954  24.634  33.268  1.00  0.00     0.167 HD
ATOM     80  C   UNL A   1      48.762  25.197  36.767  1.00  0.00     0.074 A 
ATOM     81  C   UNL A   1      48.960  24.699  38.124  1.00  0.00     0.031 C 
ATOM     82  C   UNL A   1      48.685  24.562  35.553  1.00  0.00     0.034 A 
BRANCH  69  83
ATOM     83  C   UNL A   1      46.640  26.939  30.144  1.00  0.00     0.023 A 
ATOM     84  C   UNL A   1      45.766  25.872  29.778  1.00  0.00     0.012 A 
ATOM     85  C   UNL A   1      47.761  27.026  29.259  1.00  0.00     0.148 A 
ATOM     86  C   UNL A   1      46.096  24.829  28.899  1.00  0.00     0.002 A 
ATOM     87  C   UNL A   1      48.166  25.918  28.482  1.00  0.00     0.091 A 
ATOM     88  F   UNL A   1      48.449  28.172  29.137  1.00  0.00    -0.205 F 
ATOM     89  C   UNL A   1      47.345  24.805  28.323  1.00  0.00     0.022 A 
BRANCH  87  90
ATOM     90  S   UNL A   1      49.887  25.734  27.960  1.00  0.00     0.127 S 
ATOM     91  O   UNL A   1      50.636  26.079  29.174  1.00  0.00    -0.237 OA
ATOM     92  O   UNL A   1      49.967  24.327  27.583  1.00  0.00    -0.237 OA
ATOM     93  O   UNL A   1      50.056  26.708  26.886  1.00  0.00    -0.744 OA
ENDBRANCH  87  90
ENDBRANCH  69  83
BRANCH  70  94
ATOM     94  C   UNL A   1      47.519  28.584  40.131  1.00  0.00     0.023 A 
ATOM     95  C   UNL A   1      46.370  27.858  40.549  1.00  0.00     0.012 A 
ATOM     96  C   UNL A   1      48.131  29.392  41.135  1.00  0.00     0.148 A 
ATOM     97  C   UNL A   1      45.956  27.779  41.889  1.00  0.00     0.002 A 
ATOM     98  C   UNL A   1      47.703  29.323  42.493  1.00  0.00     0.091 A 
ATOM     99  F   UNL A   1      49.148  30.185  40.774  1.00  0.00    -0.205 F 
ATOM    100  C   UNL A   1      46.650  28.474  42.864  1.00  0.00     0.022 A 
BRANCH  98 101
ATOM    101  S   UNL A   1      48.476  30.197  43.910  1.00  0.00     0.127 S 
ATOM    102  O   UNL A   1      47.344  30.959  44.435  1.00  0.00    -0.237 OA
ATOM    103  O   UNL A   1      48.913  29.115  44.791  1.00  0.00    -0.237 OA
ATOM    104  O   UNL A   1      49.543  31.008  43.343  1.00  0.00    -0.744 OA
ENDBRANCH  98 101
ENDBRANCH  70  94
BRANCH  82 105
ATOM    105  C   UNL A   1      48.680  23.069  35.412  1.00  0.00     0.023 A 
ATOM    106  C   UNL A   1      47.521  22.325  35.126  1.00  0.00     0.012 A 
ATOM    107  C   UNL A   1      49.918  22.406  35.331  1.00  0.00     0.148 A 
ATOM    108  C   UNL A   1      47.600  20.975  34.774  1.00  0.00     0.002 A 
ATOM    109  C   UNL A   1      49.998  21.136  34.794  1.00  0.00     0.091 A 
ATOM    110  F   UNL A   1      51.040  23.012  35.751  1.00  0.00    -0.205 F 
ATOM    111  C   UNL A   1      48.844  20.394  34.553  1.00  0.00     0.022 A 
BRANCH 109 112
ATOM    112  S   UNL A   1      51.567  20.626  34.087  1.00  0.00     0.127 S 
ATOM    113  O   UNL A   1      52.531  21.166  35.040  1.00  0.00    -0.237 OA
ATOM    114  O   UNL A   1      51.449  19.167  34.083  1.00  0.00    -0.237 OA
ATOM    115  O   UNL A   1      51.552  21.223  32.756  1.00  0.00    -0.744 OA
ENDBRANCH 109 112
ENDBRANCH  82 105
ENDBRANCH  56  57
ENDBRANCH  49  51
ENDBRANCH  48  49
ENDBRANCH  47  48
ENDBRANCH  46  47
ENDBRANCH  45  46
ENDBRANCH  44  45
ENDBRANCH   1  44
TORSDOF 26
ENDMDL
MODEL 2
REMARK VINA RESULT:      -8.8      2.225      2.849
REMARK SMILES Cc1ccccc1C(=O)Nc1cc(C(=O)OCCOCCOCCOC(=O)c2ccc(-c3c4nc(c(-c5cccc(S(=O)(=O)[O-])c5F)c5ccc([nH]5)c(-c5cccc(S(=O)(=O)[O-])c5F)c5nc(c(-c6cccc(S(=O)(=O)[O-])c6F)c6ccc3[nH]6)C=C5)C=C4)cc2)ccc1N1CC[NH+](CC(=O)Nc2ccc(F)cc2)CC1
REMARK SMILES IDX 20 1 19 2 18 3 17 4 16 5 14 6 15 7 13 8 11 9 12 10 93 11
REMARK SMILES IDX 92 12 91 13 10 14 8 15 9 16 7 18 1 19 2 20 3 21 4 22 6 23
REMARK SMILES IDX 5 24 94 25 95 26 110 27 96 28 109 29 97 30 98 32 99 33
REMARK SMILES IDX 100 34 101 35 102 37 103 38 108 39 104 40 107 41 105 42
REMARK SMILES IDX 106 43 21 44 22 45 23 46 24 47 25 48 26 49 27 50 28 51 29 52
REMARK SMILES IDX 90 53 30 54 89 55 31 56 32 57 33 58 83 59 34 60 88 61 82 62
REMARK SMILES IDX 84 63 35 64 87 65 81 66 80 67 36 69 68 70 48 71 67 72 49 73
REMARK SMILES IDX 52 74 66 75 85 76 50 77 51 78 65 80 86 81 53 82 37 83 38 84
REMARK SMILES IDX 46 85 39 86 41 87 47 88 40 89 42 90 43 91 44 92 45 93 69 94
REMARK SMILES IDX 70 95 78 96 71 97 73 98 79 99 72 100 74 101 75 102 76 103
REMARK SMILES IDX 77 104 54 105 55 106 63 107 56 108 58 109 64 110 57 111
REMARK SMILES IDX 59 112 60 113 61 114 62 115
REMARK H PARENT 10 17 97 31 101 36 84 68 52 79
REMARK Flexibility Score: inf
ROOT
ATOM      1  C   UNL A   1      36.394  34.200  34.411  1.00  0.00     0.188 C 
ENDROOT
BRANCH   1   2
ATOM      2  O   UNL A   1      35.410  35.177  34.106  1.00  0.00    -0.376 OA
BRANCH   2   3
ATOM      3  C   UNL A   1      35.060  35.281  32.734  1.00  0.00     0.202 C 
BRANCH   3   4
ATOM      4  C   UNL A   1      33.768  36.024  32.376  1.00  0.00     0.261 C 
BRANCH   4   5
ATOM      5  O   UNL A   1      33.078  36.149  30.978  1.00  0.00    -0.460 OA
BRANCH   5   6
ATOM      6  C   UNL A   1      32.998  35.731  29.592  1.00  0.00     0.338 C 
ATOM      7  O   UNL A   1      32.204  36.449  28.973  1.00  0.00    -0.246 OA
BRANCH   6   8
ATOM      8  C   UNL A   1      33.714  34.551  28.526  1.00  0.00     0.062 A 
ATOM      9  C   UNL A   1      34.168  32.040  28.092  1.00  0.00     0.065 A 
ATOM     10  C   UNL A   1      33.348  33.223  28.038  1.00  0.00     0.044 A 
ATOM     11  C   UNL A   1      35.493  32.225  28.570  1.00  0.00     0.061 A 
ATOM     12  C   UNL A   1      35.936  33.565  28.606  1.00  0.00     0.029 A 
ATOM     13  C   UNL A   1      35.083  34.671  28.580  1.00  0.00     0.018 A 
BRANCH   9  14
ATOM     14  N   UNL A   1      33.693  30.679  27.924  1.00  0.00    -0.320 N 
ATOM     15  C   UNL A   1      33.371  29.631  27.031  1.00  0.00     0.255 C 
ATOM     16  O   UNL A   1      33.218  28.533  27.597  1.00  0.00    -0.269 OA
ATOM     17  H   UNL A   1      33.520  30.334  28.830  1.00  0.00     0.170 HD
BRANCH  15  18
ATOM     18  C   UNL A   1      33.089  29.598  25.529  1.00  0.00     0.043 A 
ATOM     19  C   UNL A   1      30.898  31.349  25.636  1.00  0.00     0.045 C 
ATOM     20  C   UNL A   1      31.389  30.045  25.066  1.00  0.00    -0.038 A 
ATOM     21  C   UNL A   1      30.427  28.996  23.849  1.00  0.00     0.004 A 
ATOM     22  C   UNL A   1      31.216  27.489  23.062  1.00  0.00     0.000 A 
ATOM     23  C   UNL A   1      33.928  28.165  24.683  1.00  0.00     0.014 A 
ATOM     24  C   UNL A   1      32.972  27.052  23.487  1.00  0.00     0.001 A 
ENDBRANCH  15  18
ENDBRANCH   9  14
BRANCH  11  25
ATOM     25  N   UNL A   1      36.363  31.223  29.036  1.00  0.00    -0.359 N 
ATOM     26  C   UNL A   1      36.087  30.621  30.383  1.00  0.00     0.178 C 
ATOM     27  C   UNL A   1      37.781  31.210  28.707  1.00  0.00     0.178 C 
ATOM     28  C   UNL A   1      37.000  29.420  30.788  1.00  0.00     0.284 C 
ATOM     29  C   UNL A   1      38.304  29.774  28.836  1.00  0.00     0.284 C 
ATOM     30  N   UNL A   1      38.360  29.331  30.226  1.00  0.00    -0.324 N 
ATOM     31  H   UNL A   1      38.630  28.349  30.278  1.00  0.00     0.348 HD
BRANCH  30  32
ATOM     32  C   UNL A   1      39.478  29.897  31.013  1.00  0.00     0.364 C 
BRANCH  32  33
ATOM     33  C   UNL A   1      40.784  29.112  31.131  1.00  0.00     0.279 C 
ATOM     34  O   UNL A   1      40.742  27.948  31.565  1.00  0.00    -0.268 OA
ATOM     35  N   UNL A   1      42.024  29.558  30.759  1.00  0.00    -0.321 N 
ATOM     36  H   UNL A   1      42.672  28.817  30.717  1.00  0.00     0.170 HD
BRANCH  35  37
ATOM     37  C   UNL A   1      42.633  30.790  30.419  1.00  0.00     0.041 A 
ATOM     38  C   UNL A   1      42.726  31.734  31.463  1.00  0.00     0.029 A 
ATOM     39  C   UNL A   1      43.039  31.191  29.149  1.00  0.00     0.029 A 
ATOM     40  C   UNL A   1      43.133  33.053  31.226  1.00  0.00     0.041 A 
ATOM     41  C   UNL A   1      43.395  32.527  28.896  1.00  0.00     0.041 A 
ATOM     42  C   UNL A   1      43.439  33.445  29.934  1.00  0.00     0.123 A 
ATOM     43  F   UNL A   1      43.800  34.709  29.689  1.00  0.00    -0.207 F 
ENDBRANCH  35  37
ENDBRANCH  32  33
ENDBRANCH  30  32
ENDBRANCH  11  25
ENDBRANCH   6   8
ENDBRANCH   5   6
ENDBRANCH   4   5
ENDBRANCH   3   4
ENDBRANCH   2   3
ENDBRANCH   1   2
BRANCH   1  44
ATOM     44  C   UNL A   1      37.403  33.912  33.293  1.00  0.00     0.188 C 
BRANCH  44  45
ATOM     45  O   UNL A   1      37.650  32.565  32.995  1.00  0.00    -0.376 OA
BRANCH  45  46
ATOM     46  C   UNL A   1      37.944  31.784  34.153  1.00  0.00     0.202 C 
BRANCH  46  47
ATOM     47  C   UNL A   1      39.398  31.718  34.816  1.00  0.00     0.261 C 
BRANCH  47  48
ATOM     48  O   UNL A   1      40.375  30.711  34.279  1.00  0.00    -0.460 OA
BRANCH  48  49
ATOM     49  C   UNL A   1      41.090  29.663  34.836  1.00  0.00     0.338 C 
ATOM     50  O   UNL A   1      40.745  28.493  34.679  1.00  0.00    -0.246 OA
BRANCH  49  51
ATOM     51  C   UNL A   1      42.522  29.880  35.270  1.00  0.00     0.060 A 
ATOM     52  C   UNL A   1      43.165  31.080  35.086  1.00  0.00     0.016 A 
ATOM     53  C   UNL A   1      43.257  29.017  36.071  1.00  0.00     0.016 A 
ATOM     54  C   UNL A   1      44.572  31.131  35.228  1.00  0.00     0.010 A 
ATOM     55  C   UNL A   1      44.669  28.993  35.942  1.00  0.00     0.010 A 
ATOM     56  C   UNL A   1      45.330  29.969  35.201  1.00  0.00    -0.014 A 
BRANCH  56  57
ATOM     57  C   UNL A   1      46.692  29.612  34.517  1.00  0.00     0.031 A 
ATOM     58  C   UNL A   1      46.527  29.167  33.102  1.00  0.00     0.074 A 
ATOM     59  C   UNL A   1      48.001  29.236  34.934  1.00  0.00     0.049 A 
ATOM     60  N   UNL A   1      47.464  28.477  32.589  1.00  0.00    -0.248 NA
ATOM     61  C   UNL A   1      45.340  29.238  32.318  1.00  0.00     0.031 C 
ATOM     62  C   UNL A   1      49.296  29.361  34.206  1.00  0.00     0.029 A 
ATOM     63  N   UNL A   1      48.545  28.703  36.097  1.00  0.00    -0.354 N 
ATOM     64  C   UNL A   1      47.267  27.800  31.333  1.00  0.00     0.074 A 
ATOM     65  C   UNL A   1      45.765  28.630  31.209  1.00  0.00     0.031 C 
ATOM     66  C   UNL A   1      50.296  28.691  34.836  1.00  0.00     0.029 A 
ATOM     67  C   UNL A   1      49.805  28.187  36.092  1.00  0.00     0.049 A 
ATOM     68  H   UNL A   1      48.017  28.699  36.927  1.00  0.00     0.167 HD
ATOM     69  C   UNL A   1      48.305  26.585  30.349  1.00  0.00     0.034 A 
ATOM     70  C   UNL A   1      50.342  27.387  37.056  1.00  0.00     0.034 A 
ATOM     71  C   UNL A   1      49.894  25.913  30.725  1.00  0.00     0.049 A 
ATOM     72  C   UNL A   1      51.060  26.236  36.399  1.00  0.00     0.074 A 
ATOM     73  C   UNL A   1      51.181  26.522  30.670  1.00  0.00     0.029 A 
ATOM     74  N   UNL A   1      50.158  24.782  31.519  1.00  0.00    -0.354 N 
ATOM     75  N   UNL A   1      51.087  26.060  35.098  1.00  0.00    -0.248 NA
ATOM     76  C   UNL A   1      51.745  25.169  37.123  1.00  0.00     0.031 C 
ATOM     77  C   UNL A   1      51.945  26.068  31.780  1.00  0.00     0.029 A 
ATOM     78  C   UNL A   1      51.230  25.066  32.407  1.00  0.00     0.049 A 
ATOM     79  H   UNL A   1      49.673  23.926  31.469  1.00  0.00     0.167 HD
ATOM     80  C   UNL A   1      51.623  24.829  34.817  1.00  0.00     0.074 A 
ATOM     81  C   UNL A   1      52.095  24.351  36.113  1.00  0.00     0.031 C 
ATOM     82  C   UNL A   1      51.593  24.247  33.575  1.00  0.00     0.034 A 
BRANCH  69  83
ATOM     83  C   UNL A   1      48.406  26.176  28.553  1.00  0.00     0.023 A 
ATOM     84  C   UNL A   1      49.012  27.187  27.748  1.00  0.00     0.012 A 
ATOM     85  C   UNL A   1      47.577  25.311  27.772  1.00  0.00     0.148 A 
ATOM     86  C   UNL A   1      48.611  27.525  26.447  1.00  0.00     0.002 A 
ATOM     87  C   UNL A   1      47.066  25.722  26.521  1.00  0.00     0.091 A 
ATOM     88  F   UNL A   1      47.274  24.077  28.206  1.00  0.00    -0.205 F 
ATOM     89  C   UNL A   1      47.563  26.848  25.869  1.00  0.00     0.022 A 
BRANCH  87  90
ATOM     90  S   UNL A   1      45.519  25.036  25.882  1.00  0.00     0.127 S 
ATOM     91  O   UNL A   1      45.884  23.651  25.561  1.00  0.00    -0.237 OA
ATOM     92  O   UNL A   1      44.608  25.171  27.014  1.00  0.00    -0.237 OA
ATOM     93  O   UNL A   1      45.217  25.838  24.701  1.00  0.00    -0.744 OA
ENDBRANCH  87  90
ENDBRANCH  69  83
BRANCH  70  94
ATOM     94  C   UNL A   1      49.868  27.593  38.507  1.00  0.00     0.023 A 
ATOM     95  C   UNL A   1      48.677  26.882  38.821  1.00  0.00     0.012 A 
ATOM     96  C   UNL A   1      50.553  28.164  39.620  1.00  0.00     0.148 A 
ATOM     97  C   UNL A   1      48.282  26.591  40.138  1.00  0.00     0.002 A 
ATOM     98  C   UNL A   1      50.144  27.880  40.957  1.00  0.00     0.091 A 
ATOM     99  F   UNL A   1      51.618  28.938  39.378  1.00  0.00    -0.205 F 
ATOM    100  C   UNL A   1      49.040  27.050  41.201  1.00  0.00     0.022 A 
BRANCH  98 101
ATOM    101  S   UNL A   1      51.000  28.431  42.483  1.00  0.00     0.127 S 
ATOM    102  O   UNL A   1      51.545  29.721  42.063  1.00  0.00    -0.237 OA
ATOM    103  O   UNL A   1      49.924  28.541  43.468  1.00  0.00    -0.237 OA
ATOM    104  O   UNL A   1      52.001  27.413  42.768  1.00  0.00    -0.744 OA
ENDBRANCH  98 101
ENDBRANCH  70  94
BRANCH  82 105
ATOM    105  C   UNL A   1      51.983  22.820  33.332  1.00  0.00     0.023 A 
ATOM    106  C   UNL A   1      53.042  22.443  32.485  1.00  0.00     0.012 A 
ATOM    107  C   UNL A   1      51.424  21.829  34.158  1.00  0.00     0.148 A 
ATOM    108  C   UNL A   1      53.519  21.130  32.468  1.00  0.00     0.002 A 
ATOM    109  C   UNL A   1      52.028  20.593  34.276  1.00  0.00     0.091 A 
ATOM    110  F   UNL A   1      50.309  22.084  34.861  1.00  0.00    -0.205 F 
ATOM    111  C   UNL A   1      53.049  20.216  33.405  1.00  0.00     0.022 A 
BRANCH 109 112
ATOM    112  S   UNL A   1      51.728  19.656  35.777  1.00  0.00     0.127 S 
ATOM    113  O   UNL A   1      50.441  19.025  35.500  1.00  0.00    -0.237 OA
ATOM    114  O   UNL A   1      52.871  18.743  35.811  1.00  0.00    -0.237 OA
ATOM    115  O   UNL A   1      51.750  20.671  36.824  1.00  0.00    -0.744 OA
ENDBRANCH 109 112
ENDBRANCH  82 105
ENDBRANCH  56  57
ENDBRANCH  49  51
ENDBRANCH  48  49
ENDBRANCH  47  48
ENDBRANCH  46  47
ENDBRANCH  45  46
ENDBRANCH  44  45
ENDBRANCH   1  44
TORSDOF 26
ENDMDL
MODEL 3
REMARK VINA RESULT:      -7.9      6.528     12.621
REMARK SMILES Cc1ccccc1C(=O)Nc1cc(C(=O)OCCOCCOCCOC(=O)c2ccc(-c3c4nc(c(-c5cccc(S(=O)(=O)[O-])c5F)c5ccc([nH]5)c(-c5cccc(S(=O)(=O)[O-])c5F)c5nc(c(-c6cccc(S(=O)(=O)[O-])c6F)c6ccc3[nH]6)C=C5)C=C4)cc2)ccc1N1CC[NH+](CC(=O)Nc2ccc(F)cc2)CC1
REMARK SMILES IDX 20 1 19 2 18 3 17 4 16 5 14 6 15 7 13 8 11 9 12 10 93 11
REMARK SMILES IDX 92 12 91 13 10 14 8 15 9 16 7 18 1 19 2 20 3 21 4 22 6 23
REMARK SMILES IDX 5 24 94 25 95 26 110 27 96 28 109 29 97 30 98 32 99 33
REMARK SMILES IDX 100 34 101 35 102 37 103 38 108 39 104 40 107 41 105 42
REMARK SMILES IDX 106 43 21 44 22 45 23 46 24 47 25 48 26 49 27 50 28 51 29 52
REMARK SMILES IDX 90 53 30 54 89 55 31 56 32 57 33 58 83 59 34 60 88 61 82 62
REMARK SMILES IDX 84 63 35 64 87 65 81 66 80 67 36 69 68 70 48 71 67 72 49 73
REMARK SMILES IDX 52 74 66 75 85 76 50 77 51 78 65 80 86 81 53 82 37 83 38 84
REMARK SMILES IDX 46 85 39 86 41 87 47 88 40 89 42 90 43 91 44 92 45 93 69 94
REMARK SMILES IDX 70 95 78 96 71 97 73 98 79 99 72 100 74 101 75 102 76 103
REMARK SMILES IDX 77 104 54 105 55 106 63 107 56 108 58 109 64 110 57 111
REMARK SMILES IDX 59 112 60 113 61 114 62 115
REMARK H PARENT 10 17 97 31 101 36 84 68 52 79
REMARK Flexibility Score: inf
ROOT
ATOM      1  C   UNL A   1      46.590  44.127  38.110  1.00  0.00     0.188 C 
ENDROOT
BRANCH   1   2
ATOM      2  O   UNL A   1      45.278  43.607  37.965  1.00  0.00    -0.376 OA
BRANCH   2   3
ATOM      3  C   UNL A   1      44.913  42.604  38.901  1.00  0.00     0.202 C 
BRANCH   3   4
ATOM      4  C   UNL A   1      44.141  41.384  38.384  1.00  0.00     0.261 C 
BRANCH   4   5
ATOM      5  O   UNL A   1      43.556  40.189  39.205  1.00  0.00    -0.460 OA
BRANCH   5   6
ATOM      6  C   UNL A   1      42.885  39.716  40.400  1.00  0.00     0.338 C 
ATOM      7  O   UNL A   1      43.344  40.280  41.400  1.00  0.00    -0.246 OA
BRANCH   6   8
ATOM      8  C   UNL A   1      41.600  38.625  40.850  1.00  0.00     0.062 A 
ATOM      9  C   UNL A   1      40.951  36.185  41.414  1.00  0.00     0.065 A 
ATOM     10  C   UNL A   1      41.464  37.486  41.755  1.00  0.00     0.044 A 
ATOM     11  C   UNL A   1      40.436  36.046  40.097  1.00  0.00     0.061 A 
ATOM     12  C   UNL A   1      40.183  37.260  39.422  1.00  0.00     0.029 A 
ATOM     13  C   UNL A   1      40.738  38.489  39.788  1.00  0.00     0.018 A 
BRANCH   9  14
ATOM     14  N   UNL A   1      41.126  34.978  42.202  1.00  0.00    -0.320 N 
ATOM     15  C   UNL A   1      40.588  33.738  42.617  1.00  0.00     0.255 C 
ATOM     16  O   UNL A   1      41.422  33.002  43.174  1.00  0.00    -0.269 OA
ATOM     17  H   UNL A   1      42.005  35.058  42.637  1.00  0.00     0.170 HD
BRANCH  15  18
ATOM     18  C   UNL A   1      39.172  33.163  42.598  1.00  0.00     0.043 A 
ATOM     19  C   UNL A   1      38.080  35.098  44.312  1.00  0.00     0.045 C 
ATOM     20  C   UNL A   1      38.146  33.621  44.026  1.00  0.00    -0.038 A 
ATOM     21  C   UNL A   1      37.154  32.323  44.941  1.00  0.00     0.004 A 
ATOM     22  C   UNL A   1      37.174  30.537  44.375  1.00  0.00     0.000 A 
ATOM     23  C   UNL A   1      39.127  31.415  41.954  1.00  0.00     0.014 A 
ATOM     24  C   UNL A   1      38.177  30.065  42.883  1.00  0.00     0.001 A 
ENDBRANCH  15  18
ENDBRANCH   9  14
BRANCH  11  25
ATOM     25  N   UNL A   1      40.201  34.840  39.412  1.00  0.00    -0.359 N 
ATOM     26  C   UNL A   1      41.323  34.260  38.603  1.00  0.00     0.178 C 
ATOM     27  C   UNL A   1      38.894  34.498  38.867  1.00  0.00     0.178 C 
ATOM     28  C   UNL A   1      41.051  32.855  37.978  1.00  0.00     0.284 C 
ATOM     29  C   UNL A   1      38.802  32.973  38.730  1.00  0.00     0.284 C 
ATOM     30  N   UNL A   1      39.664  32.464  37.667  1.00  0.00    -0.324 N 
ATOM     31  H   UNL A   1      39.648  31.444  37.652  1.00  0.00     0.348 HD
BRANCH  30  32
ATOM     32  C   UNL A   1      39.163  32.700  36.295  1.00  0.00     0.364 C 
BRANCH  32  33
ATOM     33  C   UNL A   1      38.229  31.677  35.651  1.00  0.00     0.279 C 
ATOM     34  O   UNL A   1      37.805  30.739  36.346  1.00  0.00    -0.268 OA
ATOM     35  N   UNL A   1      37.767  31.712  34.362  1.00  0.00    -0.321 N 
ATOM     36  H   UNL A   1      37.016  31.088  34.235  1.00  0.00     0.170 HD
BRANCH  35  37
ATOM     37  C   UNL A   1      38.073  32.397  33.161  1.00  0.00     0.041 A 
ATOM     38  C   UNL A   1      37.775  33.775  33.151  1.00  0.00     0.029 A 
ATOM     39  C   UNL A   1      38.528  31.827  31.975  1.00  0.00     0.029 A 
ATOM     40  C   UNL A   1      37.851  34.534  31.976  1.00  0.00     0.041 A 
ATOM     41  C   UNL A   1      38.554  32.570  30.783  1.00  0.00     0.041 A 
ATOM     42  C   UNL A   1      38.216  33.915  30.793  1.00  0.00     0.123 A 
ATOM     43  F   UNL A   1      38.264  34.622  29.659  1.00  0.00    -0.207 F 
ENDBRANCH  35  37
ENDBRANCH  32  33
ENDBRANCH  30  32
ENDBRANCH  11  25
ENDBRANCH   6   8
ENDBRANCH   5   6
ENDBRANCH   4   5
ENDBRANCH   3   4
ENDBRANCH   2   3
ENDBRANCH   1   2
BRANCH   1  44
ATOM     44  C   UNL A   1      47.707  43.277  37.491  1.00  0.00     0.188 C 
BRANCH  44  45
ATOM     45  O   UNL A   1      47.617  43.019  36.117  1.00  0.00    -0.376 OA
BRANCH  45  46
ATOM     46  C   UNL A   1      48.456  41.942  35.698  1.00  0.00     0.202 C 
BRANCH  46  47
ATOM     47  C   UNL A   1      48.419  41.330  34.221  1.00  0.00     0.261 C 
BRANCH  47  48
ATOM     48  O   UNL A   1      47.448  40.218  33.940  1.00  0.00    -0.460 OA
BRANCH  48  49
ATOM     49  C   UNL A   1      46.073  40.085  34.043  1.00  0.00     0.338 C 
ATOM     50  O   UNL A   1      45.307  40.899  33.529  1.00  0.00    -0.246 OA
BRANCH  49  51
ATOM     51  C   UNL A   1      45.474  38.743  34.397  1.00  0.00     0.060 A 
ATOM     52  C   UNL A   1      46.222  37.591  34.407  1.00  0.00     0.016 A 
ATOM     53  C   UNL A   1      44.215  38.546  34.948  1.00  0.00     0.016 A 
ATOM     54  C   UNL A   1      45.557  36.343  34.445  1.00  0.00     0.010 A 
ATOM     55  C   UNL A   1      43.541  37.323  34.706  1.00  0.00     0.010 A 
ATOM     56  C   UNL A   1      44.210  36.248  34.125  1.00  0.00    -0.014 A 
BRANCH  56  57
ATOM     57  C   UNL A   1      43.395  35.214  33.278  1.00  0.00     0.031 A 
ATOM     58  C   UNL A   1      43.356  33.860  33.904  1.00  0.00     0.074 A 
ATOM     59  C   UNL A   1      42.984  35.070  31.921  1.00  0.00     0.049 A 
ATOM     60  N   UNL A   1      43.099  32.870  33.148  1.00  0.00    -0.248 NA
ATOM     61  C   UNL A   1      43.789  33.513  35.216  1.00  0.00     0.031 C 
ATOM     62  C   UNL A   1      41.854  34.279  31.356  1.00  0.00     0.029 A 
ATOM     63  N   UNL A   1      43.403  35.603  30.708  1.00  0.00    -0.354 N 
ATOM     64  C   UNL A   1      43.296  31.523  33.620  1.00  0.00     0.074 A 
ATOM     65  C   UNL A   1      43.599  32.194  35.175  1.00  0.00     0.031 C 
ATOM     66  C   UNL A   1      41.914  34.212  30.001  1.00  0.00     0.029 A 
ATOM     67  C   UNL A   1      42.986  35.052  29.535  1.00  0.00     0.049 A 
ATOM     68  H   UNL A   1      44.004  36.382  30.696  1.00  0.00     0.167 HD
ATOM     69  C   UNL A   1      43.199  29.842  32.792  1.00  0.00     0.034 A 
ATOM     70  C   UNL A   1      43.534  35.278  28.308  1.00  0.00     0.034 A 
ATOM     71  C   UNL A   1      42.811  29.443  31.116  1.00  0.00     0.049 A 
ATOM     72  C   UNL A   1      43.696  33.964  27.589  1.00  0.00     0.074 A 
ATOM     73  C   UNL A   1      41.559  29.465  30.437  1.00  0.00     0.029 A 
ATOM     74  N   UNL A   1      43.711  29.408  30.034  1.00  0.00    -0.354 N 
ATOM     75  N   UNL A   1      43.382  32.809  28.131  1.00  0.00    -0.248 NA
ATOM     76  C   UNL A   1      44.265  33.818  26.252  1.00  0.00     0.031 C 
ATOM     77  C   UNL A   1      41.767  29.952  29.118  1.00  0.00     0.029 A 
ATOM     78  C   UNL A   1      43.130  30.057  28.913  1.00  0.00     0.049 A 
ATOM     79  H   UNL A   1      44.606  28.997  30.053  1.00  0.00     0.167 HD
ATOM     80  C   UNL A   1      43.835  31.793  27.329  1.00  0.00     0.074 A 
ATOM     81  C   UNL A   1      44.303  32.479  26.129  1.00  0.00     0.031 C 
ATOM     82  C   UNL A   1      43.866  30.475  27.709  1.00  0.00     0.034 A 
BRANCH  69  83
ATOM     83  C   UNL A   1      42.844  28.144  33.420  1.00  0.00     0.023 A 
ATOM     84  C   UNL A   1      41.830  28.082  34.422  1.00  0.00     0.012 A 
ATOM     85  C   UNL A   1      43.700  26.998  33.469  1.00  0.00     0.148 A 
ATOM     86  C   UNL A   1      41.843  27.217  35.526  1.00  0.00     0.002 A 
ATOM     87  C   UNL A   1      43.807  26.215  34.640  1.00  0.00     0.091 A 
ATOM     88  F   UNL A   1      44.414  26.632  32.394  1.00  0.00    -0.205 F 
ATOM     89  C   UNL A   1      42.894  26.343  35.684  1.00  0.00     0.022 A 
BRANCH  87  90
ATOM     90  S   UNL A   1      45.315  25.284  34.996  1.00  0.00     0.127 S 
ATOM     91  O   UNL A   1      45.042  24.712  36.319  1.00  0.00    -0.237 OA
ATOM     92  O   UNL A   1      45.358  24.305  33.914  1.00  0.00    -0.237 OA
ATOM     93  O   UNL A   1      46.375  26.286  35.011  1.00  0.00    -0.744 OA
ENDBRANCH  87  90
ENDBRANCH  69  83
BRANCH  70  94
ATOM     94  C   UNL A   1      44.153  36.663  28.042  1.00  0.00     0.023 A 
ATOM     95  C   UNL A   1      45.572  36.642  27.944  1.00  0.00     0.012 A 
ATOM     96  C   UNL A   1      43.529  37.882  27.641  1.00  0.00     0.148 A 
ATOM     97  C   UNL A   1      46.314  37.664  27.327  1.00  0.00     0.002 A 
ATOM     98  C   UNL A   1      44.284  38.925  27.028  1.00  0.00     0.091 A 
ATOM     99  F   UNL A   1      42.207  38.003  27.816  1.00  0.00    -0.205 F 
ATOM    100  C   UNL A   1      45.665  38.780  26.829  1.00  0.00     0.022 A 
BRANCH  98 101
ATOM    101  S   UNL A   1      43.603  40.485  26.343  1.00  0.00     0.127 S 
ATOM    102  O   UNL A   1      43.628  41.355  27.518  1.00  0.00    -0.237 OA
ATOM    103  O   UNL A   1      44.569  40.865  25.312  1.00  0.00    -0.237 OA
ATOM    104  O   UNL A   1      42.271  40.159  25.856  1.00  0.00    -0.744 OA
ENDBRANCH  98 101
ENDBRANCH  70  94
BRANCH  82 105
ATOM    105  C   UNL A   1      44.562  29.411  26.914  1.00  0.00     0.023 A 
ATOM    106  C   UNL A   1      45.959  29.246  26.903  1.00  0.00     0.012 A 
ATOM    107  C   UNL A   1      43.780  28.393  26.339  1.00  0.00     0.148 A 
ATOM    108  C   UNL A   1      46.547  28.110  26.341  1.00  0.00     0.002 A 
ATOM    109  C   UNL A   1      44.356  27.194  25.968  1.00  0.00     0.091 A 
ATOM    110  F   UNL A   1      42.460  28.567  26.169  1.00  0.00    -0.205 F 
ATOM    111  C   UNL A   1      45.741  27.056  25.923  1.00  0.00     0.022 A 
BRANCH 109 112
ATOM    112  S   UNL A   1      43.300  25.744  25.906  1.00  0.00     0.127 S 
ATOM    113  O   UNL A   1      42.381  26.072  24.821  1.00  0.00    -0.237 OA
ATOM    114  O   UNL A   1      44.253  24.674  25.611  1.00  0.00    -0.237 OA
ATOM    115  O   UNL A   1      42.733  25.677  27.249  1.00  0.00    -0.744 OA
ENDBRANCH 109 112
ENDBRANCH  82 105
ENDBRANCH  56  57
ENDBRANCH  49  51
ENDBRANCH  48  49
ENDBRANCH  47  48
ENDBRANCH  46  47
ENDBRANCH  45  46
ENDBRANCH  44  45
ENDBRANCH   1  44
TORSDOF 26
ENDMDL
