MODEL 1
REMARK VINA RESULT:      -9.9      0.000      0.000
REMARK SMILES COc1ccc(-c2nc(NCC(=O)OCCOCCOCCOC(=O)c3ccc(-c4c5nc(c(-c6cccc(S(=O)(=O)[O-])c6F)c6ccc([nH]6)c(-c6cccc(S(=O)(=O)[O-])c6F)c6nc(c(-c7cccc(S(=O)(=O)[O-])c7F)c7ccc4[nH]7)C=C6)C=C5)cc3)sc2-c2ccc(OC)cc2)cc1
REMARK SMILES IDX 18 1 17 2 16 3 15 4 14 5 12 6 13 7 11 8 10 9 9 11 7 12 8 13
REMARK SMILES IDX 90 14 89 15 6 16 3 17 4 18 100 19 5 20 99 21 2 22 1 23 91 24
REMARK SMILES IDX 92 25 98 26 93 27 97 28 94 29 95 30 96 31 19 32 20 33 21 34
REMARK SMILES IDX 22 35 23 36 24 37 25 38 26 39 27 40 88 41 28 42 87 43 29 44
REMARK SMILES IDX 30 45 31 46 81 47 32 48 86 49 80 50 82 51 33 52 85 53 79 54
REMARK SMILES IDX 78 55 34 57 66 58 46 59 65 60 47 61 50 62 64 63 83 64 48 65
REMARK SMILES IDX 49 66 63 68 84 69 51 70 35 71 36 72 44 73 37 74 39 75 45 76
REMARK SMILES IDX 38 77 40 78 41 79 42 80 43 81 67 82 68 83 76 84 69 85 71 86
REMARK SMILES IDX 77 87 70 88 72 89 73 90 74 91 75 92 52 93 53 94 61 95 54 96
REMARK SMILES IDX 56 97 62 98 55 99 57 100 58 101 59 102 60 103
REMARK H PARENT 10 10 82 56 50 67
REMARK Flexibility Score: inf
ROOT
ATOM      1  C   UNL A   1      38.128  21.416  25.477  1.00  0.00     0.188 C 
ENDROOT
BRANCH   1   2
ATOM      2  O   UNL A   1      37.172  22.423  25.165  1.00  0.00    -0.376 OA
BRANCH   2   3
ATOM      3  C   UNL A   1      36.125  22.111  24.248  1.00  0.00     0.202 C 
BRANCH   3   4
ATOM      4  C   UNL A   1      34.706  21.872  24.802  1.00  0.00     0.261 C 
BRANCH   4   5
ATOM      5  O   UNL A   1      34.147  20.584  24.464  1.00  0.00    -0.462 OA
BRANCH   5   6
ATOM      6  C   UNL A   1      32.790  20.497  24.414  1.00  0.00     0.325 C 
ATOM      7  O   UNL A   1      32.140  19.646  25.016  1.00  0.00    -0.250 OA
BRANCH   6   8
ATOM      8  C   UNL A   1      32.113  21.669  23.686  1.00  0.00     0.238 C 
BRANCH   8   9
ATOM      9  N   UNL A   1      31.211  22.512  24.465  1.00  0.00    -0.351 N 
ATOM     10  H   UNL A   1      30.443  22.066  24.888  1.00  0.00     0.163 HD
BRANCH   9  11
ATOM     11  C   UNL A   1      31.328  23.838  24.661  1.00  0.00     0.184 A 
ATOM     12  C   UNL A   1      31.125  25.998  24.182  1.00  0.00     0.091 A 
ATOM     13  N   UNL A   1      30.781  24.702  23.831  1.00  0.00    -0.220 NA
ATOM     14  C   UNL A   1      31.945  26.097  25.292  1.00  0.00     0.064 A 
ATOM     15  S   UNL A   1      32.213  24.536  25.947  1.00  0.00    -0.096 S 
BRANCH  12  16
ATOM     16  C   UNL A   1      30.586  27.157  23.476  1.00  0.00     0.002 A 
ATOM     17  C   UNL A   1      29.559  29.564  22.452  1.00  0.00     0.118 A 
ATOM     18  C   UNL A   1      30.910  29.257  22.296  1.00  0.00     0.047 A 
ATOM     19  C   UNL A   1      28.703  28.635  23.042  1.00  0.00     0.047 A 
ATOM     20  C   UNL A   1      31.425  28.063  22.812  1.00  0.00     0.014 A 
ATOM     21  C   UNL A   1      29.215  27.433  23.548  1.00  0.00     0.014 A 
BRANCH  17  22
ATOM     22  O   UNL A   1      29.150  30.773  21.952  1.00  0.00    -0.497 OA
ATOM     23  C   UNL A   1      28.048  30.683  21.051  1.00  0.00     0.278 C 
ENDBRANCH  17  22
ENDBRANCH  12  16
BRANCH  14  24
ATOM     24  C   UNL A   1      32.496  27.241  26.004  1.00  0.00    -0.006 A 
ATOM     25  C   UNL A   1      31.654  28.131  26.680  1.00  0.00     0.013 A 
ATOM     26  C   UNL A   1      33.872  27.485  25.976  1.00  0.00     0.013 A 
ATOM     27  C   UNL A   1      32.182  29.269  27.288  1.00  0.00     0.047 A 
ATOM     28  C   UNL A   1      34.399  28.621  26.591  1.00  0.00     0.047 A 
ATOM     29  C   UNL A   1      33.554  29.523  27.241  1.00  0.00     0.118 A 
BRANCH  29  30
ATOM     30  O   UNL A   1      33.943  30.682  27.854  1.00  0.00    -0.497 OA
ATOM     31  C   UNL A   1      33.257  31.861  27.456  1.00  0.00     0.278 C 
ENDBRANCH  29  30
ENDBRANCH  14  24
ENDBRANCH   9  11
ENDBRANCH   8   9
ENDBRANCH   6   8
ENDBRANCH   5   6
ENDBRANCH   4   5
ENDBRANCH   3   4
ENDBRANCH   2   3
ENDBRANCH   1   2
BRANCH   1  32
ATOM     32  C   UNL A   1      39.421  21.837  26.195  1.00  0.00     0.188 C 
BRANCH  32  33
ATOM     33  O   UNL A   1      40.551  21.070  25.855  1.00  0.00    -0.376 OA
BRANCH  33  34
ATOM     34  C   UNL A   1      40.661  19.762  26.375  1.00  0.00     0.202 C 
BRANCH  34  35
ATOM     35  C   UNL A   1      41.662  18.771  25.754  1.00  0.00     0.261 C 
BRANCH  35  36
ATOM     36  O   UNL A   1      43.053  18.954  26.064  1.00  0.00    -0.460 OA
BRANCH  36  37
ATOM     37  C   UNL A   1      43.823  19.573  25.141  1.00  0.00     0.338 C 
ATOM     38  O   UNL A   1      44.281  19.077  24.120  1.00  0.00    -0.246 OA
BRANCH  37  39
ATOM     39  C   UNL A   1      43.819  21.022  25.448  1.00  0.00     0.060 A 
ATOM     40  C   UNL A   1      43.791  21.949  24.394  1.00  0.00     0.016 A 
ATOM     41  C   UNL A   1      43.819  21.465  26.771  1.00  0.00     0.016 A 
ATOM     42  C   UNL A   1      43.778  23.321  24.661  1.00  0.00     0.010 A 
ATOM     43  C   UNL A   1      43.834  22.838  27.036  1.00  0.00     0.010 A 
ATOM     44  C   UNL A   1      43.839  23.773  25.984  1.00  0.00    -0.014 A 
BRANCH  44  45
ATOM     45  C   UNL A   1      44.088  25.206  26.282  1.00  0.00     0.031 A 
ATOM     46  C   UNL A   1      45.490  25.733  26.131  1.00  0.00     0.074 A 
ATOM     47  C   UNL A   1      43.108  26.020  26.716  1.00  0.00     0.049 A 
ATOM     48  N   UNL A   1      45.974  26.907  26.437  1.00  0.00    -0.248 NA
ATOM     49  C   UNL A   1      46.481  24.802  25.563  1.00  0.00     0.031 C 
ATOM     50  C   UNL A   1      41.707  25.641  26.888  1.00  0.00     0.029 A 
ATOM     51  N   UNL A   1      43.157  27.330  27.129  1.00  0.00    -0.354 N 
ATOM     52  C   UNL A   1      47.331  26.844  26.142  1.00  0.00     0.074 A 
ATOM     53  C   UNL A   1      47.593  25.516  25.633  1.00  0.00     0.031 C 
ATOM     54  C   UNL A   1      41.037  26.684  27.409  1.00  0.00     0.029 A 
ATOM     55  C   UNL A   1      41.966  27.788  27.641  1.00  0.00     0.049 A 
ATOM     56  H   UNL A   1      43.967  27.886  27.065  1.00  0.00     0.167 HD
ATOM     57  C   UNL A   1      48.274  27.806  26.278  1.00  0.00     0.034 A 
ATOM     58  C   UNL A   1      41.672  28.950  28.262  1.00  0.00     0.034 A 
ATOM     59  C   UNL A   1      48.011  29.130  26.773  1.00  0.00     0.049 A 
ATOM     60  C   UNL A   1      42.750  29.990  28.441  1.00  0.00     0.074 A 
ATOM     61  C   UNL A   1      48.892  30.189  26.899  1.00  0.00     0.029 A 
ATOM     62  N   UNL A   1      46.785  29.569  27.246  1.00  0.00    -0.354 N 
ATOM     63  N   UNL A   1      44.003  29.959  28.056  1.00  0.00    -0.248 NA
ATOM     64  C   UNL A   1      42.365  31.240  29.118  1.00  0.00     0.031 C 
ATOM     65  C   UNL A   1      48.209  31.257  27.488  1.00  0.00     0.029 A 
ATOM     66  C   UNL A   1      46.890  30.879  27.683  1.00  0.00     0.049 A 
ATOM     67  H   UNL A   1      45.962  29.031  27.267  1.00  0.00     0.167 HD
ATOM     68  C   UNL A   1      44.544  31.193  28.406  1.00  0.00     0.074 A 
ATOM     69  C   UNL A   1      43.477  31.956  29.020  1.00  0.00     0.031 C 
ATOM     70  C   UNL A   1      45.810  31.650  28.244  1.00  0.00     0.034 A 
BRANCH  57  71
ATOM     71  C   UNL A   1      49.686  27.462  25.882  1.00  0.00     0.023 A 
ATOM     72  C   UNL A   1      50.594  26.989  26.850  1.00  0.00     0.012 A 
ATOM     73  C   UNL A   1      50.094  27.557  24.536  1.00  0.00     0.148 A 
ATOM     74  C   UNL A   1      51.898  26.648  26.492  1.00  0.00     0.002 A 
ATOM     75  C   UNL A   1      51.379  27.168  24.179  1.00  0.00     0.091 A 
ATOM     76  F   UNL A   1      49.222  28.030  23.636  1.00  0.00    -0.205 F 
ATOM     77  C   UNL A   1      52.287  26.726  25.157  1.00  0.00     0.022 A 
BRANCH  75  78
ATOM     78  S   UNL A   1      51.949  27.154  22.476  1.00  0.00     0.127 S 
ATOM     79  O   UNL A   1      52.272  28.563  22.261  1.00  0.00    -0.237 OA
ATOM     80  O   UNL A   1      53.109  26.266  22.550  1.00  0.00    -0.237 OA
ATOM     81  O   UNL A   1      50.840  26.641  21.684  1.00  0.00    -0.744 OA
ENDBRANCH  75  78
ENDBRANCH  57  71
BRANCH  58  82
ATOM     82  C   UNL A   1      40.288  29.206  28.758  1.00  0.00     0.023 A 
ATOM     83  C   UNL A   1      39.296  29.645  27.858  1.00  0.00     0.012 A 
ATOM     84  C   UNL A   1      39.952  29.027  30.113  1.00  0.00     0.148 A 
ATOM     85  C   UNL A   1      38.006  29.934  28.306  1.00  0.00     0.002 A 
ATOM     86  C   UNL A   1      38.651  29.261  30.543  1.00  0.00     0.091 A 
ATOM     87  F   UNL A   1      40.914  28.626  30.957  1.00  0.00    -0.205 F 
ATOM     88  C   UNL A   1      37.682  29.733  29.645  1.00  0.00     0.022 A 
BRANCH  86  89
ATOM     89  S   UNL A   1      38.109  28.917  32.220  1.00  0.00     0.127 S 
ATOM     90  O   UNL A   1      38.972  29.802  33.000  1.00  0.00    -0.237 OA
ATOM     91  O   UNL A   1      36.703  29.317  32.167  1.00  0.00    -0.237 OA
ATOM     92  O   UNL A   1      38.325  27.491  32.420  1.00  0.00    -0.744 OA
ENDBRANCH  86  89
ENDBRANCH  58  82
BRANCH  70  93
ATOM     93  C   UNL A   1      46.117  33.060  28.681  1.00  0.00     0.023 A 
ATOM     94  C   UNL A   1      45.823  34.146  27.833  1.00  0.00     0.012 A 
ATOM     95  C   UNL A   1      46.619  33.311  29.975  1.00  0.00     0.148 A 
ATOM     96  C   UNL A   1      46.054  35.456  28.253  1.00  0.00     0.002 A 
ATOM     97  C   UNL A   1      46.797  34.621  30.406  1.00  0.00     0.091 A 
ATOM     98  F   UNL A   1      46.907  32.265  30.763  1.00  0.00    -0.205 F 
ATOM     99  C   UNL A   1      46.528  35.694  29.541  1.00  0.00     0.022 A 
BRANCH  97 100
ATOM    100  S   UNL A   1      47.308  35.028  32.079  1.00  0.00     0.127 S 
ATOM    101  O   UNL A   1      48.652  34.453  32.128  1.00  0.00    -0.237 OA
ATOM    102  O   UNL A   1      47.270  36.491  32.065  1.00  0.00    -0.237 OA
ATOM    103  O   UNL A   1      46.333  34.404  32.962  1.00  0.00    -0.744 OA
ENDBRANCH  97 100
ENDBRANCH  70  93
ENDBRANCH  44  45
ENDBRANCH  37  39
ENDBRANCH  36  37
ENDBRANCH  35  36
ENDBRANCH  34  35
ENDBRANCH  33  34
ENDBRANCH  32  33
ENDBRANCH   1  32
TORSDOF 26
ENDMDL
MODEL 2
REMARK VINA RESULT:      -9.7      0.720      2.586
REMARK SMILES COc1ccc(-c2nc(NCC(=O)OCCOCCOCCOC(=O)c3ccc(-c4c5nc(c(-c6cccc(S(=O)(=O)[O-])c6F)c6ccc([nH]6)c(-c6cccc(S(=O)(=O)[O-])c6F)c6nc(c(-c7cccc(S(=O)(=O)[O-])c7F)c7ccc4[nH]7)C=C6)C=C5)cc3)sc2-c2ccc(OC)cc2)cc1
REMARK SMILES IDX 18 1 17 2 16 3 15 4 14 5 12 6 13 7 11 8 10 9 9 11 7 12 8 13
REMARK SMILES IDX 90 14 89 15 6 16 3 17 4 18 100 19 5 20 99 21 2 22 1 23 91 24
REMARK SMILES IDX 92 25 98 26 93 27 97 28 94 29 95 30 96 31 19 32 20 33 21 34
REMARK SMILES IDX 22 35 23 36 24 37 25 38 26 39 27 40 88 41 28 42 87 43 29 44
REMARK SMILES IDX 30 45 31 46 81 47 32 48 86 49 80 50 82 51 33 52 85 53 79 54
REMARK SMILES IDX 78 55 34 57 66 58 46 59 65 60 47 61 50 62 64 63 83 64 48 65
REMARK SMILES IDX 49 66 63 68 84 69 51 70 35 71 36 72 44 73 37 74 39 75 45 76
REMARK SMILES IDX 38 77 40 78 41 79 42 80 43 81 67 82 68 83 76 84 69 85 71 86
REMARK SMILES IDX 77 87 70 88 72 89 73 90 74 91 75 92 52 93 53 94 61 95 54 96
REMARK SMILES IDX 56 97 62 98 55 99 57 100 58 101 59 102 60 103
REMARK H PARENT 10 10 82 56 50 67
REMARK Flexibility Score: inf
ROOT
ATOM      1  C   UNL A   1      38.636  21.037  25.737  1.00  0.00     0.188 C 
ENDROOT
BRANCH   1   2
ATOM      2  O   UNL A   1      37.718  22.033  25.298  1.00  0.00    -0.376 OA
BRANCH   2   3
ATOM      3  C   UNL A   1      36.584  21.629  24.533  1.00  0.00     0.202 C 
BRANCH   3   4
ATOM      4  C   UNL A   1      35.267  21.321  25.272  1.00  0.00     0.261 C 
BRANCH   4   5
ATOM      5  O   UNL A   1      34.512  20.228  24.706  1.00  0.00    -0.462 OA
BRANCH   5   6
ATOM      6  C   UNL A   1      33.158  20.369  24.671  1.00  0.00     0.325 C 
ATOM      7  O   UNL A   1      32.379  19.589  25.212  1.00  0.00    -0.250 OA
BRANCH   6   8
ATOM      8  C   UNL A   1      32.682  21.693  24.052  1.00  0.00     0.238 C 
BRANCH   8   9
ATOM      9  N   UNL A   1      31.771  22.514  24.843  1.00  0.00    -0.351 N 
ATOM     10  H   UNL A   1      31.256  22.055  25.544  1.00  0.00     0.163 HD
BRANCH   9  11
ATOM     11  C   UNL A   1      31.566  23.837  24.707  1.00  0.00     0.184 A 
ATOM     12  C   UNL A   1      31.675  25.987  25.257  1.00  0.00     0.091 A 
ATOM     13  N   UNL A   1      32.115  24.701  25.534  1.00  0.00    -0.220 NA
ATOM     14  C   UNL A   1      30.778  26.076  24.207  1.00  0.00     0.064 A 
ATOM     15  S   UNL A   1      30.557  24.526  23.510  1.00  0.00    -0.096 S 
BRANCH  12  16
ATOM     16  C   UNL A   1      32.192  27.150  25.972  1.00  0.00     0.002 A 
ATOM     17  C   UNL A   1      33.105  29.586  27.036  1.00  0.00     0.118 A 
ATOM     18  C   UNL A   1      31.837  29.109  27.366  1.00  0.00     0.047 A 
ATOM     19  C   UNL A   1      33.951  28.809  26.245  1.00  0.00     0.047 A 
ATOM     20  C   UNL A   1      31.378  27.900  26.832  1.00  0.00     0.014 A 
ATOM     21  C   UNL A   1      33.497  27.593  25.719  1.00  0.00     0.014 A 
BRANCH  17  22
ATOM     22  O   UNL A   1      33.456  30.797  27.572  1.00  0.00    -0.497 OA
ATOM     23  C   UNL A   1      34.844  30.913  27.877  1.00  0.00     0.278 C 
ENDBRANCH  17  22
ENDBRANCH  12  16
BRANCH  14  24
ATOM     24  C   UNL A   1      30.115  27.210  23.578  1.00  0.00    -0.006 A 
ATOM     25  C   UNL A   1      28.735  27.393  23.717  1.00  0.00     0.013 A 
ATOM     26  C   UNL A   1      30.850  28.098  22.788  1.00  0.00     0.013 A 
ATOM     27  C   UNL A   1      28.096  28.433  23.043  1.00  0.00     0.047 A 
ATOM     28  C   UNL A   1      30.210  29.142  22.119  1.00  0.00     0.047 A 
ATOM     29  C   UNL A   1      28.828  29.307  22.237  1.00  0.00     0.118 A 
BRANCH  29  30
ATOM     30  O   UNL A   1      28.083  30.268  21.613  1.00  0.00    -0.497 OA
ATOM     31  C   UNL A   1      27.964  31.510  22.294  1.00  0.00     0.278 C 
ENDBRANCH  29  30
ENDBRANCH  14  24
ENDBRANCH   9  11
ENDBRANCH   8   9
ENDBRANCH   6   8
ENDBRANCH   5   6
ENDBRANCH   4   5
ENDBRANCH   3   4
ENDBRANCH   2   3
ENDBRANCH   1   2
BRANCH   1  32
ATOM     32  C   UNL A   1      39.919  21.493  26.450  1.00  0.00     0.188 C 
BRANCH  32  33
ATOM     33  O   UNL A   1      41.082  20.809  26.050  1.00  0.00    -0.376 OA
BRANCH  33  34
ATOM     34  C   UNL A   1      41.191  19.433  26.345  1.00  0.00     0.202 C 
BRANCH  34  35
ATOM     35  C   UNL A   1      42.302  18.594  25.688  1.00  0.00     0.261 C 
BRANCH  35  36
ATOM     36  O   UNL A   1      43.655  19.056  25.834  1.00  0.00    -0.460 OA
BRANCH  36  37
ATOM     37  C   UNL A   1      44.197  19.738  24.801  1.00  0.00     0.338 C 
ATOM     38  O   UNL A   1      44.450  19.297  23.687  1.00  0.00    -0.246 OA
BRANCH  37  39
ATOM     39  C   UNL A   1      44.210  21.174  25.164  1.00  0.00     0.060 A 
ATOM     40  C   UNL A   1      44.290  22.140  24.148  1.00  0.00     0.016 A 
ATOM     41  C   UNL A   1      44.120  21.566  26.500  1.00  0.00     0.016 A 
ATOM     42  C   UNL A   1      44.295  23.500  24.468  1.00  0.00     0.010 A 
ATOM     43  C   UNL A   1      44.153  22.928  26.820  1.00  0.00     0.010 A 
ATOM     44  C   UNL A   1      44.265  23.900  25.810  1.00  0.00    -0.014 A 
BRANCH  44  45
ATOM     45  C   UNL A   1      44.532  25.313  26.183  1.00  0.00     0.031 A 
ATOM     46  C   UNL A   1      45.946  25.820  26.093  1.00  0.00     0.074 A 
ATOM     47  C   UNL A   1      43.554  26.123  26.630  1.00  0.00     0.049 A 
ATOM     48  N   UNL A   1      46.441  26.970  26.468  1.00  0.00    -0.248 NA
ATOM     49  C   UNL A   1      46.935  24.900  25.506  1.00  0.00     0.031 C 
ATOM     50  C   UNL A   1      42.143  25.762  26.748  1.00  0.00     0.029 A 
ATOM     51  N   UNL A   1      43.615  27.410  27.107  1.00  0.00    -0.354 N 
ATOM     52  C   UNL A   1      47.804  26.897  26.205  1.00  0.00     0.074 A 
ATOM     53  C   UNL A   1      48.057  25.590  25.639  1.00  0.00     0.031 C 
ATOM     54  C   UNL A   1      41.477  26.791  27.302  1.00  0.00     0.029 A 
ATOM     55  C   UNL A   1      42.419  27.866  27.610  1.00  0.00     0.049 A 
ATOM     56  H   UNL A   1      44.435  27.954  27.091  1.00  0.00     0.167 HD
ATOM     57  C   UNL A   1      48.760  27.833  26.411  1.00  0.00     0.034 A 
ATOM     58  C   UNL A   1      42.128  29.001  28.279  1.00  0.00     0.034 A 
ATOM     59  C   UNL A   1      48.506  29.136  26.962  1.00  0.00     0.049 A 
ATOM     60  C   UNL A   1      43.218  30.012  28.535  1.00  0.00     0.074 A 
ATOM     61  C   UNL A   1      49.401  30.172  27.161  1.00  0.00     0.029 A 
ATOM     62  N   UNL A   1      47.275  29.575  27.424  1.00  0.00    -0.354 N 
ATOM     63  N   UNL A   1      44.480  29.976  28.182  1.00  0.00    -0.248 NA
ATOM     64  C   UNL A   1      42.837  31.235  29.262  1.00  0.00     0.031 C 
ATOM     65  C   UNL A   1      48.721  31.223  27.784  1.00  0.00     0.029 A 
ATOM     66  C   UNL A   1      47.392  30.860  27.927  1.00  0.00     0.049 A 
ATOM     67  H   UNL A   1      46.443  29.052  27.398  1.00  0.00     0.167 HD
ATOM     68  C   UNL A   1      45.032  31.182  28.604  1.00  0.00     0.074 A 
ATOM     69  C   UNL A   1      43.963  31.935  29.226  1.00  0.00     0.031 C 
ATOM     70  C   UNL A   1      46.310  31.623  28.496  1.00  0.00     0.034 A 
BRANCH  57  71
ATOM     71  C   UNL A   1      50.176  27.483  26.035  1.00  0.00     0.023 A 
ATOM     72  C   UNL A   1      51.052  26.957  27.004  1.00  0.00     0.012 A 
ATOM     73  C   UNL A   1      50.617  27.625  24.704  1.00  0.00     0.148 A 
ATOM     74  C   UNL A   1      52.359  26.610  26.664  1.00  0.00     0.002 A 
ATOM     75  C   UNL A   1      51.904  27.230  24.362  1.00  0.00     0.091 A 
ATOM     76  F   UNL A   1      49.775  28.147  23.803  1.00  0.00    -0.205 F 
ATOM     77  C   UNL A   1      52.781  26.735  25.342  1.00  0.00     0.022 A 
BRANCH  75  78
ATOM     78  S   UNL A   1      52.516  27.275  22.674  1.00  0.00     0.127 S 
ATOM     79  O   UNL A   1      52.823  28.695  22.509  1.00  0.00    -0.237 OA
ATOM     80  O   UNL A   1      53.687  26.402  22.750  1.00  0.00    -0.237 OA
ATOM     81  O   UNL A   1      51.434  26.771  21.840  1.00  0.00    -0.744 OA
ENDBRANCH  75  78
ENDBRANCH  57  71
BRANCH  58  82
ATOM     82  C   UNL A   1      40.736  29.258  28.750  1.00  0.00     0.023 A 
ATOM     83  C   UNL A   1      39.780  29.774  27.853  1.00  0.00     0.012 A 
ATOM     84  C   UNL A   1      40.356  29.005  30.083  1.00  0.00     0.148 A 
ATOM     85  C   UNL A   1      38.484  30.065  28.281  1.00  0.00     0.002 A 
ATOM     86  C   UNL A   1      39.050  29.243  30.490  1.00  0.00     0.091 A 
ATOM     87  F   UNL A   1      41.285  28.531  30.926  1.00  0.00    -0.205 F 
ATOM     88  C   UNL A   1      38.117  29.790  29.596  1.00  0.00     0.022 A 
BRANCH  86  89
ATOM     89  S   UNL A   1      38.452  28.809  32.127  1.00  0.00     0.127 S 
ATOM     90  O   UNL A   1      37.029  29.124  32.018  1.00  0.00    -0.237 OA
ATOM     91  O   UNL A   1      38.764  27.381  32.189  1.00  0.00    -0.237 OA
ATOM     92  O   UNL A   1      39.210  29.635  33.055  1.00  0.00    -0.744 OA
ENDBRANCH  86  89
ENDBRANCH  58  82
BRANCH  70  93
ATOM     93  C   UNL A   1      46.630  33.005  29.009  1.00  0.00     0.023 A 
ATOM     94  C   UNL A   1      46.202  34.142  28.296  1.00  0.00     0.012 A 
ATOM     95  C   UNL A   1      47.281  33.172  30.248  1.00  0.00     0.148 A 
ATOM     96  C   UNL A   1      46.446  35.423  28.792  1.00  0.00     0.002 A 
ATOM     97  C   UNL A   1      47.474  34.449  30.762  1.00  0.00     0.091 A 
ATOM     98  F   UNL A   1      47.693  32.078  30.907  1.00  0.00    -0.205 F 
ATOM     99  C   UNL A   1      47.070  35.576  30.029  1.00  0.00     0.022 A 
BRANCH  97 100
ATOM    100  S   UNL A   1      48.177  34.742  32.389  1.00  0.00     0.127 S 
ATOM    101  O   UNL A   1      48.087  36.197  32.495  1.00  0.00    -0.237 OA
ATOM    102  O   UNL A   1      47.257  34.008  33.259  1.00  0.00    -0.237 OA
ATOM    103  O   UNL A   1      49.530  34.204  32.347  1.00  0.00    -0.744 OA
ENDBRANCH  97 100
ENDBRANCH  70  93
ENDBRANCH  44  45
ENDBRANCH  37  39
ENDBRANCH  36  37
ENDBRANCH  35  36
ENDBRANCH  34  35
ENDBRANCH  33  34
ENDBRANCH  32  33
ENDBRANCH   1  32
TORSDOF 26
ENDMDL
MODEL 3
REMARK VINA RESULT:      -9.0      3.666      6.090
REMARK SMILES COc1ccc(-c2nc(NCC(=O)OCCOCCOCCOC(=O)c3ccc(-c4c5nc(c(-c6cccc(S(=O)(=O)[O-])c6F)c6ccc([nH]6)c(-c6cccc(S(=O)(=O)[O-])c6F)c6nc(c(-c7cccc(S(=O)(=O)[O-])c7F)c7ccc4[nH]7)C=C6)C=C5)cc3)sc2-c2ccc(OC)cc2)cc1
REMARK SMILES IDX 18 1 17 2 16 3 15 4 14 5 12 6 13 7 11 8 10 9 9 11 7 12 8 13
REMARK SMILES IDX 90 14 89 15 6 16 3 17 4 18 100 19 5 20 99 21 2 22 1 23 91 24
REMARK SMILES IDX 92 25 98 26 93 27 97 28 94 29 95 30 96 31 19 32 20 33 21 34
REMARK SMILES IDX 22 35 23 36 24 37 25 38 26 39 27 40 88 41 28 42 87 43 29 44
REMARK SMILES IDX 30 45 31 46 81 47 32 48 86 49 80 50 82 51 33 52 85 53 79 54
REMARK SMILES IDX 78 55 34 57 66 58 46 59 65 60 47 61 50 62 64 63 83 64 48 65
REMARK SMILES IDX 49 66 63 68 84 69 51 70 35 71 36 72 44 73 37 74 39 75 45 76
REMARK SMILES IDX 38 77 40 78 41 79 42 80 43 81 67 82 68 83 76 84 69 85 71 86
REMARK SMILES IDX 77 87 70 88 72 89 73 90 74 91 75 92 52 93 53 94 61 95 54 96
REMARK SMILES IDX 56 97 62 98 55 99 57 100 58 101 59 102 60 103
REMARK H PARENT 10 10 82 56 50 67
REMARK Flexibility Score: inf
ROOT
ATOM      1  C   UNL A   1      39.203  21.821  26.197  1.00  0.00     0.188 C 
ENDROOT
BRANCH   1   2
ATOM      2  O   UNL A   1      38.391  22.593  25.318  1.00  0.00    -0.376 OA
BRANCH   2   3
ATOM      3  C   UNL A   1      37.120  22.075  24.928  1.00  0.00     0.202 C 
BRANCH   3   4
ATOM      4  C   UNL A   1      35.911  22.314  25.853  1.00  0.00     0.261 C 
BRANCH   4   5
ATOM      5  O   UNL A   1      34.727  21.573  25.484  1.00  0.00    -0.462 OA
BRANCH   5   6
ATOM      6  C   UNL A   1      33.744  21.479  26.421  1.00  0.00     0.325 C 
ATOM      7  O   UNL A   1      33.960  21.332  27.621  1.00  0.00    -0.250 OA
BRANCH   6   8
ATOM      8  C   UNL A   1      32.333  21.758  25.878  1.00  0.00     0.238 C 
BRANCH   8   9
ATOM      9  N   UNL A   1      31.616  22.902  26.431  1.00  0.00    -0.351 N 
ATOM     10  H   UNL A   1      31.102  22.747  27.256  1.00  0.00     0.163 HD
BRANCH   9  11
ATOM     11  C   UNL A   1      31.587  24.148  25.923  1.00  0.00     0.184 A 
ATOM     12  C   UNL A   1      31.963  26.337  25.864  1.00  0.00     0.091 A 
ATOM     13  N   UNL A   1      32.226  25.138  26.509  1.00  0.00    -0.220 NA
ATOM     14  C   UNL A   1      31.108  26.233  24.780  1.00  0.00     0.064 A 
ATOM     15  S   UNL A   1      30.703  24.586  24.527  1.00  0.00    -0.096 S 
BRANCH  12  16
ATOM     16  C   UNL A   1      32.611  27.584  26.257  1.00  0.00     0.002 A 
ATOM     17  C   UNL A   1      33.846  29.852  27.368  1.00  0.00     0.118 A 
ATOM     18  C   UNL A   1      34.617  28.863  26.757  1.00  0.00     0.047 A 
ATOM     19  C   UNL A   1      32.455  29.752  27.351  1.00  0.00     0.047 A 
ATOM     20  C   UNL A   1      34.005  27.730  26.210  1.00  0.00     0.014 A 
ATOM     21  C   UNL A   1      31.840  28.624  26.792  1.00  0.00     0.014 A 
BRANCH  17  22
ATOM     22  O   UNL A   1      34.532  30.906  27.913  1.00  0.00    -0.497 OA
ATOM     23  C   UNL A   1      33.816  32.139  27.882  1.00  0.00     0.278 C 
ENDBRANCH  17  22
ENDBRANCH  12  16
BRANCH  14  24
ATOM     24  C   UNL A   1      30.612  27.214  23.825  1.00  0.00    -0.006 A 
ATOM     25  C   UNL A   1      31.503  28.010  23.097  1.00  0.00     0.013 A 
ATOM     26  C   UNL A   1      29.236  27.400  23.666  1.00  0.00     0.013 A 
ATOM     27  C   UNL A   1      31.018  29.004  22.248  1.00  0.00     0.047 A 
ATOM     28  C   UNL A   1      28.754  28.391  22.811  1.00  0.00     0.047 A 
ATOM     29  C   UNL A   1      29.644  29.204  22.106  1.00  0.00     0.118 A 
BRANCH  29  30
ATOM     30  O   UNL A   1      29.298  30.223  21.263  1.00  0.00    -0.497 OA
ATOM     31  C   UNL A   1      28.065  30.874  21.539  1.00  0.00     0.278 C 
ENDBRANCH  29  30
ENDBRANCH  14  24
ENDBRANCH   9  11
ENDBRANCH   8   9
ENDBRANCH   6   8
ENDBRANCH   5   6
ENDBRANCH   4   5
ENDBRANCH   3   4
ENDBRANCH   2   3
ENDBRANCH   1   2
BRANCH   1  32
ATOM     32  C   UNL A   1      40.094  22.564  27.205  1.00  0.00     0.188 C 
BRANCH  32  33
ATOM     33  O   UNL A   1      41.169  23.265  26.626  1.00  0.00    -0.376 OA
BRANCH  33  34
ATOM     34  C   UNL A   1      42.457  22.689  26.677  1.00  0.00     0.202 C 
BRANCH  34  35
ATOM     35  C   UNL A   1      43.655  23.434  26.062  1.00  0.00     0.261 C 
BRANCH  35  36
ATOM     36  O   UNL A   1      43.830  24.815  26.419  1.00  0.00    -0.460 OA
BRANCH  36  37
ATOM     37  C   UNL A   1      43.202  25.741  25.660  1.00  0.00     0.338 C 
ATOM     38  O   UNL A   1      42.624  25.546  24.598  1.00  0.00    -0.246 OA
BRANCH  37  39
ATOM     39  C   UNL A   1      43.120  26.992  26.448  1.00  0.00     0.060 A 
ATOM     40  C   UNL A   1      42.403  28.083  25.935  1.00  0.00     0.016 A 
ATOM     41  C   UNL A   1      43.730  27.079  27.701  1.00  0.00     0.016 A 
ATOM     42  C   UNL A   1      42.306  29.271  26.666  1.00  0.00     0.010 A 
ATOM     43  C   UNL A   1      43.655  28.277  28.419  1.00  0.00     0.010 A 
ATOM     44  C   UNL A   1      42.965  29.387  27.896  1.00  0.00    -0.014 A 
BRANCH  44  45
ATOM     45  C   UNL A   1      43.095  30.708  28.562  1.00  0.00     0.031 A 
ATOM     46  C   UNL A   1      44.241  31.598  28.163  1.00  0.00     0.074 A 
ATOM     47  C   UNL A   1      42.244  31.100  29.528  1.00  0.00     0.049 A 
ATOM     48  N   UNL A   1      44.626  32.736  28.676  1.00  0.00    -0.248 NA
ATOM     49  C   UNL A   1      45.068  31.134  27.036  1.00  0.00     0.031 C 
ATOM     50  C   UNL A   1      41.085  30.342  29.994  1.00  0.00     0.029 A 
ATOM     51  N   UNL A   1      42.252  32.224  30.317  1.00  0.00    -0.354 N 
ATOM     52  C   UNL A   1      45.763  33.104  27.966  1.00  0.00     0.074 A 
ATOM     53  C   UNL A   1      46.005  32.068  26.987  1.00  0.00     0.031 C 
ATOM     54  C   UNL A   1      40.516  31.005  31.017  1.00  0.00     0.029 A 
ATOM     55  C   UNL A   1      41.291  32.212  31.300  1.00  0.00     0.049 A 
ATOM     56  H   UNL A   1      42.886  32.968  30.192  1.00  0.00     0.167 HD
ATOM     57  C   UNL A   1      46.536  34.207  28.112  1.00  0.00     0.034 A 
ATOM     58  C   UNL A   1      41.086  33.056  32.333  1.00  0.00     0.034 A 
ATOM     59  C   UNL A   1      46.288  35.242  29.078  1.00  0.00     0.049 A 
ATOM     60  C   UNL A   1      41.985  34.256  32.501  1.00  0.00     0.074 A 
ATOM     61  C   UNL A   1      46.984  36.423  29.267  1.00  0.00     0.029 A 
ATOM     62  N   UNL A   1      45.281  35.213  30.030  1.00  0.00    -0.354 N 
ATOM     63  N   UNL A   1      42.989  34.649  31.755  1.00  0.00    -0.248 NA
ATOM     64  C   UNL A   1      41.706  35.144  33.642  1.00  0.00     0.031 C 
ATOM     65  C   UNL A   1      46.426  37.088  30.363  1.00  0.00     0.029 A 
ATOM     66  C   UNL A   1      45.351  36.346  30.824  1.00  0.00     0.049 A 
ATOM     67  H   UNL A   1      44.617  34.495  30.127  1.00  0.00     0.167 HD
ATOM     68  C   UNL A   1      43.434  35.846  32.309  1.00  0.00     0.074 A 
ATOM     69  C   UNL A   1      42.579  36.123  33.445  1.00  0.00     0.031 C 
ATOM     70  C   UNL A   1      44.462  36.639  31.920  1.00  0.00     0.034 A 
BRANCH  57  71
ATOM     71  C   UNL A   1      47.726  34.353  27.202  1.00  0.00     0.023 A 
ATOM     72  C   UNL A   1      47.601  35.052  25.985  1.00  0.00     0.012 A 
ATOM     73  C   UNL A   1      48.984  33.843  27.582  1.00  0.00     0.148 A 
ATOM     74  C   UNL A   1      48.700  35.212  25.143  1.00  0.00     0.002 A 
ATOM     75  C   UNL A   1      50.085  34.050  26.762  1.00  0.00     0.091 A 
ATOM     76  F   UNL A   1      49.076  33.163  28.733  1.00  0.00    -0.205 F 
ATOM     77  C   UNL A   1      49.944  34.722  25.536  1.00  0.00     0.022 A 
BRANCH  75  78
ATOM     78  S   UNL A   1      51.743  33.530  27.217  1.00  0.00     0.127 S 
ATOM     79  O   UNL A   1      51.962  34.285  28.449  1.00  0.00    -0.237 OA
ATOM     80  O   UNL A   1      51.570  32.090  27.406  1.00  0.00    -0.237 OA
ATOM     81  O   UNL A   1      52.602  33.898  26.100  1.00  0.00    -0.744 OA
ENDBRANCH  75  78
ENDBRANCH  57  71
BRANCH  58  82
ATOM     82  C   UNL A   1      39.971  32.809  33.294  1.00  0.00     0.023 A 
ATOM     83  C   UNL A   1      40.208  32.044  34.453  1.00  0.00     0.012 A 
ATOM     84  C   UNL A   1      38.679  33.318  33.061  1.00  0.00     0.148 A 
ATOM     85  C   UNL A   1      39.171  31.761  35.344  1.00  0.00     0.002 A 
ATOM     86  C   UNL A   1      37.664  33.081  33.981  1.00  0.00     0.091 A 
ATOM     87  F   UNL A   1      38.469  34.028  31.944  1.00  0.00    -0.205 F 
ATOM     88  C   UNL A   1      37.903  32.288  35.113  1.00  0.00     0.022 A 
BRANCH  86  89
ATOM     89  S   UNL A   1      36.032  33.815  33.830  1.00  0.00     0.127 S 
ATOM     90  O   UNL A   1      35.459  33.048  32.727  1.00  0.00    -0.237 OA
ATOM     91  O   UNL A   1      35.455  33.530  35.144  1.00  0.00    -0.237 OA
ATOM     92  O   UNL A   1      36.258  35.229  33.564  1.00  0.00    -0.744 OA
ENDBRANCH  86  89
ENDBRANCH  58  82
BRANCH  70  93
ATOM     93  C   UNL A   1      44.701  37.918  32.684  1.00  0.00     0.023 A 
ATOM     94  C   UNL A   1      45.427  37.897  33.891  1.00  0.00     0.012 A 
ATOM     95  C   UNL A   1      44.278  39.154  32.154  1.00  0.00     0.148 A 
ATOM     96  C   UNL A   1      45.699  39.083  34.575  1.00  0.00     0.002 A 
ATOM     97  C   UNL A   1      44.598  40.335  32.813  1.00  0.00     0.091 A 
ATOM     98  F   UNL A   1      43.576  39.153  31.011  1.00  0.00    -0.205 F 
ATOM     99  C   UNL A   1      45.296  40.300  34.030  1.00  0.00     0.022 A 
BRANCH  97 100
ATOM    100  S   UNL A   1      44.209  41.955  32.140  1.00  0.00     0.127 S 
ATOM    101  O   UNL A   1      42.832  41.766  31.685  1.00  0.00    -0.237 OA
ATOM    102  O   UNL A   1      44.352  42.818  33.313  1.00  0.00    -0.237 OA
ATOM    103  O   UNL A   1      45.184  42.198  31.085  1.00  0.00    -0.744 OA
ENDBRANCH  97 100
ENDBRANCH  70  93
ENDBRANCH  44  45
ENDBRANCH  37  39
ENDBRANCH  36  37
ENDBRANCH  35  36
ENDBRANCH  34  35
ENDBRANCH  33  34
ENDBRANCH  32  33
ENDBRANCH   1  32
TORSDOF 26
ENDMDL
