MODEL 1
REMARK VINA RESULT:      -9.1      0.000      0.000
REMARK SMILES CNC(=O)CCCn1cc(C(=O)OCCOCCOCCOC(=O)c2ccc(-c3c4nc(c(-c5cccc(S(=O)(=O)[O-])c5F)c5ccc([nH]5)c(-c5cccc(S(=O)(=O)[O-])c5F)c5nc(c(-c6cccc(S(=O)(=O)[O-])c6F)c6ccc3[nH]6)C=C5)C=C4)cc2)cc1Br
REMARK SMILES IDX 17 1 16 2 15 3 14 4 13 5 11 6 12 7 10 8 8 9 9 10 89 11 88 12
REMARK SMILES IDX 90 13 7 14 6 15 5 16 3 17 1 18 2 19 4 21 18 22 19 23 20 24
REMARK SMILES IDX 21 25 22 26 23 27 24 28 25 29 26 30 87 31 27 32 86 33 28 34
REMARK SMILES IDX 29 35 30 36 80 37 31 38 85 39 79 40 81 41 32 42 84 43 78 44
REMARK SMILES IDX 77 45 33 47 65 48 45 49 64 50 46 51 49 52 63 53 82 54 47 55
REMARK SMILES IDX 48 56 62 58 83 59 50 60 34 61 35 62 43 63 36 64 38 65 44 66
REMARK SMILES IDX 37 67 39 68 40 69 41 70 42 71 66 72 67 73 75 74 68 75 70 76
REMARK SMILES IDX 76 77 69 78 71 79 72 80 73 81 74 82 51 83 52 84 60 85 53 86
REMARK SMILES IDX 55 87 61 88 54 89 56 90 57 91 58 92 59 93
REMARK H PARENT 2 20 81 46 49 57
REMARK Flexibility Score: inf
ROOT
ATOM      1  C   UNL A   1      35.877  21.090  24.630  1.00  0.00     0.188 C 
ENDROOT
BRANCH   1   2
ATOM      2  O   UNL A   1      35.418  22.178  25.393  1.00  0.00    -0.376 OA
BRANCH   2   3
ATOM      3  C   UNL A   1      35.131  23.427  24.790  1.00  0.00     0.202 C 
BRANCH   3   4
ATOM      4  C   UNL A   1      34.605  23.630  23.350  1.00  0.00     0.261 C 
BRANCH   4   5
ATOM      5  O   UNL A   1      34.795  24.910  22.747  1.00  0.00    -0.460 OA
BRANCH   5   6
ATOM      6  C   UNL A   1      33.666  25.628  22.499  1.00  0.00     0.339 C 
ATOM      7  O   UNL A   1      33.244  25.911  21.382  1.00  0.00    -0.246 OA
BRANCH   6   8
ATOM      8  C   UNL A   1      32.879  25.831  23.702  1.00  0.00     0.078 A 
ATOM      9  N   UNL A   1      31.194  25.949  25.182  1.00  0.00    -0.341 N 
ATOM     10  C   UNL A   1      31.588  25.407  23.973  1.00  0.00     0.102 A 
ATOM     11  C   UNL A   1      32.183  26.800  25.612  1.00  0.00     0.085 A 
ATOM     12  C   UNL A   1      33.269  26.660  24.787  1.00  0.00     0.051 A 
ATOM     13  Br  UNL A   1      32.191  28.038  27.013  1.00  0.00    -0.031 Br
BRANCH   9  14
ATOM     14  C   UNL A   1      29.887  25.707  25.772  1.00  0.00     0.123 C 
BRANCH  14  15
ATOM     15  C   UNL A   1      29.786  24.470  26.682  1.00  0.00     0.032 C 
BRANCH  15  16
ATOM     16  C   UNL A   1      30.355  23.152  26.158  1.00  0.00     0.102 C 
BRANCH  16  17
ATOM     17  C   UNL A   1      31.721  22.680  26.631  1.00  0.00     0.219 C 
ATOM     18  C   UNL A   1      32.184  20.812  24.938  1.00  0.00     0.142 C 
ATOM     19  N   UNL A   1      32.414  21.660  26.078  1.00  0.00    -0.359 N 
ATOM     20  H   UNL A   1      33.251  21.453  26.553  1.00  0.00     0.163 HD
ATOM     21  O   UNL A   1      32.228  23.204  27.631  1.00  0.00    -0.275 OA
ENDBRANCH  16  17
ENDBRANCH  15  16
ENDBRANCH  14  15
ENDBRANCH   9  14
ENDBRANCH   6   8
ENDBRANCH   5   6
ENDBRANCH   4   5
ENDBRANCH   3   4
ENDBRANCH   2   3
ENDBRANCH   1   2
BRANCH   1  22
ATOM     22  C   UNL A   1      37.126  20.385  25.196  1.00  0.00     0.188 C 
BRANCH  22  23
ATOM     23  O   UNL A   1      38.409  20.997  25.200  1.00  0.00    -0.376 OA
BRANCH  23  24
ATOM     24  C   UNL A   1      38.781  22.006  26.129  1.00  0.00     0.202 C 
BRANCH  24  25
ATOM     25  C   UNL A   1      40.088  22.002  26.922  1.00  0.00     0.261 C 
BRANCH  25  26
ATOM     26  O   UNL A   1      40.408  23.222  27.546  1.00  0.00    -0.460 OA
BRANCH  26  27
ATOM     27  C   UNL A   1      41.691  23.302  27.942  1.00  0.00     0.338 C 
ATOM     28  O   UNL A   1      42.388  22.403  28.382  1.00  0.00    -0.246 OA
BRANCH  27  29
ATOM     29  C   UNL A   1      42.116  24.698  27.843  1.00  0.00     0.060 A 
ATOM     30  C   UNL A   1      43.084  25.105  28.763  1.00  0.00     0.016 A 
ATOM     31  C   UNL A   1      41.319  25.604  27.128  1.00  0.00     0.016 A 
ATOM     32  C   UNL A   1      43.058  26.411  29.175  1.00  0.00     0.010 A 
ATOM     33  C   UNL A   1      41.280  26.903  27.557  1.00  0.00     0.010 A 
ATOM     34  C   UNL A   1      42.079  27.253  28.642  1.00  0.00    -0.014 A 
BRANCH  34  35
ATOM     35  C   UNL A   1      41.929  28.559  29.237  1.00  0.00     0.031 A 
ATOM     36  C   UNL A   1      42.964  29.498  28.779  1.00  0.00     0.074 A 
ATOM     37  C   UNL A   1      40.892  28.847  30.044  1.00  0.00     0.049 A 
ATOM     38  N   UNL A   1      43.945  29.980  29.464  1.00  0.00    -0.248 NA
ATOM     39  C   UNL A   1      43.043  29.761  27.334  1.00  0.00     0.031 C 
ATOM     40  C   UNL A   1      39.706  28.012  30.278  1.00  0.00     0.029 A 
ATOM     41  N   UNL A   1      40.599  30.001  30.707  1.00  0.00    -0.354 N 
ATOM     42  C   UNL A   1      44.582  30.847  28.582  1.00  0.00     0.074 A 
ATOM     43  C   UNL A   1      44.176  30.458  27.262  1.00  0.00     0.031 C 
ATOM     44  C   UNL A   1      38.727  28.777  30.808  1.00  0.00     0.029 A 
ATOM     45  C   UNL A   1      39.262  30.102  31.070  1.00  0.00     0.049 A 
ATOM     46  H   UNL A   1      41.269  30.694  30.909  1.00  0.00     0.167 HD
ATOM     47  C   UNL A   1      45.057  32.038  29.032  1.00  0.00     0.034 A 
ATOM     48  C   UNL A   1      38.620  31.220  31.481  1.00  0.00     0.034 A 
ATOM     49  C   UNL A   1      45.158  32.047  30.469  1.00  0.00     0.049 A 
ATOM     50  C   UNL A   1      39.637  32.185  31.951  1.00  0.00     0.074 A 
ATOM     51  C   UNL A   1      45.983  31.499  31.425  1.00  0.00     0.029 A 
ATOM     52  N   UNL A   1      44.017  32.471  31.099  1.00  0.00    -0.354 N 
ATOM     53  N   UNL A   1      40.354  32.002  33.024  1.00  0.00    -0.248 NA
ATOM     54  C   UNL A   1      40.111  33.233  31.053  1.00  0.00     0.031 C 
ATOM     55  C   UNL A   1      45.237  31.493  32.639  1.00  0.00     0.029 A 
ATOM     56  C   UNL A   1      43.980  32.046  32.398  1.00  0.00     0.049 A 
ATOM     57  H   UNL A   1      43.314  33.012  30.671  1.00  0.00     0.167 HD
ATOM     58  C   UNL A   1      41.573  32.572  32.709  1.00  0.00     0.074 A 
ATOM     59  C   UNL A   1      41.308  33.471  31.597  1.00  0.00     0.031 C 
ATOM     60  C   UNL A   1      42.736  32.007  33.140  1.00  0.00     0.034 A 
BRANCH  47  61
ATOM     61  C   UNL A   1      44.948  33.351  28.276  1.00  0.00     0.023 A 
ATOM     62  C   UNL A   1      46.163  33.908  27.815  1.00  0.00     0.012 A 
ATOM     63  C   UNL A   1      43.817  34.203  28.266  1.00  0.00     0.148 A 
ATOM     64  C   UNL A   1      46.261  35.250  27.434  1.00  0.00     0.002 A 
ATOM     65  C   UNL A   1      43.904  35.517  27.823  1.00  0.00     0.091 A 
ATOM     66  F   UNL A   1      42.664  33.808  28.805  1.00  0.00    -0.205 F 
ATOM     67  C   UNL A   1      45.131  36.056  27.437  1.00  0.00     0.022 A 
BRANCH  65  68
ATOM     68  S   UNL A   1      42.463  36.593  27.791  1.00  0.00     0.127 S 
ATOM     69  O   UNL A   1      42.848  37.624  28.748  1.00  0.00    -0.237 OA
ATOM     70  O   UNL A   1      42.441  37.019  26.391  1.00  0.00    -0.237 OA
ATOM     71  O   UNL A   1      41.335  35.753  28.174  1.00  0.00    -0.744 OA
ENDBRANCH  65  68
ENDBRANCH  47  61
BRANCH  48  72
ATOM     72  C   UNL A   1      37.197  31.595  31.352  1.00  0.00     0.023 A 
ATOM     73  C   UNL A   1      36.482  32.007  32.493  1.00  0.00     0.012 A 
ATOM     74  C   UNL A   1      36.616  31.807  30.082  1.00  0.00     0.148 A 
ATOM     75  C   UNL A   1      35.244  32.645  32.373  1.00  0.00     0.002 A 
ATOM     76  C   UNL A   1      35.382  32.438  29.968  1.00  0.00     0.091 A 
ATOM     77  F   UNL A   1      37.314  31.466  28.989  1.00  0.00    -0.205 F 
ATOM     78  C   UNL A   1      34.699  32.871  31.112  1.00  0.00     0.022 A 
BRANCH  76  79
ATOM     79  S   UNL A   1      34.624  32.790  28.375  1.00  0.00     0.127 S 
ATOM     80  O   UNL A   1      34.266  31.450  27.910  1.00  0.00    -0.237 OA
ATOM     81  O   UNL A   1      33.490  33.627  28.761  1.00  0.00    -0.237 OA
ATOM     82  O   UNL A   1      35.651  33.448  27.579  1.00  0.00    -0.744 OA
ENDBRANCH  76  79
ENDBRANCH  48  72
BRANCH  60  83
ATOM     83  C   UNL A   1      42.671  31.121  34.347  1.00  0.00     0.023 A 
ATOM     84  C   UNL A   1      42.777  31.617  35.661  1.00  0.00     0.012 A 
ATOM     85  C   UNL A   1      42.399  29.758  34.148  1.00  0.00     0.148 A 
ATOM     86  C   UNL A   1      42.635  30.762  36.756  1.00  0.00     0.002 A 
ATOM     87  C   UNL A   1      42.209  28.921  35.238  1.00  0.00     0.091 A 
ATOM     88  F   UNL A   1      42.315  29.305  32.888  1.00  0.00    -0.205 F 
ATOM     89  C   UNL A   1      42.337  29.416  36.546  1.00  0.00     0.022 A 
BRANCH  87  90
ATOM     90  S   UNL A   1      41.701  27.215  35.022  1.00  0.00     0.127 S 
ATOM     91  O   UNL A   1      40.682  27.327  33.982  1.00  0.00    -0.237 OA
ATOM     92  O   UNL A   1      42.942  26.567  34.595  1.00  0.00    -0.237 OA
ATOM     93  O   UNL A   1      41.224  26.775  36.328  1.00  0.00    -0.744 OA
ENDBRANCH  87  90
ENDBRANCH  60  83
ENDBRANCH  34  35
ENDBRANCH  27  29
ENDBRANCH  26  27
ENDBRANCH  25  26
ENDBRANCH  24  25
ENDBRANCH  23  24
ENDBRANCH  22  23
ENDBRANCH   1  22
TORSDOF 24
ENDMDL
MODEL 2
REMARK VINA RESULT:      -9.0      2.811      7.361
REMARK SMILES CNC(=O)CCCn1cc(C(=O)OCCOCCOCCOC(=O)c2ccc(-c3c4nc(c(-c5cccc(S(=O)(=O)[O-])c5F)c5ccc([nH]5)c(-c5cccc(S(=O)(=O)[O-])c5F)c5nc(c(-c6cccc(S(=O)(=O)[O-])c6F)c6ccc3[nH]6)C=C5)C=C4)cc2)cc1Br
REMARK SMILES IDX 17 1 16 2 15 3 14 4 13 5 11 6 12 7 10 8 8 9 9 10 89 11 88 12
REMARK SMILES IDX 90 13 7 14 6 15 5 16 3 17 1 18 2 19 4 21 18 22 19 23 20 24
REMARK SMILES IDX 21 25 22 26 23 27 24 28 25 29 26 30 87 31 27 32 86 33 28 34
REMARK SMILES IDX 29 35 30 36 80 37 31 38 85 39 79 40 81 41 32 42 84 43 78 44
REMARK SMILES IDX 77 45 33 47 65 48 45 49 64 50 46 51 49 52 63 53 82 54 47 55
REMARK SMILES IDX 48 56 62 58 83 59 50 60 34 61 35 62 43 63 36 64 38 65 44 66
REMARK SMILES IDX 37 67 39 68 40 69 41 70 42 71 66 72 67 73 75 74 68 75 70 76
REMARK SMILES IDX 76 77 69 78 71 79 72 80 73 81 74 82 51 83 52 84 60 85 53 86
REMARK SMILES IDX 55 87 61 88 54 89 56 90 57 91 58 92 59 93
REMARK H PARENT 2 20 81 46 49 57
REMARK Flexibility Score: inf
ROOT
ATOM      1  C   UNL A   1      37.607  21.159  25.107  1.00  0.00     0.188 C 
ENDROOT
BRANCH   1   2
ATOM      2  O   UNL A   1      37.177  22.483  25.306  1.00  0.00    -0.376 OA
BRANCH   2   3
ATOM      3  C   UNL A   1      36.637  23.245  24.242  1.00  0.00     0.202 C 
BRANCH   3   4
ATOM      4  C   UNL A   1      35.325  22.931  23.486  1.00  0.00     0.261 C 
BRANCH   4   5
ATOM      5  O   UNL A   1      34.743  23.973  22.703  1.00  0.00    -0.460 OA
BRANCH   5   6
ATOM      6  C   UNL A   1      33.403  23.879  22.484  1.00  0.00     0.339 C 
ATOM      7  O   UNL A   1      32.838  22.909  21.988  1.00  0.00    -0.246 OA
BRANCH   6   8
ATOM      8  C   UNL A   1      32.675  24.966  23.114  1.00  0.00     0.078 A 
ATOM      9  N   UNL A   1      31.429  26.195  24.521  1.00  0.00    -0.341 N 
ATOM     10  C   UNL A   1      32.171  25.036  24.403  1.00  0.00     0.102 A 
ATOM     11  C   UNL A   1      31.368  26.792  23.285  1.00  0.00     0.085 A 
ATOM     12  C   UNL A   1      32.213  26.124  22.437  1.00  0.00     0.051 A 
ATOM     13  Br  UNL A   1      30.330  28.224  22.681  1.00  0.00    -0.031 Br
BRANCH   9  14
ATOM     14  C   UNL A   1      30.755  26.585  25.749  1.00  0.00     0.123 C 
BRANCH  14  15
ATOM     15  C   UNL A   1      31.568  27.480  26.700  1.00  0.00     0.032 C 
BRANCH  15  16
ATOM     16  C   UNL A   1      33.071  27.601  26.453  1.00  0.00     0.102 C 
BRANCH  16  17
ATOM     17  C   UNL A   1      33.606  28.752  25.615  1.00  0.00     0.219 C 
ATOM     18  C   UNL A   1      33.319  30.700  27.256  1.00  0.00     0.142 C 
ATOM     19  N   UNL A   1      33.646  30.042  26.019  1.00  0.00    -0.359 N 
ATOM     20  H   UNL A   1      33.966  30.660  25.323  1.00  0.00     0.163 HD
ATOM     21  O   UNL A   1      33.975  28.534  24.455  1.00  0.00    -0.275 OA
ENDBRANCH  16  17
ENDBRANCH  15  16
ENDBRANCH  14  15
ENDBRANCH   9  14
ENDBRANCH   6   8
ENDBRANCH   5   6
ENDBRANCH   4   5
ENDBRANCH   3   4
ENDBRANCH   2   3
ENDBRANCH   1   2
BRANCH   1  22
ATOM     22  C   UNL A   1      38.862  20.760  25.908  1.00  0.00     0.188 C 
BRANCH  22  23
ATOM     23  O   UNL A   1      40.136  21.342  25.666  1.00  0.00    -0.376 OA
BRANCH  23  24
ATOM     24  C   UNL A   1      40.675  22.382  26.471  1.00  0.00     0.202 C 
BRANCH  24  25
ATOM     25  C   UNL A   1      41.991  23.101  26.175  1.00  0.00     0.261 C 
BRANCH  25  26
ATOM     26  O   UNL A   1      42.172  24.318  26.861  1.00  0.00    -0.460 OA
BRANCH  26  27
ATOM     27  C   UNL A   1      41.792  25.396  26.152  1.00  0.00     0.338 C 
ATOM     28  O   UNL A   1      42.063  25.651  24.990  1.00  0.00    -0.246 OA
BRANCH  27  29
ATOM     29  C   UNL A   1      41.051  26.292  27.039  1.00  0.00     0.060 A 
ATOM     30  C   UNL A   1      40.775  27.560  26.528  1.00  0.00     0.016 A 
ATOM     31  C   UNL A   1      40.985  25.992  28.408  1.00  0.00     0.016 A 
ATOM     32  C   UNL A   1      40.705  28.602  27.416  1.00  0.00     0.010 A 
ATOM     33  C   UNL A   1      40.937  27.036  29.292  1.00  0.00     0.010 A 
ATOM     34  C   UNL A   1      40.902  28.328  28.772  1.00  0.00    -0.014 A 
BRANCH  34  35
ATOM     35  C   UNL A   1      41.037  29.452  29.665  1.00  0.00     0.031 A 
ATOM     36  C   UNL A   1      39.736  30.037  30.019  1.00  0.00     0.074 A 
ATOM     37  C   UNL A   1      42.236  29.823  30.150  1.00  0.00     0.049 A 
ATOM     38  N   UNL A   1      39.261  31.179  29.650  1.00  0.00    -0.248 NA
ATOM     39  C   UNL A   1      38.760  29.158  30.683  1.00  0.00     0.031 C 
ATOM     40  C   UNL A   1      43.497  29.077  30.033  1.00  0.00     0.029 A 
ATOM     41  N   UNL A   1      42.560  30.857  30.975  1.00  0.00    -0.354 N 
ATOM     42  C   UNL A   1      38.035  31.264  30.301  1.00  0.00     0.074 A 
ATOM     43  C   UNL A   1      37.670  29.924  30.663  1.00  0.00     0.031 C 
ATOM     44  C   UNL A   1      44.368  29.538  30.956  1.00  0.00     0.029 A 
ATOM     45  C   UNL A   1      43.776  30.684  31.624  1.00  0.00     0.049 A 
ATOM     46  H   UNL A   1      41.988  31.650  31.099  1.00  0.00     0.167 HD
ATOM     47  C   UNL A   1      37.633  32.449  30.829  1.00  0.00     0.034 A 
ATOM     48  C   UNL A   1      44.229  31.385  32.689  1.00  0.00     0.034 A 
ATOM     49  C   UNL A   1      38.396  33.544  30.288  1.00  0.00     0.049 A 
ATOM     50  C   UNL A   1      43.479  32.658  32.752  1.00  0.00     0.074 A 
ATOM     51  C   UNL A   1      38.460  34.238  29.101  1.00  0.00     0.029 A 
ATOM     52  N   UNL A   1      39.537  33.824  30.995  1.00  0.00    -0.354 N 
ATOM     53  N   UNL A   1      43.603  33.606  31.867  1.00  0.00    -0.248 NA
ATOM     54  C   UNL A   1      42.323  32.774  33.635  1.00  0.00     0.031 C 
ATOM     55  C   UNL A   1      39.748  34.847  29.065  1.00  0.00     0.029 A 
ATOM     56  C   UNL A   1      40.435  34.519  30.233  1.00  0.00     0.049 A 
ATOM     57  H   UNL A   1      39.690  33.558  31.930  1.00  0.00     0.167 HD
ATOM     58  C   UNL A   1      42.336  34.153  31.787  1.00  0.00     0.074 A 
ATOM     59  C   UNL A   1      41.661  33.753  33.012  1.00  0.00     0.031 C 
ATOM     60  C   UNL A   1      41.837  34.578  30.593  1.00  0.00     0.034 A 
BRANCH  47  61
ATOM     61  C   UNL A   1      36.942  32.604  32.174  1.00  0.00     0.023 A 
ATOM     62  C   UNL A   1      35.701  33.281  32.162  1.00  0.00     0.012 A 
ATOM     63  C   UNL A   1      37.552  32.422  33.438  1.00  0.00     0.148 A 
ATOM     64  C   UNL A   1      35.137  33.806  33.329  1.00  0.00     0.002 A 
ATOM     65  C   UNL A   1      36.956  32.887  34.604  1.00  0.00     0.091 A 
ATOM     66  F   UNL A   1      38.782  31.917  33.533  1.00  0.00    -0.205 F 
ATOM     67  C   UNL A   1      35.764  33.609  34.552  1.00  0.00     0.022 A 
BRANCH  65  68
ATOM     68  S   UNL A   1      37.722  32.638  36.212  1.00  0.00     0.127 S 
ATOM     69  O   UNL A   1      36.730  33.233  37.101  1.00  0.00    -0.237 OA
ATOM     70  O   UNL A   1      37.816  31.179  36.274  1.00  0.00    -0.237 OA
ATOM     71  O   UNL A   1      39.011  33.316  36.145  1.00  0.00    -0.744 OA
ENDBRANCH  65  68
ENDBRANCH  47  61
BRANCH  48  72
ATOM     72  C   UNL A   1      45.153  30.976  33.766  1.00  0.00     0.023 A 
ATOM     73  C   UNL A   1      46.471  31.472  33.775  1.00  0.00     0.012 A 
ATOM     74  C   UNL A   1      44.674  30.320  34.922  1.00  0.00     0.148 A 
ATOM     75  C   UNL A   1      47.275  31.355  34.913  1.00  0.00     0.002 A 
ATOM     76  C   UNL A   1      45.479  30.202  36.050  1.00  0.00     0.091 A 
ATOM     77  F   UNL A   1      43.404  29.893  34.940  1.00  0.00    -0.205 F 
ATOM     78  C   UNL A   1      46.777  30.731  36.053  1.00  0.00     0.022 A 
BRANCH  76  79
ATOM     79  S   UNL A   1      44.901  29.435  37.570  1.00  0.00     0.127 S 
ATOM     80  O   UNL A   1      45.972  29.778  38.506  1.00  0.00    -0.237 OA
ATOM     81  O   UNL A   1      43.640  30.137  37.799  1.00  0.00    -0.237 OA
ATOM     82  O   UNL A   1      44.787  28.011  37.282  1.00  0.00    -0.744 OA
ENDBRANCH  76  79
ENDBRANCH  48  72
BRANCH  60  83
ATOM     83  C   UNL A   1      42.819  34.933  29.517  1.00  0.00     0.023 A 
ATOM     84  C   UNL A   1      43.398  36.212  29.407  1.00  0.00     0.012 A 
ATOM     85  C   UNL A   1      43.240  33.912  28.650  1.00  0.00     0.148 A 
ATOM     86  C   UNL A   1      44.365  36.472  28.434  1.00  0.00     0.002 A 
ATOM     87  C   UNL A   1      44.236  34.161  27.717  1.00  0.00     0.091 A 
ATOM     88  F   UNL A   1      42.667  32.705  28.763  1.00  0.00    -0.205 F 
ATOM     89  C   UNL A   1      44.795  35.443  27.597  1.00  0.00     0.022 A 
BRANCH  87  90
ATOM     90  S   UNL A   1      44.912  32.843  26.705  1.00  0.00     0.127 S 
ATOM     91  O   UNL A   1      43.795  32.537  25.814  1.00  0.00    -0.237 OA
ATOM     92  O   UNL A   1      46.051  33.494  26.057  1.00  0.00    -0.237 OA
ATOM     93  O   UNL A   1      45.286  31.784  27.633  1.00  0.00    -0.744 OA
ENDBRANCH  87  90
ENDBRANCH  60  83
ENDBRANCH  34  35
ENDBRANCH  27  29
ENDBRANCH  26  27
ENDBRANCH  25  26
ENDBRANCH  24  25
ENDBRANCH  23  24
ENDBRANCH  22  23
ENDBRANCH   1  22
TORSDOF 24
ENDMDL
MODEL 3
REMARK VINA RESULT:      -8.5      3.763      7.509
REMARK SMILES CNC(=O)CCCn1cc(C(=O)OCCOCCOCCOC(=O)c2ccc(-c3c4nc(c(-c5cccc(S(=O)(=O)[O-])c5F)c5ccc([nH]5)c(-c5cccc(S(=O)(=O)[O-])c5F)c5nc(c(-c6cccc(S(=O)(=O)[O-])c6F)c6ccc3[nH]6)C=C5)C=C4)cc2)cc1Br
REMARK SMILES IDX 17 1 16 2 15 3 14 4 13 5 11 6 12 7 10 8 8 9 9 10 89 11 88 12
REMARK SMILES IDX 90 13 7 14 6 15 5 16 3 17 1 18 2 19 4 21 18 22 19 23 20 24
REMARK SMILES IDX 21 25 22 26 23 27 24 28 25 29 26 30 87 31 27 32 86 33 28 34
REMARK SMILES IDX 29 35 30 36 80 37 31 38 85 39 79 40 81 41 32 42 84 43 78 44
REMARK SMILES IDX 77 45 33 47 65 48 45 49 64 50 46 51 49 52 63 53 82 54 47 55
REMARK SMILES IDX 48 56 62 58 83 59 50 60 34 61 35 62 43 63 36 64 38 65 44 66
REMARK SMILES IDX 37 67 39 68 40 69 41 70 42 71 66 72 67 73 75 74 68 75 70 76
REMARK SMILES IDX 76 77 69 78 71 79 72 80 73 81 74 82 51 83 52 84 60 85 53 86
REMARK SMILES IDX 55 87 61 88 54 89 56 90 57 91 58 92 59 93
REMARK H PARENT 2 20 81 46 49 57
REMARK Flexibility Score: inf
ROOT
ATOM      1  C   UNL A   1      31.031  28.212  22.541  1.00  0.00     0.188 C 
ENDROOT
BRANCH   1   2
ATOM      2  O   UNL A   1      30.993  26.840  22.231  1.00  0.00    -0.376 OA
BRANCH   2   3
ATOM      3  C   UNL A   1      31.880  26.280  21.280  1.00  0.00     0.202 C 
BRANCH   3   4
ATOM      4  C   UNL A   1      32.715  24.994  21.478  1.00  0.00     0.261 C 
BRANCH   4   5
ATOM      5  O   UNL A   1      33.971  25.112  22.145  1.00  0.00    -0.460 OA
BRANCH   5   6
ATOM      6  C   UNL A   1      33.919  25.219  23.502  1.00  0.00     0.339 C 
ATOM      7  O   UNL A   1      33.703  26.259  24.117  1.00  0.00    -0.246 OA
BRANCH   6   8
ATOM      8  C   UNL A   1      33.920  23.918  24.147  1.00  0.00     0.078 A 
ATOM      9  N   UNL A   1      33.561  21.758  24.642  1.00  0.00    -0.341 N 
ATOM     10  C   UNL A   1      33.524  22.696  23.629  1.00  0.00     0.102 A 
ATOM     11  C   UNL A   1      33.864  22.406  25.815  1.00  0.00     0.085 A 
ATOM     12  C   UNL A   1      34.200  23.703  25.522  1.00  0.00     0.051 A 
ATOM     13  Br  UNL A   1      33.820  21.799  27.582  1.00  0.00    -0.031 Br
BRANCH   9  14
ATOM     14  C   UNL A   1      33.205  20.361  24.446  1.00  0.00     0.123 C 
BRANCH  14  15
ATOM     15  C   UNL A   1      34.381  19.369  24.438  1.00  0.00     0.032 C 
BRANCH  15  16
ATOM     16  C   UNL A   1      34.100  17.929  24.863  1.00  0.00     0.102 C 
BRANCH  16  17
ATOM     17  C   UNL A   1      33.428  16.974  23.890  1.00  0.00     0.219 C 
ATOM     18  C   UNL A   1      32.597  15.166  25.506  1.00  0.00     0.142 C 
ATOM     19  N   UNL A   1      32.841  15.807  24.241  1.00  0.00    -0.359 N 
ATOM     20  H   UNL A   1      32.512  15.288  23.471  1.00  0.00     0.163 HD
ATOM     21  O   UNL A   1      33.462  17.223  22.678  1.00  0.00    -0.275 OA
ENDBRANCH  16  17
ENDBRANCH  15  16
ENDBRANCH  14  15
ENDBRANCH   9  14
ENDBRANCH   6   8
ENDBRANCH   5   6
ENDBRANCH   4   5
ENDBRANCH   3   4
ENDBRANCH   2   3
ENDBRANCH   1   2
BRANCH   1  22
ATOM     22  C   UNL A   1      30.570  28.564  23.969  1.00  0.00     0.188 C 
BRANCH  22  23
ATOM     23  O   UNL A   1      31.127  29.646  24.704  1.00  0.00    -0.376 OA
BRANCH  23  24
ATOM     24  C   UNL A   1      31.876  29.464  25.898  1.00  0.00     0.202 C 
BRANCH  24  25
ATOM     25  C   UNL A   1      32.336  30.606  26.804  1.00  0.00     0.261 C 
BRANCH  25  26
ATOM     26  O   UNL A   1      33.732  30.755  26.912  1.00  0.00    -0.460 OA
BRANCH  26  27
ATOM     27  C   UNL A   1      34.105  31.682  27.812  1.00  0.00     0.338 C 
ATOM     28  O   UNL A   1      33.666  32.814  27.935  1.00  0.00    -0.246 OA
BRANCH  27  29
ATOM     29  C   UNL A   1      35.218  31.143  28.593  1.00  0.00     0.060 A 
ATOM     30  C   UNL A   1      35.309  31.595  29.910  1.00  0.00     0.016 A 
ATOM     31  C   UNL A   1      36.288  30.532  27.922  1.00  0.00     0.016 A 
ATOM     32  C   UNL A   1      36.560  31.689  30.464  1.00  0.00     0.010 A 
ATOM     33  C   UNL A   1      37.538  30.648  28.468  1.00  0.00     0.010 A 
ATOM     34  C   UNL A   1      37.657  31.318  29.683  1.00  0.00    -0.014 A 
BRANCH  34  35
ATOM     35  C   UNL A   1      38.971  31.620  30.196  1.00  0.00     0.031 A 
ATOM     36  C   UNL A   1      39.667  30.417  30.677  1.00  0.00     0.074 A 
ATOM     37  C   UNL A   1      39.479  32.865  30.137  1.00  0.00     0.049 A 
ATOM     38  N   UNL A   1      39.940  30.103  31.899  1.00  0.00    -0.248 NA
ATOM     39  C   UNL A   1      39.894  29.336  29.705  1.00  0.00     0.031 C 
ATOM     40  C   UNL A   1      38.913  34.006  29.406  1.00  0.00     0.029 A 
ATOM     41  N   UNL A   1      40.674  33.339  30.584  1.00  0.00    -0.354 N 
ATOM     42  C   UNL A   1      40.645  28.909  31.793  1.00  0.00     0.074 A 
ATOM     43  C   UNL A   1      40.337  28.364  30.502  1.00  0.00     0.031 C 
ATOM     44  C   UNL A   1      39.871  34.944  29.247  1.00  0.00     0.029 A 
ATOM     45  C   UNL A   1      41.058  34.527  29.974  1.00  0.00     0.049 A 
ATOM     46  H   UNL A   1      41.213  32.886  31.273  1.00  0.00     0.167 HD
ATOM     47  C   UNL A   1      41.714  28.683  32.601  1.00  0.00     0.034 A 
ATOM     48  C   UNL A   1      42.289  35.086  30.000  1.00  0.00     0.034 A 
ATOM     49  C   UNL A   1      41.715  29.585  33.724  1.00  0.00     0.049 A 
ATOM     50  C   UNL A   1      43.024  34.523  31.153  1.00  0.00     0.074 A 
ATOM     51  C   UNL A   1      41.016  29.732  34.900  1.00  0.00     0.029 A 
ATOM     52  N   UNL A   1      42.376  30.763  33.483  1.00  0.00    -0.354 N 
ATOM     53  N   UNL A   1      42.705  34.768  32.393  1.00  0.00    -0.248 NA
ATOM     54  C   UNL A   1      43.940  33.405  30.952  1.00  0.00     0.031 C 
ATOM     55  C   UNL A   1      41.179  31.092  35.293  1.00  0.00     0.029 A 
ATOM     56  C   UNL A   1      41.980  31.740  34.354  1.00  0.00     0.049 A 
ATOM     57  H   UNL A   1      43.048  30.888  32.775  1.00  0.00     0.167 HD
ATOM     58  C   UNL A   1      43.003  33.590  33.051  1.00  0.00     0.074 A 
ATOM     59  C   UNL A   1      43.927  32.880  32.180  1.00  0.00     0.031 C 
ATOM     60  C   UNL A   1      42.211  33.140  34.065  1.00  0.00     0.034 A 
BRANCH  47  61
ATOM     61  C   UNL A   1      43.013  28.036  32.151  1.00  0.00     0.023 A 
ATOM     62  C   UNL A   1      43.518  27.010  32.981  1.00  0.00     0.012 A 
ATOM     63  C   UNL A   1      43.902  28.563  31.184  1.00  0.00     0.148 A 
ATOM     64  C   UNL A   1      44.847  26.583  32.900  1.00  0.00     0.002 A 
ATOM     65  C   UNL A   1      45.203  28.090  31.062  1.00  0.00     0.091 A 
ATOM     66  F   UNL A   1      43.559  29.622  30.450  1.00  0.00    -0.205 F 
ATOM     67  C   UNL A   1      45.691  27.122  31.939  1.00  0.00     0.022 A 
BRANCH  65  68
ATOM     68  S   UNL A   1      46.326  28.745  29.819  1.00  0.00     0.127 S 
ATOM     69  O   UNL A   1      46.576  30.088  30.332  1.00  0.00    -0.237 OA
ATOM     70  O   UNL A   1      47.456  27.820  29.921  1.00  0.00    -0.237 OA
ATOM     71  O   UNL A   1      45.605  28.667  28.554  1.00  0.00    -0.744 OA
ENDBRANCH  65  68
ENDBRANCH  47  61
BRANCH  48  72
ATOM     72  C   UNL A   1      42.953  35.957  29.008  1.00  0.00     0.023 A 
ATOM     73  C   UNL A   1      42.852  35.651  27.637  1.00  0.00     0.012 A 
ATOM     74  C   UNL A   1      43.456  37.224  29.379  1.00  0.00     0.148 A 
ATOM     75  C   UNL A   1      43.203  36.592  26.664  1.00  0.00     0.002 A 
ATOM     76  C   UNL A   1      43.808  38.154  28.407  1.00  0.00     0.091 A 
ATOM     77  F   UNL A   1      43.505  37.542  30.680  1.00  0.00    -0.205 F 
ATOM     78  C   UNL A   1      43.669  37.846  27.047  1.00  0.00     0.022 A 
BRANCH  76  79
ATOM     79  S   UNL A   1      44.392  39.804  28.820  1.00  0.00     0.127 S 
ATOM     80  O   UNL A   1      44.972  40.243  27.550  1.00  0.00    -0.237 OA
ATOM     81  O   UNL A   1      43.150  40.479  29.190  1.00  0.00    -0.237 OA
ATOM     82  O   UNL A   1      45.360  39.630  29.894  1.00  0.00    -0.744 OA
ENDBRANCH  76  79
ENDBRANCH  48  72
BRANCH  60  83
ATOM     83  C   UNL A   1      41.370  34.150  34.787  1.00  0.00     0.023 A 
ATOM     84  C   UNL A   1      40.029  34.408  34.443  1.00  0.00     0.012 A 
ATOM     85  C   UNL A   1      41.926  34.786  35.909  1.00  0.00     0.148 A 
ATOM     86  C   UNL A   1      39.264  35.303  35.194  1.00  0.00     0.002 A 
ATOM     87  C   UNL A   1      41.148  35.636  36.681  1.00  0.00     0.091 A 
ATOM     88  F   UNL A   1      43.209  34.535  36.211  1.00  0.00    -0.205 F 
ATOM     89  C   UNL A   1      39.819  35.907  36.322  1.00  0.00     0.022 A 
BRANCH  87  90
ATOM     90  S   UNL A   1      41.774  36.338  38.208  1.00  0.00     0.127 S 
ATOM     91  O   UNL A   1      40.641  37.138  38.666  1.00  0.00    -0.237 OA
ATOM     92  O   UNL A   1      42.049  35.147  39.014  1.00  0.00    -0.237 OA
ATOM     93  O   UNL A   1      42.968  37.089  37.839  1.00  0.00    -0.744 OA
ENDBRANCH  87  90
ENDBRANCH  60  83
ENDBRANCH  34  35
ENDBRANCH  27  29
ENDBRANCH  26  27
ENDBRANCH  25  26
ENDBRANCH  24  25
ENDBRANCH  23  24
ENDBRANCH  22  23
ENDBRANCH   1  22
TORSDOF 24
ENDMDL
