MODEL 1
REMARK VINA RESULT:     -10.3      0.000      0.000
REMARK SMILES COc1ccc([C@@H]2[NH2+][C@H](C(=O)OCCOCCOCCOC(=O)c3ccc(-c4c5nc(c(-c6cccc(S(=O)(=O)[O-])c6F)c6ccc([nH]6)c(-c6cccc(S(=O)(=O)[O-])c6F)c6nc(c(-c7cccc(S(=O)(=O)[O-])c7F)c7ccc4[nH]7)C=C6)C=C5)cc3)CS2)cc1Cn1nc(C)c(Br)c1C
REMARK SMILES IDX 16 1 15 2 14 3 13 4 12 5 10 6 11 7 9 8 7 9 8 10 88 11 87 14
REMARK SMILES IDX 6 15 3 16 4 17 90 18 5 19 89 20 2 21 1 22 91 23 92 24 93 25
REMARK SMILES IDX 98 26 94 27 96 28 99 29 95 30 97 31 17 32 18 33 19 34 20 35
REMARK SMILES IDX 21 36 22 37 23 38 24 39 25 40 86 41 26 42 85 43 27 44 28 45
REMARK SMILES IDX 29 46 79 47 30 48 84 49 78 50 80 51 31 52 83 53 77 54 76 55
REMARK SMILES IDX 32 57 64 58 44 59 63 60 45 61 48 62 62 63 81 64 46 65 47 66
REMARK SMILES IDX 61 68 82 69 49 70 33 71 34 72 42 73 35 74 37 75 43 76 36 77
REMARK SMILES IDX 38 78 39 79 40 80 41 81 65 82 66 83 74 84 67 85 69 86 75 87
REMARK SMILES IDX 68 88 70 89 71 90 72 91 73 92 50 93 51 94 59 95 52 96 54 97
REMARK SMILES IDX 60 98 53 99 55 100 56 101 57 102 58 103
REMARK H PARENT 8 12 8 13 80 56 48 67
REMARK Flexibility Score: inf
ROOT
ATOM      1  C   UNL A   1      34.053  31.533  27.862  1.00  0.00     0.188 C 
ENDROOT
BRANCH   1   2
ATOM      2  O   UNL A   1      32.762  31.664  27.289  1.00  0.00    -0.376 OA
BRANCH   2   3
ATOM      3  C   UNL A   1      32.224  30.497  26.686  1.00  0.00     0.202 C 
BRANCH   3   4
ATOM      4  C   UNL A   1      33.220  29.517  26.069  1.00  0.00     0.261 C 
BRANCH   4   5
ATOM      5  O   UNL A   1      33.388  29.571  24.645  1.00  0.00    -0.459 OA
BRANCH   5   6
ATOM      6  C   UNL A   1      33.108  28.444  23.945  1.00  0.00     0.365 C 
ATOM      7  O   UNL A   1      33.644  27.357  24.136  1.00  0.00    -0.245 OA
BRANCH   6   8
ATOM      8  C   UNL A   1      32.029  28.621  22.871  1.00  0.00     0.304 C 
ATOM      9  C   UNL A   1      30.434  26.815  22.660  1.00  0.00     0.274 C 
ATOM     10  N   UNL A   1      31.660  27.393  22.117  1.00  0.00    -0.319 N 
ATOM     11  S   UNL A   1      29.401  28.175  23.225  1.00  0.00    -0.087 SA
ATOM     12  H   UNL A   1      31.514  27.631  21.136  1.00  0.00     0.348 HD
ATOM     13  H   UNL A   1      32.413  26.712  22.203  1.00  0.00     0.348 HD
ATOM     14  C   UNL A   1      30.801  29.289  23.489  1.00  0.00     0.153 C 
BRANCH   9  15
ATOM     15  C   UNL A   1      30.678  25.712  23.678  1.00  0.00     0.021 A 
ATOM     16  C   UNL A   1      31.029  23.704  25.630  1.00  0.00     0.123 A 
ATOM     17  C   UNL A   1      30.453  24.931  25.972  1.00  0.00     0.047 A 
ATOM     18  C   UNL A   1      31.431  23.438  24.312  1.00  0.00     0.016 A 
ATOM     19  C   UNL A   1      30.282  25.925  25.007  1.00  0.00     0.015 A 
ATOM     20  C   UNL A   1      31.250  24.462  23.355  1.00  0.00     0.020 A 
BRANCH  16  21
ATOM     21  O   UNL A   1      31.087  22.768  26.626  1.00  0.00    -0.496 OA
ATOM     22  C   UNL A   1      32.263  22.872  27.423  1.00  0.00     0.278 C 
ENDBRANCH  16  21
BRANCH  18  23
ATOM     23  C   UNL A   1      32.106  22.144  23.911  1.00  0.00     0.184 C 
BRANCH  23  24
ATOM     24  N   UNL A   1      33.520  22.020  24.268  1.00  0.00    -0.264 N 
ATOM     25  N   UNL A   1      34.277  23.145  24.334  1.00  0.00    -0.177 NA
ATOM     26  C   UNL A   1      34.261  20.866  24.438  1.00  0.00     0.050 A 
ATOM     27  C   UNL A   1      35.507  22.709  24.639  1.00  0.00     0.074 A 
ATOM     28  C   UNL A   1      35.550  21.303  24.656  1.00  0.00     0.061 A 
ATOM     29  C   UNL A   1      33.695  19.495  24.492  1.00  0.00     0.067 C 
ATOM     30  C   UNL A   1      36.588  23.676  24.959  1.00  0.00     0.070 C 
ATOM     31  Br  UNL A   1      37.060  20.267  25.057  1.00  0.00    -0.047 Br
ENDBRANCH  23  24
ENDBRANCH  18  23
ENDBRANCH   9  15
ENDBRANCH   6   8
ENDBRANCH   5   6
ENDBRANCH   4   5
ENDBRANCH   3   4
ENDBRANCH   2   3
ENDBRANCH   1   2
BRANCH   1  32
ATOM     32  C   UNL A   1      34.947  32.791  27.926  1.00  0.00     0.188 C 
BRANCH  32  33
ATOM     33  O   UNL A   1      34.254  34.029  27.884  1.00  0.00    -0.376 OA
BRANCH  33  34
ATOM     34  C   UNL A   1      33.288  34.224  28.908  1.00  0.00     0.202 C 
BRANCH  34  35
ATOM     35  C   UNL A   1      32.980  35.689  29.255  1.00  0.00     0.261 C 
BRANCH  35  36
ATOM     36  O   UNL A   1      33.512  36.155  30.507  1.00  0.00    -0.460 OA
BRANCH  36  37
ATOM     37  C   UNL A   1      33.008  35.618  31.648  1.00  0.00     0.338 C 
ATOM     38  O   UNL A   1      31.844  35.548  31.967  1.00  0.00    -0.246 OA
BRANCH  37  39
ATOM     39  C   UNL A   1      34.120  34.868  32.295  1.00  0.00     0.060 A 
ATOM     40  C   UNL A   1      35.352  35.520  32.472  1.00  0.00     0.016 A 
ATOM     41  C   UNL A   1      33.920  33.589  32.823  1.00  0.00     0.016 A 
ATOM     42  C   UNL A   1      36.391  34.884  33.153  1.00  0.00     0.010 A 
ATOM     43  C   UNL A   1      34.974  32.936  33.468  1.00  0.00     0.010 A 
ATOM     44  C   UNL A   1      36.226  33.565  33.596  1.00  0.00    -0.014 A 
BRANCH  44  45
ATOM     45  C   UNL A   1      37.433  32.738  33.837  1.00  0.00     0.031 A 
ATOM     46  C   UNL A   1      38.261  33.103  35.043  1.00  0.00     0.074 A 
ATOM     47  C   UNL A   1      37.798  31.715  33.046  1.00  0.00     0.049 A 
ATOM     48  N   UNL A   1      39.366  32.571  35.489  1.00  0.00    -0.248 NA
ATOM     49  C   UNL A   1      37.766  34.231  35.856  1.00  0.00     0.031 C 
ATOM     50  C   UNL A   1      37.082  31.252  31.858  1.00  0.00     0.029 A 
ATOM     51  N   UNL A   1      38.893  30.888  33.121  1.00  0.00    -0.354 N 
ATOM     52  C   UNL A   1      39.707  33.309  36.617  1.00  0.00     0.074 A 
ATOM     53  C   UNL A   1      38.703  34.333  36.783  1.00  0.00     0.031 C 
ATOM     54  C   UNL A   1      37.774  30.241  31.299  1.00  0.00     0.029 A 
ATOM     55  C   UNL A   1      38.989  29.996  32.078  1.00  0.00     0.049 A 
ATOM     56  H   UNL A   1      39.549  30.930  33.855  1.00  0.00     0.167 HD
ATOM     57  C   UNL A   1      40.753  33.145  37.456  1.00  0.00     0.034 A 
ATOM     58  C   UNL A   1      39.955  29.101  31.786  1.00  0.00     0.034 A 
ATOM     59  C   UNL A   1      41.758  32.135  37.293  1.00  0.00     0.049 A 
ATOM     60  C   UNL A   1      41.135  28.958  32.721  1.00  0.00     0.074 A 
ATOM     61  C   UNL A   1      42.856  31.878  38.092  1.00  0.00     0.029 A 
ATOM     62  N   UNL A   1      41.792  31.223  36.251  1.00  0.00    -0.354 N 
ATOM     63  N   UNL A   1      41.384  29.587  33.845  1.00  0.00    -0.248 NA
ATOM     64  C   UNL A   1      42.151  27.955  32.362  1.00  0.00     0.031 C 
ATOM     65  C   UNL A   1      43.568  30.818  37.520  1.00  0.00     0.029 A 
ATOM     66  C   UNL A   1      42.893  30.399  36.384  1.00  0.00     0.049 A 
ATOM     67  H   UNL A   1      41.131  31.172  35.523  1.00  0.00     0.167 HD
ATOM     68  C   UNL A   1      42.551  29.021  34.352  1.00  0.00     0.074 A 
ATOM     69  C   UNL A   1      42.955  27.991  33.417  1.00  0.00     0.031 C 
ATOM     70  C   UNL A   1      43.235  29.330  35.482  1.00  0.00     0.034 A 
BRANCH  57  71
ATOM     71  C   UNL A   1      40.843  34.077  38.631  1.00  0.00     0.023 A 
ATOM     72  C   UNL A   1      41.797  35.117  38.622  1.00  0.00     0.012 A 
ATOM     73  C   UNL A   1      39.982  33.935  39.734  1.00  0.00     0.148 A 
ATOM     74  C   UNL A   1      41.912  35.982  39.709  1.00  0.00     0.002 A 
ATOM     75  C   UNL A   1      40.071  34.831  40.793  1.00  0.00     0.091 A 
ATOM     76  F   UNL A   1      39.108  32.919  39.737  1.00  0.00    -0.205 F 
ATOM     77  C   UNL A   1      41.042  35.845  40.788  1.00  0.00     0.022 A 
BRANCH  75  78
ATOM     78  S   UNL A   1      38.950  34.783  42.193  1.00  0.00     0.127 S 
ATOM     79  O   UNL A   1      39.520  33.699  42.992  1.00  0.00    -0.237 OA
ATOM     80  O   UNL A   1      39.120  36.118  42.767  1.00  0.00    -0.237 OA
ATOM     81  O   UNL A   1      37.628  34.524  41.642  1.00  0.00    -0.744 OA
ENDBRANCH  75  78
ENDBRANCH  57  71
BRANCH  58  82
ATOM     82  C   UNL A   1      39.843  28.228  30.580  1.00  0.00     0.023 A 
ATOM     83  C   UNL A   1      38.998  27.101  30.615  1.00  0.00     0.012 A 
ATOM     84  C   UNL A   1      40.581  28.493  29.410  1.00  0.00     0.148 A 
ATOM     85  C   UNL A   1      38.918  26.235  29.524  1.00  0.00     0.002 A 
ATOM     86  C   UNL A   1      40.458  27.654  28.308  1.00  0.00     0.091 A 
ATOM     87  F   UNL A   1      41.398  29.556  29.402  1.00  0.00    -0.205 F 
ATOM     88  C   UNL A   1      39.641  26.515  28.369  1.00  0.00     0.022 A 
BRANCH  86  89
ATOM     89  S   UNL A   1      41.266  27.994  26.740  1.00  0.00     0.127 S 
ATOM     90  O   UNL A   1      40.578  29.206  26.304  1.00  0.00    -0.237 OA
ATOM     91  O   UNL A   1      42.656  28.191  27.155  1.00  0.00    -0.237 OA
ATOM     92  O   UNL A   1      41.046  26.810  25.920  1.00  0.00    -0.744 OA
ENDBRANCH  86  89
ENDBRANCH  58  82
BRANCH  70  93
ATOM     93  C   UNL A   1      44.452  28.509  35.822  1.00  0.00     0.023 A 
ATOM     94  C   UNL A   1      45.736  28.970  35.474  1.00  0.00     0.012 A 
ATOM     95  C   UNL A   1      44.323  27.322  36.570  1.00  0.00     0.148 A 
ATOM     96  C   UNL A   1      46.871  28.245  35.838  1.00  0.00     0.002 A 
ATOM     97  C   UNL A   1      45.460  26.631  36.972  1.00  0.00     0.091 A 
ATOM     98  F   UNL A   1      43.090  26.889  36.877  1.00  0.00    -0.205 F 
ATOM     99  C   UNL A   1      46.734  27.084  36.596  1.00  0.00     0.022 A 
BRANCH  97 100
ATOM    100  S   UNL A   1      45.375  25.186  38.036  1.00  0.00     0.127 S 
ATOM    101  O   UNL A   1      46.774  25.018  38.424  1.00  0.00    -0.237 OA
ATOM    102  O   UNL A   1      44.494  25.642  39.112  1.00  0.00    -0.237 OA
ATOM    103  O   UNL A   1      44.817  24.119  37.216  1.00  0.00    -0.744 OA
ENDBRANCH  97 100
ENDBRANCH  70  93
ENDBRANCH  44  45
ENDBRANCH  37  39
ENDBRANCH  36  37
ENDBRANCH  35  36
ENDBRANCH  34  35
ENDBRANCH  33  34
ENDBRANCH  32  33
ENDBRANCH   1  32
TORSDOF 24
ENDMDL
MODEL 2
REMARK VINA RESULT:      -9.6      2.352      7.920
REMARK SMILES COc1ccc([C@@H]2[NH2+][C@H](C(=O)OCCOCCOCCOC(=O)c3ccc(-c4c5nc(c(-c6cccc(S(=O)(=O)[O-])c6F)c6ccc([nH]6)c(-c6cccc(S(=O)(=O)[O-])c6F)c6nc(c(-c7cccc(S(=O)(=O)[O-])c7F)c7ccc4[nH]7)C=C6)C=C5)cc3)CS2)cc1Cn1nc(C)c(Br)c1C
REMARK SMILES IDX 16 1 15 2 14 3 13 4 12 5 10 6 11 7 9 8 7 9 8 10 88 11 87 14
REMARK SMILES IDX 6 15 3 16 4 17 90 18 5 19 89 20 2 21 1 22 91 23 92 24 93 25
REMARK SMILES IDX 98 26 94 27 96 28 99 29 95 30 97 31 17 32 18 33 19 34 20 35
REMARK SMILES IDX 21 36 22 37 23 38 24 39 25 40 86 41 26 42 85 43 27 44 28 45
REMARK SMILES IDX 29 46 79 47 30 48 84 49 78 50 80 51 31 52 83 53 77 54 76 55
REMARK SMILES IDX 32 57 64 58 44 59 63 60 45 61 48 62 62 63 81 64 46 65 47 66
REMARK SMILES IDX 61 68 82 69 49 70 33 71 34 72 42 73 35 74 37 75 43 76 36 77
REMARK SMILES IDX 38 78 39 79 40 80 41 81 65 82 66 83 74 84 67 85 69 86 75 87
REMARK SMILES IDX 68 88 70 89 71 90 72 91 73 92 50 93 51 94 59 95 52 96 54 97
REMARK SMILES IDX 60 98 53 99 55 100 56 101 57 102 58 103
REMARK H PARENT 8 12 8 13 80 56 48 67
REMARK Flexibility Score: inf
ROOT
ATOM      1  C   UNL A   1      34.095  28.727  26.340  1.00  0.00     0.188 C 
ENDROOT
BRANCH   1   2
ATOM      2  O   UNL A   1      33.634  29.169  25.073  1.00  0.00    -0.376 OA
BRANCH   2   3
ATOM      3  C   UNL A   1      34.008  28.374  23.959  1.00  0.00     0.202 C 
BRANCH   3   4
ATOM      4  C   UNL A   1      33.246  28.609  22.656  1.00  0.00     0.261 C 
BRANCH   4   5
ATOM      5  O   UNL A   1      31.841  28.877  22.765  1.00  0.00    -0.459 OA
BRANCH   5   6
ATOM      6  C   UNL A   1      30.996  27.832  22.585  1.00  0.00     0.365 C 
ATOM      7  O   UNL A   1      30.998  27.098  21.601  1.00  0.00    -0.245 OA
BRANCH   6   8
ATOM      8  C   UNL A   1      30.011  27.612  23.739  1.00  0.00     0.304 C 
ATOM      9  C   UNL A   1      30.237  25.525  24.943  1.00  0.00     0.274 C 
ATOM     10  N   UNL A   1      29.499  26.223  23.895  1.00  0.00    -0.319 N 
ATOM     11  S   UNL A   1      30.674  26.741  26.196  1.00  0.00    -0.087 SA
ATOM     12  H   UNL A   1      28.511  26.256  24.144  1.00  0.00     0.348 HD
ATOM     13  H   UNL A   1      29.622  25.724  23.015  1.00  0.00     0.348 HD
ATOM     14  C   UNL A   1      30.628  28.130  25.039  1.00  0.00     0.153 C 
BRANCH   9  15
ATOM     15  C   UNL A   1      31.389  24.682  24.420  1.00  0.00     0.021 A 
ATOM     16  C   UNL A   1      33.600  23.162  23.544  1.00  0.00     0.123 A 
ATOM     17  C   UNL A   1      33.794  24.387  24.189  1.00  0.00     0.047 A 
ATOM     18  C   UNL A   1      32.309  22.655  23.330  1.00  0.00     0.016 A 
ATOM     19  C   UNL A   1      32.701  25.140  24.620  1.00  0.00     0.015 A 
ATOM     20  C   UNL A   1      31.219  23.439  23.773  1.00  0.00     0.020 A 
BRANCH  16  21
ATOM     21  O   UNL A   1      34.732  22.464  23.225  1.00  0.00    -0.496 OA
ATOM     22  C   UNL A   1      35.477  22.053  24.368  1.00  0.00     0.278 C 
ENDBRANCH  16  21
BRANCH  18  23
ATOM     23  C   UNL A   1      32.052  21.360  22.590  1.00  0.00     0.184 C 
BRANCH  23  24
ATOM     24  N   UNL A   1      32.328  20.131  23.334  1.00  0.00    -0.264 N 
ATOM     25  N   UNL A   1      32.521  20.208  24.675  1.00  0.00    -0.177 NA
ATOM     26  C   UNL A   1      32.548  18.861  22.834  1.00  0.00     0.050 A 
ATOM     27  C   UNL A   1      32.784  18.951  25.055  1.00  0.00     0.074 A 
ATOM     28  C   UNL A   1      32.865  18.098  23.938  1.00  0.00     0.061 A 
ATOM     29  C   UNL A   1      32.339  18.457  21.422  1.00  0.00     0.067 C 
ATOM     30  C   UNL A   1      32.892  18.608  26.496  1.00  0.00     0.070 C 
ATOM     31  Br  UNL A   1      33.193  16.254  24.002  1.00  0.00    -0.047 Br
ENDBRANCH  23  24
ENDBRANCH  18  23
ENDBRANCH   9  15
ENDBRANCH   6   8
ENDBRANCH   5   6
ENDBRANCH   4   5
ENDBRANCH   3   4
ENDBRANCH   2   3
ENDBRANCH   1   2
BRANCH   1  32
ATOM     32  C   UNL A   1      34.413  29.797  27.408  1.00  0.00     0.188 C 
BRANCH  32  33
ATOM     33  O   UNL A   1      33.355  30.698  27.696  1.00  0.00    -0.376 OA
BRANCH  33  34
ATOM     34  C   UNL A   1      33.501  32.006  27.159  1.00  0.00     0.202 C 
BRANCH  34  35
ATOM     35  C   UNL A   1      32.547  33.066  27.732  1.00  0.00     0.261 C 
BRANCH  35  36
ATOM     36  O   UNL A   1      33.145  34.336  28.044  1.00  0.00    -0.460 OA
BRANCH  36  37
ATOM     37  C   UNL A   1      33.308  34.655  29.354  1.00  0.00     0.338 C 
ATOM     38  O   UNL A   1      32.503  35.191  30.077  1.00  0.00    -0.246 OA
BRANCH  37  39
ATOM     39  C   UNL A   1      34.541  33.957  29.813  1.00  0.00     0.060 A 
ATOM     40  C   UNL A   1      34.409  32.906  30.737  1.00  0.00     0.016 A 
ATOM     41  C   UNL A   1      35.789  34.251  29.258  1.00  0.00     0.016 A 
ATOM     42  C   UNL A   1      35.527  32.167  31.125  1.00  0.00     0.010 A 
ATOM     43  C   UNL A   1      36.917  33.538  29.677  1.00  0.00     0.010 A 
ATOM     44  C   UNL A   1      36.795  32.524  30.645  1.00  0.00    -0.014 A 
BRANCH  44  45
ATOM     45  C   UNL A   1      37.991  32.110  31.417  1.00  0.00     0.031 A 
ATOM     46  C   UNL A   1      38.815  30.996  30.821  1.00  0.00     0.074 A 
ATOM     47  C   UNL A   1      38.350  32.671  32.584  1.00  0.00     0.049 A 
ATOM     48  N   UNL A   1      39.896  30.422  31.275  1.00  0.00    -0.248 NA
ATOM     49  C   UNL A   1      38.348  30.458  29.529  1.00  0.00     0.031 C 
ATOM     50  C   UNL A   1      37.648  33.759  33.262  1.00  0.00     0.029 A 
ATOM     51  N   UNL A   1      39.399  32.375  33.421  1.00  0.00    -0.354 N 
ATOM     52  C   UNL A   1      40.223  29.448  30.339  1.00  0.00     0.074 A 
ATOM     53  C   UNL A   1      39.224  29.496  29.298  1.00  0.00     0.031 C 
ATOM     54  C   UNL A   1      38.272  34.020  34.427  1.00  0.00     0.029 A 
ATOM     55  C   UNL A   1      39.405  33.108  34.585  1.00  0.00     0.049 A 
ATOM     56  H   UNL A   1      40.084  31.701  33.206  1.00  0.00     0.167 HD
ATOM     57  C   UNL A   1      41.270  28.594  30.332  1.00  0.00     0.034 A 
ATOM     58  C   UNL A   1      40.224  33.033  35.654  1.00  0.00     0.034 A 
ATOM     59  C   UNL A   1      42.262  28.535  31.365  1.00  0.00     0.049 A 
ATOM     60  C   UNL A   1      41.369  32.046  35.639  1.00  0.00     0.074 A 
ATOM     61  C   UNL A   1      43.368  27.711  31.450  1.00  0.00     0.029 A 
ATOM     62  N   UNL A   1      42.257  29.326  32.503  1.00  0.00    -0.354 N 
ATOM     63  N   UNL A   1      41.731  31.209  34.695  1.00  0.00    -0.248 NA
ATOM     64  C   UNL A   1      42.241  32.019  36.825  1.00  0.00     0.031 C 
ATOM     65  C   UNL A   1      44.025  27.992  32.652  1.00  0.00     0.029 A 
ATOM     66  C   UNL A   1      43.342  29.011  33.297  1.00  0.00     0.049 A 
ATOM     67  H   UNL A   1      41.579  30.008  32.714  1.00  0.00     0.167 HD
ATOM     68  C   UNL A   1      42.896  30.598  35.150  1.00  0.00     0.074 A 
ATOM     69  C   UNL A   1      43.186  31.167  36.449  1.00  0.00     0.031 C 
ATOM     70  C   UNL A   1      43.654  29.643  34.553  1.00  0.00     0.034 A 
BRANCH  57  71
ATOM     71  C   UNL A   1      41.393  27.669  29.154  1.00  0.00     0.023 A 
ATOM     72  C   UNL A   1      40.656  26.466  29.134  1.00  0.00     0.012 A 
ATOM     73  C   UNL A   1      42.222  27.992  28.064  1.00  0.00     0.148 A 
ATOM     74  C   UNL A   1      40.768  25.584  28.061  1.00  0.00     0.002 A 
ATOM     75  C   UNL A   1      42.292  27.130  26.977  1.00  0.00     0.091 A 
ATOM     76  F   UNL A   1      42.940  29.123  28.120  1.00  0.00    -0.205 F 
ATOM     77  C   UNL A   1      41.577  25.921  26.979  1.00  0.00     0.022 A 
BRANCH  75  78
ATOM     78  S   UNL A   1      43.247  27.509  25.505  1.00  0.00     0.127 S 
ATOM     79  O   UNL A   1      43.566  26.172  25.007  1.00  0.00    -0.237 OA
ATOM     80  O   UNL A   1      42.279  28.248  24.694  1.00  0.00    -0.237 OA
ATOM     81  O   UNL A   1      44.386  28.296  25.957  1.00  0.00    -0.744 OA
ENDBRANCH  75  78
ENDBRANCH  57  71
BRANCH  58  82
ATOM     82  C   UNL A   1      40.033  33.943  36.822  1.00  0.00     0.023 A 
ATOM     83  C   UNL A   1      40.493  35.273  36.748  1.00  0.00     0.012 A 
ATOM     84  C   UNL A   1      39.421  33.496  38.010  1.00  0.00     0.148 A 
ATOM     85  C   UNL A   1      40.381  36.129  37.845  1.00  0.00     0.002 A 
ATOM     86  C   UNL A   1      39.267  34.370  39.082  1.00  0.00     0.091 A 
ATOM     87  F   UNL A   1      39.012  32.221  38.072  1.00  0.00    -0.205 F 
ATOM     88  C   UNL A   1      39.762  35.680  39.008  1.00  0.00     0.022 A 
BRANCH  86  89
ATOM     89  S   UNL A   1      38.387  33.914  40.580  1.00  0.00     0.127 S 
ATOM     90  O   UNL A   1      37.139  33.377  40.043  1.00  0.00    -0.237 OA
ATOM     91  O   UNL A   1      39.285  32.917  41.165  1.00  0.00    -0.237 OA
ATOM     92  O   UNL A   1      38.267  35.142  41.353  1.00  0.00    -0.744 OA
ENDBRANCH  86  89
ENDBRANCH  58  82
BRANCH  70  93
ATOM     93  C   UNL A   1      44.911  29.196  35.253  1.00  0.00     0.023 A 
ATOM     94  C   UNL A   1      44.888  28.067  36.094  1.00  0.00     0.012 A 
ATOM     95  C   UNL A   1      46.136  29.844  35.000  1.00  0.00     0.148 A 
ATOM     96  C   UNL A   1      46.059  27.610  36.699  1.00  0.00     0.002 A 
ATOM     97  C   UNL A   1      47.307  29.354  35.566  1.00  0.00     0.091 A 
ATOM     98  F   UNL A   1      46.135  30.928  34.210  1.00  0.00    -0.205 F 
ATOM     99  C   UNL A   1      47.269  28.246  36.425  1.00  0.00     0.022 A 
BRANCH  97 100
ATOM    100  S   UNL A   1      48.919  30.051  35.182  1.00  0.00     0.127 S 
ATOM    101  O   UNL A   1      48.899  31.291  35.955  1.00  0.00    -0.237 OA
ATOM    102  O   UNL A   1      49.831  29.027  35.694  1.00  0.00    -0.237 OA
ATOM    103  O   UNL A   1      48.949  30.211  33.734  1.00  0.00    -0.744 OA
ENDBRANCH  97 100
ENDBRANCH  70  93
ENDBRANCH  44  45
ENDBRANCH  37  39
ENDBRANCH  36  37
ENDBRANCH  35  36
ENDBRANCH  34  35
ENDBRANCH  33  34
ENDBRANCH  32  33
ENDBRANCH   1  32
TORSDOF 24
ENDMDL
MODEL 3
REMARK VINA RESULT:      -9.2      2.210      7.775
REMARK SMILES COc1ccc([C@@H]2[NH2+][C@H](C(=O)OCCOCCOCCOC(=O)c3ccc(-c4c5nc(c(-c6cccc(S(=O)(=O)[O-])c6F)c6ccc([nH]6)c(-c6cccc(S(=O)(=O)[O-])c6F)c6nc(c(-c7cccc(S(=O)(=O)[O-])c7F)c7ccc4[nH]7)C=C6)C=C5)cc3)CS2)cc1Cn1nc(C)c(Br)c1C
REMARK SMILES IDX 16 1 15 2 14 3 13 4 12 5 10 6 11 7 9 8 7 9 8 10 88 11 87 14
REMARK SMILES IDX 6 15 3 16 4 17 90 18 5 19 89 20 2 21 1 22 91 23 92 24 93 25
REMARK SMILES IDX 98 26 94 27 96 28 99 29 95 30 97 31 17 32 18 33 19 34 20 35
REMARK SMILES IDX 21 36 22 37 23 38 24 39 25 40 86 41 26 42 85 43 27 44 28 45
REMARK SMILES IDX 29 46 79 47 30 48 84 49 78 50 80 51 31 52 83 53 77 54 76 55
REMARK SMILES IDX 32 57 64 58 44 59 63 60 45 61 48 62 62 63 81 64 46 65 47 66
REMARK SMILES IDX 61 68 82 69 49 70 33 71 34 72 42 73 35 74 37 75 43 76 36 77
REMARK SMILES IDX 38 78 39 79 40 80 41 81 65 82 66 83 74 84 67 85 69 86 75 87
REMARK SMILES IDX 68 88 70 89 71 90 72 91 73 92 50 93 51 94 59 95 52 96 54 97
REMARK SMILES IDX 60 98 53 99 55 100 56 101 57 102 58 103
REMARK H PARENT 8 12 8 13 80 56 48 67
REMARK Flexibility Score: inf
ROOT
ATOM      1  C   UNL A   1      34.203  29.183  26.541  1.00  0.00     0.188 C 
ENDROOT
BRANCH   1   2
ATOM      2  O   UNL A   1      33.673  29.501  25.264  1.00  0.00    -0.376 OA
BRANCH   2   3
ATOM      3  C   UNL A   1      33.899  28.547  24.237  1.00  0.00     0.202 C 
BRANCH   3   4
ATOM      4  C   UNL A   1      33.246  28.822  22.884  1.00  0.00     0.261 C 
BRANCH   4   5
ATOM      5  O   UNL A   1      31.837  29.092  22.885  1.00  0.00    -0.459 OA
BRANCH   5   6
ATOM      6  C   UNL A   1      31.006  28.047  22.648  1.00  0.00     0.365 C 
ATOM      7  O   UNL A   1      31.022  27.364  21.627  1.00  0.00    -0.245 OA
BRANCH   6   8
ATOM      8  C   UNL A   1      30.020  27.755  23.785  1.00  0.00     0.304 C 
ATOM      9  C   UNL A   1      30.201  25.571  24.811  1.00  0.00     0.274 C 
ATOM     10  N   UNL A   1      29.476  26.371  23.828  1.00  0.00    -0.319 N 
ATOM     11  S   UNL A   1      30.670  26.669  26.158  1.00  0.00    -0.087 SA
ATOM     12  H   UNL A   1      28.489  26.406  24.084  1.00  0.00     0.348 HD
ATOM     13  H   UNL A   1      29.584  25.943  22.909  1.00  0.00     0.348 HD
ATOM     14  C   UNL A   1      30.653  28.149  25.120  1.00  0.00     0.153 C 
BRANCH   9  15
ATOM     15  C   UNL A   1      31.331  24.748  24.214  1.00  0.00     0.021 A 
ATOM     16  C   UNL A   1      33.507  23.269  23.193  1.00  0.00     0.123 A 
ATOM     17  C   UNL A   1      33.714  24.524  23.774  1.00  0.00     0.047 A 
ATOM     18  C   UNL A   1      32.221  22.713  23.116  1.00  0.00     0.016 A 
ATOM     19  C   UNL A   1      32.638  25.256  24.277  1.00  0.00     0.015 A 
ATOM     20  C   UNL A   1      31.148  23.476  23.630  1.00  0.00     0.020 A 
BRANCH  16  21
ATOM     21  O   UNL A   1      34.631  22.598  22.796  1.00  0.00    -0.496 OA
ATOM     22  C   UNL A   1      35.809  23.029  23.471  1.00  0.00     0.278 C 
ENDBRANCH  16  21
BRANCH  18  23
ATOM     23  C   UNL A   1      31.946  21.383  22.449  1.00  0.00     0.184 C 
BRANCH  23  24
ATOM     24  N   UNL A   1      32.270  20.191  23.234  1.00  0.00    -0.264 N 
ATOM     25  N   UNL A   1      32.466  20.324  24.570  1.00  0.00    -0.177 NA
ATOM     26  C   UNL A   1      32.534  18.913  22.778  1.00  0.00     0.050 A 
ATOM     27  C   UNL A   1      32.776  19.091  24.993  1.00  0.00     0.074 A 
ATOM     28  C   UNL A   1      32.883  18.202  23.907  1.00  0.00     0.061 A 
ATOM     29  C   UNL A   1      32.334  18.452  21.383  1.00  0.00     0.067 C 
ATOM     30  C   UNL A   1      32.902  18.803  26.444  1.00  0.00     0.070 C 
ATOM     31  Br  UNL A   1      33.277  16.374  24.034  1.00  0.00    -0.047 Br
ENDBRANCH  23  24
ENDBRANCH  18  23
ENDBRANCH   9  15
ENDBRANCH   6   8
ENDBRANCH   5   6
ENDBRANCH   4   5
ENDBRANCH   3   4
ENDBRANCH   2   3
ENDBRANCH   1   2
BRANCH   1  32
ATOM     32  C   UNL A   1      34.339  30.325  27.573  1.00  0.00     0.188 C 
BRANCH  32  33
ATOM     33  O   UNL A   1      33.202  31.165  27.699  1.00  0.00    -0.376 OA
BRANCH  33  34
ATOM     34  C   UNL A   1      33.368  32.496  27.230  1.00  0.00     0.202 C 
BRANCH  34  35
ATOM     35  C   UNL A   1      32.437  33.541  27.865  1.00  0.00     0.261 C 
BRANCH  35  36
ATOM     36  O   UNL A   1      33.075  34.752  28.307  1.00  0.00    -0.460 OA
BRANCH  36  37
ATOM     37  C   UNL A   1      33.327  34.886  29.635  1.00  0.00     0.338 C 
ATOM     38  O   UNL A   1      32.595  35.363  30.470  1.00  0.00    -0.246 OA
BRANCH  37  39
ATOM     39  C   UNL A   1      34.539  34.071  29.925  1.00  0.00     0.060 A 
ATOM     40  C   UNL A   1      34.406  32.951  30.763  1.00  0.00     0.016 A 
ATOM     41  C   UNL A   1      35.756  34.333  29.290  1.00  0.00     0.016 A 
ATOM     42  C   UNL A   1      35.496  32.108  30.988  1.00  0.00     0.010 A 
ATOM     43  C   UNL A   1      36.859  33.513  29.548  1.00  0.00     0.010 A 
ATOM     44  C   UNL A   1      36.743  32.425  30.433  1.00  0.00    -0.014 A 
BRANCH  44  45
ATOM     45  C   UNL A   1      37.965  31.865  31.059  1.00  0.00     0.031 A 
ATOM     46  C   UNL A   1      38.650  30.753  30.306  1.00  0.00     0.074 A 
ATOM     47  C   UNL A   1      38.460  32.298  32.231  1.00  0.00     0.049 A 
ATOM     48  N   UNL A   1      39.718  30.069  30.615  1.00  0.00    -0.248 NA
ATOM     49  C   UNL A   1      38.037  30.361  29.022  1.00  0.00     0.031 C 
ATOM     50  C   UNL A   1      37.902  33.370  33.052  1.00  0.00     0.029 A 
ATOM     51  N   UNL A   1      39.551  31.861  32.944  1.00  0.00    -0.354 N 
ATOM     52  C   UNL A   1      39.892  29.158  29.579  1.00  0.00     0.074 A 
ATOM     53  C   UNL A   1      38.815  29.364  28.639  1.00  0.00     0.031 C 
ATOM     54  C   UNL A   1      38.638  33.488  34.174  1.00  0.00     0.029 A 
ATOM     55  C   UNL A   1      39.709  32.489  34.158  1.00  0.00     0.049 A 
ATOM     56  H   UNL A   1      40.162  31.163  32.616  1.00  0.00     0.167 HD
ATOM     57  C   UNL A   1      40.866  28.239  29.411  1.00  0.00     0.034 A 
ATOM     58  C   UNL A   1      40.605  32.267  35.140  1.00  0.00     0.034 A 
ATOM     59  C   UNL A   1      41.933  28.024  30.344  1.00  0.00     0.049 A 
ATOM     60  C   UNL A   1      41.667  31.209  34.945  1.00  0.00     0.074 A 
ATOM     61  C   UNL A   1      42.978  27.122  30.264  1.00  0.00     0.029 A 
ATOM     62  N   UNL A   1      42.083  28.713  31.536  1.00  0.00    -0.354 N 
ATOM     63  N   UNL A   1      41.885  30.434  33.909  1.00  0.00    -0.248 NA
ATOM     64  C   UNL A   1      42.630  31.021  36.042  1.00  0.00     0.031 C 
ATOM     65  C   UNL A   1      43.752  27.253  31.421  1.00  0.00     0.029 A 
ATOM     66  C   UNL A   1      43.204  28.258  32.204  1.00  0.00     0.049 A 
ATOM     67  H   UNL A   1      41.479  29.420  31.861  1.00  0.00     0.167 HD
ATOM     68  C   UNL A   1      43.035  29.707  34.208  1.00  0.00     0.074 A 
ATOM     69  C   UNL A   1      43.474  30.142  35.518  1.00  0.00     0.031 C 
ATOM     70  C   UNL A   1      43.666  28.757  33.473  1.00  0.00     0.034 A 
BRANCH  57  71
ATOM     71  C   UNL A   1      40.821  27.412  28.157  1.00  0.00     0.023 A 
ATOM     72  C   UNL A   1      41.558  27.822  27.026  1.00  0.00     0.012 A 
ATOM     73  C   UNL A   1      40.063  26.228  28.099  1.00  0.00     0.148 A 
ATOM     74  C   UNL A   1      41.516  27.081  25.846  1.00  0.00     0.002 A 
ATOM     75  C   UNL A   1      40.064  25.470  26.934  1.00  0.00     0.091 A 
ATOM     76  F   UNL A   1      39.342  25.876  29.172  1.00  0.00    -0.205 F 
ATOM     77  C   UNL A   1      40.779  25.901  25.804  1.00  0.00     0.022 A 
BRANCH  75  78
ATOM     78  S   UNL A   1      39.205  23.899  26.804  1.00  0.00     0.127 S 
ATOM     79  O   UNL A   1      38.041  24.127  27.660  1.00  0.00    -0.237 OA
ATOM     80  O   UNL A   1      38.907  23.831  25.374  1.00  0.00    -0.237 OA
ATOM     81  O   UNL A   1      40.141  22.889  27.278  1.00  0.00    -0.744 OA
ENDBRANCH  75  78
ENDBRANCH  57  71
BRANCH  58  82
ATOM     82  C   UNL A   1      40.582  33.085  36.389  1.00  0.00     0.023 A 
ATOM     83  C   UNL A   1      41.363  34.255  36.468  1.00  0.00     0.012 A 
ATOM     84  C   UNL A   1      39.810  32.702  37.504  1.00  0.00     0.148 A 
ATOM     85  C   UNL A   1      41.407  35.007  37.643  1.00  0.00     0.002 A 
ATOM     86  C   UNL A   1      39.818  33.484  38.654  1.00  0.00     0.091 A 
ATOM     87  F   UNL A   1      39.092  31.574  37.421  1.00  0.00    -0.205 F 
ATOM     88  C   UNL A   1      40.629  34.627  38.732  1.00  0.00     0.022 A 
BRANCH  86  89
ATOM     89  S   UNL A   1      38.767  33.133  40.068  1.00  0.00     0.127 S 
ATOM     90  O   UNL A   1      39.729  33.142  41.167  1.00  0.00    -0.237 OA
ATOM     91  O   UNL A   1      37.846  34.269  40.048  1.00  0.00    -0.237 OA
ATOM     92  O   UNL A   1      38.143  31.848  39.783  1.00  0.00    -0.744 OA
ENDBRANCH  86  89
ENDBRANCH  58  82
BRANCH  70  93
ATOM     93  C   UNL A   1      44.939  28.166  34.020  1.00  0.00     0.023 A 
ATOM     94  C   UNL A   1      46.161  28.848  33.862  1.00  0.00     0.012 A 
ATOM     95  C   UNL A   1      44.904  26.977  34.775  1.00  0.00     0.148 A 
ATOM     96  C   UNL A   1      47.334  28.337  34.417  1.00  0.00     0.002 A 
ATOM     97  C   UNL A   1      46.067  26.500  35.368  1.00  0.00     0.091 A 
ATOM     98  F   UNL A   1      43.734  26.332  34.901  1.00  0.00    -0.205 F 
ATOM     99  C   UNL A   1      47.285  27.172  35.180  1.00  0.00     0.022 A 
BRANCH  97 100
ATOM    100  S   UNL A   1      46.071  25.065  36.449  1.00  0.00     0.127 S 
ATOM    101  O   UNL A   1      45.752  23.987  35.515  1.00  0.00    -0.237 OA
ATOM    102  O   UNL A   1      47.446  25.053  36.948  1.00  0.00    -0.237 OA
ATOM    103  O   UNL A   1      45.065  25.332  37.469  1.00  0.00    -0.744 OA
ENDBRANCH  97 100
ENDBRANCH  70  93
ENDBRANCH  44  45
ENDBRANCH  37  39
ENDBRANCH  36  37
ENDBRANCH  35  36
ENDBRANCH  34  35
ENDBRANCH  33  34
ENDBRANCH  32  33
ENDBRANCH   1  32
TORSDOF 24
ENDMDL
