MODEL 1
REMARK VINA RESULT:      -9.0      0.000      0.000
REMARK SMILES O=C(Cc1cccn(C(F)F)c1=O)OCCOCCOCCOC(=O)c1ccc(-c2c3nc(c(-c4cccc(S(=O)(=O)[O-])c4F)c4ccc([nH]4)c(-c4cccc(S(=O)(=O)[O-])c4F)c4nc(c(-c5cccc(S(=O)(=O)[O-])c5F)c5ccc2[nH]5)C=C4)C=C3)cc1
REMARK SMILES IDX 19 1 18 2 17 3 16 4 15 5 14 6 2 7 1 8 3 9 4 10 5 11 12 12
REMARK SMILES IDX 6 13 8 14 13 15 7 16 9 17 10 18 11 19 20 20 21 21 22 22
REMARK SMILES IDX 23 23 24 24 25 25 26 26 27 27 88 28 28 29 87 30 29 31 30 32
REMARK SMILES IDX 31 33 81 34 32 35 86 36 80 37 82 38 33 39 85 40 79 41 78 42
REMARK SMILES IDX 34 44 66 45 46 46 65 47 47 48 50 49 64 50 83 51 48 52 49 53
REMARK SMILES IDX 63 55 84 56 51 57 35 58 36 59 44 60 37 61 39 62 45 63 38 64
REMARK SMILES IDX 40 65 41 66 42 67 43 68 67 69 68 70 76 71 69 72 71 73 77 74
REMARK SMILES IDX 70 75 72 76 73 77 74 78 75 79 52 80 53 81 61 82 54 83 56 84
REMARK SMILES IDX 62 85 55 86 57 87 58 88 59 89 60 90
REMARK H PARENT 82 43 50 54
REMARK Flexibility Score: inf
ROOT
ATOM      1  C   UNL A   1      37.568  33.574  30.000  1.00  0.00     0.188 C 
ENDROOT
BRANCH   1   2
ATOM      2  C   UNL A   1      38.475  34.425  30.899  1.00  0.00     0.188 C 
BRANCH   2   3
ATOM      3  O   UNL A   1      38.917  33.744  32.057  1.00  0.00    -0.376 OA
BRANCH   3   4
ATOM      4  C   UNL A   1      39.733  34.477  32.944  1.00  0.00     0.202 C 
BRANCH   4   5
ATOM      5  C   UNL A   1      39.426  34.151  34.400  1.00  0.00     0.261 C 
BRANCH   5   6
ATOM      6  O   UNL A   1      38.120  34.529  34.907  1.00  0.00    -0.463 OA
BRANCH   6   7
ATOM      7  C   UNL A   1      37.100  33.787  35.391  1.00  0.00     0.310 C 
ATOM      8  O   UNL A   1      37.352  32.699  35.906  1.00  0.00    -0.252 OA
BRANCH   7   9
ATOM      9  C   UNL A   1      35.661  34.236  35.219  1.00  0.00     0.164 C 
BRANCH   9  10
ATOM     10  C   UNL A   1      35.124  34.154  33.829  1.00  0.00     0.029 A 
ATOM     11  C   UNL A   1      35.183  33.055  33.059  1.00  0.00     0.011 A 
ATOM     12  C   UNL A   1      34.450  35.390  33.299  1.00  0.00     0.258 A 
ATOM     13  C   UNL A   1      34.559  33.027  31.765  1.00  0.00     0.019 A 
ATOM     14  N   UNL A   1      33.900  35.284  32.037  1.00  0.00    -0.258 N 
ATOM     15  O   UNL A   1      34.370  36.396  33.999  1.00  0.00    -0.269 OA
ATOM     16  C   UNL A   1      33.950  34.119  31.295  1.00  0.00     0.095 A 
BRANCH  14  17
ATOM     17  C   UNL A   1      33.303  36.465  31.467  1.00  0.00     0.451 C 
ATOM     18  F   UNL A   1      33.432  36.428  30.115  1.00  0.00    -0.185 F 
ATOM     19  F   UNL A   1      31.964  36.457  31.718  1.00  0.00    -0.185 F 
ENDBRANCH  14  17
ENDBRANCH   9  10
ENDBRANCH   7   9
ENDBRANCH   6   7
ENDBRANCH   5   6
ENDBRANCH   4   5
ENDBRANCH   3   4
ENDBRANCH   2   3
ENDBRANCH   1   2
BRANCH   1  20
ATOM     20  O   UNL A   1      36.607  34.204  29.163  1.00  0.00    -0.376 OA
BRANCH  20  21
ATOM     21  C   UNL A   1      36.085  33.499  28.046  1.00  0.00     0.202 C 
BRANCH  21  22
ATOM     22  C   UNL A   1      34.585  33.165  28.022  1.00  0.00     0.261 C 
BRANCH  22  23
ATOM     23  O   UNL A   1      34.218  31.856  28.497  1.00  0.00    -0.460 OA
BRANCH  23  24
ATOM     24  C   UNL A   1      34.528  30.806  27.687  1.00  0.00     0.338 C 
ATOM     25  O   UNL A   1      33.943  30.464  26.681  1.00  0.00    -0.246 OA
BRANCH  24  26
ATOM     26  C   UNL A   1      35.807  30.201  28.137  1.00  0.00     0.060 A 
ATOM     27  C   UNL A   1      36.900  30.131  27.273  1.00  0.00     0.016 A 
ATOM     28  C   UNL A   1      35.916  29.710  29.448  1.00  0.00     0.016 A 
ATOM     29  C   UNL A   1      38.103  29.574  27.725  1.00  0.00     0.010 A 
ATOM     30  C   UNL A   1      37.115  29.134  29.890  1.00  0.00     0.010 A 
ATOM     31  C   UNL A   1      38.226  29.075  29.036  1.00  0.00    -0.014 A 
BRANCH  31  32
ATOM     32  C   UNL A   1      39.559  28.647  29.539  1.00  0.00     0.031 A 
ATOM     33  C   UNL A   1      40.214  29.280  30.733  1.00  0.00     0.074 A 
ATOM     34  C   UNL A   1      40.187  27.640  28.902  1.00  0.00     0.049 A 
ATOM     35  N   UNL A   1      41.318  28.926  31.343  1.00  0.00    -0.248 NA
ATOM     36  C   UNL A   1      39.554  30.456  31.317  1.00  0.00     0.031 C 
ATOM     37  C   UNL A   1      39.682  26.971  27.703  1.00  0.00     0.029 A 
ATOM     38  N   UNL A   1      41.370  27.000  29.173  1.00  0.00    -0.354 N 
ATOM     39  C   UNL A   1      41.484  29.822  32.390  1.00  0.00     0.074 A 
ATOM     40  C   UNL A   1      40.381  30.760  32.310  1.00  0.00     0.031 C 
ATOM     41  C   UNL A   1      40.537  25.998  27.353  1.00  0.00     0.029 A 
ATOM     42  C   UNL A   1      41.656  25.983  28.294  1.00  0.00     0.049 A 
ATOM     43  H   UNL A   1      41.957  27.245  29.924  1.00  0.00     0.167 HD
ATOM     44  C   UNL A   1      42.447  29.843  33.346  1.00  0.00     0.034 A 
ATOM     45  C   UNL A   1      42.691  25.123  28.246  1.00  0.00     0.034 A 
ATOM     46  C   UNL A   1      43.546  28.912  33.427  1.00  0.00     0.049 A 
ATOM     47  C   UNL A   1      43.756  25.171  29.302  1.00  0.00     0.074 A 
ATOM     48  C   UNL A   1      44.543  28.843  34.386  1.00  0.00     0.029 A 
ATOM     49  N   UNL A   1      43.806  27.901  32.515  1.00  0.00    -0.354 N 
ATOM     50  N   UNL A   1      43.834  25.954  30.349  1.00  0.00    -0.248 NA
ATOM     51  C   UNL A   1      44.856  24.204  29.188  1.00  0.00     0.031 C 
ATOM     52  C   UNL A   1      45.414  27.802  34.046  1.00  0.00     0.029 A 
ATOM     53  C   UNL A   1      44.950  27.209  32.883  1.00  0.00     0.049 A 
ATOM     54  H   UNL A   1      43.258  27.703  31.720  1.00  0.00     0.167 HD
ATOM     55  C   UNL A   1      44.985  25.572  31.026  1.00  0.00     0.074 A 
ATOM     56  C   UNL A   1      45.563  24.471  30.281  1.00  0.00     0.031 C 
ATOM     57  C   UNL A   1      45.517  26.100  32.155  1.00  0.00     0.034 A 
BRANCH  44  58
ATOM     58  C   UNL A   1      42.319  30.870  34.441  1.00  0.00     0.023 A 
ATOM     59  C   UNL A   1      41.626  30.525  35.620  1.00  0.00     0.012 A 
ATOM     60  C   UNL A   1      42.944  32.129  34.351  1.00  0.00     0.148 A 
ATOM     61  C   UNL A   1      41.536  31.423  36.683  1.00  0.00     0.002 A 
ATOM     62  C   UNL A   1      42.873  33.010  35.426  1.00  0.00     0.091 A 
ATOM     63  F   UNL A   1      43.595  32.440  33.221  1.00  0.00    -0.205 F 
ATOM     64  C   UNL A   1      42.165  32.660  36.589  1.00  0.00     0.022 A 
BRANCH  62  65
ATOM     65  S   UNL A   1      43.680  34.616  35.428  1.00  0.00     0.127 S 
ATOM     66  O   UNL A   1      43.349  35.108  36.765  1.00  0.00    -0.237 OA
ATOM     67  O   UNL A   1      45.085  34.255  35.243  1.00  0.00    -0.237 OA
ATOM     68  O   UNL A   1      43.091  35.365  34.327  1.00  0.00    -0.744 OA
ENDBRANCH  62  65
ENDBRANCH  44  58
BRANCH  45  69
ATOM     69  C   UNL A   1      42.702  24.092  27.174  1.00  0.00     0.023 A 
ATOM     70  C   UNL A   1      43.486  24.303  26.025  1.00  0.00     0.012 A 
ATOM     71  C   UNL A   1      42.054  22.856  27.358  1.00  0.00     0.148 A 
ATOM     72  C   UNL A   1      43.634  23.292  25.077  1.00  0.00     0.002 A 
ATOM     73  C   UNL A   1      42.234  21.841  26.428  1.00  0.00     0.091 A 
ATOM     74  F   UNL A   1      41.322  22.685  28.467  1.00  0.00    -0.205 F 
ATOM     75  C   UNL A   1      43.020  22.058  25.284  1.00  0.00     0.022 A 
BRANCH  73  76
ATOM     76  S   UNL A   1      41.571  20.187  26.654  1.00  0.00     0.127 S 
ATOM     77  O   UNL A   1      40.150  20.461  26.857  1.00  0.00    -0.237 OA
ATOM     78  O   UNL A   1      41.901  19.559  25.376  1.00  0.00    -0.237 OA
ATOM     79  O   UNL A   1      42.266  19.634  27.809  1.00  0.00    -0.744 OA
ENDBRANCH  73  76
ENDBRANCH  45  69
BRANCH  57  80
ATOM     80  C   UNL A   1      46.807  25.514  32.669  1.00  0.00     0.023 A 
ATOM     81  C   UNL A   1      48.032  26.082  32.265  1.00  0.00     0.012 A 
ATOM     82  C   UNL A   1      46.808  24.474  33.619  1.00  0.00     0.148 A 
ATOM     83  C   UNL A   1      49.238  25.616  32.789  1.00  0.00     0.002 A 
ATOM     84  C   UNL A   1      48.012  24.034  34.161  1.00  0.00     0.091 A 
ATOM     85  F   UNL A   1      45.632  23.943  33.983  1.00  0.00    -0.205 F 
ATOM     86  C   UNL A   1      49.227  24.601  33.742  1.00  0.00     0.022 A 
BRANCH  84  87
ATOM     87  S   UNL A   1      48.103  22.772  35.436  1.00  0.00     0.127 S 
ATOM     88  O   UNL A   1      49.547  22.658  35.639  1.00  0.00    -0.237 OA
ATOM     89  O   UNL A   1      47.380  23.399  36.543  1.00  0.00    -0.237 OA
ATOM     90  O   UNL A   1      47.462  21.588  34.881  1.00  0.00    -0.744 OA
ENDBRANCH  84  87
ENDBRANCH  57  80
ENDBRANCH  31  32
ENDBRANCH  24  26
ENDBRANCH  23  24
ENDBRANCH  22  23
ENDBRANCH  21  22
ENDBRANCH  20  21
ENDBRANCH   1  20
TORSDOF 22
ENDMDL
MODEL 2
REMARK VINA RESULT:      -7.9      6.046     10.629
REMARK SMILES O=C(Cc1cccn(C(F)F)c1=O)OCCOCCOCCOC(=O)c1ccc(-c2c3nc(c(-c4cccc(S(=O)(=O)[O-])c4F)c4ccc([nH]4)c(-c4cccc(S(=O)(=O)[O-])c4F)c4nc(c(-c5cccc(S(=O)(=O)[O-])c5F)c5ccc2[nH]5)C=C4)C=C3)cc1
REMARK SMILES IDX 19 1 18 2 17 3 16 4 15 5 14 6 2 7 1 8 3 9 4 10 5 11 12 12
REMARK SMILES IDX 6 13 8 14 13 15 7 16 9 17 10 18 11 19 20 20 21 21 22 22
REMARK SMILES IDX 23 23 24 24 25 25 26 26 27 27 88 28 28 29 87 30 29 31 30 32
REMARK SMILES IDX 31 33 81 34 32 35 86 36 80 37 82 38 33 39 85 40 79 41 78 42
REMARK SMILES IDX 34 44 66 45 46 46 65 47 47 48 50 49 64 50 83 51 48 52 49 53
REMARK SMILES IDX 63 55 84 56 51 57 35 58 36 59 44 60 37 61 39 62 45 63 38 64
REMARK SMILES IDX 40 65 41 66 42 67 43 68 67 69 68 70 76 71 69 72 71 73 77 74
REMARK SMILES IDX 70 75 72 76 73 77 74 78 75 79 52 80 53 81 61 82 54 83 56 84
REMARK SMILES IDX 62 85 55 86 57 87 58 88 59 89 60 90
REMARK H PARENT 82 43 50 54
REMARK Flexibility Score: inf
ROOT
ATOM      1  C   UNL A   1      36.948  22.289  25.330  1.00  0.00     0.188 C 
ENDROOT
BRANCH   1   2
ATOM      2  C   UNL A   1      35.758  22.716  24.460  1.00  0.00     0.188 C 
BRANCH   2   3
ATOM      3  O   UNL A   1      35.535  24.112  24.457  1.00  0.00    -0.376 OA
BRANCH   3   4
ATOM      4  C   UNL A   1      34.563  24.592  23.555  1.00  0.00     0.202 C 
BRANCH   4   5
ATOM      5  C   UNL A   1      33.969  25.918  24.012  1.00  0.00     0.261 C 
BRANCH   5   6
ATOM      6  O   UNL A   1      32.549  26.124  23.795  1.00  0.00    -0.463 OA
BRANCH   6   7
ATOM      7  C   UNL A   1      31.634  25.397  23.116  1.00  0.00     0.310 C 
ATOM      8  O   UNL A   1      31.467  25.626  21.919  1.00  0.00    -0.252 OA
BRANCH   7   9
ATOM      9  C   UNL A   1      30.756  24.388  23.831  1.00  0.00     0.164 C 
BRANCH   9  10
ATOM     10  C   UNL A   1      31.463  23.195  24.381  1.00  0.00     0.029 A 
ATOM     11  C   UNL A   1      31.681  22.061  23.695  1.00  0.00     0.011 A 
ATOM     12  C   UNL A   1      31.985  23.316  25.787  1.00  0.00     0.258 A 
ATOM     13  C   UNL A   1      32.454  20.991  24.262  1.00  0.00     0.019 A 
ATOM     14  N   UNL A   1      32.694  22.232  26.263  1.00  0.00    -0.258 N 
ATOM     15  O   UNL A   1      31.813  24.355  26.420  1.00  0.00    -0.269 OA
ATOM     16  C   UNL A   1      32.927  21.099  25.507  1.00  0.00     0.095 A 
BRANCH  14  17
ATOM     17  C   UNL A   1      33.154  22.282  27.628  1.00  0.00     0.451 C 
ATOM     18  F   UNL A   1      33.571  21.046  28.009  1.00  0.00    -0.185 F 
ATOM     19  F   UNL A   1      34.249  23.089  27.704  1.00  0.00    -0.185 F 
ENDBRANCH  14  17
ENDBRANCH   9  10
ENDBRANCH   7   9
ENDBRANCH   6   7
ENDBRANCH   5   6
ENDBRANCH   4   5
ENDBRANCH   3   4
ENDBRANCH   2   3
ENDBRANCH   1   2
BRANCH   1  20
ATOM     20  O   UNL A   1      37.284  20.912  25.446  1.00  0.00    -0.376 OA
BRANCH  20  21
ATOM     21  C   UNL A   1      38.528  20.452  24.940  1.00  0.00     0.202 C 
BRANCH  21  22
ATOM     22  C   UNL A   1      39.631  20.068  25.938  1.00  0.00     0.261 C 
BRANCH  22  23
ATOM     23  O   UNL A   1      40.833  19.511  25.373  1.00  0.00    -0.460 OA
BRANCH  23  24
ATOM     24  C   UNL A   1      41.911  19.424  26.202  1.00  0.00     0.338 C 
ATOM     25  O   UNL A   1      42.432  18.410  26.616  1.00  0.00    -0.246 OA
BRANCH  24  26
ATOM     26  C   UNL A   1      42.468  20.781  26.425  1.00  0.00     0.060 A 
ATOM     27  C   UNL A   1      42.816  21.590  25.343  1.00  0.00     0.016 A 
ATOM     28  C   UNL A   1      42.631  21.256  27.736  1.00  0.00     0.016 A 
ATOM     29  C   UNL A   1      43.321  22.875  25.575  1.00  0.00     0.010 A 
ATOM     30  C   UNL A   1      43.157  22.535  27.965  1.00  0.00     0.010 A 
ATOM     31  C   UNL A   1      43.493  23.363  26.885  1.00  0.00    -0.014 A 
BRANCH  31  32
ATOM     32  C   UNL A   1      43.870  24.786  27.097  1.00  0.00     0.031 A 
ATOM     33  C   UNL A   1      42.894  25.816  27.589  1.00  0.00     0.074 A 
ATOM     34  C   UNL A   1      45.143  25.152  26.852  1.00  0.00     0.049 A 
ATOM     35  N   UNL A   1      43.120  27.062  27.925  1.00  0.00    -0.248 NA
ATOM     36  C   UNL A   1      41.490  25.402  27.721  1.00  0.00     0.031 C 
ATOM     37  C   UNL A   1      46.177  24.262  26.327  1.00  0.00     0.029 A 
ATOM     38  N   UNL A   1      45.784  26.354  27.017  1.00  0.00    -0.354 N 
ATOM     39  C   UNL A   1      41.895  27.583  28.321  1.00  0.00     0.074 A 
ATOM     40  C   UNL A   1      40.920  26.524  28.149  1.00  0.00     0.031 C 
ATOM     41  C   UNL A   1      47.332  24.940  26.235  1.00  0.00     0.029 A 
ATOM     42  C   UNL A   1      47.115  26.315  26.680  1.00  0.00     0.049 A 
ATOM     43  H   UNL A   1      45.334  27.165  27.346  1.00  0.00     0.167 HD
ATOM     44  C   UNL A   1      41.615  28.817  28.810  1.00  0.00     0.034 A 
ATOM     45  C   UNL A   1      48.067  27.267  26.730  1.00  0.00     0.034 A 
ATOM     46  C   UNL A   1      42.582  29.874  28.980  1.00  0.00     0.049 A 
ATOM     47  C   UNL A   1      47.735  28.631  27.258  1.00  0.00     0.074 A 
ATOM     48  C   UNL A   1      42.386  31.142  29.504  1.00  0.00     0.029 A 
ATOM     49  N   UNL A   1      43.920  29.799  28.621  1.00  0.00    -0.354 N 
ATOM     50  N   UNL A   1      46.596  29.069  27.734  1.00  0.00    -0.248 NA
ATOM     51  C   UNL A   1      48.820  29.621  27.284  1.00  0.00     0.031 C 
ATOM     52  C   UNL A   1      43.598  31.837  29.446  1.00  0.00     0.029 A 
ATOM     53  C   UNL A   1      44.557  30.998  28.903  1.00  0.00     0.049 A 
ATOM     54  H   UNL A   1      44.353  29.010  28.222  1.00  0.00     0.167 HD
ATOM     55  C   UNL A   1      46.826  30.383  28.124  1.00  0.00     0.074 A 
ATOM     56  C   UNL A   1      48.220  30.663  27.848  1.00  0.00     0.031 C 
ATOM     57  C   UNL A   1      45.950  31.275  28.650  1.00  0.00     0.034 A 
BRANCH  44  58
ATOM     58  C   UNL A   1      40.206  29.079  29.273  1.00  0.00     0.023 A 
ATOM     59  C   UNL A   1      39.219  29.382  28.312  1.00  0.00     0.012 A 
ATOM     60  C   UNL A   1      39.835  28.946  30.626  1.00  0.00     0.148 A 
ATOM     61  C   UNL A   1      37.890  29.571  28.690  1.00  0.00     0.002 A 
ATOM     62  C   UNL A   1      38.502  29.110  30.992  1.00  0.00     0.091 A 
ATOM     63  F   UNL A   1      40.787  28.662  31.525  1.00  0.00    -0.205 F 
ATOM     64  C   UNL A   1      37.531  29.427  30.026  1.00  0.00     0.022 A 
BRANCH  62  65
ATOM     65  S   UNL A   1      37.921  28.910  32.681  1.00  0.00     0.127 S 
ATOM     66  O   UNL A   1      36.620  29.576  32.623  1.00  0.00    -0.237 OA
ATOM     67  O   UNL A   1      37.855  27.455  32.813  1.00  0.00    -0.237 OA
ATOM     68  O   UNL A   1      38.913  29.556  33.528  1.00  0.00    -0.744 OA
ENDBRANCH  62  65
ENDBRANCH  44  58
BRANCH  45  69
ATOM     69  C   UNL A   1      49.450  26.903  26.324  1.00  0.00     0.023 A 
ATOM     70  C   UNL A   1      50.212  26.062  27.157  1.00  0.00     0.012 A 
ATOM     71  C   UNL A   1      49.951  27.271  25.061  1.00  0.00     0.148 A 
ATOM     72  C   UNL A   1      51.450  25.583  26.732  1.00  0.00     0.002 A 
ATOM     73  C   UNL A   1      51.168  26.762  24.629  1.00  0.00     0.091 A 
ATOM     74  F   UNL A   1      49.196  28.066  24.290  1.00  0.00    -0.205 F 
ATOM     75  C   UNL A   1      51.922  25.921  25.465  1.00  0.00     0.022 A 
BRANCH  73  76
ATOM     76  S   UNL A   1      51.813  27.056  22.980  1.00  0.00     0.127 S 
ATOM     77  O   UNL A   1      50.693  26.633  22.142  1.00  0.00    -0.237 OA
ATOM     78  O   UNL A   1      52.051  28.498  23.008  1.00  0.00    -0.237 OA
ATOM     79  O   UNL A   1      53.012  26.236  22.869  1.00  0.00    -0.744 OA
ENDBRANCH  73  76
ENDBRANCH  45  69
BRANCH  57  80
ATOM     80  C   UNL A   1      46.454  32.661  28.958  1.00  0.00     0.023 A 
ATOM     81  C   UNL A   1      46.356  33.665  27.974  1.00  0.00     0.012 A 
ATOM     82  C   UNL A   1      46.931  32.995  30.241  1.00  0.00     0.148 A 
ATOM     83  C   UNL A   1      46.737  34.977  28.259  1.00  0.00     0.002 A 
ATOM     84  C   UNL A   1      47.279  34.310  30.528  1.00  0.00     0.091 A 
ATOM     85  F   UNL A   1      47.023  32.022  31.159  1.00  0.00    -0.205 F 
ATOM     86  C   UNL A   1      47.187  35.301  29.536  1.00  0.00     0.022 A 
BRANCH  84  87
ATOM     87  S   UNL A   1      47.818  34.843  32.157  1.00  0.00     0.127 S 
ATOM     88  O   UNL A   1      48.972  33.977  32.387  1.00  0.00    -0.237 OA
ATOM     89  O   UNL A   1      48.146  36.250  31.928  1.00  0.00    -0.237 OA
ATOM     90  O   UNL A   1      46.689  34.618  33.050  1.00  0.00    -0.744 OA
ENDBRANCH  84  87
ENDBRANCH  57  80
ENDBRANCH  31  32
ENDBRANCH  24  26
ENDBRANCH  23  24
ENDBRANCH  22  23
ENDBRANCH  21  22
ENDBRANCH  20  21
ENDBRANCH   1  20
TORSDOF 22
ENDMDL
MODEL 3
REMARK VINA RESULT:      -7.8      5.120     11.030
REMARK SMILES O=C(Cc1cccn(C(F)F)c1=O)OCCOCCOCCOC(=O)c1ccc(-c2c3nc(c(-c4cccc(S(=O)(=O)[O-])c4F)c4ccc([nH]4)c(-c4cccc(S(=O)(=O)[O-])c4F)c4nc(c(-c5cccc(S(=O)(=O)[O-])c5F)c5ccc2[nH]5)C=C4)C=C3)cc1
REMARK SMILES IDX 19 1 18 2 17 3 16 4 15 5 14 6 2 7 1 8 3 9 4 10 5 11 12 12
REMARK SMILES IDX 6 13 8 14 13 15 7 16 9 17 10 18 11 19 20 20 21 21 22 22
REMARK SMILES IDX 23 23 24 24 25 25 26 26 27 27 88 28 28 29 87 30 29 31 30 32
REMARK SMILES IDX 31 33 81 34 32 35 86 36 80 37 82 38 33 39 85 40 79 41 78 42
REMARK SMILES IDX 34 44 66 45 46 46 65 47 47 48 50 49 64 50 83 51 48 52 49 53
REMARK SMILES IDX 63 55 84 56 51 57 35 58 36 59 44 60 37 61 39 62 45 63 38 64
REMARK SMILES IDX 40 65 41 66 42 67 43 68 67 69 68 70 76 71 69 72 71 73 77 74
REMARK SMILES IDX 70 75 72 76 73 77 74 78 75 79 52 80 53 81 61 82 54 83 56 84
REMARK SMILES IDX 62 85 55 86 57 87 58 88 59 89 60 90
REMARK H PARENT 82 43 50 54
REMARK Flexibility Score: inf
ROOT
ATOM      1  C   UNL A   1      46.779  24.220  25.669  1.00  0.00     0.188 C 
ENDROOT
BRANCH   1   2
ATOM      2  C   UNL A   1      46.266  24.674  27.042  1.00  0.00     0.188 C 
BRANCH   2   3
ATOM      3  O   UNL A   1      45.614  25.928  27.013  1.00  0.00    -0.376 OA
BRANCH   3   4
ATOM      4  C   UNL A   1      46.166  26.904  26.158  1.00  0.00     0.202 C 
BRANCH   4   5
ATOM      5  C   UNL A   1      45.236  28.098  25.981  1.00  0.00     0.261 C 
BRANCH   5   6
ATOM      6  O   UNL A   1      45.832  29.351  25.559  1.00  0.00    -0.463 OA
BRANCH   6   7
ATOM      7  C   UNL A   1      45.938  30.546  26.181  1.00  0.00     0.310 C 
ATOM      8  O   UNL A   1      47.021  31.128  26.162  1.00  0.00    -0.252 OA
BRANCH   7   9
ATOM      9  C   UNL A   1      44.777  31.116  26.974  1.00  0.00     0.164 C 
BRANCH   9  10
ATOM     10  C   UNL A   1      44.310  32.467  26.548  1.00  0.00     0.029 A 
ATOM     11  C   UNL A   1      44.227  32.870  25.269  1.00  0.00     0.011 A 
ATOM     12  C   UNL A   1      43.879  33.402  27.644  1.00  0.00     0.258 A 
ATOM     13  C   UNL A   1      43.677  34.155  24.934  1.00  0.00     0.019 A 
ATOM     14  N   UNL A   1      43.387  34.626  27.235  1.00  0.00    -0.258 N 
ATOM     15  O   UNL A   1      43.929  33.041  28.817  1.00  0.00    -0.269 OA
ATOM     16  C   UNL A   1      43.283  34.984  25.904  1.00  0.00     0.095 A 
BRANCH  14  17
ATOM     17  C   UNL A   1      43.025  35.576  28.257  1.00  0.00     0.451 C 
ATOM     18  F   UNL A   1      42.876  36.805  27.698  1.00  0.00    -0.185 F 
ATOM     19  F   UNL A   1      41.806  35.244  28.767  1.00  0.00    -0.185 F 
ENDBRANCH  14  17
ENDBRANCH   9  10
ENDBRANCH   7   9
ENDBRANCH   6   7
ENDBRANCH   5   6
ENDBRANCH   4   5
ENDBRANCH   3   4
ENDBRANCH   2   3
ENDBRANCH   1   2
BRANCH   1  20
ATOM     20  O   UNL A   1      45.993  23.341  24.874  1.00  0.00    -0.376 OA
BRANCH  20  21
ATOM     21  C   UNL A   1      44.676  23.723  24.506  1.00  0.00     0.202 C 
BRANCH  21  22
ATOM     22  C   UNL A   1      43.503  22.829  24.935  1.00  0.00     0.261 C 
BRANCH  22  23
ATOM     23  O   UNL A   1      42.472  23.464  25.716  1.00  0.00    -0.460 OA
BRANCH  23  24
ATOM     24  C   UNL A   1      42.489  23.223  27.056  1.00  0.00     0.338 C 
ATOM     25  O   UNL A   1      42.581  22.143  27.602  1.00  0.00    -0.246 OA
BRANCH  24  26
ATOM     26  C   UNL A   1      42.524  24.515  27.785  1.00  0.00     0.060 A 
ATOM     27  C   UNL A   1      42.934  24.566  29.118  1.00  0.00     0.016 A 
ATOM     28  C   UNL A   1      42.152  25.695  27.121  1.00  0.00     0.016 A 
ATOM     29  C   UNL A   1      42.978  25.798  29.780  1.00  0.00     0.010 A 
ATOM     30  C   UNL A   1      42.177  26.924  27.794  1.00  0.00     0.010 A 
ATOM     31  C   UNL A   1      42.605  26.990  29.128  1.00  0.00    -0.014 A 
BRANCH  31  32
ATOM     32  C   UNL A   1      42.823  28.298  29.801  1.00  0.00     0.031 A 
ATOM     33  C   UNL A   1      44.189  28.894  29.985  1.00  0.00     0.074 A 
ATOM     34  C   UNL A   1      41.745  28.974  30.243  1.00  0.00     0.049 A 
ATOM     35  N   UNL A   1      44.508  30.076  30.451  1.00  0.00    -0.248 NA
ATOM     36  C   UNL A   1      45.341  28.066  29.603  1.00  0.00     0.031 C 
ATOM     37  C   UNL A   1      40.369  28.485  30.169  1.00  0.00     0.029 A 
ATOM     38  N   UNL A   1      41.634  30.209  30.830  1.00  0.00    -0.354 N 
ATOM     39  C   UNL A   1      45.894  30.146  30.409  1.00  0.00     0.074 A 
ATOM     40  C   UNL A   1      46.357  28.868  29.903  1.00  0.00     0.031 C 
ATOM     41  C   UNL A   1      39.546  29.420  30.668  1.00  0.00     0.029 A 
ATOM     42  C   UNL A   1      40.337  30.567  31.110  1.00  0.00     0.049 A 
ATOM     43  H   UNL A   1      42.408  30.783  31.031  1.00  0.00     0.167 HD
ATOM     44  C   UNL A   1      46.703  31.187  30.732  1.00  0.00     0.034 A 
ATOM     45  C   UNL A   1      39.829  31.691  31.651  1.00  0.00     0.034 A 
ATOM     46  C   UNL A   1      46.246  32.458  31.237  1.00  0.00     0.049 A 
ATOM     47  C   UNL A   1      40.740  32.824  32.018  1.00  0.00     0.074 A 
ATOM     48  C   UNL A   1      46.999  33.577  31.553  1.00  0.00     0.029 A 
ATOM     49  N   UNL A   1      44.926  32.780  31.514  1.00  0.00    -0.354 N 
ATOM     50  N   UNL A   1      42.038  32.913  31.864  1.00  0.00    -0.248 NA
ATOM     51  C   UNL A   1      40.118  34.020  32.603  1.00  0.00     0.031 C 
ATOM     52  C   UNL A   1      46.138  34.568  32.036  1.00  0.00     0.029 A 
ATOM     53  C   UNL A   1      44.844  34.075  32.004  1.00  0.00     0.049 A 
ATOM     54  H   UNL A   1      44.158  32.177  31.383  1.00  0.00     0.167 HD
ATOM     55  C   UNL A   1      42.391  34.175  32.326  1.00  0.00     0.074 A 
ATOM     56  C   UNL A   1      41.165  34.825  32.746  1.00  0.00     0.031 C 
ATOM     57  C   UNL A   1      43.624  34.733  32.404  1.00  0.00     0.034 A 
BRANCH  44  58
ATOM     58  C   UNL A   1      48.179  31.026  30.479  1.00  0.00     0.023 A 
ATOM     59  C   UNL A   1      48.939  30.234  31.364  1.00  0.00     0.012 A 
ATOM     60  C   UNL A   1      48.798  31.573  29.337  1.00  0.00     0.148 A 
ATOM     61  C   UNL A   1      50.296  30.008  31.134  1.00  0.00     0.002 A 
ATOM     62  C   UNL A   1      50.147  31.321  29.100  1.00  0.00     0.091 A 
ATOM     63  F   UNL A   1      48.061  32.325  28.509  1.00  0.00    -0.205 F 
ATOM     64  C   UNL A   1      50.896  30.544  30.000  1.00  0.00     0.022 A 
BRANCH  62  65
ATOM     65  S   UNL A   1      51.013  31.932  27.648  1.00  0.00     0.127 S 
ATOM     66  O   UNL A   1      50.925  33.379  27.842  1.00  0.00    -0.237 OA
ATOM     67  O   UNL A   1      52.352  31.373  27.832  1.00  0.00    -0.237 OA
ATOM     68  O   UNL A   1      50.288  31.413  26.498  1.00  0.00    -0.744 OA
ENDBRANCH  62  65
ENDBRANCH  44  58
BRANCH  45  69
ATOM     69  C   UNL A   1      38.353  31.797  31.798  1.00  0.00     0.023 A 
ATOM     70  C   UNL A   1      37.768  31.565  33.057  1.00  0.00     0.012 A 
ATOM     71  C   UNL A   1      37.555  32.261  30.734  1.00  0.00     0.148 A 
ATOM     72  C   UNL A   1      36.410  31.805  33.258  1.00  0.00     0.002 A 
ATOM     73  C   UNL A   1      36.211  32.532  30.951  1.00  0.00     0.091 A 
ATOM     74  F   UNL A   1      38.145  32.480  29.551  1.00  0.00    -0.205 F 
ATOM     75  C   UNL A   1      35.635  32.300  32.211  1.00  0.00     0.022 A 
BRANCH  73  76
ATOM     76  S   UNL A   1      35.154  33.266  29.699  1.00  0.00     0.127 S 
ATOM     77  O   UNL A   1      34.872  32.119  28.837  1.00  0.00    -0.237 OA
ATOM     78  O   UNL A   1      34.022  33.727  30.501  1.00  0.00    -0.237 OA
ATOM     79  O   UNL A   1      35.943  34.323  29.082  1.00  0.00    -0.744 OA
ENDBRANCH  73  76
ENDBRANCH  45  69
BRANCH  57  80
ATOM     80  C   UNL A   1      43.736  36.121  32.981  1.00  0.00     0.023 A 
ATOM     81  C   UNL A   1      43.874  36.280  34.375  1.00  0.00     0.012 A 
ATOM     82  C   UNL A   1      43.803  37.254  32.146  1.00  0.00     0.148 A 
ATOM     83  C   UNL A   1      44.064  37.546  34.929  1.00  0.00     0.002 A 
ATOM     84  C   UNL A   1      44.023  38.509  32.703  1.00  0.00     0.091 A 
ATOM     85  F   UNL A   1      43.661  37.080  30.824  1.00  0.00    -0.205 F 
ATOM     86  C   UNL A   1      44.149  38.657  34.094  1.00  0.00     0.022 A 
BRANCH  84  87
ATOM     87  S   UNL A   1      44.205  39.997  31.711  1.00  0.00     0.127 S 
ATOM     88  O   UNL A   1      45.500  39.772  31.072  1.00  0.00    -0.237 OA
ATOM     89  O   UNL A   1      43.056  39.908  30.809  1.00  0.00    -0.237 OA
ATOM     90  O   UNL A   1      44.163  41.114  32.645  1.00  0.00    -0.744 OA
ENDBRANCH  84  87
ENDBRANCH  57  80
ENDBRANCH  31  32
ENDBRANCH  24  26
ENDBRANCH  23  24
ENDBRANCH  22  23
ENDBRANCH  21  22
ENDBRANCH  20  21
ENDBRANCH   1  20
TORSDOF 22
ENDMDL
