MODEL 1
REMARK VINA RESULT:      -9.1      0.000      0.000
REMARK SMILES COc1cccc([C@@H]2CC(c3cccc(C)c3)=NN2C(=O)CCC(=O)OCCOCCOCCOC(=O)c2ccc(-c3c4nc(c(-c5cccc(S(=O)(=O)[O-])c5F)c5ccc([nH]5)c(-c5cccc(S(=O)(=O)[O-])c5F)c5nc(c(-c6cccc(S(=O)(=O)[O-])c6F)c6ccc3[nH]6)C=C5)C=C4)cc2)c1
REMARK SMILES IDX 30 1 29 2 28 3 27 4 26 5 24 6 25 7 23 8 22 9 20 10 21 11
REMARK SMILES IDX 19 12 8 13 9 14 10 15 18 16 7 17 3 18 4 19 101 20 5 21 6 22
REMARK SMILES IDX 2 23 1 24 11 25 12 26 17 27 13 28 15 29 14 30 16 31 31 32
REMARK SMILES IDX 32 33 33 34 34 35 35 36 36 37 37 38 38 39 39 40 100 41 40 42
REMARK SMILES IDX 99 43 41 44 42 45 43 46 93 47 44 48 98 49 92 50 94 51 45 52
REMARK SMILES IDX 97 53 91 54 90 55 46 57 78 58 58 59 77 60 59 61 62 62 76 63
REMARK SMILES IDX 95 64 60 65 61 66 75 68 96 69 63 70 47 71 48 72 56 73 49 74
REMARK SMILES IDX 51 75 57 76 50 77 52 78 53 79 54 80 55 81 79 82 80 83 88 84
REMARK SMILES IDX 81 85 83 86 89 87 82 88 84 89 85 90 86 91 87 92 64 93 65 94
REMARK SMILES IDX 73 95 66 96 68 97 74 98 67 99 69 100 70 101 71 102 72 103
REMARK H PARENT 94 56 62 67
REMARK Flexibility Score: inf
ROOT
ATOM      1  C   UNL A   1      37.825  31.849  34.708  1.00  0.00     0.188 C 
ENDROOT
BRANCH   1   2
ATOM      2  O   UNL A   1      39.020  31.133  35.107  1.00  0.00    -0.376 OA
BRANCH   2   3
ATOM      3  C   UNL A   1      40.267  31.715  35.570  1.00  0.00     0.202 C 
BRANCH   3   4
ATOM      4  C   UNL A   1      41.636  31.132  35.104  1.00  0.00     0.261 C 
BRANCH   4   5
ATOM      5  O   UNL A   1      41.796  29.784  35.525  1.00  0.00    -0.463 OA
BRANCH   5   6
ATOM      6  C   UNL A   1      42.055  28.918  34.525  1.00  0.00     0.306 C 
ATOM      7  O   UNL A   1      43.165  28.677  34.077  1.00  0.00    -0.252 OA
BRANCH   6   8
ATOM      8  C   UNL A   1      40.794  28.258  34.060  1.00  0.00     0.132 C 
BRANCH   8   9
ATOM      9  C   UNL A   1      40.571  28.229  32.547  1.00  0.00     0.114 C 
BRANCH   9  10
ATOM     10  C   UNL A   1      39.158  28.502  32.006  1.00  0.00     0.243 C 
ATOM     11  O   UNL A   1      38.334  28.491  32.952  1.00  0.00    -0.273 OA
BRANCH  10  12
ATOM     12  N   UNL A   1      38.705  28.804  30.699  1.00  0.00    -0.225 N 
ATOM     13  C   UNL A   1      38.039  29.958  29.700  1.00  0.00     0.147 C 
ATOM     14  C   UNL A   1      38.774  29.648  28.371  1.00  0.00     0.091 C 
ATOM     15  C   UNL A   1      39.257  28.261  28.637  1.00  0.00     0.071 C 
ATOM     16  N   UNL A   1      39.223  27.830  29.846  1.00  0.00    -0.174 NA
BRANCH  13  17
ATOM     17  C   UNL A   1      36.344  30.575  29.456  1.00  0.00    -0.019 A 
ATOM     18  C   UNL A   1      34.819  32.898  30.723  1.00  0.00     0.119 A 
ATOM     19  C   UNL A   1      33.911  33.216  29.251  1.00  0.00     0.046 A 
ATOM     20  C   UNL A   1      36.023  31.636  30.850  1.00  0.00     0.052 A 
ATOM     21  C   UNL A   1      34.107  32.201  27.813  1.00  0.00     0.004 A 
ATOM     22  C   UNL A   1      35.258  30.797  27.909  1.00  0.00     0.006 A 
BRANCH  18  23
ATOM     23  O   UNL A   1      34.276  33.400  31.895  1.00  0.00    -0.497 OA
ATOM     24  C   UNL A   1      34.728  34.745  32.143  1.00  0.00     0.278 C 
ENDBRANCH  18  23
ENDBRANCH  13  17
BRANCH  15  25
ATOM     25  C   UNL A   1      39.864  27.419  27.611  1.00  0.00    -0.002 A 
ATOM     26  C   UNL A   1      39.682  26.037  27.669  1.00  0.00     0.010 A 
ATOM     27  C   UNL A   1      40.803  27.994  26.756  1.00  0.00     0.013 A 
ATOM     28  C   UNL A   1      40.409  25.221  26.807  1.00  0.00     0.001 A 
ATOM     29  C   UNL A   1      41.557  27.174  25.913  1.00  0.00    -0.050 A 
ATOM     30  C   UNL A   1      41.338  25.788  25.930  1.00  0.00     0.003 A 
ATOM     31  C   UNL A   1      42.623  27.761  25.039  1.00  0.00     0.044 C 
ENDBRANCH  15  25
ENDBRANCH  10  12
ENDBRANCH   9  10
ENDBRANCH   8   9
ENDBRANCH   6   8
ENDBRANCH   5   6
ENDBRANCH   4   5
ENDBRANCH   3   4
ENDBRANCH   2   3
ENDBRANCH   1   2
BRANCH   1  32
ATOM     32  C   UNL A   1      37.704  33.344  33.657  1.00  0.00     0.188 C 
BRANCH  32  33
ATOM     33  O   UNL A   1      38.729  34.034  32.530  1.00  0.00    -0.376 OA
BRANCH  33  34
ATOM     34  C   UNL A   1      39.317  33.502  31.043  1.00  0.00     0.202 C 
BRANCH  34  35
ATOM     35  C   UNL A   1      39.250  34.549  29.442  1.00  0.00     0.261 C 
BRANCH  35  36
ATOM     36  O   UNL A   1      40.998  35.375  28.840  1.00  0.00    -0.460 OA
BRANCH  36  37
ATOM     37  C   UNL A   1      41.738  36.047  27.755  1.00  0.00     0.338 C 
ATOM     38  O   UNL A   1      41.315  36.938  26.997  1.00  0.00    -0.246 OA
BRANCH  37  39
ATOM     39  C   UNL A   1      43.117  35.742  27.445  1.00  0.00     0.060 A 
ATOM     40  C   UNL A   1      43.312  35.209  26.156  1.00  0.00     0.016 A 
ATOM     41  C   UNL A   1      44.008  35.455  28.473  1.00  0.00     0.016 A 
ATOM     42  C   UNL A   1      44.417  34.446  25.864  1.00  0.00     0.010 A 
ATOM     43  C   UNL A   1      45.140  34.704  28.180  1.00  0.00     0.010 A 
ATOM     44  C   UNL A   1      45.329  34.196  26.884  1.00  0.00    -0.014 A 
BRANCH  44  45
ATOM     45  C   UNL A   1      46.465  33.325  26.583  1.00  0.00     0.031 A 
ATOM     46  C   UNL A   1      46.322  31.852  26.764  1.00  0.00     0.074 A 
ATOM     47  C   UNL A   1      47.594  33.920  26.169  1.00  0.00     0.049 A 
ATOM     48  N   UNL A   1      47.237  30.929  26.687  1.00  0.00    -0.248 NA
ATOM     49  C   UNL A   1      44.978  31.349  27.099  1.00  0.00     0.031 C 
ATOM     50  C   UNL A   1      47.755  35.364  25.962  1.00  0.00     0.029 A 
ATOM     51  N   UNL A   1      48.818  33.398  25.880  1.00  0.00    -0.354 N 
ATOM     52  C   UNL A   1      46.599  29.743  27.026  1.00  0.00     0.074 A 
ATOM     53  C   UNL A   1      45.217  30.061  27.304  1.00  0.00     0.031 C 
ATOM     54  C   UNL A   1      49.026  35.616  25.618  1.00  0.00     0.029 A 
ATOM     55  C   UNL A   1      49.762  34.361  25.618  1.00  0.00     0.049 A 
ATOM     56  H   UNL A   1      49.008  32.433  25.861  1.00  0.00     0.167 HD
ATOM     57  C   UNL A   1      47.141  28.505  27.090  1.00  0.00     0.034 A 
ATOM     58  C   UNL A   1      51.086  34.227  25.435  1.00  0.00     0.034 A 
ATOM     59  C   UNL A   1      48.516  28.246  26.757  1.00  0.00     0.049 A 
ATOM     60  C   UNL A   1      51.645  32.835  25.466  1.00  0.00     0.074 A 
ATOM     61  C   UNL A   1      49.185  27.038  26.721  1.00  0.00     0.029 A 
ATOM     62  N   UNL A   1      49.433  29.227  26.396  1.00  0.00    -0.354 N 
ATOM     63  N   UNL A   1      51.023  31.705  25.708  1.00  0.00    -0.248 NA
ATOM     64  C   UNL A   1      53.070  32.689  25.162  1.00  0.00     0.031 C 
ATOM     65  C   UNL A   1      50.510  27.293  26.350  1.00  0.00     0.029 A 
ATOM     66  C   UNL A   1      50.661  28.655  26.131  1.00  0.00     0.049 A 
ATOM     67  H   UNL A   1      49.234  30.189  26.339  1.00  0.00     0.167 HD
ATOM     68  C   UNL A   1      51.970  30.705  25.551  1.00  0.00     0.074 A 
ATOM     69  C   UNL A   1      53.206  31.369  25.174  1.00  0.00     0.031 C 
ATOM     70  C   UNL A   1      51.847  29.365  25.713  1.00  0.00     0.034 A 
BRANCH  57  71
ATOM     71  C   UNL A   1      46.250  27.368  27.513  1.00  0.00     0.023 A 
ATOM     72  C   UNL A   1      45.667  26.530  26.540  1.00  0.00     0.012 A 
ATOM     73  C   UNL A   1      46.003  27.111  28.877  1.00  0.00     0.148 A 
ATOM     74  C   UNL A   1      44.823  25.483  26.912  1.00  0.00     0.002 A 
ATOM     75  C   UNL A   1      45.198  26.037  29.244  1.00  0.00     0.091 A 
ATOM     76  F   UNL A   1      46.544  27.930  29.790  1.00  0.00    -0.205 F 
ATOM     77  C   UNL A   1      44.596  25.232  28.263  1.00  0.00     0.022 A 
BRANCH  75  78
ATOM     78  S   UNL A   1      44.902  25.585  30.957  1.00  0.00     0.127 S 
ATOM     79  O   UNL A   1      43.977  26.633  31.385  1.00  0.00    -0.237 OA
ATOM     80  O   UNL A   1      44.297  24.258  30.822  1.00  0.00    -0.237 OA
ATOM     81  O   UNL A   1      46.203  25.597  31.609  1.00  0.00    -0.744 OA
ENDBRANCH  75  78
ENDBRANCH  57  71
BRANCH  58  82
ATOM     82  C   UNL A   1      51.917  35.427  25.157  1.00  0.00     0.023 A 
ATOM     83  C   UNL A   1      52.279  35.718  23.829  1.00  0.00     0.012 A 
ATOM     84  C   UNL A   1      52.280  36.323  26.181  1.00  0.00     0.148 A 
ATOM     85  C   UNL A   1      53.014  36.866  23.529  1.00  0.00     0.002 A 
ATOM     86  C   UNL A   1      52.969  37.491  25.870  1.00  0.00     0.091 A 
ATOM     87  F   UNL A   1      51.922  36.030  27.441  1.00  0.00    -0.205 F 
ATOM     88  C   UNL A   1      53.351  37.755  24.546  1.00  0.00     0.022 A 
BRANCH  86  89
ATOM     89  S   UNL A   1      53.319  38.756  27.097  1.00  0.00     0.127 S 
ATOM     90  O   UNL A   1      54.195  39.658  26.353  1.00  0.00    -0.237 OA
ATOM     91  O   UNL A   1      51.984  39.288  27.379  1.00  0.00    -0.237 OA
ATOM     92  O   UNL A   1      53.930  38.056  28.219  1.00  0.00    -0.744 OA
ENDBRANCH  86  89
ENDBRANCH  58  82
BRANCH  70  93
ATOM     93  C   UNL A   1      53.072  28.537  25.451  1.00  0.00     0.023 A 
ATOM     94  C   UNL A   1      53.370  28.128  24.137  1.00  0.00     0.012 A 
ATOM     95  C   UNL A   1      53.962  28.234  26.498  1.00  0.00     0.148 A 
ATOM     96  C   UNL A   1      54.527  27.401  23.873  1.00  0.00     0.002 A 
ATOM     97  C   UNL A   1      55.139  27.554  26.218  1.00  0.00     0.091 A 
ATOM     98  F   UNL A   1      53.641  28.615  27.743  1.00  0.00    -0.205 F 
ATOM     99  C   UNL A   1      55.416  27.126  24.910  1.00  0.00     0.022 A 
BRANCH  97 100
ATOM    100  S   UNL A   1      56.388  27.251  27.471  1.00  0.00     0.127 S 
ATOM    101  O   UNL A   1      56.682  28.607  27.931  1.00  0.00    -0.237 OA
ATOM    102  O   UNL A   1      55.664  26.421  28.435  1.00  0.00    -0.237 OA
ATOM    103  O   UNL A   1      57.481  26.569  26.791  1.00  0.00    -0.744 OA
ENDBRANCH  97 100
ENDBRANCH  70  93
ENDBRANCH  44  45
ENDBRANCH  37  39
ENDBRANCH  36  37
ENDBRANCH  35  36
ENDBRANCH  34  35
ENDBRANCH  33  34
ENDBRANCH  32  33
ENDBRANCH   1  32
TORSDOF 26
ENDMDL
MODEL 2
REMARK VINA RESULT:      -8.7      5.195     11.095
REMARK SMILES COc1cccc([C@@H]2CC(c3cccc(C)c3)=NN2C(=O)CCC(=O)OCCOCCOCCOC(=O)c2ccc(-c3c4nc(c(-c5cccc(S(=O)(=O)[O-])c5F)c5ccc([nH]5)c(-c5cccc(S(=O)(=O)[O-])c5F)c5nc(c(-c6cccc(S(=O)(=O)[O-])c6F)c6ccc3[nH]6)C=C5)C=C4)cc2)c1
REMARK SMILES IDX 30 1 29 2 28 3 27 4 26 5 24 6 25 7 23 8 22 9 20 10 21 11
REMARK SMILES IDX 19 12 8 13 9 14 10 15 18 16 7 17 3 18 4 19 101 20 5 21 6 22
REMARK SMILES IDX 2 23 1 24 11 25 12 26 17 27 13 28 15 29 14 30 16 31 31 32
REMARK SMILES IDX 32 33 33 34 34 35 35 36 36 37 37 38 38 39 39 40 100 41 40 42
REMARK SMILES IDX 99 43 41 44 42 45 43 46 93 47 44 48 98 49 92 50 94 51 45 52
REMARK SMILES IDX 97 53 91 54 90 55 46 57 78 58 58 59 77 60 59 61 62 62 76 63
REMARK SMILES IDX 95 64 60 65 61 66 75 68 96 69 63 70 47 71 48 72 56 73 49 74
REMARK SMILES IDX 51 75 57 76 50 77 52 78 53 79 54 80 55 81 79 82 80 83 88 84
REMARK SMILES IDX 81 85 83 86 89 87 82 88 84 89 85 90 86 91 87 92 64 93 65 94
REMARK SMILES IDX 73 95 66 96 68 97 74 98 67 99 69 100 70 101 71 102 72 103
REMARK H PARENT 94 56 62 67
REMARK Flexibility Score: inf
ROOT
ATOM      1  C   UNL A   1      45.860  39.776  35.990  1.00  0.00     0.188 C 
ENDROOT
BRANCH   1   2
ATOM      2  O   UNL A   1      45.553  39.486  37.377  1.00  0.00    -0.376 OA
BRANCH   2   3
ATOM      3  C   UNL A   1      44.436  38.702  37.873  1.00  0.00     0.202 C 
BRANCH   3   4
ATOM      4  C   UNL A   1      44.451  37.147  37.772  1.00  0.00     0.261 C 
BRANCH   4   5
ATOM      5  O   UNL A   1      43.141  36.625  37.600  1.00  0.00    -0.463 OA
BRANCH   5   6
ATOM      6  C   UNL A   1      42.398  36.612  38.725  1.00  0.00     0.306 C 
ATOM      7  O   UNL A   1      42.774  36.192  39.809  1.00  0.00    -0.252 OA
BRANCH   6   8
ATOM      8  C   UNL A   1      41.054  37.223  38.475  1.00  0.00     0.132 C 
BRANCH   8   9
ATOM      9  C   UNL A   1      40.216  37.529  39.718  1.00  0.00     0.114 C 
BRANCH   9  10
ATOM     10  C   UNL A   1      39.291  36.433  40.272  1.00  0.00     0.243 C 
ATOM     11  O   UNL A   1      38.686  36.862  41.284  1.00  0.00    -0.273 OA
BRANCH  10  12
ATOM     12  N   UNL A   1      39.002  35.132  39.794  1.00  0.00    -0.225 N 
ATOM     13  C   UNL A   1      39.487  33.886  38.802  1.00  0.00     0.147 C 
ATOM     14  C   UNL A   1      39.065  32.660  39.652  1.00  0.00     0.091 C 
ATOM     15  C   UNL A   1      38.087  33.292  40.584  1.00  0.00     0.071 C 
ATOM     16  N   UNL A   1      38.061  34.573  40.657  1.00  0.00    -0.174 NA
BRANCH  13  17
ATOM     17  C   UNL A   1      39.366  33.592  37.009  1.00  0.00    -0.019 A 
ATOM     18  C   UNL A   1      37.042  33.885  35.049  1.00  0.00     0.119 A 
ATOM     19  C   UNL A   1      38.103  34.362  33.731  1.00  0.00     0.046 A 
ATOM     20  C   UNL A   1      37.621  33.524  36.660  1.00  0.00     0.052 A 
ATOM     21  C   UNL A   1      39.861  34.422  33.941  1.00  0.00     0.004 A 
ATOM     22  C   UNL A   1      40.544  33.947  35.557  1.00  0.00     0.006 A 
BRANCH  18  23
ATOM     23  O   UNL A   1      35.793  33.409  34.685  1.00  0.00    -0.497 OA
ATOM     24  C   UNL A   1      35.006  34.441  34.058  1.00  0.00     0.278 C 
ENDBRANCH  18  23
ENDBRANCH  13  17
BRANCH  15  25
ATOM     25  C   UNL A   1      37.241  32.522  41.492  1.00  0.00    -0.002 A 
ATOM     26  C   UNL A   1      35.895  32.863  41.620  1.00  0.00     0.010 A 
ATOM     27  C   UNL A   1      37.856  31.639  42.378  1.00  0.00     0.013 A 
ATOM     28  C   UNL A   1      35.135  32.257  42.616  1.00  0.00     0.001 A 
ATOM     29  C   UNL A   1      37.103  31.054  43.398  1.00  0.00    -0.050 A 
ATOM     30  C   UNL A   1      35.735  31.353  43.498  1.00  0.00     0.003 A 
ATOM     31  C   UNL A   1      37.757  30.159  44.406  1.00  0.00     0.044 C 
ENDBRANCH  15  25
ENDBRANCH  10  12
ENDBRANCH   9  10
ENDBRANCH   8   9
ENDBRANCH   6   8
ENDBRANCH   5   6
ENDBRANCH   4   5
ENDBRANCH   3   4
ENDBRANCH   2   3
ENDBRANCH   1   2
BRANCH   1  32
ATOM     32  C   UNL A   1      44.824  39.454  34.515  1.00  0.00     0.188 C 
BRANCH  32  33
ATOM     33  O   UNL A   1      44.436  40.367  33.169  1.00  0.00    -0.376 OA
BRANCH  33  34
ATOM     34  C   UNL A   1      43.415  40.091  31.856  1.00  0.00     0.202 C 
BRANCH  34  35
ATOM     35  C   UNL A   1      44.026  39.449  30.159  1.00  0.00     0.261 C 
BRANCH  35  36
ATOM     36  O   UNL A   1      44.664  37.528  30.107  1.00  0.00    -0.460 OA
BRANCH  36  37
ATOM     37  C   UNL A   1      45.803  36.600  30.247  1.00  0.00     0.338 C 
ATOM     38  O   UNL A   1      46.896  36.830  30.796  1.00  0.00    -0.246 OA
BRANCH  37  39
ATOM     39  C   UNL A   1      45.769  35.242  29.753  1.00  0.00     0.060 A 
ATOM     40  C   UNL A   1      45.002  35.076  28.582  1.00  0.00     0.016 A 
ATOM     41  C   UNL A   1      45.958  34.182  30.632  1.00  0.00     0.016 A 
ATOM     42  C   UNL A   1      44.477  33.851  28.247  1.00  0.00     0.010 A 
ATOM     43  C   UNL A   1      45.449  32.935  30.289  1.00  0.00     0.010 A 
ATOM     44  C   UNL A   1      44.703  32.783  29.108  1.00  0.00    -0.014 A 
BRANCH  44  45
ATOM     45  C   UNL A   1      44.082  31.500  28.779  1.00  0.00     0.031 A 
ATOM     46  C   UNL A   1      42.715  31.200  29.296  1.00  0.00     0.074 A 
ATOM     47  C   UNL A   1      44.800  30.650  28.031  1.00  0.00     0.049 A 
ATOM     48  N   UNL A   1      42.050  30.083  29.238  1.00  0.00    -0.248 NA
ATOM     49  C   UNL A   1      42.011  32.291  29.992  1.00  0.00     0.031 C 
ATOM     50  C   UNL A   1      46.137  30.928  27.492  1.00  0.00     0.029 A 
ATOM     51  N   UNL A   1      44.529  29.380  27.622  1.00  0.00    -0.354 N 
ATOM     52  C   UNL A   1      40.876  30.311  29.942  1.00  0.00     0.074 A 
ATOM     53  C   UNL A   1      40.916  31.676  30.416  1.00  0.00     0.031 C 
ATOM     54  C   UNL A   1      46.586  29.838  26.856  1.00  0.00     0.029 A 
ATOM     55  C   UNL A   1      45.587  28.787  26.977  1.00  0.00     0.049 A 
ATOM     56  H   UNL A   1      43.665  28.932  27.773  1.00  0.00     0.167 HD
ATOM     57  C   UNL A   1      39.862  29.441  30.160  1.00  0.00     0.034 A 
ATOM     58  C   UNL A   1      45.730  27.516  26.567  1.00  0.00     0.034 A 
ATOM     59  C   UNL A   1      39.861  28.107  29.623  1.00  0.00     0.049 A 
ATOM     60  C   UNL A   1      44.568  26.591  26.783  1.00  0.00     0.074 A 
ATOM     61  C   UNL A   1      38.880  27.139  29.713  1.00  0.00     0.029 A 
ATOM     62  N   UNL A   1      40.905  27.559  28.886  1.00  0.00    -0.354 N 
ATOM     63  N   UNL A   1      43.424  26.834  27.380  1.00  0.00    -0.248 NA
ATOM     64  C   UNL A   1      44.693  25.237  26.239  1.00  0.00     0.031 C 
ATOM     65  C   UNL A   1      39.339  26.001  29.040  1.00  0.00     0.029 A 
ATOM     66  C   UNL A   1      40.593  26.267  28.509  1.00  0.00     0.049 A 
ATOM     67  H   UNL A   1      41.743  28.025  28.664  1.00  0.00     0.167 HD
ATOM     68  C   UNL A   1      42.674  25.675  27.255  1.00  0.00     0.074 A 
ATOM     69  C   UNL A   1      43.493  24.738  26.506  1.00  0.00     0.031 C 
ATOM     70  C   UNL A   1      41.432  25.396  27.721  1.00  0.00     0.034 A 
BRANCH  57  71
ATOM     71  C   UNL A   1      38.695  29.913  30.986  1.00  0.00     0.023 A 
ATOM     72  C   UNL A   1      38.566  29.494  32.327  1.00  0.00     0.012 A 
ATOM     73  C   UNL A   1      37.734  30.791  30.445  1.00  0.00     0.148 A 
ATOM     74  C   UNL A   1      37.481  29.906  33.101  1.00  0.00     0.002 A 
ATOM     75  C   UNL A   1      36.680  31.234  31.237  1.00  0.00     0.091 A 
ATOM     76  F   UNL A   1      37.857  31.162  29.163  1.00  0.00    -0.205 F 
ATOM     77  C   UNL A   1      36.544  30.782  32.560  1.00  0.00     0.022 A 
BRANCH  75  78
ATOM     78  S   UNL A   1      35.461  32.420  30.658  1.00  0.00     0.127 S 
ATOM     79  O   UNL A   1      36.170  33.687  30.838  1.00  0.00    -0.237 OA
ATOM     80  O   UNL A   1      35.281  32.016  29.262  1.00  0.00    -0.237 OA
ATOM     81  O   UNL A   1      34.288  32.238  31.500  1.00  0.00    -0.744 OA
ENDBRANCH  75  78
ENDBRANCH  57  71
BRANCH  58  82
ATOM     82  C   UNL A   1      46.979  27.100  25.879  1.00  0.00     0.023 A 
ATOM     83  C   UNL A   1      47.122  27.354  24.502  1.00  0.00     0.012 A 
ATOM     84  C   UNL A   1      48.055  26.531  26.589  1.00  0.00     0.148 A 
ATOM     85  C   UNL A   1      48.303  27.022  23.838  1.00  0.00     0.002 A 
ATOM     86  C   UNL A   1      49.248  26.250  25.932  1.00  0.00     0.091 A 
ATOM     87  F   UNL A   1      47.901  26.300  27.901  1.00  0.00    -0.205 F 
ATOM     88  C   UNL A   1      49.368  26.480  24.552  1.00  0.00     0.022 A 
BRANCH  86  89
ATOM     89  S   UNL A   1      50.713  25.681  26.803  1.00  0.00     0.127 S 
ATOM     90  O   UNL A   1      50.830  26.673  27.869  1.00  0.00    -0.237 OA
ATOM     91  O   UNL A   1      50.309  24.346  27.245  1.00  0.00    -0.237 OA
ATOM     92  O   UNL A   1      51.782  25.682  25.812  1.00  0.00    -0.744 OA
ENDBRANCH  86  89
ENDBRANCH  58  82
BRANCH  70  93
ATOM     93  C   UNL A   1      40.881  24.036  27.403  1.00  0.00     0.023 A 
ATOM     94  C   UNL A   1      41.455  22.894  27.992  1.00  0.00     0.012 A 
ATOM     95  C   UNL A   1      39.746  23.904  26.580  1.00  0.00     0.148 A 
ATOM     96  C   UNL A   1      40.925  21.631  27.742  1.00  0.00     0.002 A 
ATOM     97  C   UNL A   1      39.192  22.648  26.379  1.00  0.00     0.091 A 
ATOM     98  F   UNL A   1      39.234  25.007  26.014  1.00  0.00    -0.205 F 
ATOM     99  C   UNL A   1      39.786  21.511  26.948  1.00  0.00     0.022 A 
BRANCH  97 100
ATOM    100  S   UNL A   1      37.668  22.414  25.458  1.00  0.00     0.127 S 
ATOM    101  O   UNL A   1      37.639  23.612  24.623  1.00  0.00    -0.237 OA
ATOM    102  O   UNL A   1      37.932  21.170  24.734  1.00  0.00    -0.237 OA
ATOM    103  O   UNL A   1      36.609  22.318  26.454  1.00  0.00    -0.744 OA
ENDBRANCH  97 100
ENDBRANCH  70  93
ENDBRANCH  44  45
ENDBRANCH  37  39
ENDBRANCH  36  37
ENDBRANCH  35  36
ENDBRANCH  34  35
ENDBRANCH  33  34
ENDBRANCH  32  33
ENDBRANCH   1  32
TORSDOF 26
ENDMDL
MODEL 3
REMARK VINA RESULT:      -8.3      8.707     15.124
REMARK SMILES COc1cccc([C@@H]2CC(c3cccc(C)c3)=NN2C(=O)CCC(=O)OCCOCCOCCOC(=O)c2ccc(-c3c4nc(c(-c5cccc(S(=O)(=O)[O-])c5F)c5ccc([nH]5)c(-c5cccc(S(=O)(=O)[O-])c5F)c5nc(c(-c6cccc(S(=O)(=O)[O-])c6F)c6ccc3[nH]6)C=C5)C=C4)cc2)c1
REMARK SMILES IDX 30 1 29 2 28 3 27 4 26 5 24 6 25 7 23 8 22 9 20 10 21 11
REMARK SMILES IDX 19 12 8 13 9 14 10 15 18 16 7 17 3 18 4 19 101 20 5 21 6 22
REMARK SMILES IDX 2 23 1 24 11 25 12 26 17 27 13 28 15 29 14 30 16 31 31 32
REMARK SMILES IDX 32 33 33 34 34 35 35 36 36 37 37 38 38 39 39 40 100 41 40 42
REMARK SMILES IDX 99 43 41 44 42 45 43 46 93 47 44 48 98 49 92 50 94 51 45 52
REMARK SMILES IDX 97 53 91 54 90 55 46 57 78 58 58 59 77 60 59 61 62 62 76 63
REMARK SMILES IDX 95 64 60 65 61 66 75 68 96 69 63 70 47 71 48 72 56 73 49 74
REMARK SMILES IDX 51 75 57 76 50 77 52 78 53 79 54 80 55 81 79 82 80 83 88 84
REMARK SMILES IDX 81 85 83 86 89 87 82 88 84 89 85 90 86 91 87 92 64 93 65 94
REMARK SMILES IDX 73 95 66 96 68 97 74 98 67 99 69 100 70 101 71 102 72 103
REMARK H PARENT 94 56 62 67
REMARK Flexibility Score: inf
ROOT
ATOM      1  C   UNL A   1      41.519  28.066  34.927  1.00  0.00     0.188 C 
ENDROOT
BRANCH   1   2
ATOM      2  O   UNL A   1      41.182  27.168  36.015  1.00  0.00    -0.376 OA
BRANCH   2   3
ATOM      3  C   UNL A   1      41.881  25.950  36.383  1.00  0.00     0.202 C 
BRANCH   3   4
ATOM      4  C   UNL A   1      42.160  24.844  35.321  1.00  0.00     0.261 C 
BRANCH   4   5
ATOM      5  O   UNL A   1      43.554  24.633  35.145  1.00  0.00    -0.463 OA
BRANCH   5   6
ATOM      6  C   UNL A   1      43.862  23.556  34.397  1.00  0.00     0.306 C 
ATOM      7  O   UNL A   1      43.673  23.461  33.193  1.00  0.00    -0.252 OA
BRANCH   6   8
ATOM      8  C   UNL A   1      44.507  22.497  35.237  1.00  0.00     0.132 C 
BRANCH   8   9
ATOM      9  C   UNL A   1      45.036  22.952  36.598  1.00  0.00     0.114 C 
BRANCH   9  10
ATOM     10  C   UNL A   1      46.533  22.779  36.902  1.00  0.00     0.243 C 
ATOM     11  O   UNL A   1      47.038  23.892  37.189  1.00  0.00    -0.273 OA
BRANCH  10  12
ATOM     12  N   UNL A   1      47.341  21.618  36.961  1.00  0.00    -0.225 N 
ATOM     13  C   UNL A   1      48.877  20.994  36.798  1.00  0.00     0.147 C 
ATOM     14  C   UNL A   1      48.871  19.918  37.912  1.00  0.00     0.091 C 
ATOM     15  C   UNL A   1      47.404  19.756  38.135  1.00  0.00     0.071 C 
ATOM     16  N   UNL A   1      46.616  20.642  37.643  1.00  0.00    -0.174 NA
BRANCH  13  17
ATOM     17  C   UNL A   1      49.895  20.534  35.360  1.00  0.00    -0.019 A 
ATOM     18  C   UNL A   1      51.303  22.218  33.237  1.00  0.00     0.119 A 
ATOM     19  C   UNL A   1      52.629  21.073  33.086  1.00  0.00     0.046 A 
ATOM     20  C   UNL A   1      49.970  21.997  34.348  1.00  0.00     0.052 A 
ATOM     21  C   UNL A   1      52.645  19.559  34.005  1.00  0.00     0.004 A 
ATOM     22  C   UNL A   1      51.232  19.206  35.094  1.00  0.00     0.006 A 
BRANCH  18  23
ATOM     23  O   UNL A   1      51.128  23.092  32.176  1.00  0.00    -0.497 OA
ATOM     24  C   UNL A   1      51.510  24.434  32.539  1.00  0.00     0.278 C 
ENDBRANCH  18  23
ENDBRANCH  13  17
BRANCH  15  25
ATOM     25  C   UNL A   1      46.838  18.705  38.974  1.00  0.00    -0.002 A 
ATOM     26  C   UNL A   1      47.604  18.178  40.014  1.00  0.00     0.010 A 
ATOM     27  C   UNL A   1      45.655  18.094  38.560  1.00  0.00     0.013 A 
ATOM     28  C   UNL A   1      47.143  17.054  40.693  1.00  0.00     0.001 A 
ATOM     29  C   UNL A   1      45.207  16.947  39.219  1.00  0.00    -0.050 A 
ATOM     30  C   UNL A   1      45.947  16.445  40.300  1.00  0.00     0.003 A 
ATOM     31  C   UNL A   1      43.979  16.231  38.745  1.00  0.00     0.044 C 
ENDBRANCH  15  25
ENDBRANCH  10  12
ENDBRANCH   9  10
ENDBRANCH   8   9
ENDBRANCH   6   8
ENDBRANCH   5   6
ENDBRANCH   4   5
ENDBRANCH   3   4
ENDBRANCH   2   3
ENDBRANCH   1   2
BRANCH   1  32
ATOM     32  C   UNL A   1      40.970  27.979  33.183  1.00  0.00     0.188 C 
BRANCH  32  33
ATOM     33  O   UNL A   1      39.463  27.961  32.459  1.00  0.00    -0.376 OA
BRANCH  33  34
ATOM     34  C   UNL A   1      38.970  27.928  30.846  1.00  0.00     0.202 C 
BRANCH  34  35
ATOM     35  C   UNL A   1      37.502  28.950  30.168  1.00  0.00     0.261 C 
BRANCH  35  36
ATOM     36  O   UNL A   1      37.369  30.864  30.818  1.00  0.00    -0.460 OA
BRANCH  36  37
ATOM     37  C   UNL A   1      37.021  31.771  31.929  1.00  0.00     0.338 C 
ATOM     38  O   UNL A   1      35.922  31.866  32.503  1.00  0.00    -0.246 OA
BRANCH  37  39
ATOM     39  C   UNL A   1      37.973  32.686  32.517  1.00  0.00     0.060 A 
ATOM     40  C   UNL A   1      39.116  32.060  33.054  1.00  0.00     0.016 A 
ATOM     41  C   UNL A   1      37.539  33.911  33.011  1.00  0.00     0.016 A 
ATOM     42  C   UNL A   1      39.865  32.670  34.030  1.00  0.00     0.010 A 
ATOM     43  C   UNL A   1      38.304  34.545  33.982  1.00  0.00     0.010 A 
ATOM     44  C   UNL A   1      39.452  33.915  34.492  1.00  0.00    -0.014 A 
BRANCH  44  45
ATOM     45  C   UNL A   1      40.215  34.525  35.581  1.00  0.00     0.031 A 
ATOM     46  C   UNL A   1      39.818  34.250  36.992  1.00  0.00     0.074 A 
ATOM     47  C   UNL A   1      41.237  35.322  35.234  1.00  0.00     0.049 A 
ATOM     48  N   UNL A   1      40.269  34.794  38.086  1.00  0.00    -0.248 NA
ATOM     49  C   UNL A   1      38.757  33.249  37.203  1.00  0.00     0.031 C 
ATOM     50  C   UNL A   1      41.662  35.593  33.856  1.00  0.00     0.029 A 
ATOM     51  N   UNL A   1      42.077  36.072  36.001  1.00  0.00    -0.354 N 
ATOM     52  C   UNL A   1      39.507  34.253  39.112  1.00  0.00     0.074 A 
ATOM     53  C   UNL A   1      38.567  33.333  38.512  1.00  0.00     0.031 C 
ATOM     54  C   UNL A   1      42.662  36.485  33.875  1.00  0.00     0.029 A 
ATOM     55  C   UNL A   1      42.914  36.867  35.256  1.00  0.00     0.049 A 
ATOM     56  H   UNL A   1      42.084  36.048  36.985  1.00  0.00     0.167 HD
ATOM     57  C   UNL A   1      39.603  34.514  40.436  1.00  0.00     0.034 A 
ATOM     58  C   UNL A   1      43.764  37.824  35.664  1.00  0.00     0.034 A 
ATOM     59  C   UNL A   1      40.591  35.408  40.977  1.00  0.00     0.049 A 
ATOM     60  C   UNL A   1      43.880  38.054  37.142  1.00  0.00     0.074 A 
ATOM     61  C   UNL A   1      40.843  35.723  42.298  1.00  0.00     0.029 A 
ATOM     62  N   UNL A   1      41.498  36.129  40.208  1.00  0.00    -0.354 N 
ATOM     63  N   UNL A   1      43.213  37.482  38.118  1.00  0.00    -0.248 NA
ATOM     64  C   UNL A   1      44.884  39.025  37.582  1.00  0.00     0.031 C 
ATOM     65  C   UNL A   1      41.895  36.645  42.325  1.00  0.00     0.029 A 
ATOM     66  C   UNL A   1      42.315  36.887  41.025  1.00  0.00     0.049 A 
ATOM     67  H   UNL A   1      41.550  36.103  39.226  1.00  0.00     0.167 HD
ATOM     68  C   UNL A   1      43.739  37.994  39.293  1.00  0.00     0.074 A 
ATOM     69  C   UNL A   1      44.795  38.912  38.902  1.00  0.00     0.031 C 
ATOM     70  C   UNL A   1      43.384  37.749  40.578  1.00  0.00     0.034 A 
BRANCH  57  71
ATOM     71  C   UNL A   1      38.639  33.820  41.362  1.00  0.00     0.023 A 
ATOM     72  C   UNL A   1      37.441  34.461  41.741  1.00  0.00     0.012 A 
ATOM     73  C   UNL A   1      38.905  32.522  41.843  1.00  0.00     0.148 A 
ATOM     74  C   UNL A   1      36.546  33.842  42.613  1.00  0.00     0.002 A 
ATOM     75  C   UNL A   1      37.986  31.892  42.676  1.00  0.00     0.091 A 
ATOM     76  F   UNL A   1      40.059  31.935  41.494  1.00  0.00    -0.205 F 
ATOM     77  C   UNL A   1      36.814  32.555  43.073  1.00  0.00     0.022 A 
BRANCH  75  78
ATOM     78  S   UNL A   1      38.202  30.208  43.263  1.00  0.00     0.127 S 
ATOM     79  O   UNL A   1      38.151  29.449  42.014  1.00  0.00    -0.237 OA
ATOM     80  O   UNL A   1      39.526  30.269  43.885  1.00  0.00    -0.237 OA
ATOM     81  O   UNL A   1      37.106  29.959  44.189  1.00  0.00    -0.744 OA
ENDBRANCH  75  78
ENDBRANCH  57  71
BRANCH  58  82
ATOM     82  C   UNL A   1      44.581  38.558  34.664  1.00  0.00     0.023 A 
ATOM     83  C   UNL A   1      45.840  38.048  34.297  1.00  0.00     0.012 A 
ATOM     84  C   UNL A   1      44.090  39.708  34.015  1.00  0.00     0.148 A 
ATOM     85  C   UNL A   1      46.608  38.687  33.323  1.00  0.00     0.002 A 
ATOM     86  C   UNL A   1      44.838  40.310  33.009  1.00  0.00     0.091 A 
ATOM     87  F   UNL A   1      42.886  40.178  34.375  1.00  0.00    -0.205 F 
ATOM     88  C   UNL A   1      46.105  39.810  32.673  1.00  0.00     0.022 A 
BRANCH  86  89
ATOM     89  S   UNL A   1      44.204  41.675  32.027  1.00  0.00     0.127 S 
ATOM     90  O   UNL A   1      43.942  42.683  33.051  1.00  0.00    -0.237 OA
ATOM     91  O   UNL A   1      45.336  41.972  31.147  1.00  0.00    -0.237 OA
ATOM     92  O   UNL A   1      43.034  41.150  31.335  1.00  0.00    -0.744 OA
ENDBRANCH  86  89
ENDBRANCH  58  82
BRANCH  70  93
ATOM     93  C   UNL A   1      44.168  38.460  41.644  1.00  0.00     0.023 A 
ATOM     94  C   UNL A   1      43.721  39.704  42.126  1.00  0.00     0.012 A 
ATOM     95  C   UNL A   1      45.301  37.852  42.215  1.00  0.00     0.148 A 
ATOM     96  C   UNL A   1      44.412  40.352  43.146  1.00  0.00     0.002 A 
ATOM     97  C   UNL A   1      45.954  38.479  43.268  1.00  0.00     0.091 A 
ATOM     98  F   UNL A   1      45.717  36.677  41.721  1.00  0.00    -0.205 F 
ATOM     99  C   UNL A   1      45.518  39.733  43.725  1.00  0.00     0.022 A 
BRANCH  97 100
ATOM    100  S   UNL A   1      47.320  37.707  44.140  1.00  0.00     0.127 S 
ATOM    101  O   UNL A   1      48.327  37.610  43.086  1.00  0.00    -0.237 OA
ATOM    102  O   UNL A   1      47.617  38.691  45.182  1.00  0.00    -0.237 OA
ATOM    103  O   UNL A   1      46.810  36.437  44.639  1.00  0.00    -0.744 OA
ENDBRANCH  97 100
ENDBRANCH  70  93
ENDBRANCH  44  45
ENDBRANCH  37  39
ENDBRANCH  36  37
ENDBRANCH  35  36
ENDBRANCH  34  35
ENDBRANCH  33  34
ENDBRANCH  32  33
ENDBRANCH   1  32
TORSDOF 26
ENDMDL
