MODEL 1
REMARK VINA RESULT:     -11.0      0.000      0.000
REMARK SMILES Cc1cc(Cl)ccc1-c1ccc(C(=O)OCCOCCOCCOC(=O)c2ccc(-c3c4nc(c(-c5cccc(S(=O)(=O)[O-])c5F)c5ccc([nH]5)c(-c5cccc(S(=O)(=O)[O-])c5F)c5nc(c(-c6cccc(S(=O)(=O)[O-])c6F)c6ccc3[nH]6)C=C5)C=C4)cc2)c(Cl)c1
REMARK SMILES IDX 20 1 19 2 18 3 17 4 16 5 15 6 13 7 14 8 12 9 9 10 10 11
REMARK SMILES IDX 92 12 11 13 90 14 91 15 8 16 1 17 2 18 3 19 4 20 7 21 5 22
REMARK SMILES IDX 6 23 21 24 22 25 23 26 24 27 25 28 26 29 27 30 28 31 89 32
REMARK SMILES IDX 29 33 88 34 30 35 31 36 32 37 82 38 33 39 87 40 81 41 83 42
REMARK SMILES IDX 34 43 86 44 80 45 79 46 35 48 67 49 47 50 66 51 48 52 51 53
REMARK SMILES IDX 65 54 84 55 49 56 50 57 64 59 85 60 52 61 36 62 37 63 45 64
REMARK SMILES IDX 38 65 40 66 46 67 39 68 41 69 42 70 43 71 44 72 68 73 69 74
REMARK SMILES IDX 77 75 70 76 72 77 78 78 71 79 73 80 74 81 75 82 76 83 53 84
REMARK SMILES IDX 54 85 62 86 55 87 57 88 63 89 56 90 58 91 59 92 60 93 61 94
REMARK H PARENT 83 47 51 58
REMARK Flexibility Score: inf
ROOT
ATOM      1  C   UNL A   1      34.731  29.988  27.522  1.00  0.00     0.188 C 
ENDROOT
BRANCH   1   2
ATOM      2  C   UNL A   1      33.826  29.205  26.545  1.00  0.00     0.188 C 
BRANCH   2   3
ATOM      3  O   UNL A   1      33.166  29.974  25.567  1.00  0.00    -0.376 OA
BRANCH   3   4
ATOM      4  C   UNL A   1      32.633  29.360  24.406  1.00  0.00     0.202 C 
BRANCH   4   5
ATOM      5  C   UNL A   1      31.218  28.760  24.283  1.00  0.00     0.261 C 
BRANCH   5   6
ATOM      6  O   UNL A   1      31.108  27.337  24.350  1.00  0.00    -0.460 OA
BRANCH   6   7
ATOM      7  C   UNL A   1      30.801  26.712  23.187  1.00  0.00     0.339 C 
ATOM      8  O   UNL A   1      30.351  27.225  22.176  1.00  0.00    -0.246 OA
BRANCH   7   9
ATOM      9  C   UNL A   1      31.263  25.311  23.216  1.00  0.00     0.078 A 
ATOM     10  C   UNL A   1      32.164  22.657  23.544  1.00  0.00    -0.017 A 
ATOM     11  C   UNL A   1      31.101  23.146  24.315  1.00  0.00     0.010 A 
ATOM     12  C   UNL A   1      32.713  23.498  22.555  1.00  0.00     0.030 A 
ATOM     13  C   UNL A   1      30.656  24.462  24.158  1.00  0.00     0.018 A 
ATOM     14  C   UNL A   1      32.277  24.820  22.395  1.00  0.00     0.056 A 
ATOM     15  Cl  UNL A   1      33.102  25.796  21.233  1.00  0.00    -0.083 Cl
BRANCH  10  16
ATOM     16  C   UNL A   1      32.821  21.378  23.872  1.00  0.00    -0.015 A 
ATOM     17  C   UNL A   1      34.765  22.402  25.214  1.00  0.00     0.045 C 
ATOM     18  C   UNL A   1      34.008  21.243  24.623  1.00  0.00    -0.042 A 
ATOM     19  C   UNL A   1      34.544  19.953  24.839  1.00  0.00     0.024 A 
ATOM     20  C   UNL A   1      33.918  18.818  24.327  1.00  0.00     0.041 A 
ATOM     21  C   UNL A   1      32.217  20.206  23.360  1.00  0.00     0.010 A 
ATOM     22  Cl  UNL A   1      34.586  17.259  24.613  1.00  0.00    -0.084 Cl
ATOM     23  C   UNL A   1      32.753  18.940  23.584  1.00  0.00     0.021 A 
ENDBRANCH  10  16
ENDBRANCH   7   9
ENDBRANCH   6   7
ENDBRANCH   5   6
ENDBRANCH   4   5
ENDBRANCH   3   4
ENDBRANCH   2   3
ENDBRANCH   1   2
BRANCH   1  24
ATOM     24  O   UNL A   1      34.570  31.384  27.704  1.00  0.00    -0.376 OA
BRANCH  24  25
ATOM     25  C   UNL A   1      33.263  31.930  27.788  1.00  0.00     0.202 C 
BRANCH  25  26
ATOM     26  C   UNL A   1      32.952  33.392  27.419  1.00  0.00     0.261 C 
BRANCH  26  27
ATOM     27  O   UNL A   1      32.406  34.215  28.456  1.00  0.00    -0.460 OA
BRANCH  27  28
ATOM     28  C   UNL A   1      33.218  35.198  28.913  1.00  0.00     0.338 C 
ATOM     29  O   UNL A   1      33.034  36.405  28.845  1.00  0.00    -0.246 OA
BRANCH  28  30
ATOM     30  C   UNL A   1      34.312  34.591  29.692  1.00  0.00     0.060 A 
ATOM     31  C   UNL A   1      35.617  34.629  29.179  1.00  0.00     0.016 A 
ATOM     32  C   UNL A   1      34.043  33.963  30.907  1.00  0.00     0.016 A 
ATOM     33  C   UNL A   1      36.663  34.036  29.884  1.00  0.00     0.010 A 
ATOM     34  C   UNL A   1      35.085  33.344  31.597  1.00  0.00     0.010 A 
ATOM     35  C   UNL A   1      36.395  33.360  31.080  1.00  0.00    -0.014 A 
BRANCH  35  36
ATOM     36  C   UNL A   1      37.437  32.531  31.726  1.00  0.00     0.031 A 
ATOM     37  C   UNL A   1      37.963  32.957  33.067  1.00  0.00     0.074 A 
ATOM     38  C   UNL A   1      37.947  31.453  31.107  1.00  0.00     0.049 A 
ATOM     39  N   UNL A   1      38.966  32.481  33.754  1.00  0.00    -0.248 NA
ATOM     40  C   UNL A   1      37.266  34.083  33.712  1.00  0.00     0.031 C 
ATOM     41  C   UNL A   1      37.512  30.937  29.810  1.00  0.00     0.029 A 
ATOM     42  N   UNL A   1      38.982  30.628  31.470  1.00  0.00    -0.354 N 
ATOM     43  C   UNL A   1      39.047  33.270  34.895  1.00  0.00     0.074 A 
ATOM     44  C   UNL A   1      37.997  34.259  34.804  1.00  0.00     0.031 C 
ATOM     45  C   UNL A   1      38.309  29.913  29.460  1.00  0.00     0.029 A 
ATOM     46  C   UNL A   1      39.331  29.728  30.490  1.00  0.00     0.049 A 
ATOM     47  H   UNL A   1      39.431  30.675  32.346  1.00  0.00     0.167 HD
ATOM     48  C   UNL A   1      39.916  33.174  35.930  1.00  0.00     0.034 A 
ATOM     49  C   UNL A   1      40.381  28.886  30.413  1.00  0.00     0.034 A 
ATOM     50  C   UNL A   1      40.961  32.190  36.013  1.00  0.00     0.049 A 
ATOM     51  C   UNL A   1      41.361  28.823  31.558  1.00  0.00     0.074 A 
ATOM     52  C   UNL A   1      41.874  31.988  37.032  1.00  0.00     0.029 A 
ATOM     53  N   UNL A   1      41.248  31.256  35.029  1.00  0.00    -0.354 N 
ATOM     54  N   UNL A   1      41.371  29.507  32.677  1.00  0.00    -0.248 NA
ATOM     55  C   UNL A   1      42.458  27.849  31.442  1.00  0.00     0.031 C 
ATOM     56  C   UNL A   1      42.735  30.955  36.649  1.00  0.00     0.029 A 
ATOM     57  C   UNL A   1      42.329  30.481  35.412  1.00  0.00     0.049 A 
ATOM     58  H   UNL A   1      40.755  31.158  34.182  1.00  0.00     0.167 HD
ATOM     59  C   UNL A   1      42.446  29.019  33.414  1.00  0.00     0.074 A 
ATOM     60  C   UNL A   1      43.054  27.972  32.620  1.00  0.00     0.031 C 
ATOM     61  C   UNL A   1      42.893  29.406  34.635  1.00  0.00     0.034 A 
BRANCH  48  62
ATOM     62  C   UNL A   1      39.761  34.159  37.059  1.00  0.00     0.023 A 
ATOM     63  C   UNL A   1      40.176  35.496  36.883  1.00  0.00     0.012 A 
ATOM     64  C   UNL A   1      39.175  33.773  38.279  1.00  0.00     0.148 A 
ATOM     65  C   UNL A   1      40.049  36.420  37.920  1.00  0.00     0.002 A 
ATOM     66  C   UNL A   1      39.006  34.713  39.290  1.00  0.00     0.091 A 
ATOM     67  F   UNL A   1      38.806  32.493  38.435  1.00  0.00    -0.205 F 
ATOM     68  C   UNL A   1      39.456  36.032  39.117  1.00  0.00     0.022 A 
BRANCH  66  69
ATOM     69  S   UNL A   1      38.180  34.332  40.838  1.00  0.00     0.127 S 
ATOM     70  O   UNL A   1      37.034  33.550  40.375  1.00  0.00    -0.237 OA
ATOM     71  O   UNL A   1      39.200  33.557  41.546  1.00  0.00    -0.237 OA
ATOM     72  O   UNL A   1      37.856  35.613  41.449  1.00  0.00    -0.744 OA
ENDBRANCH  66  69
ENDBRANCH  48  62
BRANCH  49  73
ATOM     73  C   UNL A   1      40.559  28.027  29.208  1.00  0.00     0.023 A 
ATOM     74  C   UNL A   1      39.831  26.828  29.092  1.00  0.00     0.012 A 
ATOM     75  C   UNL A   1      41.435  28.404  28.171  1.00  0.00     0.148 A 
ATOM     76  C   UNL A   1      39.996  26.002  27.980  1.00  0.00     0.002 A 
ATOM     77  C   UNL A   1      41.552  27.605  27.040  1.00  0.00     0.091 A 
ATOM     78  F   UNL A   1      42.127  29.543  28.308  1.00  0.00    -0.205 F 
ATOM     79  C   UNL A   1      40.847  26.395  26.950  1.00  0.00     0.022 A 
BRANCH  77  80
ATOM     80  S   UNL A   1      42.526  28.089  25.612  1.00  0.00     0.127 S 
ATOM     81  O   UNL A   1      42.585  26.842  24.853  1.00  0.00    -0.237 OA
ATOM     82  O   UNL A   1      41.689  29.133  25.019  1.00  0.00    -0.237 OA
ATOM     83  O   UNL A   1      43.797  28.564  26.142  1.00  0.00    -0.744 OA
ENDBRANCH  77  80
ENDBRANCH  49  73
BRANCH  61  84
ATOM     84  C   UNL A   1      44.061  28.661  35.228  1.00  0.00     0.023 A 
ATOM     85  C   UNL A   1      45.381  29.026  34.898  1.00  0.00     0.012 A 
ATOM     86  C   UNL A   1      43.845  27.644  36.182  1.00  0.00     0.148 A 
ATOM     87  C   UNL A   1      46.465  28.371  35.482  1.00  0.00     0.002 A 
ATOM     88  C   UNL A   1      44.929  27.034  36.799  1.00  0.00     0.091 A 
ATOM     89  F   UNL A   1      42.582  27.299  36.471  1.00  0.00    -0.205 F 
ATOM     90  C   UNL A   1      46.240  27.385  36.440  1.00  0.00     0.022 A 
BRANCH  88  91
ATOM     91  S   UNL A   1      44.735  25.825  38.115  1.00  0.00     0.127 S 
ATOM     92  O   UNL A   1      46.127  25.528  38.454  1.00  0.00    -0.237 OA
ATOM     93  O   UNL A   1      44.010  26.590  39.131  1.00  0.00    -0.237 OA
ATOM     94  O   UNL A   1      43.984  24.719  37.539  1.00  0.00    -0.744 OA
ENDBRANCH  88  91
ENDBRANCH  61  84
ENDBRANCH  35  36
ENDBRANCH  28  30
ENDBRANCH  27  28
ENDBRANCH  26  27
ENDBRANCH  25  26
ENDBRANCH  24  25
ENDBRANCH   1  24
TORSDOF 21
ENDMDL
MODEL 2
REMARK VINA RESULT:     -10.8      5.823     12.010
REMARK SMILES Cc1cc(Cl)ccc1-c1ccc(C(=O)OCCOCCOCCOC(=O)c2ccc(-c3c4nc(c(-c5cccc(S(=O)(=O)[O-])c5F)c5ccc([nH]5)c(-c5cccc(S(=O)(=O)[O-])c5F)c5nc(c(-c6cccc(S(=O)(=O)[O-])c6F)c6ccc3[nH]6)C=C5)C=C4)cc2)c(Cl)c1
REMARK SMILES IDX 20 1 19 2 18 3 17 4 16 5 15 6 13 7 14 8 12 9 9 10 10 11
REMARK SMILES IDX 92 12 11 13 90 14 91 15 8 16 1 17 2 18 3 19 4 20 7 21 5 22
REMARK SMILES IDX 6 23 21 24 22 25 23 26 24 27 25 28 26 29 27 30 28 31 89 32
REMARK SMILES IDX 29 33 88 34 30 35 31 36 32 37 82 38 33 39 87 40 81 41 83 42
REMARK SMILES IDX 34 43 86 44 80 45 79 46 35 48 67 49 47 50 66 51 48 52 51 53
REMARK SMILES IDX 65 54 84 55 49 56 50 57 64 59 85 60 52 61 36 62 37 63 45 64
REMARK SMILES IDX 38 65 40 66 46 67 39 68 41 69 42 70 43 71 44 72 68 73 69 74
REMARK SMILES IDX 77 75 70 76 72 77 78 78 71 79 73 80 74 81 75 82 76 83 53 84
REMARK SMILES IDX 54 85 62 86 55 87 57 88 63 89 56 90 58 91 59 92 60 93 61 94
REMARK H PARENT 83 47 51 58
REMARK Flexibility Score: inf
ROOT
ATOM      1  C   UNL A   1      36.677  22.464  25.637  1.00  0.00     0.188 C 
ENDROOT
BRANCH   1   2
ATOM      2  C   UNL A   1      35.461  21.621  25.193  1.00  0.00     0.188 C 
BRANCH   2   3
ATOM      3  O   UNL A   1      34.828  20.873  26.205  1.00  0.00    -0.376 OA
BRANCH   3   4
ATOM      4  C   UNL A   1      33.434  20.620  26.149  1.00  0.00     0.202 C 
BRANCH   4   5
ATOM      5  C   UNL A   1      32.365  21.614  25.656  1.00  0.00     0.261 C 
BRANCH   5   6
ATOM      6  O   UNL A   1      32.349  22.905  26.268  1.00  0.00    -0.460 OA
BRANCH   6   7
ATOM      7  C   UNL A   1      31.125  23.463  26.440  1.00  0.00     0.339 C 
ATOM      8  O   UNL A   1      30.308  23.186  27.301  1.00  0.00    -0.246 OA
BRANCH   7   9
ATOM      9  C   UNL A   1      30.955  24.623  25.543  1.00  0.00     0.078 A 
ATOM     10  C   UNL A   1      30.438  26.932  24.005  1.00  0.00    -0.017 A 
ATOM     11  C   UNL A   1      30.678  27.035  25.381  1.00  0.00     0.010 A 
ATOM     12  C   UNL A   1      30.538  25.660  23.404  1.00  0.00     0.030 A 
ATOM     13  C   UNL A   1      30.929  25.892  26.146  1.00  0.00     0.018 A 
ATOM     14  C   UNL A   1      30.784  24.509  24.164  1.00  0.00     0.056 A 
ATOM     15  Cl  UNL A   1      30.767  22.991  23.340  1.00  0.00    -0.083 Cl
BRANCH  10  16
ATOM     16  C   UNL A   1      29.913  28.073  23.232  1.00  0.00    -0.015 A 
ATOM     17  C   UNL A   1      32.203  28.972  22.473  1.00  0.00     0.045 C 
ATOM     18  C   UNL A   1      30.699  29.015  22.536  1.00  0.00    -0.042 A 
ATOM     19  C   UNL A   1      30.062  30.078  21.858  1.00  0.00     0.024 A 
ATOM     20  C   UNL A   1      28.675  30.207  21.864  1.00  0.00     0.041 A 
ATOM     21  C   UNL A   1      28.509  28.239  23.225  1.00  0.00     0.010 A 
ATOM     22  Cl  UNL A   1      27.924  31.505  21.022  1.00  0.00    -0.084 Cl
ATOM     23  C   UNL A   1      27.892  29.290  22.548  1.00  0.00     0.021 A 
ENDBRANCH  10  16
ENDBRANCH   7   9
ENDBRANCH   6   7
ENDBRANCH   5   6
ENDBRANCH   4   5
ENDBRANCH   3   4
ENDBRANCH   2   3
ENDBRANCH   1   2
BRANCH   1  24
ATOM     24  O   UNL A   1      37.981  22.158  25.177  1.00  0.00    -0.376 OA
BRANCH  24  25
ATOM     25  C   UNL A   1      38.890  21.495  26.043  1.00  0.00     0.202 C 
BRANCH  25  26
ATOM     26  C   UNL A   1      39.400  20.068  25.770  1.00  0.00     0.261 C 
BRANCH  26  27
ATOM     27  O   UNL A   1      40.447  19.586  26.621  1.00  0.00    -0.460 OA
BRANCH  27  28
ATOM     28  C   UNL A   1      41.691  19.604  26.086  1.00  0.00     0.338 C 
ATOM     29  O   UNL A   1      42.216  18.740  25.398  1.00  0.00    -0.246 OA
BRANCH  28  30
ATOM     30  C   UNL A   1      42.288  20.933  26.307  1.00  0.00     0.060 A 
ATOM     31  C   UNL A   1      42.361  21.440  27.613  1.00  0.00     0.016 A 
ATOM     32  C   UNL A   1      42.745  21.684  25.226  1.00  0.00     0.016 A 
ATOM     33  C   UNL A   1      42.893  22.708  27.843  1.00  0.00     0.010 A 
ATOM     34  C   UNL A   1      43.251  22.964  25.454  1.00  0.00     0.010 A 
ATOM     35  C   UNL A   1      43.310  23.489  26.759  1.00  0.00    -0.014 A 
BRANCH  35  36
ATOM     36  C   UNL A   1      43.662  24.914  26.950  1.00  0.00     0.031 A 
ATOM     37  C   UNL A   1      45.092  25.331  26.756  1.00  0.00     0.074 A 
ATOM     38  C   UNL A   1      42.740  25.809  27.344  1.00  0.00     0.049 A 
ATOM     39  N   UNL A   1      45.662  26.478  27.006  1.00  0.00    -0.248 NA
ATOM     40  C   UNL A   1      46.002  24.306  26.218  1.00  0.00     0.031 C 
ATOM     41  C   UNL A   1      41.322  25.525  27.556  1.00  0.00     0.029 A 
ATOM     42  N   UNL A   1      42.876  27.131  27.686  1.00  0.00    -0.354 N 
ATOM     43  C   UNL A   1      47.005  26.307  26.691  1.00  0.00     0.074 A 
ATOM     44  C   UNL A   1      47.164  24.942  26.240  1.00  0.00     0.031 C 
ATOM     45  C   UNL A   1      40.726  26.627  28.042  1.00  0.00     0.029 A 
ATOM     46  C   UNL A   1      41.728  27.679  28.209  1.00  0.00     0.049 A 
ATOM     47  H   UNL A   1      43.713  27.638  27.568  1.00  0.00     0.167 HD
ATOM     48  C   UNL A   1      48.013  27.208  26.766  1.00  0.00     0.034 A 
ATOM     49  C   UNL A   1      41.523  28.874  28.799  1.00  0.00     0.034 A 
ATOM     50  C   UNL A   1      47.849  28.562  27.219  1.00  0.00     0.049 A 
ATOM     51  C   UNL A   1      42.669  29.848  28.910  1.00  0.00     0.074 A 
ATOM     52  C   UNL A   1      48.800  29.562  27.303  1.00  0.00     0.029 A 
ATOM     53  N   UNL A   1      46.660  29.101  27.686  1.00  0.00    -0.354 N 
ATOM     54  N   UNL A   1      43.913  29.709  28.520  1.00  0.00    -0.248 NA
ATOM     55  C   UNL A   1      42.374  31.156  29.516  1.00  0.00     0.031 C 
ATOM     56  C   UNL A   1      48.193  30.696  27.854  1.00  0.00     0.029 A 
ATOM     57  C   UNL A   1      46.853  30.417  28.069  1.00  0.00     0.049 A 
ATOM     58  H   UNL A   1      45.803  28.617  27.738  1.00  0.00     0.167 HD
ATOM     59  C   UNL A   1      44.538  30.922  28.794  1.00  0.00     0.074 A 
ATOM     60  C   UNL A   1      43.531  31.789  29.370  1.00  0.00     0.031 C 
ATOM     61  C   UNL A   1      45.830  31.285  28.592  1.00  0.00     0.034 A 
BRANCH  48  62
ATOM     62  C   UNL A   1      49.384  26.751  26.338  1.00  0.00     0.023 A 
ATOM     63  C   UNL A   1      50.116  25.870  27.159  1.00  0.00     0.012 A 
ATOM     64  C   UNL A   1      49.931  27.165  25.109  1.00  0.00     0.148 A 
ATOM     65  C   UNL A   1      51.390  25.443  26.784  1.00  0.00     0.002 A 
ATOM     66  C   UNL A   1      51.181  26.696  24.718  1.00  0.00     0.091 A 
ATOM     67  F   UNL A   1      49.229  28.020  24.351  1.00  0.00    -0.205 F 
ATOM     68  C   UNL A   1      51.917  25.848  25.562  1.00  0.00     0.022 A 
BRANCH  66  69
ATOM     69  S   UNL A   1      51.910  27.094  23.127  1.00  0.00     0.127 S 
ATOM     70  O   UNL A   1      53.120  26.273  23.144  1.00  0.00    -0.237 OA
ATOM     71  O   UNL A   1      50.878  26.639  22.195  1.00  0.00    -0.237 OA
ATOM     72  O   UNL A   1      52.132  28.533  23.133  1.00  0.00    -0.744 OA
ENDBRANCH  66  69
ENDBRANCH  48  62
BRANCH  49  73
ATOM     73  C   UNL A   1      40.173  29.220  29.328  1.00  0.00     0.023 A 
ATOM     74  C   UNL A   1      39.196  29.742  28.457  1.00  0.00     0.012 A 
ATOM     75  C   UNL A   1      39.850  29.020  30.684  1.00  0.00     0.148 A 
ATOM     76  C   UNL A   1      37.932  30.088  28.936  1.00  0.00     0.002 A 
ATOM     77  C   UNL A   1      38.572  29.313  31.141  1.00  0.00     0.091 A 
ATOM     78  F   UNL A   1      40.799  28.534  31.496  1.00  0.00    -0.205 F 
ATOM     79  C   UNL A   1      37.616  29.865  30.273  1.00  0.00     0.022 A 
BRANCH  77  80
ATOM     80  S   UNL A   1      38.036  28.944  32.815  1.00  0.00     0.127 S 
ATOM     81  O   UNL A   1      36.688  29.509  32.829  1.00  0.00    -0.237 OA
ATOM     82  O   UNL A   1      38.092  27.482  32.830  1.00  0.00    -0.237 OA
ATOM     83  O   UNL A   1      39.000  29.594  33.691  1.00  0.00    -0.744 OA
ENDBRANCH  77  80
ENDBRANCH  49  73
BRANCH  61  84
ATOM     84  C   UNL A   1      46.228  32.698  28.936  1.00  0.00     0.023 A 
ATOM     85  C   UNL A   1      46.799  32.991  30.190  1.00  0.00     0.012 A 
ATOM     86  C   UNL A   1      46.108  33.724  27.976  1.00  0.00     0.148 A 
ATOM     87  C   UNL A   1      47.214  34.288  30.494  1.00  0.00     0.002 A 
ATOM     88  C   UNL A   1      46.572  35.000  28.266  1.00  0.00     0.091 A 
ATOM     89  F   UNL A   1      45.547  33.429  26.794  1.00  0.00    -0.205 F 
ATOM     90  C   UNL A   1      47.113  35.288  29.530  1.00  0.00     0.022 A 
BRANCH  88  91
ATOM     91  S   UNL A   1      46.574  36.325  27.052  1.00  0.00     0.127 S 
ATOM     92  O   UNL A   1      47.213  37.410  27.796  1.00  0.00    -0.237 OA
ATOM     93  O   UNL A   1      47.391  35.758  25.978  1.00  0.00    -0.237 OA
ATOM     94  O   UNL A   1      45.180  36.549  26.698  1.00  0.00    -0.744 OA
ENDBRANCH  88  91
ENDBRANCH  61  84
ENDBRANCH  35  36
ENDBRANCH  28  30
ENDBRANCH  27  28
ENDBRANCH  26  27
ENDBRANCH  25  26
ENDBRANCH  24  25
ENDBRANCH   1  24
TORSDOF 21
ENDMDL
MODEL 3
REMARK VINA RESULT:     -10.8      1.487      7.919
REMARK SMILES Cc1cc(Cl)ccc1-c1ccc(C(=O)OCCOCCOCCOC(=O)c2ccc(-c3c4nc(c(-c5cccc(S(=O)(=O)[O-])c5F)c5ccc([nH]5)c(-c5cccc(S(=O)(=O)[O-])c5F)c5nc(c(-c6cccc(S(=O)(=O)[O-])c6F)c6ccc3[nH]6)C=C5)C=C4)cc2)c(Cl)c1
REMARK SMILES IDX 20 1 19 2 18 3 17 4 16 5 15 6 13 7 14 8 12 9 9 10 10 11
REMARK SMILES IDX 92 12 11 13 90 14 91 15 8 16 1 17 2 18 3 19 4 20 7 21 5 22
REMARK SMILES IDX 6 23 21 24 22 25 23 26 24 27 25 28 26 29 27 30 28 31 89 32
REMARK SMILES IDX 29 33 88 34 30 35 31 36 32 37 82 38 33 39 87 40 81 41 83 42
REMARK SMILES IDX 34 43 86 44 80 45 79 46 35 48 67 49 47 50 66 51 48 52 51 53
REMARK SMILES IDX 65 54 84 55 49 56 50 57 64 59 85 60 52 61 36 62 37 63 45 64
REMARK SMILES IDX 38 65 40 66 46 67 39 68 41 69 42 70 43 71 44 72 68 73 69 74
REMARK SMILES IDX 77 75 70 76 72 77 78 78 71 79 73 80 74 81 75 82 76 83 53 84
REMARK SMILES IDX 54 85 62 86 55 87 57 88 63 89 56 90 58 91 59 92 60 93 61 94
REMARK H PARENT 83 47 51 58
REMARK Flexibility Score: inf
ROOT
ATOM      1  C   UNL A   1      33.228  29.788  26.683  1.00  0.00     0.188 C 
ENDROOT
BRANCH   1   2
ATOM      2  C   UNL A   1      32.146  28.883  27.312  1.00  0.00     0.188 C 
BRANCH   2   3
ATOM      3  O   UNL A   1      31.289  28.228  26.407  1.00  0.00    -0.376 OA
BRANCH   3   4
ATOM      4  C   UNL A   1      31.711  27.961  25.080  1.00  0.00     0.202 C 
BRANCH   4   5
ATOM      5  C   UNL A   1      31.399  26.678  24.285  1.00  0.00     0.261 C 
BRANCH   5   6
ATOM      6  O   UNL A   1      31.112  25.499  25.042  1.00  0.00    -0.460 OA
BRANCH   6   7
ATOM      7  C   UNL A   1      31.236  24.325  24.376  1.00  0.00     0.339 C 
ATOM      8  O   UNL A   1      30.437  23.838  23.594  1.00  0.00    -0.246 OA
BRANCH   7   9
ATOM      9  C   UNL A   1      32.587  23.763  24.567  1.00  0.00     0.078 A 
ATOM     10  C   UNL A   1      35.192  22.849  25.154  1.00  0.00    -0.017 A 
ATOM     11  C   UNL A   1      34.207  22.875  26.151  1.00  0.00     0.010 A 
ATOM     12  C   UNL A   1      34.824  23.217  23.844  1.00  0.00     0.030 A 
ATOM     13  C   UNL A   1      32.917  23.332  25.863  1.00  0.00     0.018 A 
ATOM     14  C   UNL A   1      33.536  23.681  23.548  1.00  0.00     0.056 A 
ATOM     15  Cl  UNL A   1      33.232  24.216  21.935  1.00  0.00    -0.083 Cl
BRANCH  10  16
ATOM     16  C   UNL A   1      36.611  22.630  25.488  1.00  0.00    -0.015 A 
ATOM     17  C   UNL A   1      36.655  20.128  24.879  1.00  0.00     0.045 C 
ATOM     18  C   UNL A   1      37.292  21.399  25.376  1.00  0.00    -0.042 A 
ATOM     19  C   UNL A   1      38.650  21.325  25.759  1.00  0.00     0.024 A 
ATOM     20  C   UNL A   1      39.325  22.446  26.238  1.00  0.00     0.041 A 
ATOM     21  C   UNL A   1      37.324  23.744  25.986  1.00  0.00     0.010 A 
ATOM     22  Cl  UNL A   1      40.982  22.331  26.686  1.00  0.00    -0.084 Cl
ATOM     23  C   UNL A   1      38.666  23.659  26.355  1.00  0.00     0.021 A 
ENDBRANCH  10  16
ENDBRANCH   7   9
ENDBRANCH   6   7
ENDBRANCH   5   6
ENDBRANCH   4   5
ENDBRANCH   3   4
ENDBRANCH   2   3
ENDBRANCH   1   2
BRANCH   1  24
ATOM     24  O   UNL A   1      33.550  31.043  27.256  1.00  0.00    -0.376 OA
BRANCH  24  25
ATOM     25  C   UNL A   1      32.541  32.034  27.378  1.00  0.00     0.202 C 
BRANCH  25  26
ATOM     26  C   UNL A   1      32.866  33.529  27.541  1.00  0.00     0.261 C 
BRANCH  26  27
ATOM     27  O   UNL A   1      32.461  34.146  28.769  1.00  0.00    -0.460 OA
BRANCH  27  28
ATOM     28  C   UNL A   1      33.323  35.057  29.280  1.00  0.00     0.338 C 
ATOM     29  O   UNL A   1      33.131  36.254  29.439  1.00  0.00    -0.246 OA
BRANCH  28  30
ATOM     30  C   UNL A   1      34.508  34.353  29.803  1.00  0.00     0.060 A 
ATOM     31  C   UNL A   1      34.362  33.500  30.908  1.00  0.00     0.016 A 
ATOM     32  C   UNL A   1      35.758  34.559  29.223  1.00  0.00     0.016 A 
ATOM     33  C   UNL A   1      35.474  32.847  31.439  1.00  0.00     0.010 A 
ATOM     34  C   UNL A   1      36.874  33.928  29.774  1.00  0.00     0.010 A 
ATOM     35  C   UNL A   1      36.740  33.086  30.894  1.00  0.00    -0.014 A 
BRANCH  35  36
ATOM     36  C   UNL A   1      37.958  32.591  31.576  1.00  0.00     0.031 A 
ATOM     37  C   UNL A   1      38.716  31.454  30.952  1.00  0.00     0.074 A 
ATOM     38  C   UNL A   1      38.349  33.104  32.755  1.00  0.00     0.049 A 
ATOM     39  N   UNL A   1      39.714  30.762  31.431  1.00  0.00    -0.248 NA
ATOM     40  C   UNL A   1      38.276  31.035  29.611  1.00  0.00     0.031 C 
ATOM     41  C   UNL A   1      37.699  34.213  33.452  1.00  0.00     0.029 A 
ATOM     42  N   UNL A   1      39.361  32.719  33.598  1.00  0.00    -0.354 N 
ATOM     43  C   UNL A   1      40.002  29.802  30.468  1.00  0.00     0.074 A 
ATOM     44  C   UNL A   1      39.066  29.997  29.382  1.00  0.00     0.031 C 
ATOM     45  C   UNL A   1      38.298  34.387  34.643  1.00  0.00     0.029 A 
ATOM     46  C   UNL A   1      39.345  33.379  34.805  1.00  0.00     0.049 A 
ATOM     47  H   UNL A   1      40.033  32.039  33.362  1.00  0.00     0.167 HD
ATOM     48  C   UNL A   1      40.963  28.848  30.485  1.00  0.00     0.034 A 
ATOM     49  C   UNL A   1      40.060  33.162  35.926  1.00  0.00     0.034 A 
ATOM     50  C   UNL A   1      41.887  28.657  31.570  1.00  0.00     0.049 A 
ATOM     51  C   UNL A   1      41.098  32.068  35.940  1.00  0.00     0.074 A 
ATOM     52  C   UNL A   1      42.917  27.741  31.671  1.00  0.00     0.029 A 
ATOM     53  N   UNL A   1      41.879  29.382  32.751  1.00  0.00    -0.354 N 
ATOM     54  N   UNL A   1      41.427  31.228  34.987  1.00  0.00    -0.248 NA
ATOM     55  C   UNL A   1      41.884  31.910  37.173  1.00  0.00     0.031 C 
ATOM     56  C   UNL A   1      43.511  27.888  32.929  1.00  0.00     0.029 A 
ATOM     57  C   UNL A   1      42.881  28.929  33.593  1.00  0.00     0.049 A 
ATOM     58  H   UNL A   1      41.253  30.113  32.962  1.00  0.00     0.167 HD
ATOM     59  C   UNL A   1      42.482  30.474  35.489  1.00  0.00     0.074 A 
ATOM     60  C   UNL A   1      42.747  30.965  36.825  1.00  0.00     0.031 C 
ATOM     61  C   UNL A   1      43.168  29.461  34.900  1.00  0.00     0.034 A 
BRANCH  48  62
ATOM     62  C   UNL A   1      41.062  27.944  29.284  1.00  0.00     0.023 A 
ATOM     63  C   UNL A   1      40.372  26.714  29.274  1.00  0.00     0.012 A 
ATOM     64  C   UNL A   1      41.810  28.325  28.154  1.00  0.00     0.148 A 
ATOM     65  C   UNL A   1      40.460  25.860  28.176  1.00  0.00     0.002 A 
ATOM     66  C   UNL A   1      41.852  27.490  27.043  1.00  0.00     0.091 A 
ATOM     67  F   UNL A   1      42.477  29.488  28.190  1.00  0.00    -0.205 F 
ATOM     68  C   UNL A   1      41.190  26.251  27.059  1.00  0.00     0.022 A 
BRANCH  66  69
ATOM     69  S   UNL A   1      42.698  27.941  25.524  1.00  0.00     0.127 S 
ATOM     70  O   UNL A   1      44.059  28.176  26.005  1.00  0.00    -0.237 OA
ATOM     71  O   UNL A   1      42.538  26.732  24.715  1.00  0.00    -0.237 OA
ATOM     72  O   UNL A   1      42.006  29.114  25.010  1.00  0.00    -0.744 OA
ENDBRANCH  66  69
ENDBRANCH  48  62
BRANCH  49  73
ATOM     73  C   UNL A   1      39.824  34.004  37.134  1.00  0.00     0.023 A 
ATOM     74  C   UNL A   1      40.284  35.335  37.157  1.00  0.00     0.012 A 
ATOM     75  C   UNL A   1      39.133  33.495  38.251  1.00  0.00     0.148 A 
ATOM     76  C   UNL A   1      40.087  36.134  38.284  1.00  0.00     0.002 A 
ATOM     77  C   UNL A   1      38.891  34.313  39.346  1.00  0.00     0.091 A 
ATOM     78  F   UNL A   1      38.716  32.222  38.211  1.00  0.00    -0.205 F 
ATOM     79  C   UNL A   1      39.383  35.628  39.373  1.00  0.00     0.022 A 
BRANCH  77  80
ATOM     80  S   UNL A   1      37.888  33.790  40.741  1.00  0.00     0.127 S 
ATOM     81  O   UNL A   1      36.759  33.146  40.073  1.00  0.00    -0.237 OA
ATOM     82  O   UNL A   1      38.796  32.878  41.436  1.00  0.00    -0.237 OA
ATOM     83  O   UNL A   1      37.571  35.006  41.478  1.00  0.00    -0.744 OA
ENDBRANCH  77  80
ENDBRANCH  49  73
BRANCH  61  84
ATOM     84  C   UNL A   1      44.314  28.848  35.663  1.00  0.00     0.023 A 
ATOM     85  C   UNL A   1      45.611  29.385  35.552  1.00  0.00     0.012 A 
ATOM     86  C   UNL A   1      44.083  27.782  36.557  1.00  0.00     0.148 A 
ATOM     87  C   UNL A   1      46.666  28.851  36.293  1.00  0.00     0.002 A 
ATOM     88  C   UNL A   1      45.125  27.291  37.332  1.00  0.00     0.091 A 
ATOM     89  F   UNL A   1      42.845  27.273  36.638  1.00  0.00    -0.205 F 
ATOM     90  C   UNL A   1      46.421  27.814  37.191  1.00  0.00     0.022 A 
BRANCH  88  91
ATOM     91  S   UNL A   1      44.884  26.026  38.586  1.00  0.00     0.127 S 
ATOM     92  O   UNL A   1      43.915  26.667  39.473  1.00  0.00    -0.237 OA
ATOM     93  O   UNL A   1      44.349  24.913  37.801  1.00  0.00    -0.237 OA
ATOM     94  O   UNL A   1      46.196  25.781  39.169  1.00  0.00    -0.744 OA
ENDBRANCH  88  91
ENDBRANCH  61  84
ENDBRANCH  35  36
ENDBRANCH  28  30
ENDBRANCH  27  28
ENDBRANCH  26  27
ENDBRANCH  25  26
ENDBRANCH  24  25
ENDBRANCH   1  24
TORSDOF 21
ENDMDL
