MODEL 1
REMARK VINA RESULT:     -11.0      0.000      0.000
REMARK SMILES C[C@@H](C(=O)OCCOCCOCCOC(=O)c1ccc(-c2c3nc(c(-c4cccc(S(=O)(=O)[O-])c4F)c4ccc([nH]4)c(-c4cccc(S(=O)(=O)[O-])c4F)c4nc(c(-c5cccc(S(=O)(=O)[O-])c5F)c5ccc2[nH]5)C=C4)C=C3)cc1)c1ccc(C[C@@H]2CCC[C@@H]2O)cc1Br
REMARK SMILES IDX 9 1 8 2 7 3 6 4 5 5 3 6 4 7 2 8 1 9 80 10 81 11 92 12 82 13
REMARK SMILES IDX 91 14 93 15 83 16 84 17 85 18 86 19 89 20 87 21 88 22 90 23
REMARK SMILES IDX 10 25 11 26 12 27 13 28 14 29 15 30 16 31 17 32 18 33 79 34
REMARK SMILES IDX 19 35 78 36 20 37 21 38 22 39 72 40 23 41 77 42 71 43 73 44
REMARK SMILES IDX 24 45 76 46 70 47 69 48 25 50 57 51 37 52 56 53 38 54 41 55
REMARK SMILES IDX 55 56 74 57 39 58 40 59 54 61 75 62 42 63 26 64 27 65 35 66
REMARK SMILES IDX 28 67 30 68 36 69 29 70 31 71 32 72 33 73 34 74 58 75 59 76
REMARK SMILES IDX 67 77 60 78 62 79 68 80 61 81 63 82 64 83 65 84 66 85 43 86
REMARK SMILES IDX 44 87 52 88 45 89 47 90 53 91 46 92 48 93 49 94 50 95 51 96
REMARK H PARENT 90 24 73 49 41 60
REMARK Flexibility Score: inf
ROOT
ATOM      1  C   UNL A   1      34.405  25.108  25.556  1.00  0.00     0.188 C 
ENDROOT
BRANCH   1   2
ATOM      2  O   UNL A   1      34.219  26.161  24.618  1.00  0.00    -0.376 OA
BRANCH   2   3
ATOM      3  C   UNL A   1      33.568  27.351  25.062  1.00  0.00     0.202 C 
BRANCH   3   4
ATOM      4  C   UNL A   1      32.572  28.073  24.131  1.00  0.00     0.261 C 
BRANCH   4   5
ATOM      5  O   UNL A   1      31.196  27.704  24.356  1.00  0.00    -0.463 OA
BRANCH   5   6
ATOM      6  C   UNL A   1      30.730  26.593  23.721  1.00  0.00     0.313 C 
ATOM      7  O   UNL A   1      30.642  26.497  22.501  1.00  0.00    -0.252 OA
BRANCH   6   8
ATOM      8  C   UNL A   1      30.394  25.431  24.686  1.00  0.00     0.127 C 
ATOM      9  C   UNL A   1      30.328  25.933  26.140  1.00  0.00     0.025 C 
BRANCH   8  10
ATOM     10  C   UNL A   1      31.157  24.113  24.411  1.00  0.00    -0.020 A 
ATOM     11  C   UNL A   1      31.913  23.985  23.223  1.00  0.00     0.006 A 
ATOM     12  C   UNL A   1      31.044  22.938  25.186  1.00  0.00     0.022 A 
ATOM     13  C   UNL A   1      32.486  22.774  22.811  1.00  0.00     0.004 A 
ATOM     14  C   UNL A   1      31.593  21.713  24.749  1.00  0.00     0.019 A 
ATOM     15  Br  UNL A   1      30.073  22.803  26.818  1.00  0.00    -0.050 Br
ATOM     16  C   UNL A   1      32.263  21.605  23.529  1.00  0.00    -0.047 A 
BRANCH  16  17
ATOM     17  C   UNL A   1      32.651  20.251  22.982  1.00  0.00     0.041 C 
BRANCH  17  18
ATOM     18  C   UNL A   1      32.440  19.004  23.879  1.00  0.00     0.022 C 
ATOM     19  C   UNL A   1      33.514  18.765  24.948  1.00  0.00     0.007 C 
ATOM     20  C   UNL A   1      32.379  17.644  23.175  1.00  0.00     0.117 C 
ATOM     21  C   UNL A   1      34.466  17.703  24.384  1.00  0.00     0.003 C 
ATOM     22  C   UNL A   1      33.827  17.184  23.098  1.00  0.00     0.032 C 
BRANCH  20  23
ATOM     23  O   UNL A   1      31.760  17.678  21.905  1.00  0.00    -0.393 OA
ATOM     24  H   UNL A   1      30.955  18.217  21.952  1.00  0.00     0.210 HD
ENDBRANCH  20  23
ENDBRANCH  17  18
ENDBRANCH  16  17
ENDBRANCH   8  10
ENDBRANCH   6   8
ENDBRANCH   5   6
ENDBRANCH   4   5
ENDBRANCH   3   4
ENDBRANCH   2   3
ENDBRANCH   1   2
BRANCH   1  25
ATOM     25  C   UNL A   1      35.301  23.929  25.154  1.00  0.00     0.188 C 
BRANCH  25  26
ATOM     26  O   UNL A   1      35.315  22.850  26.057  1.00  0.00    -0.376 OA
BRANCH  26  27
ATOM     27  C   UNL A   1      35.315  21.522  25.562  1.00  0.00     0.202 C 
BRANCH  27  28
ATOM     28  C   UNL A   1      36.586  20.718  25.214  1.00  0.00     0.261 C 
BRANCH  28  29
ATOM     29  O   UNL A   1      37.821  21.424  25.059  1.00  0.00    -0.460 OA
BRANCH  29  30
ATOM     30  C   UNL A   1      38.859  21.037  25.839  1.00  0.00     0.338 C 
ATOM     31  O   UNL A   1      39.341  19.917  25.914  1.00  0.00    -0.246 OA
BRANCH  30  32
ATOM     32  C   UNL A   1      39.467  22.264  26.403  1.00  0.00     0.060 A 
ATOM     33  C   UNL A   1      38.972  23.516  26.007  1.00  0.00     0.016 A 
ATOM     34  C   UNL A   1      40.496  22.176  27.342  1.00  0.00     0.016 A 
ATOM     35  C   UNL A   1      39.520  24.685  26.536  1.00  0.00     0.010 A 
ATOM     36  C   UNL A   1      41.063  23.349  27.847  1.00  0.00     0.010 A 
ATOM     37  C   UNL A   1      40.599  24.608  27.425  1.00  0.00    -0.014 A 
BRANCH  37  38
ATOM     38  C   UNL A   1      41.368  25.830  27.767  1.00  0.00     0.031 A 
ATOM     39  C   UNL A   1      40.694  26.885  28.600  1.00  0.00     0.074 A 
ATOM     40  C   UNL A   1      42.626  26.015  27.328  1.00  0.00     0.049 A 
ATOM     41  N   UNL A   1      41.139  28.056  28.972  1.00  0.00    -0.248 NA
ATOM     42  C   UNL A   1      39.328  26.585  29.059  1.00  0.00     0.031 C 
ATOM     43  C   UNL A   1      43.379  25.077  26.504  1.00  0.00     0.029 A 
ATOM     44  N   UNL A   1      43.482  27.075  27.505  1.00  0.00    -0.354 N 
ATOM     45  C   UNL A   1      40.091  28.655  29.659  1.00  0.00     0.074 A 
ATOM     46  C   UNL A   1      38.992  27.716  29.661  1.00  0.00     0.031 C 
ATOM     47  C   UNL A   1      44.588  25.603  26.240  1.00  0.00     0.029 A 
ATOM     48  C   UNL A   1      44.682  26.929  26.850  1.00  0.00     0.049 A 
ATOM     49  H   UNL A   1      43.258  27.865  28.048  1.00  0.00     0.167 HD
ATOM     50  C   UNL A   1      40.044  29.880  30.234  1.00  0.00     0.034 A 
ATOM     51  C   UNL A   1      45.727  27.776  26.743  1.00  0.00     0.034 A 
ATOM     52  C   UNL A   1      41.141  30.808  30.245  1.00  0.00     0.049 A 
ATOM     53  C   UNL A   1      45.650  29.132  27.400  1.00  0.00     0.074 A 
ATOM     54  C   UNL A   1      41.204  32.053  30.846  1.00  0.00     0.029 A 
ATOM     55  N   UNL A   1      42.357  30.607  29.613  1.00  0.00    -0.354 N 
ATOM     56  N   UNL A   1      44.696  29.642  28.141  1.00  0.00    -0.248 NA
ATOM     57  C   UNL A   1      46.803  30.029  27.214  1.00  0.00     0.031 C 
ATOM     58  C   UNL A   1      42.445  32.621  30.542  1.00  0.00     0.029 A 
ATOM     59  C   UNL A   1      43.173  31.710  29.794  1.00  0.00     0.049 A 
ATOM     60  H   UNL A   1      42.605  29.798  29.108  1.00  0.00     0.167 HD
ATOM     61  C   UNL A   1      45.143  30.900  28.532  1.00  0.00     0.074 A 
ATOM     62  C   UNL A   1      46.467  31.065  27.970  1.00  0.00     0.031 C 
ATOM     63  C   UNL A   1      44.509  31.842  29.274  1.00  0.00     0.034 A 
BRANCH  50  64
ATOM     64  C   UNL A   1      38.757  30.292  30.896  1.00  0.00     0.023 A 
ATOM     65  C   UNL A   1      38.529  29.982  32.253  1.00  0.00     0.012 A 
ATOM     66  C   UNL A   1      37.794  31.034  30.185  1.00  0.00     0.148 A 
ATOM     67  C   UNL A   1      37.348  30.377  32.881  1.00  0.00     0.002 A 
ATOM     68  C   UNL A   1      36.643  31.467  30.831  1.00  0.00     0.091 A 
ATOM     69  F   UNL A   1      38.019  31.297  28.889  1.00  0.00    -0.205 F 
ATOM     70  C   UNL A   1      36.413  31.128  32.174  1.00  0.00     0.022 A 
BRANCH  68  71
ATOM     71  S   UNL A   1      35.419  32.510  30.033  1.00  0.00     0.127 S 
ATOM     72  O   UNL A   1      34.393  32.605  31.071  1.00  0.00    -0.237 OA
ATOM     73  O   UNL A   1      36.171  33.744  29.805  1.00  0.00    -0.237 OA
ATOM     74  O   UNL A   1      35.016  31.808  28.823  1.00  0.00    -0.744 OA
ENDBRANCH  68  71
ENDBRANCH  50  64
BRANCH  51  75
ATOM     75  C   UNL A   1      46.954  27.369  25.999  1.00  0.00     0.023 A 
ATOM     76  C   UNL A   1      47.961  26.640  26.664  1.00  0.00     0.012 A 
ATOM     77  C   UNL A   1      47.135  27.705  24.644  1.00  0.00     0.148 A 
ATOM     78  C   UNL A   1      49.138  26.285  26.004  1.00  0.00     0.002 A 
ATOM     79  C   UNL A   1      48.281  27.293  23.975  1.00  0.00     0.091 A 
ATOM     80  F   UNL A   1      46.178  28.419  24.035  1.00  0.00    -0.205 F 
ATOM     81  C   UNL A   1      49.293  26.601  24.658  1.00  0.00     0.022 A 
BRANCH  79  82
ATOM     82  S   UNL A   1      48.503  27.537  22.210  1.00  0.00     0.127 S 
ATOM     83  O   UNL A   1      47.186  28.024  21.808  1.00  0.00    -0.237 OA
ATOM     84  O   UNL A   1      49.568  28.540  22.182  1.00  0.00    -0.237 OA
ATOM     85  O   UNL A   1      48.887  26.237  21.679  1.00  0.00    -0.744 OA
ENDBRANCH  79  82
ENDBRANCH  51  75
BRANCH  63  86
ATOM     86  C   UNL A   1      45.250  33.122  29.574  1.00  0.00     0.023 A 
ATOM     87  C   UNL A   1      46.025  33.234  30.746  1.00  0.00     0.012 A 
ATOM     88  C   UNL A   1      45.241  34.186  28.649  1.00  0.00     0.148 A 
ATOM     89  C   UNL A   1      46.747  34.399  31.009  1.00  0.00     0.002 A 
ATOM     90  C   UNL A   1      46.005  35.320  28.893  1.00  0.00     0.091 A 
ATOM     91  F   UNL A   1      44.486  34.066  27.547  1.00  0.00    -0.205 F 
ATOM     92  C   UNL A   1      46.748  35.435  30.078  1.00  0.00     0.022 A 
BRANCH  90  93
ATOM     93  S   UNL A   1      46.145  36.662  27.706  1.00  0.00     0.127 S 
ATOM     94  O   UNL A   1      45.732  37.812  28.507  1.00  0.00    -0.237 OA
ATOM     95  O   UNL A   1      47.569  36.631  27.370  1.00  0.00    -0.237 OA
ATOM     96  O   UNL A   1      45.256  36.320  26.604  1.00  0.00    -0.744 OA
ENDBRANCH  90  93
ENDBRANCH  63  86
ENDBRANCH  37  38
ENDBRANCH  30  32
ENDBRANCH  29  30
ENDBRANCH  28  29
ENDBRANCH  27  28
ENDBRANCH  26  27
ENDBRANCH  25  26
ENDBRANCH   1  25
TORSDOF 24
ENDMDL
MODEL 2
REMARK VINA RESULT:     -10.5      1.889      2.146
REMARK SMILES C[C@@H](C(=O)OCCOCCOCCOC(=O)c1ccc(-c2c3nc(c(-c4cccc(S(=O)(=O)[O-])c4F)c4ccc([nH]4)c(-c4cccc(S(=O)(=O)[O-])c4F)c4nc(c(-c5cccc(S(=O)(=O)[O-])c5F)c5ccc2[nH]5)C=C4)C=C3)cc1)c1ccc(C[C@@H]2CCC[C@@H]2O)cc1Br
REMARK SMILES IDX 9 1 8 2 7 3 6 4 5 5 3 6 4 7 2 8 1 9 80 10 81 11 92 12 82 13
REMARK SMILES IDX 91 14 93 15 83 16 84 17 85 18 86 19 89 20 87 21 88 22 90 23
REMARK SMILES IDX 10 25 11 26 12 27 13 28 14 29 15 30 16 31 17 32 18 33 79 34
REMARK SMILES IDX 19 35 78 36 20 37 21 38 22 39 72 40 23 41 77 42 71 43 73 44
REMARK SMILES IDX 24 45 76 46 70 47 69 48 25 50 57 51 37 52 56 53 38 54 41 55
REMARK SMILES IDX 55 56 74 57 39 58 40 59 54 61 75 62 42 63 26 64 27 65 35 66
REMARK SMILES IDX 28 67 30 68 36 69 29 70 31 71 32 72 33 73 34 74 58 75 59 76
REMARK SMILES IDX 67 77 60 78 62 79 68 80 61 81 63 82 64 83 65 84 66 85 43 86
REMARK SMILES IDX 44 87 52 88 45 89 47 90 53 91 46 92 48 93 49 94 50 95 51 96
REMARK H PARENT 90 24 73 49 41 60
REMARK Flexibility Score: inf
ROOT
ATOM      1  C   UNL A   1      34.324  25.035  25.612  1.00  0.00     0.188 C 
ENDROOT
BRANCH   1   2
ATOM      2  O   UNL A   1      34.157  26.157  24.755  1.00  0.00    -0.376 OA
BRANCH   2   3
ATOM      3  C   UNL A   1      33.423  27.276  25.248  1.00  0.00     0.202 C 
BRANCH   3   4
ATOM      4  C   UNL A   1      32.507  28.072  24.294  1.00  0.00     0.261 C 
BRANCH   4   5
ATOM      5  O   UNL A   1      31.114  27.713  24.396  1.00  0.00    -0.463 OA
BRANCH   5   6
ATOM      6  C   UNL A   1      30.688  26.635  23.682  1.00  0.00     0.313 C 
ATOM      7  O   UNL A   1      30.685  26.592  22.456  1.00  0.00    -0.252 OA
BRANCH   6   8
ATOM      8  C   UNL A   1      30.279  25.435  24.569  1.00  0.00     0.127 C 
ATOM      9  C   UNL A   1      30.064  25.885  26.027  1.00  0.00     0.025 C 
BRANCH   8  10
ATOM     10  C   UNL A   1      31.088  24.138  24.327  1.00  0.00    -0.020 A 
ATOM     11  C   UNL A   1      31.811  23.988  23.121  1.00  0.00     0.006 A 
ATOM     12  C   UNL A   1      31.048  22.994  25.155  1.00  0.00     0.022 A 
ATOM     13  C   UNL A   1      32.421  22.784  22.743  1.00  0.00     0.004 A 
ATOM     14  C   UNL A   1      31.634  21.775  24.753  1.00  0.00     0.019 A 
ATOM     15  Br  UNL A   1      30.135  22.893  26.822  1.00  0.00    -0.050 Br
ATOM     16  C   UNL A   1      32.270  21.640  23.517  1.00  0.00    -0.047 A 
BRANCH  16  17
ATOM     17  C   UNL A   1      32.697  20.279  23.017  1.00  0.00     0.041 C 
BRANCH  17  18
ATOM     18  C   UNL A   1      32.466  19.049  23.932  1.00  0.00     0.022 C 
ATOM     19  C   UNL A   1      33.535  18.812  25.007  1.00  0.00     0.007 C 
ATOM     20  C   UNL A   1      32.387  17.680  23.249  1.00  0.00     0.117 C 
ATOM     21  C   UNL A   1      34.472  17.728  24.462  1.00  0.00     0.003 C 
ATOM     22  C   UNL A   1      33.829  17.198  23.183  1.00  0.00     0.032 C 
BRANCH  20  23
ATOM     23  O   UNL A   1      31.771  17.703  21.978  1.00  0.00    -0.393 OA
ATOM     24  H   UNL A   1      31.964  16.875  21.511  1.00  0.00     0.210 HD
ENDBRANCH  20  23
ENDBRANCH  17  18
ENDBRANCH  16  17
ENDBRANCH   8  10
ENDBRANCH   6   8
ENDBRANCH   5   6
ENDBRANCH   4   5
ENDBRANCH   3   4
ENDBRANCH   2   3
ENDBRANCH   1   2
BRANCH   1  25
ATOM     25  C   UNL A   1      35.251  23.901  25.152  1.00  0.00     0.188 C 
BRANCH  25  26
ATOM     26  O   UNL A   1      35.218  22.738  25.943  1.00  0.00    -0.376 OA
BRANCH  26  27
ATOM     27  C   UNL A   1      35.354  21.468  25.329  1.00  0.00     0.202 C 
BRANCH  27  28
ATOM     28  C   UNL A   1      36.701  20.753  25.087  1.00  0.00     0.261 C 
BRANCH  28  29
ATOM     29  O   UNL A   1      37.897  21.538  25.057  1.00  0.00    -0.460 OA
BRANCH  29  30
ATOM     30  C   UNL A   1      38.906  21.163  25.879  1.00  0.00     0.338 C 
ATOM     31  O   UNL A   1      39.379  20.043  25.994  1.00  0.00    -0.246 OA
BRANCH  30  32
ATOM     32  C   UNL A   1      39.502  22.399  26.437  1.00  0.00     0.060 A 
ATOM     33  C   UNL A   1      39.048  23.645  25.977  1.00  0.00     0.016 A 
ATOM     34  C   UNL A   1      40.477  22.327  27.433  1.00  0.00     0.016 A 
ATOM     35  C   UNL A   1      39.585  24.822  26.498  1.00  0.00     0.010 A 
ATOM     36  C   UNL A   1      41.034  23.507  27.932  1.00  0.00     0.010 A 
ATOM     37  C   UNL A   1      40.613  24.758  27.446  1.00  0.00    -0.014 A 
BRANCH  37  38
ATOM     38  C   UNL A   1      41.381  25.980  27.792  1.00  0.00     0.031 A 
ATOM     39  C   UNL A   1      40.676  27.074  28.545  1.00  0.00     0.074 A 
ATOM     40  C   UNL A   1      42.666  26.130  27.424  1.00  0.00     0.049 A 
ATOM     41  N   UNL A   1      41.118  28.251  28.903  1.00  0.00    -0.248 NA
ATOM     42  C   UNL A   1      39.280  26.811  28.930  1.00  0.00     0.031 C 
ATOM     43  C   UNL A   1      43.451  25.151  26.680  1.00  0.00     0.029 A 
ATOM     44  N   UNL A   1      43.528  27.183  27.616  1.00  0.00    -0.354 N 
ATOM     45  C   UNL A   1      40.041  28.890  29.503  1.00  0.00     0.074 A 
ATOM     46  C   UNL A   1      38.928  27.968  29.471  1.00  0.00     0.031 C 
ATOM     47  C   UNL A   1      44.683  25.650  26.472  1.00  0.00     0.029 A 
ATOM     48  C   UNL A   1      44.763  26.995  27.041  1.00  0.00     0.049 A 
ATOM     49  H   UNL A   1      43.285  27.994  28.116  1.00  0.00     0.167 HD
ATOM     50  C   UNL A   1      39.981  30.135  30.032  1.00  0.00     0.034 A 
ATOM     51  C   UNL A   1      45.827  27.822  26.968  1.00  0.00     0.034 A 
ATOM     52  C   UNL A   1      41.091  31.047  30.076  1.00  0.00     0.049 A 
ATOM     53  C   UNL A   1      45.733  29.201  27.571  1.00  0.00     0.074 A 
ATOM     54  C   UNL A   1      41.140  32.311  30.637  1.00  0.00     0.029 A 
ATOM     55  N   UNL A   1      42.340  30.804  29.527  1.00  0.00    -0.354 N 
ATOM     56  N   UNL A   1      44.746  29.752  28.235  1.00  0.00    -0.248 NA
ATOM     57  C   UNL A   1      46.911  30.073  27.425  1.00  0.00     0.031 C 
ATOM     58  C   UNL A   1      42.407  32.849  30.389  1.00  0.00     0.029 A 
ATOM     59  C   UNL A   1      43.163  31.901  29.719  1.00  0.00     0.049 A 
ATOM     60  H   UNL A   1      42.603  29.974  29.067  1.00  0.00     0.167 HD
ATOM     61  C   UNL A   1      45.190  31.016  28.609  1.00  0.00     0.074 A 
ATOM     62  C   UNL A   1      46.549  31.141  28.123  1.00  0.00     0.031 C 
ATOM     63  C   UNL A   1      44.530  31.994  29.277  1.00  0.00     0.034 A 
BRANCH  50  64
ATOM     64  C   UNL A   1      38.663  30.591  30.599  1.00  0.00     0.023 A 
ATOM     65  C   UNL A   1      38.306  30.247  31.919  1.00  0.00     0.012 A 
ATOM     66  C   UNL A   1      37.802  31.405  29.839  1.00  0.00     0.148 A 
ATOM     67  C   UNL A   1      37.097  30.681  32.462  1.00  0.00     0.002 A 
ATOM     68  C   UNL A   1      36.623  31.874  30.403  1.00  0.00     0.091 A 
ATOM     69  F   UNL A   1      38.149  31.699  28.577  1.00  0.00    -0.205 F 
ATOM     70  C   UNL A   1      36.262  31.503  31.708  1.00  0.00     0.022 A 
BRANCH  68  71
ATOM     71  S   UNL A   1      35.522  33.005  29.546  1.00  0.00     0.127 S 
ATOM     72  O   UNL A   1      34.253  32.281  29.603  1.00  0.00    -0.237 OA
ATOM     73  O   UNL A   1      35.584  34.194  30.395  1.00  0.00    -0.237 OA
ATOM     74  O   UNL A   1      36.080  33.179  28.212  1.00  0.00    -0.744 OA
ENDBRANCH  68  71
ENDBRANCH  50  64
BRANCH  51  75
ATOM     75  C   UNL A   1      47.089  27.369  26.315  1.00  0.00     0.023 A 
ATOM     76  C   UNL A   1      47.338  27.712  24.970  1.00  0.00     0.012 A 
ATOM     77  C   UNL A   1      48.037  26.596  27.010  1.00  0.00     0.148 A 
ATOM     78  C   UNL A   1      48.489  27.264  24.321  1.00  0.00     0.002 A 
ATOM     79  C   UNL A   1      49.212  26.207  26.378  1.00  0.00     0.091 A 
ATOM     80  F   UNL A   1      47.773  26.259  28.279  1.00  0.00    -0.205 F 
ATOM     81  C   UNL A   1      49.431  26.522  25.028  1.00  0.00     0.022 A 
BRANCH  79  82
ATOM     82  S   UNL A   1      50.539  25.367  27.248  1.00  0.00     0.127 S 
ATOM     83  O   UNL A   1      51.038  26.424  28.124  1.00  0.00    -0.237 OA
ATOM     84  O   UNL A   1      49.815  24.292  27.927  1.00  0.00    -0.237 OA
ATOM     85  O   UNL A   1      51.460  24.913  26.216  1.00  0.00    -0.744 OA
ENDBRANCH  79  82
ENDBRANCH  51  75
BRANCH  63  86
ATOM     86  C   UNL A   1      45.273  33.272  29.577  1.00  0.00     0.023 A 
ATOM     87  C   UNL A   1      45.161  34.377  28.710  1.00  0.00     0.012 A 
ATOM     88  C   UNL A   1      46.019  33.401  30.766  1.00  0.00     0.148 A 
ATOM     89  C   UNL A   1      45.811  35.577  29.003  1.00  0.00     0.002 A 
ATOM     90  C   UNL A   1      46.619  34.615  31.077  1.00  0.00     0.091 A 
ATOM     91  F   UNL A   1      46.126  32.334  31.571  1.00  0.00    -0.205 F 
ATOM     92  C   UNL A   1      46.528  35.699  30.191  1.00  0.00     0.022 A 
BRANCH  90  93
ATOM     93  S   UNL A   1      47.479  34.896  32.629  1.00  0.00     0.127 S 
ATOM     94  O   UNL A   1      48.021  36.238  32.431  1.00  0.00    -0.237 OA
ATOM     95  O   UNL A   1      46.391  34.815  33.605  1.00  0.00    -0.237 OA
ATOM     96  O   UNL A   1      48.470  33.834  32.739  1.00  0.00    -0.744 OA
ENDBRANCH  90  93
ENDBRANCH  63  86
ENDBRANCH  37  38
ENDBRANCH  30  32
ENDBRANCH  29  30
ENDBRANCH  28  29
ENDBRANCH  27  28
ENDBRANCH  26  27
ENDBRANCH  25  26
ENDBRANCH   1  25
TORSDOF 24
ENDMDL
MODEL 3
REMARK VINA RESULT:     -10.3      1.946      2.218
REMARK SMILES C[C@@H](C(=O)OCCOCCOCCOC(=O)c1ccc(-c2c3nc(c(-c4cccc(S(=O)(=O)[O-])c4F)c4ccc([nH]4)c(-c4cccc(S(=O)(=O)[O-])c4F)c4nc(c(-c5cccc(S(=O)(=O)[O-])c5F)c5ccc2[nH]5)C=C4)C=C3)cc1)c1ccc(C[C@@H]2CCC[C@@H]2O)cc1Br
REMARK SMILES IDX 9 1 8 2 7 3 6 4 5 5 3 6 4 7 2 8 1 9 80 10 81 11 92 12 82 13
REMARK SMILES IDX 91 14 93 15 83 16 84 17 85 18 86 19 89 20 87 21 88 22 90 23
REMARK SMILES IDX 10 25 11 26 12 27 13 28 14 29 15 30 16 31 17 32 18 33 79 34
REMARK SMILES IDX 19 35 78 36 20 37 21 38 22 39 72 40 23 41 77 42 71 43 73 44
REMARK SMILES IDX 24 45 76 46 70 47 69 48 25 50 57 51 37 52 56 53 38 54 41 55
REMARK SMILES IDX 55 56 74 57 39 58 40 59 54 61 75 62 42 63 26 64 27 65 35 66
REMARK SMILES IDX 28 67 30 68 36 69 29 70 31 71 32 72 33 73 34 74 58 75 59 76
REMARK SMILES IDX 67 77 60 78 62 79 68 80 61 81 63 82 64 83 65 84 66 85 43 86
REMARK SMILES IDX 44 87 52 88 45 89 47 90 53 91 46 92 48 93 49 94 50 95 51 96
REMARK H PARENT 90 24 73 49 41 60
REMARK Flexibility Score: inf
ROOT
ATOM      1  C   UNL A   1      34.045  24.953  25.822  1.00  0.00     0.188 C 
ENDROOT
BRANCH   1   2
ATOM      2  O   UNL A   1      33.992  26.290  25.339  1.00  0.00    -0.376 OA
BRANCH   2   3
ATOM      3  C   UNL A   1      33.198  27.233  26.056  1.00  0.00     0.202 C 
BRANCH   3   4
ATOM      4  C   UNL A   1      32.305  28.227  25.284  1.00  0.00     0.261 C 
BRANCH   4   5
ATOM      5  O   UNL A   1      31.002  27.702  24.959  1.00  0.00    -0.463 OA
BRANCH   5   6
ATOM      6  C   UNL A   1      30.938  26.709  24.030  1.00  0.00     0.313 C 
ATOM      7  O   UNL A   1      31.408  26.805  22.901  1.00  0.00    -0.252 OA
BRANCH   6   8
ATOM      8  C   UNL A   1      30.279  25.414  24.562  1.00  0.00     0.127 C 
ATOM      9  C   UNL A   1      29.707  25.635  25.975  1.00  0.00     0.025 C 
BRANCH   8  10
ATOM     10  C   UNL A   1      31.087  24.118  24.306  1.00  0.00    -0.020 A 
ATOM     11  C   UNL A   1      31.785  23.967  23.086  1.00  0.00     0.006 A 
ATOM     12  C   UNL A   1      31.067  22.977  25.138  1.00  0.00     0.022 A 
ATOM     13  C   UNL A   1      32.390  22.764  22.698  1.00  0.00     0.004 A 
ATOM     14  C   UNL A   1      31.648  21.758  24.727  1.00  0.00     0.019 A 
ATOM     15  Br  UNL A   1      30.190  22.877  26.824  1.00  0.00    -0.050 Br
ATOM     16  C   UNL A   1      32.259  21.621  23.478  1.00  0.00    -0.047 A 
BRANCH  16  17
ATOM     17  C   UNL A   1      32.679  20.261  22.972  1.00  0.00     0.041 C 
BRANCH  17  18
ATOM     18  C   UNL A   1      32.489  19.035  23.903  1.00  0.00     0.022 C 
ATOM     19  C   UNL A   1      33.573  18.839  24.971  1.00  0.00     0.007 C 
ATOM     20  C   UNL A   1      32.441  17.657  23.236  1.00  0.00     0.117 C 
ATOM     21  C   UNL A   1      34.535  17.774  24.428  1.00  0.00     0.003 C 
ATOM     22  C   UNL A   1      33.894  17.213  23.161  1.00  0.00     0.032 C 
BRANCH  20  23
ATOM     23  O   UNL A   1      31.813  17.649  21.971  1.00  0.00    -0.393 OA
ATOM     24  H   UNL A   1      32.362  17.157  21.340  1.00  0.00     0.210 HD
ENDBRANCH  20  23
ENDBRANCH  17  18
ENDBRANCH  16  17
ENDBRANCH   8  10
ENDBRANCH   6   8
ENDBRANCH   5   6
ENDBRANCH   4   5
ENDBRANCH   3   4
ENDBRANCH   2   3
ENDBRANCH   1   2
BRANCH   1  25
ATOM     25  C   UNL A   1      35.057  23.991  25.184  1.00  0.00     0.188 C 
BRANCH  25  26
ATOM     26  O   UNL A   1      35.188  22.746  25.824  1.00  0.00    -0.376 OA
BRANCH  26  27
ATOM     27  C   UNL A   1      35.614  21.616  25.081  1.00  0.00     0.202 C 
BRANCH  27  28
ATOM     28  C   UNL A   1      37.070  21.106  25.021  1.00  0.00     0.261 C 
BRANCH  28  29
ATOM     29  O   UNL A   1      38.129  22.024  25.313  1.00  0.00    -0.460 OA
BRANCH  29  30
ATOM     30  C   UNL A   1      39.045  21.640  26.233  1.00  0.00     0.338 C 
ATOM     31  O   UNL A   1      39.392  20.496  26.489  1.00  0.00    -0.246 OA
BRANCH  30  32
ATOM     32  C   UNL A   1      39.734  22.862  26.706  1.00  0.00     0.060 A 
ATOM     33  C   UNL A   1      39.365  24.106  26.169  1.00  0.00     0.016 A 
ATOM     34  C   UNL A   1      40.713  22.785  27.698  1.00  0.00     0.016 A 
ATOM     35  C   UNL A   1      39.990  25.272  26.609  1.00  0.00     0.010 A 
ATOM     36  C   UNL A   1      41.358  23.951  28.115  1.00  0.00     0.010 A 
ATOM     37  C   UNL A   1      41.022  25.196  27.552  1.00  0.00    -0.014 A 
BRANCH  37  38
ATOM     38  C   UNL A   1      41.879  26.378  27.813  1.00  0.00     0.031 A 
ATOM     39  C   UNL A   1      41.282  27.540  28.558  1.00  0.00     0.074 A 
ATOM     40  C   UNL A   1      43.150  26.436  27.377  1.00  0.00     0.049 A 
ATOM     41  N   UNL A   1      41.812  28.699  28.848  1.00  0.00    -0.248 NA
ATOM     42  C   UNL A   1      39.894  27.379  29.021  1.00  0.00     0.031 C 
ATOM     43  C   UNL A   1      43.836  25.384  26.633  1.00  0.00     0.029 A 
ATOM     44  N   UNL A   1      44.084  27.439  27.486  1.00  0.00    -0.354 N 
ATOM     45  C   UNL A   1      40.808  29.425  29.475  1.00  0.00     0.074 A 
ATOM     46  C   UNL A   1      39.640  28.573  29.533  1.00  0.00     0.031 C 
ATOM     47  C   UNL A   1      45.083  25.797  26.346  1.00  0.00     0.029 A 
ATOM     48  C   UNL A   1      45.273  27.154  26.858  1.00  0.00     0.049 A 
ATOM     49  H   UNL A   1      43.916  28.281  27.966  1.00  0.00     0.167 HD
ATOM     50  C   UNL A   1      40.850  30.689  29.958  1.00  0.00     0.034 A 
ATOM     51  C   UNL A   1      46.380  27.910  26.702  1.00  0.00     0.034 A 
ATOM     52  C   UNL A   1      42.014  31.531  29.913  1.00  0.00     0.049 A 
ATOM     53  C   UNL A   1      46.402  29.313  27.255  1.00  0.00     0.074 A 
ATOM     54  C   UNL A   1      42.168  32.809  30.422  1.00  0.00     0.029 A 
ATOM     55  N   UNL A   1      43.216  31.192  29.313  1.00  0.00    -0.354 N 
ATOM     56  N   UNL A   1      45.484  29.947  27.946  1.00  0.00    -0.248 NA
ATOM     57  C   UNL A   1      47.620  30.105  27.018  1.00  0.00     0.031 C 
ATOM     58  C   UNL A   1      43.451  33.258  30.092  1.00  0.00     0.029 A 
ATOM     59  C   UNL A   1      44.112  32.241  29.423  1.00  0.00     0.049 A 
ATOM     60  H   UNL A   1      43.405  30.331  28.873  1.00  0.00     0.167 HD
ATOM     61  C   UNL A   1      46.023  31.193  28.248  1.00  0.00     0.074 A 
ATOM     62  C   UNL A   1      47.360  31.216  27.692  1.00  0.00     0.031 C 
ATOM     63  C   UNL A   1      45.458  32.233  28.910  1.00  0.00     0.034 A 
BRANCH  50  64
ATOM     64  C   UNL A   1      39.593  31.245  30.572  1.00  0.00     0.023 A 
ATOM     65  C   UNL A   1      38.545  31.701  29.746  1.00  0.00     0.012 A 
ATOM     66  C   UNL A   1      39.432  31.268  31.971  1.00  0.00     0.148 A 
ATOM     67  C   UNL A   1      37.369  32.199  30.305  1.00  0.00     0.002 A 
ATOM     68  C   UNL A   1      38.239  31.720  32.519  1.00  0.00     0.091 A 
ATOM     69  F   UNL A   1      40.451  30.854  32.739  1.00  0.00    -0.205 F 
ATOM     70  C   UNL A   1      37.211  32.198  31.689  1.00  0.00     0.022 A 
BRANCH  68  71
ATOM     71  S   UNL A   1      37.906  31.679  34.283  1.00  0.00     0.127 S 
ATOM     72  O   UNL A   1      36.534  32.183  34.335  1.00  0.00    -0.237 OA
ATOM     73  O   UNL A   1      38.044  30.255  34.587  1.00  0.00    -0.237 OA
ATOM     74  O   UNL A   1      38.907  32.535  34.903  1.00  0.00    -0.744 OA
ENDBRANCH  68  71
ENDBRANCH  50  64
BRANCH  51  75
ATOM     75  C   UNL A   1      47.578  27.357  26.005  1.00  0.00     0.023 A 
ATOM     76  C   UNL A   1      47.722  27.544  24.615  1.00  0.00     0.012 A 
ATOM     77  C   UNL A   1      48.567  26.642  26.704  1.00  0.00     0.148 A 
ATOM     78  C   UNL A   1      48.808  26.999  23.931  1.00  0.00     0.002 A 
ATOM     79  C   UNL A   1      49.680  26.157  26.029  1.00  0.00     0.091 A 
ATOM     80  F   UNL A   1      48.401  26.453  28.021  1.00  0.00    -0.205 F 
ATOM     81  C   UNL A   1      49.793  26.316  24.639  1.00  0.00     0.022 A 
BRANCH  79  82
ATOM     82  S   UNL A   1      51.060  25.385  26.879  1.00  0.00     0.127 S 
ATOM     83  O   UNL A   1      51.599  26.502  27.650  1.00  0.00    -0.237 OA
ATOM     84  O   UNL A   1      50.383  24.357  27.671  1.00  0.00    -0.237 OA
ATOM     85  O   UNL A   1      51.925  24.863  25.830  1.00  0.00    -0.744 OA
ENDBRANCH  79  82
ENDBRANCH  51  75
BRANCH  63  86
ATOM     86  C   UNL A   1      46.292  33.473  29.124  1.00  0.00     0.023 A 
ATOM     87  C   UNL A   1      47.132  33.575  30.251  1.00  0.00     0.012 A 
ATOM     88  C   UNL A   1      46.300  34.502  28.161  1.00  0.00     0.148 A 
ATOM     89  C   UNL A   1      47.938  34.700  30.434  1.00  0.00     0.002 A 
ATOM     90  C   UNL A   1      47.146  35.592  28.323  1.00  0.00     0.091 A 
ATOM     91  F   UNL A   1      45.484  34.392  27.103  1.00  0.00    -0.205 F 
ATOM     92  C   UNL A   1      47.955  35.700  29.464  1.00  0.00     0.022 A 
BRANCH  90  93
ATOM     93  S   UNL A   1      47.307  36.880  27.080  1.00  0.00     0.127 S 
ATOM     94  O   UNL A   1      48.011  37.924  27.822  1.00  0.00    -0.237 OA
ATOM     95  O   UNL A   1      48.109  36.217  26.050  1.00  0.00    -0.237 OA
ATOM     96  O   UNL A   1      45.951  37.216  26.668  1.00  0.00    -0.744 OA
ENDBRANCH  90  93
ENDBRANCH  63  86
ENDBRANCH  37  38
ENDBRANCH  30  32
ENDBRANCH  29  30
ENDBRANCH  28  29
ENDBRANCH  27  28
ENDBRANCH  26  27
ENDBRANCH  25  26
ENDBRANCH   1  25
TORSDOF 24
ENDMDL
