MODEL 1
REMARK VINA RESULT:      -9.5      0.000      0.000
REMARK SMILES COc1ccc([N+](=O)[O-])cc1C(=O)N[C@@H](Cc1c[nH]c2ccccc12)C(=O)OCCOCCOCCOC(=O)c1ccc(-c2c3nc(c(-c4cccc(S(=O)(=O)[O-])c4F)c4ccc([nH]4)c(-c4cccc(S(=O)(=O)[O-])c4F)c4nc(c(-c5cccc(S(=O)(=O)[O-])c5F)c5ccc2[nH]5)C=C4)C=C3)cc1
REMARK SMILES IDX 32 1 31 2 30 3 29 4 28 5 26 6 27 7 15 8 14 9 12 10 13 11
REMARK SMILES IDX 11 13 3 14 4 15 5 16 10 17 6 18 2 19 1 20 7 21 8 22 9 23
REMARK SMILES IDX 16 24 17 25 18 26 25 27 19 28 20 29 24 30 21 32 23 33 22 34
REMARK SMILES IDX 33 35 34 36 35 37 36 38 37 39 38 40 39 41 40 42 41 43 102 44
REMARK SMILES IDX 42 45 101 46 43 47 44 48 45 49 95 50 46 51 100 52 94 53
REMARK SMILES IDX 96 54 47 55 99 56 93 57 92 58 48 60 80 61 60 62 79 63 61 64
REMARK SMILES IDX 64 65 78 66 97 67 62 68 63 69 77 71 98 72 65 73 49 74 50 75
REMARK SMILES IDX 58 76 51 77 53 78 59 79 52 80 54 81 55 82 56 83 57 84 81 85
REMARK SMILES IDX 82 86 90 87 83 88 85 89 91 90 84 91 86 92 87 93 88 94 89 95
REMARK SMILES IDX 66 96 67 97 75 98 68 99 70 100 76 101 69 102 71 103 72 104
REMARK SMILES IDX 73 105 74 106
REMARK H PARENT 14 12 19 31 96 59 64 70
REMARK Flexibility Score: inf
ROOT
ATOM      1  C   UNL A   1      41.516  21.834  27.293  1.00  0.00     0.188 C 
ENDROOT
BRANCH   1   2
ATOM      2  O   UNL A   1      40.563  22.853  27.477  1.00  0.00    -0.376 OA
BRANCH   2   3
ATOM      3  C   UNL A   1      39.751  23.157  26.347  1.00  0.00     0.202 C 
BRANCH   3   4
ATOM      4  C   UNL A   1      38.494  24.044  26.498  1.00  0.00     0.261 C 
BRANCH   4   5
ATOM      5  O   UNL A   1      37.228  23.337  26.455  1.00  0.00    -0.462 OA
BRANCH   5   6
ATOM      6  C   UNL A   1      37.163  22.315  25.543  1.00  0.00     0.329 C 
ATOM      7  O   UNL A   1      38.164  21.727  25.138  1.00  0.00    -0.250 OA
BRANCH   6   8
ATOM      8  C   UNL A   1      35.735  22.012  24.987  1.00  0.00     0.197 C 
BRANCH   8   9
ATOM      9  N   UNL A   1      35.382  22.671  23.709  1.00  0.00    -0.338 N 
ATOM     10  C   UNL A   1      34.321  23.364  23.192  1.00  0.00     0.256 C 
ATOM     11  O   UNL A   1      34.103  23.131  21.996  1.00  0.00    -0.269 OA
ATOM     12  H   UNL A   1      36.110  22.590  23.051  1.00  0.00     0.164 HD
BRANCH  10  13
ATOM     13  C   UNL A   1      33.533  24.485  23.802  1.00  0.00     0.088 A 
ATOM     14  C   UNL A   1      33.281  25.752  23.267  1.00  0.00     0.132 A 
ATOM     15  C   UNL A   1      32.340  26.622  23.863  1.00  0.00     0.054 A 
ATOM     16  C   UNL A   1      31.581  26.224  24.963  1.00  0.00     0.089 A 
ATOM     17  C   UNL A   1      32.783  24.118  24.953  1.00  0.00     0.103 A 
ATOM     18  C   UNL A   1      31.807  24.965  25.509  1.00  0.00     0.270 A 
BRANCH  14  19
ATOM     19  O   UNL A   1      33.911  26.212  22.144  1.00  0.00    -0.496 OA
ATOM     20  C   UNL A   1      33.825  27.634  22.101  1.00  0.00     0.278 C 
ENDBRANCH  14  19
BRANCH  18  21
ATOM     21  N   UNL A   1      30.965  24.485  26.617  1.00  0.00     0.062 N 
ATOM     22  O   UNL A   1      29.809  24.917  26.688  1.00  0.00    -0.258 OA
ATOM     23  O   UNL A   1      31.465  23.673  27.407  1.00  0.00    -0.258 OA
ENDBRANCH  18  21
ENDBRANCH  10  13
ENDBRANCH   8   9
BRANCH   8  24
ATOM     24  C   UNL A   1      35.613  20.442  24.868  1.00  0.00     0.074 C 
BRANCH  24  25
ATOM     25  C   UNL A   1      34.176  19.942  24.761  1.00  0.00    -0.020 A 
ATOM     26  C   UNL A   1      33.077  20.388  25.472  1.00  0.00     0.087 A 
ATOM     27  C   UNL A   1      33.767  18.613  24.447  1.00  0.00     0.003 A 
ATOM     28  N   UNL A   1      32.792  19.335  26.302  1.00  0.00    -0.361 N 
ATOM     29  C   UNL A   1      33.101  18.192  25.602  1.00  0.00     0.046 A 
ATOM     30  C   UNL A   1      33.987  17.682  23.419  1.00  0.00     0.010 A 
ATOM     31  H   UNL A   1      32.435  19.386  27.218  1.00  0.00     0.166 HD
ATOM     32  C   UNL A   1      32.849  16.855  25.888  1.00  0.00     0.026 A 
ATOM     33  C   UNL A   1      33.553  16.363  23.612  1.00  0.00     0.001 A 
ATOM     34  C   UNL A   1      33.062  15.947  24.851  1.00  0.00     0.002 A 
ENDBRANCH  24  25
ENDBRANCH   8  24
ENDBRANCH   6   8
ENDBRANCH   5   6
ENDBRANCH   4   5
ENDBRANCH   3   4
ENDBRANCH   2   3
ENDBRANCH   1   2
BRANCH   1  35
ATOM     35  C   UNL A   1      42.980  22.260  27.179  1.00  0.00     0.188 C 
BRANCH  35  36
ATOM     36  O   UNL A   1      43.864  21.715  26.218  1.00  0.00    -0.376 OA
BRANCH  36  37
ATOM     37  C   UNL A   1      44.443  22.560  25.231  1.00  0.00     0.202 C 
BRANCH  37  38
ATOM     38  C   UNL A   1      45.813  23.265  25.358  1.00  0.00     0.261 C 
BRANCH  38  39
ATOM     39  O   UNL A   1      46.130  23.901  26.596  1.00  0.00    -0.460 OA
BRANCH  39  40
ATOM     40  C   UNL A   1      46.918  25.006  26.471  1.00  0.00     0.338 C 
ATOM     41  O   UNL A   1      47.919  25.107  25.799  1.00  0.00    -0.246 OA
BRANCH  40  42
ATOM     42  C   UNL A   1      46.206  26.156  27.085  1.00  0.00     0.060 A 
ATOM     43  C   UNL A   1      46.985  27.128  27.727  1.00  0.00     0.016 A 
ATOM     44  C   UNL A   1      44.819  26.293  27.022  1.00  0.00     0.016 A 
ATOM     45  C   UNL A   1      46.372  28.200  28.369  1.00  0.00     0.010 A 
ATOM     46  C   UNL A   1      44.204  27.357  27.697  1.00  0.00     0.010 A 
ATOM     47  C   UNL A   1      44.977  28.284  28.421  1.00  0.00    -0.014 A 
BRANCH  47  48
ATOM     48  C   UNL A   1      44.362  29.142  29.470  1.00  0.00     0.031 A 
ATOM     49  C   UNL A   1      44.057  28.507  30.805  1.00  0.00     0.074 A 
ATOM     50  C   UNL A   1      44.149  30.460  29.297  1.00  0.00     0.049 A 
ATOM     51  N   UNL A   1      43.490  29.023  31.863  1.00  0.00    -0.248 NA
ATOM     52  C   UNL A   1      44.445  27.095  30.960  1.00  0.00     0.031 C 
ATOM     53  C   UNL A   1      44.446  31.221  28.086  1.00  0.00     0.029 A 
ATOM     54  N   UNL A   1      43.614  31.390  30.155  1.00  0.00    -0.354 N 
ATOM     55  C   UNL A   1      43.422  27.992  32.795  1.00  0.00     0.074 A 
ATOM     56  C   UNL A   1      43.986  26.817  32.169  1.00  0.00     0.031 C 
ATOM     57  C   UNL A   1      44.064  32.498  28.269  1.00  0.00     0.029 A 
ATOM     58  C   UNL A   1      43.468  32.639  29.598  1.00  0.00     0.049 A 
ATOM     59  H   UNL A   1      43.359  31.182  31.083  1.00  0.00     0.167 HD
ATOM     60  C   UNL A   1      42.951  28.015  34.064  1.00  0.00     0.034 A 
ATOM     61  C   UNL A   1      42.895  33.755  30.095  1.00  0.00     0.034 A 
ATOM     62  C   UNL A   1      42.418  29.184  34.707  1.00  0.00     0.049 A 
ATOM     63  C   UNL A   1      42.328  33.744  31.495  1.00  0.00     0.074 A 
ATOM     64  C   UNL A   1      41.923  29.308  35.993  1.00  0.00     0.029 A 
ATOM     65  N   UNL A   1      42.309  30.433  34.115  1.00  0.00    -0.354 N 
ATOM     66  N   UNL A   1      42.316  32.777  32.379  1.00  0.00    -0.248 NA
ATOM     67  C   UNL A   1      41.727  34.998  31.978  1.00  0.00     0.031 C 
ATOM     68  C   UNL A   1      41.482  30.624  36.168  1.00  0.00     0.029 A 
ATOM     69  C   UNL A   1      41.749  31.331  35.007  1.00  0.00     0.049 A 
ATOM     70  H   UNL A   1      42.589  30.648  33.197  1.00  0.00     0.167 HD
ATOM     71  C   UNL A   1      41.761  33.319  33.535  1.00  0.00     0.074 A 
ATOM     72  C   UNL A   1      41.462  34.705  33.243  1.00  0.00     0.031 C 
ATOM     73  C   UNL A   1      41.514  32.725  34.730  1.00  0.00     0.034 A 
BRANCH  60  74
ATOM     74  C   UNL A   1      42.994  26.727  34.844  1.00  0.00     0.023 A 
ATOM     75  C   UNL A   1      41.856  25.898  34.902  1.00  0.00     0.012 A 
ATOM     76  C   UNL A   1      44.178  26.325  35.493  1.00  0.00     0.148 A 
ATOM     77  C   UNL A   1      41.883  24.707  35.627  1.00  0.00     0.002 A 
ATOM     78  C   UNL A   1      44.213  25.110  36.169  1.00  0.00     0.091 A 
ATOM     79  F   UNL A   1      45.242  27.138  35.445  1.00  0.00    -0.205 F 
ATOM     80  C   UNL A   1      43.063  24.308  36.249  1.00  0.00     0.022 A 
BRANCH  78  81
ATOM     81  S   UNL A   1      45.708  24.472  36.930  1.00  0.00     0.127 S 
ATOM     82  O   UNL A   1      46.021  25.525  37.896  1.00  0.00    -0.237 OA
ATOM     83  O   UNL A   1      45.239  23.220  37.524  1.00  0.00    -0.237 OA
ATOM     84  O   UNL A   1      46.673  24.310  35.852  1.00  0.00    -0.744 OA
ENDBRANCH  78  81
ENDBRANCH  60  74
BRANCH  61  85
ATOM     85  C   UNL A   1      42.830  35.001  29.275  1.00  0.00     0.023 A 
ATOM     86  C   UNL A   1      41.716  35.237  28.446  1.00  0.00     0.012 A 
ATOM     87  C   UNL A   1      43.884  35.936  29.290  1.00  0.00     0.148 A 
ATOM     88  C   UNL A   1      41.673  36.356  27.612  1.00  0.00     0.002 A 
ATOM     89  C   UNL A   1      43.806  37.079  28.504  1.00  0.00     0.091 A 
ATOM     90  F   UNL A   1      44.942  35.686  30.073  1.00  0.00    -0.205 F 
ATOM     91  C   UNL A   1      42.713  37.281  27.647  1.00  0.00     0.022 A 
BRANCH  89  92
ATOM     92  S   UNL A   1      45.034  38.387  28.581  1.00  0.00     0.127 S 
ATOM     93  O   UNL A   1      45.187  38.571  30.022  1.00  0.00    -0.237 OA
ATOM     94  O   UNL A   1      46.175  37.761  27.913  1.00  0.00    -0.237 OA
ATOM     95  O   UNL A   1      44.457  39.512  27.859  1.00  0.00    -0.744 OA
ENDBRANCH  89  92
ENDBRANCH  61  85
BRANCH  73  96
ATOM     96  C   UNL A   1      40.964  33.581  35.845  1.00  0.00     0.023 A 
ATOM     97  C   UNL A   1      39.573  33.683  36.051  1.00  0.00     0.012 A 
ATOM     98  C   UNL A   1      41.839  34.254  36.723  1.00  0.00     0.148 A 
ATOM     99  C   UNL A   1      39.064  34.482  37.075  1.00  0.00     0.002 A 
ATOM    100  C   UNL A   1      41.326  35.003  37.775  1.00  0.00     0.091 A 
ATOM    101  F   UNL A   1      43.160  34.160  36.507  1.00  0.00    -0.205 F 
ATOM    102  C   UNL A   1      39.938  35.133  37.941  1.00  0.00     0.022 A 
BRANCH 100 103
ATOM    103  S   UNL A   1      42.379  35.791  38.998  1.00  0.00     0.127 S 
ATOM    104  O   UNL A   1      42.974  36.879  38.223  1.00  0.00    -0.237 OA
ATOM    105  O   UNL A   1      41.413  36.221  40.010  1.00  0.00    -0.237 OA
ATOM    106  O   UNL A   1      43.306  34.762  39.450  1.00  0.00    -0.744 OA
ENDBRANCH 100 103
ENDBRANCH  73  96
ENDBRANCH  47  48
ENDBRANCH  40  42
ENDBRANCH  39  40
ENDBRANCH  38  39
ENDBRANCH  37  38
ENDBRANCH  36  37
ENDBRANCH  35  36
ENDBRANCH   1  35
TORSDOF 26
ENDMDL
MODEL 2
REMARK VINA RESULT:      -9.4      3.964      8.036
REMARK SMILES COc1ccc([N+](=O)[O-])cc1C(=O)N[C@@H](Cc1c[nH]c2ccccc12)C(=O)OCCOCCOCCOC(=O)c1ccc(-c2c3nc(c(-c4cccc(S(=O)(=O)[O-])c4F)c4ccc([nH]4)c(-c4cccc(S(=O)(=O)[O-])c4F)c4nc(c(-c5cccc(S(=O)(=O)[O-])c5F)c5ccc2[nH]5)C=C4)C=C3)cc1
REMARK SMILES IDX 32 1 31 2 30 3 29 4 28 5 26 6 27 7 15 8 14 9 12 10 13 11
REMARK SMILES IDX 11 13 3 14 4 15 5 16 10 17 6 18 2 19 1 20 7 21 8 22 9 23
REMARK SMILES IDX 16 24 17 25 18 26 25 27 19 28 20 29 24 30 21 32 23 33 22 34
REMARK SMILES IDX 33 35 34 36 35 37 36 38 37 39 38 40 39 41 40 42 41 43 102 44
REMARK SMILES IDX 42 45 101 46 43 47 44 48 45 49 95 50 46 51 100 52 94 53
REMARK SMILES IDX 96 54 47 55 99 56 93 57 92 58 48 60 80 61 60 62 79 63 61 64
REMARK SMILES IDX 64 65 78 66 97 67 62 68 63 69 77 71 98 72 65 73 49 74 50 75
REMARK SMILES IDX 58 76 51 77 53 78 59 79 52 80 54 81 55 82 56 83 57 84 81 85
REMARK SMILES IDX 82 86 90 87 83 88 85 89 91 90 84 91 86 92 87 93 88 94 89 95
REMARK SMILES IDX 66 96 67 97 75 98 68 99 70 100 76 101 69 102 71 103 72 104
REMARK SMILES IDX 73 105 74 106
REMARK H PARENT 14 12 19 31 96 59 64 70
REMARK Flexibility Score: inf
ROOT
ATOM      1  C   UNL A   1      40.831  22.129  27.578  1.00  0.00     0.188 C 
ENDROOT
BRANCH   1   2
ATOM      2  O   UNL A   1      40.057  23.303  27.622  1.00  0.00    -0.376 OA
BRANCH   2   3
ATOM      3  C   UNL A   1      39.401  23.663  26.411  1.00  0.00     0.202 C 
BRANCH   3   4
ATOM      4  C   UNL A   1      37.878  23.931  26.390  1.00  0.00     0.261 C 
BRANCH   4   5
ATOM      5  O   UNL A   1      37.049  22.776  26.103  1.00  0.00    -0.462 OA
BRANCH   5   6
ATOM      6  C   UNL A   1      36.453  22.781  24.868  1.00  0.00     0.329 C 
ATOM      7  O   UNL A   1      36.985  23.281  23.880  1.00  0.00    -0.250 OA
BRANCH   6   8
ATOM      8  C   UNL A   1      35.010  22.184  24.826  1.00  0.00     0.197 C 
BRANCH   8   9
ATOM      9  N   UNL A   1      34.152  22.636  23.706  1.00  0.00    -0.338 N 
ATOM     10  C   UNL A   1      32.936  23.245  23.551  1.00  0.00     0.256 C 
ATOM     11  O   UNL A   1      32.286  22.828  22.584  1.00  0.00    -0.269 OA
ATOM     12  H   UNL A   1      34.571  22.448  22.836  1.00  0.00     0.164 HD
BRANCH  10  13
ATOM     13  C   UNL A   1      32.384  24.453  24.248  1.00  0.00     0.088 A 
ATOM     14  C   UNL A   1      32.458  24.771  25.607  1.00  0.00     0.132 A 
ATOM     15  C   UNL A   1      32.081  26.050  26.079  1.00  0.00     0.054 A 
ATOM     16  C   UNL A   1      31.687  27.059  25.200  1.00  0.00     0.089 A 
ATOM     17  C   UNL A   1      31.932  25.480  23.375  1.00  0.00     0.103 A 
ATOM     18  C   UNL A   1      31.612  26.768  23.841  1.00  0.00     0.270 A 
BRANCH  14  19
ATOM     19  O   UNL A   1      32.907  23.884  26.545  1.00  0.00    -0.496 OA
ATOM     20  C   UNL A   1      31.793  23.275  27.193  1.00  0.00     0.278 C 
ENDBRANCH  14  19
BRANCH  18  21
ATOM     21  N   UNL A   1      31.280  27.834  22.882  1.00  0.00     0.062 N 
ATOM     22  O   UNL A   1      31.711  28.969  23.114  1.00  0.00    -0.258 OA
ATOM     23  O   UNL A   1      30.593  27.526  21.899  1.00  0.00    -0.258 OA
ENDBRANCH  18  21
ENDBRANCH  10  13
ENDBRANCH   8   9
BRANCH   8  24
ATOM     24  C   UNL A   1      35.162  20.612  24.825  1.00  0.00     0.074 C 
BRANCH  24  25
ATOM     25  C   UNL A   1      33.833  19.864  24.820  1.00  0.00    -0.020 A 
ATOM     26  C   UNL A   1      32.763  20.049  25.675  1.00  0.00     0.087 A 
ATOM     27  C   UNL A   1      33.632  18.507  24.434  1.00  0.00     0.003 A 
ATOM     28  N   UNL A   1      32.765  18.907  26.434  1.00  0.00    -0.361 N 
ATOM     29  C   UNL A   1      33.188  17.892  25.609  1.00  0.00     0.046 A 
ATOM     30  C   UNL A   1      33.891  17.705  23.311  1.00  0.00     0.010 A 
ATOM     31  H   UNL A   1      32.513  18.829  27.383  1.00  0.00     0.166 HD
ATOM     32  C   UNL A   1      33.210  16.515  25.799  1.00  0.00     0.026 A 
ATOM     33  C   UNL A   1      33.722  16.319  23.429  1.00  0.00     0.001 A 
ATOM     34  C   UNL A   1      33.459  15.735  24.670  1.00  0.00     0.002 A 
ENDBRANCH  24  25
ENDBRANCH   8  24
ENDBRANCH   6   8
ENDBRANCH   5   6
ENDBRANCH   4   5
ENDBRANCH   3   4
ENDBRANCH   2   3
ENDBRANCH   1   2
BRANCH   1  35
ATOM     35  C   UNL A   1      42.345  22.285  27.727  1.00  0.00     0.188 C 
BRANCH  35  36
ATOM     36  O   UNL A   1      43.267  21.707  26.823  1.00  0.00    -0.376 OA
BRANCH  36  37
ATOM     37  C   UNL A   1      44.164  22.540  26.099  1.00  0.00     0.202 C 
BRANCH  37  38
ATOM     38  C   UNL A   1      45.559  22.987  26.595  1.00  0.00     0.261 C 
BRANCH  38  39
ATOM     39  O   UNL A   1      45.624  23.868  27.715  1.00  0.00    -0.460 OA
BRANCH  39  40
ATOM     40  C   UNL A   1      46.738  24.652  27.745  1.00  0.00     0.338 C 
ATOM     41  O   UNL A   1      47.848  24.344  27.376  1.00  0.00    -0.246 OA
BRANCH  40  42
ATOM     42  C   UNL A   1      46.319  26.043  28.058  1.00  0.00     0.060 A 
ATOM     43  C   UNL A   1      45.792  26.809  27.009  1.00  0.00     0.016 A 
ATOM     44  C   UNL A   1      46.424  26.581  29.341  1.00  0.00     0.016 A 
ATOM     45  C   UNL A   1      45.434  28.136  27.227  1.00  0.00     0.010 A 
ATOM     46  C   UNL A   1      46.092  27.928  29.548  1.00  0.00     0.010 A 
ATOM     47  C   UNL A   1      45.649  28.726  28.477  1.00  0.00    -0.014 A 
BRANCH  47  48
ATOM     48  C   UNL A   1      45.699  30.211  28.555  1.00  0.00     0.031 A 
ATOM     49  C   UNL A   1      46.987  30.890  28.158  1.00  0.00     0.074 A 
ATOM     50  C   UNL A   1      44.627  30.958  28.882  1.00  0.00     0.049 A 
ATOM     51  N   UNL A   1      47.300  32.159  28.174  1.00  0.00    -0.248 NA
ATOM     52  C   UNL A   1      48.068  30.011  27.681  1.00  0.00     0.031 C 
ATOM     53  C   UNL A   1      43.304  30.446  29.232  1.00  0.00     0.029 A 
ATOM     54  N   UNL A   1      44.497  32.322  28.984  1.00  0.00    -0.354 N 
ATOM     55  C   UNL A   1      48.621  32.227  27.745  1.00  0.00     0.074 A 
ATOM     56  C   UNL A   1      49.057  30.871  27.495  1.00  0.00     0.031 C 
ATOM     57  C   UNL A   1      42.503  31.482  29.537  1.00  0.00     0.029 A 
ATOM     58  C   UNL A   1      43.263  32.729  29.433  1.00  0.00     0.049 A 
ATOM     59  H   UNL A   1      45.221  32.950  28.756  1.00  0.00     0.167 HD
ATOM     60  C   UNL A   1      49.404  33.315  27.553  1.00  0.00     0.034 A 
ATOM     61  C   UNL A   1      42.811  33.960  29.749  1.00  0.00     0.034 A 
ATOM     62  C   UNL A   1      48.972  34.669  27.767  1.00  0.00     0.049 A 
ATOM     63  C   UNL A   1      43.718  35.156  29.578  1.00  0.00     0.074 A 
ATOM     64  C   UNL A   1      49.691  35.838  27.594  1.00  0.00     0.029 A 
ATOM     65  N   UNL A   1      47.708  35.038  28.199  1.00  0.00    -0.354 N 
ATOM     66  N   UNL A   1      44.947  35.208  29.124  1.00  0.00    -0.248 NA
ATOM     67  C   UNL A   1      43.159  36.471  29.931  1.00  0.00     0.031 C 
ATOM     68  C   UNL A   1      48.873  36.913  27.956  1.00  0.00     0.029 A 
ATOM     69  C   UNL A   1      47.628  36.415  28.306  1.00  0.00     0.049 A 
ATOM     70  H   UNL A   1      46.976  34.412  28.401  1.00  0.00     0.167 HD
ATOM     71  C   UNL A   1      45.285  36.558  29.085  1.00  0.00     0.074 A 
ATOM     72  C   UNL A   1      44.126  37.292  29.548  1.00  0.00     0.031 C 
ATOM     73  C   UNL A   1      46.451  37.141  28.706  1.00  0.00     0.034 A 
BRANCH  60  74
ATOM     74  C   UNL A   1      50.817  33.080  27.087  1.00  0.00     0.023 A 
ATOM     75  C   UNL A   1      51.797  32.638  27.998  1.00  0.00     0.012 A 
ATOM     76  C   UNL A   1      51.163  33.269  25.735  1.00  0.00     0.148 A 
ATOM     77  C   UNL A   1      53.109  32.424  27.578  1.00  0.00     0.002 A 
ATOM     78  C   UNL A   1      52.460  33.003  25.313  1.00  0.00     0.091 A 
ATOM     79  F   UNL A   1      50.222  33.713  24.890  1.00  0.00    -0.205 F 
ATOM     80  C   UNL A   1      53.438  32.595  26.235  1.00  0.00     0.022 A 
BRANCH  78  81
ATOM     81  S   UNL A   1      52.958  33.113  23.592  1.00  0.00     0.127 S 
ATOM     82  O   UNL A   1      52.031  32.177  22.955  1.00  0.00    -0.237 OA
ATOM     83  O   UNL A   1      52.707  34.522  23.289  1.00  0.00    -0.237 OA
ATOM     84  O   UNL A   1      54.360  32.722  23.551  1.00  0.00    -0.744 OA
ENDBRANCH  78  81
ENDBRANCH  60  74
BRANCH  61  85
ATOM     85  C   UNL A   1      41.418  34.150  30.251  1.00  0.00     0.023 A 
ATOM     86  C   UNL A   1      40.374  34.406  29.341  1.00  0.00     0.012 A 
ATOM     87  C   UNL A   1      41.131  34.110  31.629  1.00  0.00     0.148 A 
ATOM     88  C   UNL A   1      39.080  34.665  29.795  1.00  0.00     0.002 A 
ATOM     89  C   UNL A   1      39.828  34.308  32.071  1.00  0.00     0.091 A 
ATOM     90  F   UNL A   1      42.139  33.882  32.481  1.00  0.00    -0.205 F 
ATOM     91  C   UNL A   1      38.805  34.608  31.159  1.00  0.00     0.022 A 
BRANCH  89  92
ATOM     92  S   UNL A   1      39.356  34.124  33.794  1.00  0.00     0.127 S 
ATOM     93  O   UNL A   1      39.739  32.741  34.064  1.00  0.00    -0.237 OA
ATOM     94  O   UNL A   1      40.194  35.136  34.440  1.00  0.00    -0.237 OA
ATOM     95  O   UNL A   1      37.928  34.405  33.843  1.00  0.00    -0.744 OA
ENDBRANCH  89  92
ENDBRANCH  61  85
BRANCH  73  96
ATOM     96  C   UNL A   1      46.516  38.649  28.695  1.00  0.00     0.023 A 
ATOM     97  C   UNL A   1      46.958  39.356  29.832  1.00  0.00     0.012 A 
ATOM     98  C   UNL A   1      46.176  39.368  27.529  1.00  0.00     0.148 A 
ATOM     99  C   UNL A   1      47.009  40.750  29.826  1.00  0.00     0.002 A 
ATOM    100  C   UNL A   1      46.283  40.753  27.513  1.00  0.00     0.091 A 
ATOM    101  F   UNL A   1      45.743  38.684  26.459  1.00  0.00    -0.205 F 
ATOM    102  C   UNL A   1      46.682  41.447  28.666  1.00  0.00     0.022 A 
BRANCH 100 103
ATOM    103  S   UNL A   1      45.980  41.723  26.032  1.00  0.00     0.127 S 
ATOM    104  O   UNL A   1      46.971  41.175  25.108  1.00  0.00    -0.237 OA
ATOM    105  O   UNL A   1      44.593  41.379  25.713  1.00  0.00    -0.237 OA
ATOM    106  O   UNL A   1      46.180  43.114  26.416  1.00  0.00    -0.744 OA
ENDBRANCH 100 103
ENDBRANCH  73  96
ENDBRANCH  47  48
ENDBRANCH  40  42
ENDBRANCH  39  40
ENDBRANCH  38  39
ENDBRANCH  37  38
ENDBRANCH  36  37
ENDBRANCH  35  36
ENDBRANCH   1  35
TORSDOF 26
ENDMDL
MODEL 3
REMARK VINA RESULT:      -9.0      5.907     11.243
REMARK SMILES COc1ccc([N+](=O)[O-])cc1C(=O)N[C@@H](Cc1c[nH]c2ccccc12)C(=O)OCCOCCOCCOC(=O)c1ccc(-c2c3nc(c(-c4cccc(S(=O)(=O)[O-])c4F)c4ccc([nH]4)c(-c4cccc(S(=O)(=O)[O-])c4F)c4nc(c(-c5cccc(S(=O)(=O)[O-])c5F)c5ccc2[nH]5)C=C4)C=C3)cc1
REMARK SMILES IDX 32 1 31 2 30 3 29 4 28 5 26 6 27 7 15 8 14 9 12 10 13 11
REMARK SMILES IDX 11 13 3 14 4 15 5 16 10 17 6 18 2 19 1 20 7 21 8 22 9 23
REMARK SMILES IDX 16 24 17 25 18 26 25 27 19 28 20 29 24 30 21 32 23 33 22 34
REMARK SMILES IDX 33 35 34 36 35 37 36 38 37 39 38 40 39 41 40 42 41 43 102 44
REMARK SMILES IDX 42 45 101 46 43 47 44 48 45 49 95 50 46 51 100 52 94 53
REMARK SMILES IDX 96 54 47 55 99 56 93 57 92 58 48 60 80 61 60 62 79 63 61 64
REMARK SMILES IDX 64 65 78 66 97 67 62 68 63 69 77 71 98 72 65 73 49 74 50 75
REMARK SMILES IDX 58 76 51 77 53 78 59 79 52 80 54 81 55 82 56 83 57 84 81 85
REMARK SMILES IDX 82 86 90 87 83 88 85 89 91 90 84 91 86 92 87 93 88 94 89 95
REMARK SMILES IDX 66 96 67 97 75 98 68 99 70 100 76 101 69 102 71 103 72 104
REMARK SMILES IDX 73 105 74 106
REMARK H PARENT 14 12 19 31 96 59 64 70
REMARK Flexibility Score: inf
ROOT
ATOM      1  C   UNL A   1      47.747  34.988  25.348  1.00  0.00     0.188 C 
ENDROOT
BRANCH   1   2
ATOM      2  O   UNL A   1      47.187  33.788  25.822  1.00  0.00    -0.376 OA
BRANCH   2   3
ATOM      3  C   UNL A   1      45.822  33.852  26.222  1.00  0.00     0.202 C 
BRANCH   3   4
ATOM      4  C   UNL A   1      44.799  32.817  25.700  1.00  0.00     0.261 C 
BRANCH   4   5
ATOM      5  O   UNL A   1      45.147  31.428  25.935  1.00  0.00    -0.462 OA
BRANCH   5   6
ATOM      6  C   UNL A   1      44.577  30.867  27.048  1.00  0.00     0.329 C 
ATOM      7  O   UNL A   1      44.372  31.505  28.079  1.00  0.00    -0.250 OA
BRANCH   6   8
ATOM      8  C   UNL A   1      44.287  29.335  26.944  1.00  0.00     0.197 C 
BRANCH   8   9
ATOM      9  N   UNL A   1      44.802  28.657  25.732  1.00  0.00    -0.338 N 
ATOM     10  C   UNL A   1      45.092  27.379  25.338  1.00  0.00     0.256 C 
ATOM     11  O   UNL A   1      46.092  27.291  24.614  1.00  0.00    -0.269 OA
ATOM     12  H   UNL A   1      44.984  29.303  25.011  1.00  0.00     0.164 HD
BRANCH  10  13
ATOM     13  C   UNL A   1      44.275  26.131  25.492  1.00  0.00     0.088 A 
ATOM     14  C   UNL A   1      42.905  25.965  25.266  1.00  0.00     0.132 A 
ATOM     15  C   UNL A   1      42.320  24.678  25.243  1.00  0.00     0.054 A 
ATOM     16  C   UNL A   1      43.096  23.527  25.379  1.00  0.00     0.089 A 
ATOM     17  C   UNL A   1      45.040  24.947  25.677  1.00  0.00     0.103 A 
ATOM     18  C   UNL A   1      44.463  23.666  25.597  1.00  0.00     0.270 A 
BRANCH  14  19
ATOM     19  O   UNL A   1      42.066  27.019  25.041  1.00  0.00    -0.496 OA
ATOM     20  C   UNL A   1      41.206  27.189  26.166  1.00  0.00     0.278 C 
ENDBRANCH  14  19
BRANCH  18  21
ATOM     21  N   UNL A   1      45.320  22.471  25.660  1.00  0.00     0.062 N 
ATOM     22  O   UNL A   1      46.530  22.642  25.848  1.00  0.00    -0.258 OA
ATOM     23  O   UNL A   1      44.775  21.367  25.526  1.00  0.00    -0.258 OA
ENDBRANCH  18  21
ENDBRANCH  10  13
ENDBRANCH   8   9
BRANCH   8  24
ATOM     24  C   UNL A   1      44.863  28.669  28.254  1.00  0.00     0.074 C 
BRANCH  24  25
ATOM     25  C   UNL A   1      46.381  28.752  28.372  1.00  0.00    -0.020 A 
ATOM     26  C   UNL A   1      47.250  29.448  27.552  1.00  0.00     0.087 A 
ATOM     27  C   UNL A   1      47.246  27.732  28.868  1.00  0.00     0.003 A 
ATOM     28  N   UNL A   1      47.915  28.454  26.881  1.00  0.00    -0.361 N 
ATOM     29  C   UNL A   1      48.037  27.405  27.762  1.00  0.00     0.046 A 
ATOM     30  C   UNL A   1      47.369  26.962  30.036  1.00  0.00     0.010 A 
ATOM     31  H   UNL A   1      48.241  28.485  25.953  1.00  0.00     0.166 HD
ATOM     32  C   UNL A   1      48.767  26.225  27.675  1.00  0.00     0.026 A 
ATOM     33  C   UNL A   1      48.260  25.880  30.029  1.00  0.00     0.001 A 
ATOM     34  C   UNL A   1      48.887  25.480  28.847  1.00  0.00     0.002 A 
ENDBRANCH  24  25
ENDBRANCH   8  24
ENDBRANCH   6   8
ENDBRANCH   5   6
ENDBRANCH   4   5
ENDBRANCH   3   4
ENDBRANCH   2   3
ENDBRANCH   1   2
BRANCH   1  35
ATOM     35  C   UNL A   1      47.667  36.207  26.268  1.00  0.00     0.188 C 
BRANCH  35  36
ATOM     36  O   UNL A   1      46.742  37.259  26.065  1.00  0.00    -0.376 OA
BRANCH  36  37
ATOM     37  C   UNL A   1      47.200  38.522  25.596  1.00  0.00     0.202 C 
BRANCH  37  38
ATOM     38  C   UNL A   1      46.345  39.808  25.529  1.00  0.00     0.261 C 
BRANCH  38  39
ATOM     39  O   UNL A   1      45.872  40.365  26.755  1.00  0.00    -0.460 OA
BRANCH  39  40
ATOM     40  C   UNL A   1      44.516  40.492  26.824  1.00  0.00     0.338 C 
ATOM     41  O   UNL A   1      43.844  41.354  26.306  1.00  0.00    -0.246 OA
BRANCH  40  42
ATOM     42  C   UNL A   1      43.963  39.249  27.420  1.00  0.00     0.060 A 
ATOM     43  C   UNL A   1      43.983  39.139  28.817  1.00  0.00     0.016 A 
ATOM     44  C   UNL A   1      43.426  38.224  26.640  1.00  0.00     0.016 A 
ATOM     45  C   UNL A   1      43.531  37.975  29.431  1.00  0.00     0.010 A 
ATOM     46  C   UNL A   1      43.001  37.041  27.261  1.00  0.00     0.010 A 
ATOM     47  C   UNL A   1      43.105  36.891  28.657  1.00  0.00    -0.014 A 
BRANCH  47  48
ATOM     48  C   UNL A   1      43.073  35.544  29.288  1.00  0.00     0.031 A 
ATOM     49  C   UNL A   1      44.395  34.901  29.633  1.00  0.00     0.074 A 
ATOM     50  C   UNL A   1      41.925  34.929  29.630  1.00  0.00     0.049 A 
ATOM     51  N   UNL A   1      44.640  33.726  30.150  1.00  0.00    -0.248 NA
ATOM     52  C   UNL A   1      45.601  35.698  29.352  1.00  0.00     0.031 C 
ATOM     53  C   UNL A   1      40.579  35.452  29.411  1.00  0.00     0.029 A 
ATOM     54  N   UNL A   1      41.719  33.708  30.226  1.00  0.00    -0.354 N 
ATOM     55  C   UNL A   1      46.025  33.628  30.223  1.00  0.00     0.074 A 
ATOM     56  C   UNL A   1      46.567  34.854  29.679  1.00  0.00     0.031 C 
ATOM     57  C   UNL A   1      39.684  34.545  29.844  1.00  0.00     0.029 A 
ATOM     58  C   UNL A   1      40.393  33.365  30.343  1.00  0.00     0.049 A 
ATOM     59  H   UNL A   1      42.454  33.133  30.543  1.00  0.00     0.167 HD
ATOM     60  C   UNL A   1      46.788  32.623  30.713  1.00  0.00     0.034 A 
ATOM     61  C   UNL A   1      39.821  32.222  30.774  1.00  0.00     0.034 A 
ATOM     62  C   UNL A   1      46.261  31.414  31.285  1.00  0.00     0.049 A 
ATOM     63  C   UNL A   1      40.693  31.091  31.269  1.00  0.00     0.074 A 
ATOM     64  C   UNL A   1      46.955  30.340  31.815  1.00  0.00     0.029 A 
ATOM     65  N   UNL A   1      44.914  31.117  31.404  1.00  0.00    -0.354 N 
ATOM     66  N   UNL A   1      41.998  31.034  31.377  1.00  0.00    -0.248 NA
ATOM     67  C   UNL A   1      40.004  29.876  31.735  1.00  0.00     0.031 C 
ATOM     68  C   UNL A   1      46.026  29.377  32.222  1.00  0.00     0.029 A 
ATOM     69  C   UNL A   1      44.754  29.874  31.992  1.00  0.00     0.049 A 
ATOM     70  H   UNL A   1      44.179  31.704  31.113  1.00  0.00     0.167 HD
ATOM     71  C   UNL A   1      42.281  29.808  31.973  1.00  0.00     0.074 A 
ATOM     72  C   UNL A   1      41.010  29.159  32.215  1.00  0.00     0.031 C 
ATOM     73  C   UNL A   1      43.483  29.263  32.287  1.00  0.00     0.034 A 
BRANCH  60  74
ATOM     74  C   UNL A   1      48.284  32.792  30.651  1.00  0.00     0.023 A 
ATOM     75  C   UNL A   1      48.999  32.343  29.522  1.00  0.00     0.012 A 
ATOM     76  C   UNL A   1      48.975  33.426  31.701  1.00  0.00     0.148 A 
ATOM     77  C   UNL A   1      50.384  32.488  29.456  1.00  0.00     0.002 A 
ATOM     78  C   UNL A   1      50.349  33.615  31.605  1.00  0.00     0.091 A 
ATOM     79  F   UNL A   1      48.281  33.824  32.776  1.00  0.00    -0.205 F 
ATOM     80  C   UNL A   1      51.057  33.134  30.491  1.00  0.00     0.022 A 
BRANCH  78  81
ATOM     81  S   UNL A   1      51.290  34.508  32.845  1.00  0.00     0.127 S 
ATOM     82  O   UNL A   1      52.661  34.320  32.369  1.00  0.00    -0.237 OA
ATOM     83  O   UNL A   1      50.776  35.870  32.700  1.00  0.00    -0.237 OA
ATOM     84  O   UNL A   1      50.983  33.874  34.120  1.00  0.00    -0.744 OA
ENDBRANCH  78  81
ENDBRANCH  60  74
BRANCH  61  85
ATOM     85  C   UNL A   1      38.336  32.073  30.780  1.00  0.00     0.023 A 
ATOM     86  C   UNL A   1      37.632  32.118  32.000  1.00  0.00     0.012 A 
ATOM     87  C   UNL A   1      37.623  31.854  29.586  1.00  0.00     0.148 A 
ATOM     88  C   UNL A   1      36.254  31.902  32.035  1.00  0.00     0.002 A 
ATOM     89  C   UNL A   1      36.242  31.701  29.621  1.00  0.00     0.091 A 
ATOM     90  F   UNL A   1      38.311  31.798  28.438  1.00  0.00    -0.205 F 
ATOM     91  C   UNL A   1      35.557  31.702  30.847  1.00  0.00     0.022 A 
BRANCH  89  92
ATOM     92  S   UNL A   1      35.248  31.569  28.132  1.00  0.00     0.127 S 
ATOM     93  O   UNL A   1      33.898  31.460  28.681  1.00  0.00    -0.237 OA
ATOM     94  O   UNL A   1      35.544  32.837  27.465  1.00  0.00    -0.237 OA
ATOM     95  O   UNL A   1      35.741  30.391  27.432  1.00  0.00    -0.744 OA
ENDBRANCH  89  92
ENDBRANCH  61  85
BRANCH  73  96
ATOM     96  C   UNL A   1      43.491  27.933  33.001  1.00  0.00     0.023 A 
ATOM     97  C   UNL A   1      43.971  26.776  32.355  1.00  0.00     0.012 A 
ATOM     98  C   UNL A   1      43.060  27.842  34.342  1.00  0.00     0.148 A 
ATOM     99  C   UNL A   1      43.969  25.544  33.010  1.00  0.00     0.002 A 
ATOM    100  C   UNL A   1      43.115  26.623  35.006  1.00  0.00     0.091 A 
ATOM    101  F   UNL A   1      42.594  28.948  34.941  1.00  0.00    -0.205 F 
ATOM    102  C   UNL A   1      43.551  25.469  34.336  1.00  0.00     0.022 A 
BRANCH 100 103
ATOM    103  S   UNL A   1      42.693  26.455  36.744  1.00  0.00     0.127 S 
ATOM    104  O   UNL A   1      43.539  27.479  37.356  1.00  0.00    -0.237 OA
ATOM    105  O   UNL A   1      41.262  26.765  36.748  1.00  0.00    -0.237 OA
ATOM    106  O   UNL A   1      43.011  25.080  37.102  1.00  0.00    -0.744 OA
ENDBRANCH 100 103
ENDBRANCH  73  96
ENDBRANCH  47  48
ENDBRANCH  40  42
ENDBRANCH  39  40
ENDBRANCH  38  39
ENDBRANCH  37  38
ENDBRANCH  36  37
ENDBRANCH  35  36
ENDBRANCH   1  35
TORSDOF 26
ENDMDL
