MODEL 1
REMARK VINA RESULT:      -8.8      0.000      0.000
REMARK SMILES CC(=O)c1ccc(C(F)(F)C(=O)OCCOCCOCCOC(=O)c2ccc(-c3c4nc(c(-c5cccc(S(=O)(=O)[O-])c5F)c5ccc([nH]5)c(-c5cccc(S(=O)(=O)[O-])c5F)c5nc(c(-c6cccc(S(=O)(=O)[O-])c6F)c6ccc3[nH]6)C=C5)C=C4)cc2)n1C
REMARK SMILES IDX 18 1 17 2 16 3 15 4 14 5 13 6 11 7 12 8 8 9 9 10 10 11 7 12
REMARK SMILES IDX 4 13 5 14 88 15 6 16 89 17 2 18 1 19 3 20 19 21 20 22 21 23
REMARK SMILES IDX 22 24 23 25 24 26 25 27 26 28 87 29 27 30 86 31 28 32 29 33
REMARK SMILES IDX 30 34 80 35 31 36 85 37 79 38 81 39 32 40 84 41 78 42 77 43
REMARK SMILES IDX 33 45 65 46 45 47 64 48 46 49 49 50 63 51 82 52 47 53 48 54
REMARK SMILES IDX 62 56 83 57 50 58 34 59 35 60 43 61 36 62 38 63 44 64 37 65
REMARK SMILES IDX 39 66 40 67 41 68 42 69 66 70 67 71 75 72 68 73 70 74 76 75
REMARK SMILES IDX 69 76 71 77 72 78 73 79 74 80 51 81 52 82 60 83 53 84 55 85
REMARK SMILES IDX 61 86 54 87 56 88 57 89 58 90 59 91
REMARK H PARENT 81 44 49 55
REMARK Flexibility Score: inf
ROOT
ATOM      1  C   UNL A   1      38.425  23.465  26.234  1.00  0.00     0.188 C 
ENDROOT
BRANCH   1   2
ATOM      2  C   UNL A   1      37.515  22.617  25.322  1.00  0.00     0.188 C 
BRANCH   2   3
ATOM      3  O   UNL A   1      36.126  22.785  25.564  1.00  0.00    -0.376 OA
BRANCH   3   4
ATOM      4  C   UNL A   1      35.225  22.274  24.594  1.00  0.00     0.202 C 
BRANCH   4   5
ATOM      5  C   UNL A   1      35.209  23.058  23.278  1.00  0.00     0.261 C 
BRANCH   5   6
ATOM      6  O   UNL A   1      34.352  24.210  23.366  1.00  0.00    -0.458 OA
BRANCH   6   7
ATOM      7  C   UNL A   1      33.153  24.195  22.711  1.00  0.00     0.383 C 
ATOM      8  O   UNL A   1      32.595  23.168  22.338  1.00  0.00    -0.244 OA
BRANCH   7   9
ATOM      9  C   UNL A   1      32.591  25.620  22.595  1.00  0.00     0.382 C 
ATOM     10  F   UNL A   1      31.221  25.574  22.547  1.00  0.00    -0.186 F 
ATOM     11  F   UNL A   1      32.946  26.172  21.387  1.00  0.00    -0.186 F 
BRANCH   9  12
ATOM     12  C   UNL A   1      32.995  26.610  23.686  1.00  0.00     0.100 A 
ATOM     13  C   UNL A   1      33.096  27.887  25.574  1.00  0.00     0.084 A 
ATOM     14  C   UNL A   1      33.833  28.514  24.585  1.00  0.00     0.032 A 
ATOM     15  N   UNL A   1      32.670  26.670  25.040  1.00  0.00    -0.340 N 
ATOM     16  C   UNL A   1      33.786  27.725  23.430  1.00  0.00     0.031 A 
ATOM     17  C   UNL A   1      31.986  25.679  25.838  1.00  0.00     0.150 C 
BRANCH  13  18
ATOM     18  C   UNL A   1      32.832  28.494  26.885  1.00  0.00     0.176 C 
ATOM     19  C   UNL A   1      31.563  28.176  27.626  1.00  0.00     0.095 C 
ATOM     20  O   UNL A   1      33.651  29.254  27.401  1.00  0.00    -0.293 OA
ENDBRANCH  13  18
ENDBRANCH   9  12
ENDBRANCH   7   9
ENDBRANCH   6   7
ENDBRANCH   5   6
ENDBRANCH   4   5
ENDBRANCH   3   4
ENDBRANCH   2   3
ENDBRANCH   1   2
BRANCH   1  21
ATOM     21  O   UNL A   1      39.329  22.815  27.118  1.00  0.00    -0.376 OA
BRANCH  21  22
ATOM     22  C   UNL A   1      39.966  21.617  26.693  1.00  0.00     0.202 C 
BRANCH  22  23
ATOM     23  C   UNL A   1      41.305  21.722  25.953  1.00  0.00     0.261 C 
BRANCH  23  24
ATOM     24  O   UNL A   1      42.196  22.746  26.439  1.00  0.00    -0.460 OA
BRANCH  24  25
ATOM     25  C   UNL A   1      42.948  23.358  25.495  1.00  0.00     0.338 C 
ATOM     26  O   UNL A   1      43.235  22.919  24.384  1.00  0.00    -0.246 OA
BRANCH  25  27
ATOM     27  C   UNL A   1      43.320  24.725  25.907  1.00  0.00     0.060 A 
ATOM     28  C   UNL A   1      44.028  24.899  27.103  1.00  0.00     0.016 A 
ATOM     29  C   UNL A   1      42.842  25.834  25.206  1.00  0.00     0.016 A 
ATOM     30  C   UNL A   1      44.220  26.182  27.625  1.00  0.00     0.010 A 
ATOM     31  C   UNL A   1      43.017  27.117  25.742  1.00  0.00     0.010 A 
ATOM     32  C   UNL A   1      43.671  27.296  26.973  1.00  0.00    -0.014 A 
BRANCH  32  33
ATOM     33  C   UNL A   1      43.672  28.622  27.645  1.00  0.00     0.031 A 
ATOM     34  C   UNL A   1      44.891  29.489  27.578  1.00  0.00     0.074 A 
ATOM     35  C   UNL A   1      42.621  29.034  28.373  1.00  0.00     0.049 A 
ATOM     36  N   UNL A   1      45.092  30.665  28.110  1.00  0.00    -0.248 NA
ATOM     37  C   UNL A   1      46.054  28.929  26.876  1.00  0.00     0.031 C 
ATOM     38  C   UNL A   1      41.454  28.215  28.651  1.00  0.00     0.029 A 
ATOM     39  N   UNL A   1      42.369  30.218  29.025  1.00  0.00    -0.354 N 
ATOM     40  C   UNL A   1      46.433  30.947  27.896  1.00  0.00     0.074 A 
ATOM     41  C   UNL A   1      46.981  29.838  27.143  1.00  0.00     0.031 C 
ATOM     42  C   UNL A   1      40.581  28.937  29.371  1.00  0.00     0.029 A 
ATOM     43  C   UNL A   1      41.125  30.269  29.610  1.00  0.00     0.049 A 
ATOM     44  H   UNL A   1      43.016  30.958  29.068  1.00  0.00     0.167 HD
ATOM     45  C   UNL A   1      47.149  32.014  28.324  1.00  0.00     0.034 A 
ATOM     46  C   UNL A   1      40.489  31.266  30.262  1.00  0.00     0.034 A 
ATOM     47  C   UNL A   1      46.600  33.119  29.065  1.00  0.00     0.049 A 
ATOM     48  C   UNL A   1      41.239  32.537  30.542  1.00  0.00     0.074 A 
ATOM     49  C   UNL A   1      47.237  34.276  29.480  1.00  0.00     0.029 A 
ATOM     50  N   UNL A   1      45.292  33.203  29.519  1.00  0.00    -0.354 N 
ATOM     51  N   UNL A   1      42.474  32.844  30.229  1.00  0.00    -0.248 NA
ATOM     52  C   UNL A   1      40.532  33.582  31.296  1.00  0.00     0.031 C 
ATOM     53  C   UNL A   1      46.322  35.045  30.208  1.00  0.00     0.029 A 
ATOM     54  C   UNL A   1      45.103  34.387  30.217  1.00  0.00     0.049 A 
ATOM     55  H   UNL A   1      44.598  32.520  29.369  1.00  0.00     0.167 HD
ATOM     56  C   UNL A   1      42.706  34.098  30.778  1.00  0.00     0.074 A 
ATOM     57  C   UNL A   1      41.461  34.526  31.385  1.00  0.00     0.031 C 
ATOM     58  C   UNL A   1      43.860  34.808  30.814  1.00  0.00     0.034 A 
BRANCH  45  59
ATOM     59  C   UNL A   1      48.624  32.008  28.024  1.00  0.00     0.023 A 
ATOM     60  C   UNL A   1      49.515  31.303  28.859  1.00  0.00     0.012 A 
ATOM     61  C   UNL A   1      49.127  32.711  26.913  1.00  0.00     0.148 A 
ATOM     62  C   UNL A   1      50.887  31.339  28.620  1.00  0.00     0.002 A 
ATOM     63  C   UNL A   1      50.492  32.702  26.653  1.00  0.00     0.091 A 
ATOM     64  F   UNL A   1      48.270  33.402  26.148  1.00  0.00    -0.205 F 
ATOM     65  C   UNL A   1      51.375  32.030  27.514  1.00  0.00     0.022 A 
BRANCH  63  66
ATOM     66  S   UNL A   1      51.199  33.500  25.208  1.00  0.00     0.127 S 
ATOM     67  O   UNL A   1      52.434  34.061  25.754  1.00  0.00    -0.237 OA
ATOM     68  O   UNL A   1      51.395  32.371  24.297  1.00  0.00    -0.237 OA
ATOM     69  O   UNL A   1      50.208  34.469  24.763  1.00  0.00    -0.744 OA
ENDBRANCH  63  66
ENDBRANCH  45  59
BRANCH  46  70
ATOM     70  C   UNL A   1      39.052  31.112  30.643  1.00  0.00     0.023 A 
ATOM     71  C   UNL A   1      38.721  30.469  31.854  1.00  0.00     0.012 A 
ATOM     72  C   UNL A   1      38.020  31.679  29.875  1.00  0.00     0.148 A 
ATOM     73  C   UNL A   1      37.394  30.395  32.285  1.00  0.00     0.002 A 
ATOM     74  C   UNL A   1      36.717  31.690  30.359  1.00  0.00     0.091 A 
ATOM     75  F   UNL A   1      38.337  32.244  28.700  1.00  0.00    -0.205 F 
ATOM     76  C   UNL A   1      36.395  31.028  31.552  1.00  0.00     0.022 A 
BRANCH  74  77
ATOM     77  S   UNL A   1      35.445  32.707  29.597  1.00  0.00     0.127 S 
ATOM     78  O   UNL A   1      34.341  32.574  30.540  1.00  0.00    -0.237 OA
ATOM     79  O   UNL A   1      36.080  34.026  29.569  1.00  0.00    -0.237 OA
ATOM     80  O   UNL A   1      35.237  32.130  28.275  1.00  0.00    -0.744 OA
ENDBRANCH  74  77
ENDBRANCH  46  70
BRANCH  58  81
ATOM     81  C   UNL A   1      43.844  36.114  31.562  1.00  0.00     0.023 A 
ATOM     82  C   UNL A   1      43.955  36.115  32.967  1.00  0.00     0.012 A 
ATOM     83  C   UNL A   1      43.780  37.340  30.873  1.00  0.00     0.148 A 
ATOM     84  C   UNL A   1      43.974  37.315  33.677  1.00  0.00     0.002 A 
ATOM     85  C   UNL A   1      43.844  38.533  31.583  1.00  0.00     0.091 A 
ATOM     86  F   UNL A   1      43.654  37.317  29.538  1.00  0.00    -0.205 F 
ATOM     87  C   UNL A   1      43.930  38.523  32.985  1.00  0.00     0.022 A 
BRANCH  85  88
ATOM     88  S   UNL A   1      43.878  40.135  30.771  1.00  0.00     0.127 S 
ATOM     89  O   UNL A   1      42.845  39.971  29.749  1.00  0.00    -0.237 OA
ATOM     90  O   UNL A   1      43.519  41.042  31.861  1.00  0.00    -0.237 OA
ATOM     91  O   UNL A   1      45.234  40.302  30.268  1.00  0.00    -0.744 OA
ENDBRANCH  85  88
ENDBRANCH  58  81
ENDBRANCH  32  33
ENDBRANCH  25  27
ENDBRANCH  24  25
ENDBRANCH  23  24
ENDBRANCH  22  23
ENDBRANCH  21  22
ENDBRANCH   1  21
TORSDOF 22
ENDMDL
MODEL 2
REMARK VINA RESULT:      -8.4      8.101     13.629
REMARK SMILES CC(=O)c1ccc(C(F)(F)C(=O)OCCOCCOCCOC(=O)c2ccc(-c3c4nc(c(-c5cccc(S(=O)(=O)[O-])c5F)c5ccc([nH]5)c(-c5cccc(S(=O)(=O)[O-])c5F)c5nc(c(-c6cccc(S(=O)(=O)[O-])c6F)c6ccc3[nH]6)C=C5)C=C4)cc2)n1C
REMARK SMILES IDX 18 1 17 2 16 3 15 4 14 5 13 6 11 7 12 8 8 9 9 10 10 11 7 12
REMARK SMILES IDX 4 13 5 14 88 15 6 16 89 17 2 18 1 19 3 20 19 21 20 22 21 23
REMARK SMILES IDX 22 24 23 25 24 26 25 27 26 28 87 29 27 30 86 31 28 32 29 33
REMARK SMILES IDX 30 34 80 35 31 36 85 37 79 38 81 39 32 40 84 41 78 42 77 43
REMARK SMILES IDX 33 45 65 46 45 47 64 48 46 49 49 50 63 51 82 52 47 53 48 54
REMARK SMILES IDX 62 56 83 57 50 58 34 59 35 60 43 61 36 62 38 63 44 64 37 65
REMARK SMILES IDX 39 66 40 67 41 68 42 69 66 70 67 71 75 72 68 73 70 74 76 75
REMARK SMILES IDX 69 76 71 77 72 78 73 79 74 80 51 81 52 82 60 83 53 84 55 85
REMARK SMILES IDX 61 86 54 87 56 88 57 89 58 90 59 91
REMARK H PARENT 81 44 49 55
REMARK Flexibility Score: inf
ROOT
ATOM      1  C   UNL A   1      44.717  44.127  23.764  1.00  0.00     0.188 C 
ENDROOT
BRANCH   1   2
ATOM      2  C   UNL A   1      44.007  43.899  22.414  1.00  0.00     0.188 C 
BRANCH   2   3
ATOM      3  O   UNL A   1      43.814  42.532  22.079  1.00  0.00    -0.376 OA
BRANCH   3   4
ATOM      4  C   UNL A   1      44.162  42.123  20.766  1.00  0.00     0.202 C 
BRANCH   4   5
ATOM      5  C   UNL A   1      44.284  43.273  19.762  1.00  0.00     0.261 C 
BRANCH   5   6
ATOM      6  O   UNL A   1      43.010  43.600  19.182  1.00  0.00    -0.458 OA
BRANCH   6   7
ATOM      7  C   UNL A   1      42.957  43.985  17.872  1.00  0.00     0.383 C 
ATOM      8  O   UNL A   1      43.681  43.521  16.997  1.00  0.00    -0.244 OA
BRANCH   7   9
ATOM      9  C   UNL A   1      41.824  45.001  17.660  1.00  0.00     0.382 C 
ATOM     10  F   UNL A   1      41.036  45.055  18.781  1.00  0.00    -0.186 F 
ATOM     11  F   UNL A   1      40.971  44.560  16.676  1.00  0.00    -0.186 F 
BRANCH   9  12
ATOM     12  C   UNL A   1      42.237  46.427  17.300  1.00  0.00     0.100 A 
ATOM     13  C   UNL A   1      43.104  48.538  17.308  1.00  0.00     0.084 A 
ATOM     14  C   UNL A   1      42.056  48.502  16.405  1.00  0.00     0.032 A 
ATOM     15  N   UNL A   1      43.270  47.233  17.776  1.00  0.00    -0.340 N 
ATOM     16  C   UNL A   1      41.533  47.203  16.386  1.00  0.00     0.031 A 
ATOM     17  C   UNL A   1      44.368  46.860  18.637  1.00  0.00     0.150 C 
BRANCH  13  18
ATOM     18  C   UNL A   1      43.809  49.774  17.670  1.00  0.00     0.176 C 
ATOM     19  C   UNL A   1      43.616  50.387  19.029  1.00  0.00     0.095 C 
ATOM     20  O   UNL A   1      44.579  50.314  16.875  1.00  0.00    -0.293 OA
ENDBRANCH  13  18
ENDBRANCH   9  12
ENDBRANCH   7   9
ENDBRANCH   6   7
ENDBRANCH   5   6
ENDBRANCH   4   5
ENDBRANCH   3   4
ENDBRANCH   2   3
ENDBRANCH   1   2
BRANCH   1  21
ATOM     21  O   UNL A   1      44.148  43.593  24.952  1.00  0.00    -0.376 OA
BRANCH  21  22
ATOM     22  C   UNL A   1      43.740  42.230  24.967  1.00  0.00     0.202 C 
BRANCH  22  23
ATOM     23  C   UNL A   1      43.827  41.455  26.288  1.00  0.00     0.261 C 
BRANCH  23  24
ATOM     24  O   UNL A   1      42.581  41.314  27.000  1.00  0.00    -0.460 OA
BRANCH  24  25
ATOM     25  C   UNL A   1      41.836  40.237  26.662  1.00  0.00     0.338 C 
ATOM     26  O   UNL A   1      40.902  40.209  25.865  1.00  0.00    -0.246 OA
BRANCH  25  27
ATOM     27  C   UNL A   1      42.353  39.007  27.292  1.00  0.00     0.060 A 
ATOM     28  C   UNL A   1      42.262  37.799  26.587  1.00  0.00     0.016 A 
ATOM     29  C   UNL A   1      42.778  39.013  28.622  1.00  0.00     0.016 A 
ATOM     30  C   UNL A   1      42.552  36.590  27.225  1.00  0.00     0.010 A 
ATOM     31  C   UNL A   1      43.048  37.798  29.266  1.00  0.00     0.010 A 
ATOM     32  C   UNL A   1      42.899  36.578  28.585  1.00  0.00    -0.014 A 
BRANCH  32  33
ATOM     33  C   UNL A   1      42.976  35.287  29.317  1.00  0.00     0.031 A 
ATOM     34  C   UNL A   1      44.312  34.677  29.611  1.00  0.00     0.074 A 
ATOM     35  C   UNL A   1      41.865  34.616  29.666  1.00  0.00     0.049 A 
ATOM     36  N   UNL A   1      44.587  33.555  30.221  1.00  0.00    -0.248 NA
ATOM     37  C   UNL A   1      45.486  35.393  29.092  1.00  0.00     0.031 C 
ATOM     38  C   UNL A   1      40.521  35.019  29.290  1.00  0.00     0.029 A 
ATOM     39  N   UNL A   1      41.685  33.458  30.385  1.00  0.00    -0.354 N 
ATOM     40  C   UNL A   1      45.954  33.374  30.075  1.00  0.00     0.074 A 
ATOM     41  C   UNL A   1      46.456  34.531  29.360  1.00  0.00     0.031 C 
ATOM     42  C   UNL A   1      39.646  34.155  29.827  1.00  0.00     0.029 A 
ATOM     43  C   UNL A   1      40.362  33.134  30.582  1.00  0.00     0.049 A 
ATOM     44  H   UNL A   1      42.431  32.913  30.725  1.00  0.00     0.167 HD
ATOM     45  C   UNL A   1      46.712  32.323  30.465  1.00  0.00     0.034 A 
ATOM     46  C   UNL A   1      39.787  32.137  31.287  1.00  0.00     0.034 A 
ATOM     47  C   UNL A   1      46.212  31.181  31.184  1.00  0.00     0.049 A 
ATOM     48  C   UNL A   1      40.668  31.086  31.901  1.00  0.00     0.074 A 
ATOM     49  C   UNL A   1      46.921  30.100  31.681  1.00  0.00     0.029 A 
ATOM     50  N   UNL A   1      44.879  30.955  31.494  1.00  0.00    -0.354 N 
ATOM     51  N   UNL A   1      41.974  30.989  31.861  1.00  0.00    -0.248 NA
ATOM     52  C   UNL A   1      40.005  29.990  32.621  1.00  0.00     0.031 C 
ATOM     53  C   UNL A   1      46.014  29.210  32.266  1.00  0.00     0.029 A 
ATOM     54  C   UNL A   1      44.742  29.750  32.168  1.00  0.00     0.049 A 
ATOM     55  H   UNL A   1      44.137  31.561  31.267  1.00  0.00     0.167 HD
ATOM     56  C   UNL A   1      42.288  29.805  32.514  1.00  0.00     0.074 A 
ATOM     57  C   UNL A   1      41.041  29.253  33.002  1.00  0.00     0.031 C 
ATOM     58  C   UNL A   1      43.498  29.209  32.655  1.00  0.00     0.034 A 
BRANCH  45  59
ATOM     59  C   UNL A   1      48.168  32.355  30.084  1.00  0.00     0.023 A 
ATOM     60  C   UNL A   1      49.128  32.846  30.991  1.00  0.00     0.012 A 
ATOM     61  C   UNL A   1      48.581  31.902  28.816  1.00  0.00     0.148 A 
ATOM     62  C   UNL A   1      50.470  32.931  30.624  1.00  0.00     0.002 A 
ATOM     63  C   UNL A   1      49.928  31.944  28.476  1.00  0.00     0.091 A 
ATOM     64  F   UNL A   1      47.651  31.468  27.954  1.00  0.00    -0.205 F 
ATOM     65  C   UNL A   1      50.871  32.473  29.372  1.00  0.00     0.022 A 
BRANCH  63  66
ATOM     66  S   UNL A   1      50.544  31.304  26.915  1.00  0.00     0.127 S 
ATOM     67  O   UNL A   1      50.174  32.373  25.989  1.00  0.00    -0.237 OA
ATOM     68  O   UNL A   1      51.981  31.192  27.173  1.00  0.00    -0.237 OA
ATOM     69  O   UNL A   1      49.867  30.030  26.712  1.00  0.00    -0.744 OA
ENDBRANCH  63  66
ENDBRANCH  45  59
BRANCH  46  70
ATOM     70  C   UNL A   1      38.306  32.123  31.489  1.00  0.00     0.023 A 
ATOM     71  C   UNL A   1      37.524  31.161  30.816  1.00  0.00     0.012 A 
ATOM     72  C   UNL A   1      37.677  32.981  32.408  1.00  0.00     0.148 A 
ATOM     73  C   UNL A   1      36.152  31.058  31.057  1.00  0.00     0.002 A 
ATOM     74  C   UNL A   1      36.333  32.807  32.717  1.00  0.00     0.091 A 
ATOM     75  F   UNL A   1      38.418  33.926  33.005  1.00  0.00    -0.205 F 
ATOM     76  C   UNL A   1      35.561  31.863  32.027  1.00  0.00     0.022 A 
BRANCH  74  77
ATOM     77  S   UNL A   1      35.586  33.628  34.131  1.00  0.00     0.127 S 
ATOM     78  O   UNL A   1      36.373  33.101  35.241  1.00  0.00    -0.237 OA
ATOM     79  O   UNL A   1      35.815  35.041  33.825  1.00  0.00    -0.237 OA
ATOM     80  O   UNL A   1      34.181  33.243  34.096  1.00  0.00    -0.744 OA
ENDBRANCH  74  77
ENDBRANCH  46  70
BRANCH  58  81
ATOM     81  C   UNL A   1      43.531  27.870  33.341  1.00  0.00     0.023 A 
ATOM     82  C   UNL A   1      43.933  26.727  32.621  1.00  0.00     0.012 A 
ATOM     83  C   UNL A   1      43.226  27.753  34.710  1.00  0.00     0.148 A 
ATOM     84  C   UNL A   1      44.001  25.482  33.246  1.00  0.00     0.002 A 
ATOM     85  C   UNL A   1      43.339  26.517  35.337  1.00  0.00     0.091 A 
ATOM     86  F   UNL A   1      42.827  28.848  35.372  1.00  0.00    -0.205 F 
ATOM     87  C   UNL A   1      43.716  25.379  34.605  1.00  0.00     0.022 A 
BRANCH  85  88
ATOM     88  S   UNL A   1      43.072  26.306  37.101  1.00  0.00     0.127 S 
ATOM     89  O   UNL A   1      43.432  24.902  37.289  1.00  0.00    -0.237 OA
ATOM     90  O   UNL A   1      44.020  27.261  37.674  1.00  0.00    -0.237 OA
ATOM     91  O   UNL A   1      41.672  26.629  37.337  1.00  0.00    -0.744 OA
ENDBRANCH  85  88
ENDBRANCH  58  81
ENDBRANCH  32  33
ENDBRANCH  25  27
ENDBRANCH  24  25
ENDBRANCH  23  24
ENDBRANCH  22  23
ENDBRANCH  21  22
ENDBRANCH   1  21
TORSDOF 22
ENDMDL
MODEL 3
REMARK VINA RESULT:      -8.3      5.486     11.464
REMARK SMILES CC(=O)c1ccc(C(F)(F)C(=O)OCCOCCOCCOC(=O)c2ccc(-c3c4nc(c(-c5cccc(S(=O)(=O)[O-])c5F)c5ccc([nH]5)c(-c5cccc(S(=O)(=O)[O-])c5F)c5nc(c(-c6cccc(S(=O)(=O)[O-])c6F)c6ccc3[nH]6)C=C5)C=C4)cc2)n1C
REMARK SMILES IDX 18 1 17 2 16 3 15 4 14 5 13 6 11 7 12 8 8 9 9 10 10 11 7 12
REMARK SMILES IDX 4 13 5 14 88 15 6 16 89 17 2 18 1 19 3 20 19 21 20 22 21 23
REMARK SMILES IDX 22 24 23 25 24 26 25 27 26 28 87 29 27 30 86 31 28 32 29 33
REMARK SMILES IDX 30 34 80 35 31 36 85 37 79 38 81 39 32 40 84 41 78 42 77 43
REMARK SMILES IDX 33 45 65 46 45 47 64 48 46 49 49 50 63 51 82 52 47 53 48 54
REMARK SMILES IDX 62 56 83 57 50 58 34 59 35 60 43 61 36 62 38 63 44 64 37 65
REMARK SMILES IDX 39 66 40 67 41 68 42 69 66 70 67 71 75 72 68 73 70 74 76 75
REMARK SMILES IDX 69 76 71 77 72 78 73 79 74 80 51 81 52 82 60 83 53 84 55 85
REMARK SMILES IDX 61 86 54 87 56 88 57 89 58 90 59 91
REMARK H PARENT 81 44 49 55
REMARK Flexibility Score: inf
ROOT
ATOM      1  C   UNL A   1      39.410  32.653  40.871  1.00  0.00     0.188 C 
ENDROOT
BRANCH   1   2
ATOM      2  C   UNL A   1      38.339  32.613  39.762  1.00  0.00     0.188 C 
BRANCH   2   3
ATOM      3  O   UNL A   1      38.850  32.334  38.466  1.00  0.00    -0.376 OA
BRANCH   3   4
ATOM      4  C   UNL A   1      37.911  32.121  37.424  1.00  0.00     0.202 C 
BRANCH   4   5
ATOM      5  C   UNL A   1      37.245  33.400  36.907  1.00  0.00     0.261 C 
BRANCH   5   6
ATOM      6  O   UNL A   1      36.628  33.188  35.625  1.00  0.00    -0.458 OA
BRANCH   6   7
ATOM      7  C   UNL A   1      37.280  33.606  34.500  1.00  0.00     0.383 C 
ATOM      8  O   UNL A   1      37.458  34.786  34.215  1.00  0.00    -0.244 OA
BRANCH   7   9
ATOM      9  C   UNL A   1      37.813  32.398  33.713  1.00  0.00     0.382 C 
ATOM     10  F   UNL A   1      37.504  31.240  34.379  1.00  0.00    -0.186 F 
ATOM     11  F   UNL A   1      39.188  32.413  33.696  1.00  0.00    -0.186 F 
BRANCH   9  12
ATOM     12  C   UNL A   1      37.340  32.256  32.267  1.00  0.00     0.100 A 
ATOM     13  C   UNL A   1      37.072  31.631  30.089  1.00  0.00     0.084 A 
ATOM     14  C   UNL A   1      36.551  32.904  30.244  1.00  0.00     0.032 A 
ATOM     15  N   UNL A   1      37.462  31.205  31.359  1.00  0.00    -0.340 N 
ATOM     16  C   UNL A   1      36.700  33.283  31.584  1.00  0.00     0.031 A 
ATOM     17  C   UNL A   1      37.926  29.860  31.609  1.00  0.00     0.150 C 
BRANCH  13  18
ATOM     18  C   UNL A   1      37.190  30.966  28.786  1.00  0.00     0.176 C 
ATOM     19  C   UNL A   1      35.966  30.716  27.949  1.00  0.00     0.095 C 
ATOM     20  O   UNL A   1      38.290  30.623  28.353  1.00  0.00    -0.293 OA
ENDBRANCH  13  18
ENDBRANCH   9  12
ENDBRANCH   7   9
ENDBRANCH   6   7
ENDBRANCH   5   6
ENDBRANCH   4   5
ENDBRANCH   3   4
ENDBRANCH   2   3
ENDBRANCH   1   2
BRANCH   1  21
ATOM     21  O   UNL A   1      40.762  32.355  40.547  1.00  0.00    -0.376 OA
BRANCH  21  22
ATOM     22  C   UNL A   1      41.640  33.421  40.209  1.00  0.00     0.202 C 
BRANCH  22  23
ATOM     23  C   UNL A   1      41.240  34.850  40.597  1.00  0.00     0.261 C 
BRANCH  23  24
ATOM     24  O   UNL A   1      40.350  35.510  39.674  1.00  0.00    -0.460 OA
BRANCH  24  25
ATOM     25  C   UNL A   1      40.922  36.445  38.882  1.00  0.00     0.338 C 
ATOM     26  O   UNL A   1      41.174  37.609  39.183  1.00  0.00    -0.246 OA
BRANCH  25  27
ATOM     27  C   UNL A   1      41.339  35.873  37.588  1.00  0.00     0.060 A 
ATOM     28  C   UNL A   1      40.354  35.383  36.719  1.00  0.00     0.016 A 
ATOM     29  C   UNL A   1      42.691  35.676  37.299  1.00  0.00     0.016 A 
ATOM     30  C   UNL A   1      40.719  34.655  35.583  1.00  0.00     0.010 A 
ATOM     31  C   UNL A   1      43.054  34.929  36.170  1.00  0.00     0.010 A 
ATOM     32  C   UNL A   1      42.071  34.380  35.329  1.00  0.00    -0.014 A 
BRANCH  32  33
ATOM     33  C   UNL A   1      42.442  33.415  34.261  1.00  0.00     0.031 A 
ATOM     34  C   UNL A   1      42.803  33.917  32.897  1.00  0.00     0.074 A 
ATOM     35  C   UNL A   1      42.393  32.089  34.472  1.00  0.00     0.049 A 
ATOM     36  N   UNL A   1      43.138  33.237  31.833  1.00  0.00    -0.248 NA
ATOM     37  C   UNL A   1      42.713  35.370  32.690  1.00  0.00     0.031 C 
ATOM     38  C   UNL A   1      41.898  31.479  35.694  1.00  0.00     0.029 A 
ATOM     39  N   UNL A   1      42.739  31.024  33.675  1.00  0.00    -0.354 N 
ATOM     40  C   UNL A   1      43.201  34.163  30.802  1.00  0.00     0.074 A 
ATOM     41  C   UNL A   1      42.918  35.460  31.384  1.00  0.00     0.031 C 
ATOM     42  C   UNL A   1      42.021  30.147  35.591  1.00  0.00     0.029 A 
ATOM     43  C   UNL A   1      42.600  29.804  34.298  1.00  0.00     0.049 A 
ATOM     44  H   UNL A   1      43.055  31.123  32.748  1.00  0.00     0.167 HD
ATOM     45  C   UNL A   1      43.434  33.945  29.486  1.00  0.00     0.034 A 
ATOM     46  C   UNL A   1      42.902  28.555  33.884  1.00  0.00     0.034 A 
ATOM     47  C   UNL A   1      43.724  32.657  28.913  1.00  0.00     0.049 A 
ATOM     48  C   UNL A   1      43.369  28.358  32.470  1.00  0.00     0.074 A 
ATOM     49  C   UNL A   1      44.041  32.353  27.600  1.00  0.00     0.029 A 
ATOM     50  N   UNL A   1      43.716  31.456  29.606  1.00  0.00    -0.354 N 
ATOM     51  N   UNL A   1      43.544  29.257  31.533  1.00  0.00    -0.248 NA
ATOM     52  C   UNL A   1      43.644  26.979  32.039  1.00  0.00     0.031 C 
ATOM     53  C   UNL A   1      44.198  30.967  27.495  1.00  0.00     0.029 A 
ATOM     54  C   UNL A   1      44.015  30.407  28.749  1.00  0.00     0.049 A 
ATOM     55  H   UNL A   1      43.524  31.361  30.568  1.00  0.00     0.167 HD
ATOM     56  C   UNL A   1      43.910  28.554  30.393  1.00  0.00     0.074 A 
ATOM     57  C   UNL A   1      44.001  27.159  30.773  1.00  0.00     0.031 C 
ATOM     58  C   UNL A   1      44.108  29.021  29.136  1.00  0.00     0.034 A 
BRANCH  45  59
ATOM     59  C   UNL A   1      43.346  35.138  28.573  1.00  0.00     0.023 A 
ATOM     60  C   UNL A   1      42.099  35.546  28.057  1.00  0.00     0.012 A 
ATOM     61  C   UNL A   1      44.507  35.852  28.221  1.00  0.00     0.148 A 
ATOM     62  C   UNL A   1      42.017  36.615  27.167  1.00  0.00     0.002 A 
ATOM     63  C   UNL A   1      44.411  36.948  27.371  1.00  0.00     0.091 A 
ATOM     64  F   UNL A   1      45.688  35.432  28.695  1.00  0.00    -0.205 F 
ATOM     65  C   UNL A   1      43.169  37.320  26.830  1.00  0.00     0.022 A 
BRANCH  63  66
ATOM     66  S   UNL A   1      45.831  37.961  26.946  1.00  0.00     0.127 S 
ATOM     67  O   UNL A   1      45.193  39.118  26.321  1.00  0.00    -0.237 OA
ATOM     68  O   UNL A   1      46.423  38.227  28.258  1.00  0.00    -0.237 OA
ATOM     69  O   UNL A   1      46.656  37.143  26.068  1.00  0.00    -0.744 OA
ENDBRANCH  63  66
ENDBRANCH  45  59
BRANCH  46  70
ATOM     70  C   UNL A   1      42.820  27.410  34.841  1.00  0.00     0.023 A 
ATOM     71  C   UNL A   1      41.648  26.628  34.886  1.00  0.00     0.012 A 
ATOM     72  C   UNL A   1      43.917  27.029  35.632  1.00  0.00     0.148 A 
ATOM     73  C   UNL A   1      41.574  25.494  35.699  1.00  0.00     0.002 A 
ATOM     74  C   UNL A   1      43.873  25.845  36.360  1.00  0.00     0.091 A 
ATOM     75  F   UNL A   1      45.010  27.807  35.623  1.00  0.00    -0.205 F 
ATOM     76  C   UNL A   1      42.696  25.087  36.416  1.00  0.00     0.022 A 
BRANCH  74  77
ATOM     77  S   UNL A   1      45.359  25.140  37.086  1.00  0.00     0.127 S 
ATOM     78  O   UNL A   1      46.139  26.331  37.406  1.00  0.00    -0.237 OA
ATOM     79  O   UNL A   1      44.825  24.420  38.244  1.00  0.00    -0.237 OA
ATOM     80  O   UNL A   1      45.908  24.266  36.057  1.00  0.00    -0.744 OA
ENDBRANCH  74  77
ENDBRANCH  46  70
BRANCH  58  81
ATOM     81  C   UNL A   1      44.413  28.008  28.064  1.00  0.00     0.023 A 
ATOM     82  C   UNL A   1      45.755  27.709  27.750  1.00  0.00     0.012 A 
ATOM     83  C   UNL A   1      43.378  27.310  27.415  1.00  0.00     0.148 A 
ATOM     84  C   UNL A   1      46.060  26.751  26.784  1.00  0.00     0.002 A 
ATOM     85  C   UNL A   1      43.691  26.325  26.485  1.00  0.00     0.091 A 
ATOM     86  F   UNL A   1      42.110  27.623  27.715  1.00  0.00    -0.205 F 
ATOM     87  C   UNL A   1      45.030  26.051  26.161  1.00  0.00     0.022 A 
BRANCH  85  88
ATOM     88  S   UNL A   1      42.433  25.316  25.694  1.00  0.00     0.127 S 
ATOM     89  O   UNL A   1      41.733  24.755  26.849  1.00  0.00    -0.237 OA
ATOM     90  O   UNL A   1      41.667  26.309  24.941  1.00  0.00    -0.237 OA
ATOM     91  O   UNL A   1      43.150  24.354  24.870  1.00  0.00    -0.744 OA
ENDBRANCH  85  88
ENDBRANCH  58  81
ENDBRANCH  32  33
ENDBRANCH  25  27
ENDBRANCH  24  25
ENDBRANCH  23  24
ENDBRANCH  22  23
ENDBRANCH  21  22
ENDBRANCH   1  21
TORSDOF 22
ENDMDL
