MODEL 1
REMARK VINA RESULT:      -9.2      0.000      0.000
REMARK SMILES CCc1nsc(NC[C@H](CC(C)C)C(=O)OCCOCCOCCOC(=O)c2ccc(-c3c4nc(c(-c5cccc(S(=O)(=O)[O-])c5F)c5ccc([nH]5)c(-c5cccc(S(=O)(=O)[O-])c5F)c5nc(c(-c6cccc(S(=O)(=O)[O-])c6F)c6ccc3[nH]6)C=C5)C=C4)cc2)n1
REMARK SMILES IDX 20 1 19 2 18 3 17 4 16 5 14 6 15 7 9 8 8 9 7 10 6 12 3 13
REMARK SMILES IDX 4 14 91 15 5 16 2 17 1 18 10 19 11 20 12 21 13 22 21 23
REMARK SMILES IDX 22 24 23 25 24 26 25 27 26 28 27 29 28 30 29 31 90 32 30 33
REMARK SMILES IDX 89 34 31 35 32 36 33 37 83 38 34 39 88 40 82 41 84 42 35 43
REMARK SMILES IDX 87 44 81 45 80 46 36 48 68 49 48 50 67 51 49 52 52 53 66 54
REMARK SMILES IDX 85 55 50 56 51 57 65 59 86 60 53 61 37 62 38 63 46 64 39 65
REMARK SMILES IDX 41 66 47 67 40 68 42 69 43 70 44 71 45 72 69 73 70 74 78 75
REMARK SMILES IDX 71 76 73 77 79 78 72 79 74 80 75 81 76 82 77 83 54 84 55 85
REMARK SMILES IDX 63 86 56 87 58 88 64 89 57 90 59 91 60 92 61 93 62 94
REMARK H PARENT 7 11 84 47 52 58
REMARK Flexibility Score: inf
ROOT
ATOM      1  C   UNL A   1      31.263  28.898  24.303  1.00  0.00     0.188 C 
ENDROOT
BRANCH   1   2
ATOM      2  O   UNL A   1      31.763  27.677  23.776  1.00  0.00    -0.376 OA
BRANCH   2   3
ATOM      3  C   UNL A   1      32.676  27.775  22.679  1.00  0.00     0.202 C 
BRANCH   3   4
ATOM      4  C   UNL A   1      32.787  26.543  21.772  1.00  0.00     0.261 C 
BRANCH   4   5
ATOM      5  O   UNL A   1      33.845  25.655  22.213  1.00  0.00    -0.463 OA
BRANCH   5   6
ATOM      6  C   UNL A   1      33.503  24.375  22.442  1.00  0.00     0.310 C 
ATOM      7  O   UNL A   1      33.486  23.511  21.568  1.00  0.00    -0.252 OA
BRANCH   6   8
ATOM      8  C   UNL A   1      33.047  24.047  23.847  1.00  0.00     0.118 C 
BRANCH   8   9
ATOM      9  C   UNL A   1      33.867  22.791  24.213  1.00  0.00     0.130 C 
BRANCH   9  10
ATOM     10  N   UNL A   1      33.247  21.599  23.682  1.00  0.00    -0.359 N 
ATOM     11  H   UNL A   1      32.923  21.635  22.752  1.00  0.00     0.162 HD
BRANCH  10  12
ATOM     12  C   UNL A   1      33.073  20.445  24.351  1.00  0.00     0.202 A 
ATOM     13  C   UNL A   1      32.907  18.269  24.650  1.00  0.00     0.144 A 
ATOM     14  N   UNL A   1      32.724  18.566  25.939  1.00  0.00    -0.174 NA
ATOM     15  N   UNL A   1      33.105  19.288  23.734  1.00  0.00    -0.204 NA
ATOM     16  S   UNL A   1      32.808  20.230  26.046  1.00  0.00     0.004 S 
BRANCH  13  17
ATOM     17  C   UNL A   1      32.860  16.854  24.187  1.00  0.00     0.075 C 
ATOM     18  C   UNL A   1      34.116  16.422  23.444  1.00  0.00     0.012 C 
ENDBRANCH  13  17
ENDBRANCH  10  12
ENDBRANCH   9  10
ENDBRANCH   8   9
BRANCH   8  19
ATOM     19  C   UNL A   1      31.584  23.838  24.310  1.00  0.00     0.020 C 
BRANCH  19  20
ATOM     20  C   UNL A   1      30.999  24.515  25.563  1.00  0.00    -0.017 C 
ATOM     21  C   UNL A   1      30.481  23.498  26.588  1.00  0.00     0.007 C 
ATOM     22  C   UNL A   1      32.107  25.324  26.264  1.00  0.00     0.007 C 
ENDBRANCH  19  20
ENDBRANCH   8  19
ENDBRANCH   6   8
ENDBRANCH   5   6
ENDBRANCH   4   5
ENDBRANCH   3   4
ENDBRANCH   2   3
ENDBRANCH   1   2
BRANCH   1  23
ATOM     23  C   UNL A   1      31.836  29.327  25.652  1.00  0.00     0.188 C 
BRANCH  23  24
ATOM     24  O   UNL A   1      31.476  30.647  26.065  1.00  0.00    -0.376 OA
BRANCH  24  25
ATOM     25  C   UNL A   1      32.436  31.236  26.948  1.00  0.00     0.202 C 
BRANCH  25  26
ATOM     26  C   UNL A   1      32.132  32.707  27.262  1.00  0.00     0.261 C 
BRANCH  26  27
ATOM     27  O   UNL A   1      33.343  33.466  27.384  1.00  0.00    -0.460 OA
BRANCH  27  28
ATOM     28  C   UNL A   1      33.428  34.231  28.507  1.00  0.00     0.338 C 
ATOM     29  O   UNL A   1      32.625  35.055  28.891  1.00  0.00    -0.246 OA
BRANCH  28  30
ATOM     30  C   UNL A   1      34.586  33.771  29.318  1.00  0.00     0.060 A 
ATOM     31  C   UNL A   1      35.854  34.270  28.988  1.00  0.00     0.016 A 
ATOM     32  C   UNL A   1      34.433  32.919  30.417  1.00  0.00     0.016 A 
ATOM     33  C   UNL A   1      36.973  33.902  29.740  1.00  0.00     0.010 A 
ATOM     34  C   UNL A   1      35.551  32.554  31.169  1.00  0.00     0.010 A 
ATOM     35  C   UNL A   1      36.830  33.020  30.817  1.00  0.00    -0.014 A 
BRANCH  35  36
ATOM     36  C   UNL A   1      38.020  32.448  31.492  1.00  0.00     0.031 A 
ATOM     37  C   UNL A   1      38.716  31.285  30.841  1.00  0.00     0.074 A 
ATOM     38  C   UNL A   1      38.437  32.908  32.686  1.00  0.00     0.049 A 
ATOM     39  N   UNL A   1      39.705  30.557  31.284  1.00  0.00    -0.248 NA
ATOM     40  C   UNL A   1      38.217  30.880  29.515  1.00  0.00     0.031 C 
ATOM     41  C   UNL A   1      37.838  34.018  33.423  1.00  0.00     0.029 A 
ATOM     42  N   UNL A   1      39.444  32.461  33.507  1.00  0.00    -0.354 N 
ATOM     43  C   UNL A   1      39.922  29.585  30.315  1.00  0.00     0.074 A 
ATOM     44  C   UNL A   1      38.958  29.813  29.262  1.00  0.00     0.031 C 
ATOM     45  C   UNL A   1      38.461  34.140  34.608  1.00  0.00     0.029 A 
ATOM     46  C   UNL A   1      39.484  33.101  34.724  1.00  0.00     0.049 A 
ATOM     47  H   UNL A   1      40.075  31.751  33.249  1.00  0.00     0.167 HD
ATOM     48  C   UNL A   1      40.847  28.598  30.298  1.00  0.00     0.034 A 
ATOM     49  C   UNL A   1      40.238  32.854  35.815  1.00  0.00     0.034 A 
ATOM     50  C   UNL A   1      41.820  28.389  31.335  1.00  0.00     0.049 A 
ATOM     51  C   UNL A   1      41.257  31.742  35.773  1.00  0.00     0.074 A 
ATOM     52  C   UNL A   1      42.846  27.463  31.372  1.00  0.00     0.029 A 
ATOM     53  N   UNL A   1      41.877  29.100  32.522  1.00  0.00    -0.354 N 
ATOM     54  N   UNL A   1      41.548  30.924  34.790  1.00  0.00    -0.248 NA
ATOM     55  C   UNL A   1      42.071  31.536  36.981  1.00  0.00     0.031 C 
ATOM     56  C   UNL A   1      43.504  27.593  32.600  1.00  0.00     0.029 A 
ATOM     57  C   UNL A   1      42.907  28.622  33.310  1.00  0.00     0.049 A 
ATOM     58  H   UNL A   1      41.273  29.839  32.768  1.00  0.00     0.167 HD
ATOM     59  C   UNL A   1      42.598  30.133  35.248  1.00  0.00     0.074 A 
ATOM     60  C   UNL A   1      42.906  30.584  36.588  1.00  0.00     0.031 C 
ATOM     61  C   UNL A   1      43.240  29.116  34.622  1.00  0.00     0.034 A 
BRANCH  48  62
ATOM     62  C   UNL A   1      40.864  27.677  29.110  1.00  0.00     0.023 A 
ATOM     63  C   UNL A   1      39.956  26.601  29.046  1.00  0.00     0.012 A 
ATOM     64  C   UNL A   1      41.739  27.912  28.032  1.00  0.00     0.148 A 
ATOM     65  C   UNL A   1      39.937  25.756  27.937  1.00  0.00     0.002 A 
ATOM     66  C   UNL A   1      41.683  27.092  26.912  1.00  0.00     0.091 A 
ATOM     67  F   UNL A   1      42.611  28.925  28.126  1.00  0.00    -0.205 F 
ATOM     68  C   UNL A   1      40.791  26.008  26.867  1.00  0.00     0.022 A 
BRANCH  66  69
ATOM     69  S   UNL A   1      42.687  27.380  25.451  1.00  0.00     0.127 S 
ATOM     70  O   UNL A   1      44.009  27.590  26.040  1.00  0.00    -0.237 OA
ATOM     71  O   UNL A   1      42.537  26.121  24.723  1.00  0.00    -0.237 OA
ATOM     72  O   UNL A   1      42.110  28.540  24.786  1.00  0.00    -0.744 OA
ENDBRANCH  66  69
ENDBRANCH  48  62
BRANCH  49  73
ATOM     73  C   UNL A   1      40.074  33.685  37.042  1.00  0.00     0.023 A 
ATOM     74  C   UNL A   1      38.957  33.484  37.875  1.00  0.00     0.012 A 
ATOM     75  C   UNL A   1      41.017  34.673  37.386  1.00  0.00     0.148 A 
ATOM     76  C   UNL A   1      38.763  34.275  39.009  1.00  0.00     0.002 A 
ATOM     77  C   UNL A   1      40.848  35.419  38.547  1.00  0.00     0.091 A 
ATOM     78  F   UNL A   1      42.064  34.863  36.570  1.00  0.00    -0.205 F 
ATOM     79  C   UNL A   1      39.713  35.235  39.351  1.00  0.00     0.022 A 
BRANCH  77  80
ATOM     80  S   UNL A   1      42.080  36.591  39.127  1.00  0.00     0.127 S 
ATOM     81  O   UNL A   1      41.396  37.210  40.259  1.00  0.00    -0.237 OA
ATOM     82  O   UNL A   1      43.191  35.708  39.485  1.00  0.00    -0.237 OA
ATOM     83  O   UNL A   1      42.352  37.466  37.995  1.00  0.00    -0.744 OA
ENDBRANCH  77  80
ENDBRANCH  49  73
BRANCH  61  84
ATOM     84  C   UNL A   1      44.368  28.434  35.352  1.00  0.00     0.023 A 
ATOM     85  C   UNL A   1      45.696  28.852  35.139  1.00  0.00     0.012 A 
ATOM     86  C   UNL A   1      44.102  27.444  36.319  1.00  0.00     0.148 A 
ATOM     87  C   UNL A   1      46.744  28.278  35.858  1.00  0.00     0.002 A 
ATOM     88  C   UNL A   1      45.145  26.911  37.067  1.00  0.00     0.091 A 
ATOM     89  F   UNL A   1      42.833  27.049  36.497  1.00  0.00    -0.205 F 
ATOM     90  C   UNL A   1      46.468  27.317  36.829  1.00  0.00     0.022 A 
BRANCH  88  91
ATOM     91  S   UNL A   1      44.875  25.745  38.407  1.00  0.00     0.127 S 
ATOM     92  O   UNL A   1      46.238  25.520  38.885  1.00  0.00    -0.237 OA
ATOM     93  O   UNL A   1      44.027  26.513  39.320  1.00  0.00    -0.237 OA
ATOM     94  O   UNL A   1      44.225  24.587  37.808  1.00  0.00    -0.744 OA
ENDBRANCH  88  91
ENDBRANCH  61  84
ENDBRANCH  35  36
ENDBRANCH  28  30
ENDBRANCH  27  28
ENDBRANCH  26  27
ENDBRANCH  25  26
ENDBRANCH  24  25
ENDBRANCH  23  24
ENDBRANCH   1  23
TORSDOF 26
ENDMDL
MODEL 2
REMARK VINA RESULT:      -9.2      3.270      8.570
REMARK SMILES CCc1nsc(NC[C@H](CC(C)C)C(=O)OCCOCCOCCOC(=O)c2ccc(-c3c4nc(c(-c5cccc(S(=O)(=O)[O-])c5F)c5ccc([nH]5)c(-c5cccc(S(=O)(=O)[O-])c5F)c5nc(c(-c6cccc(S(=O)(=O)[O-])c6F)c6ccc3[nH]6)C=C5)C=C4)cc2)n1
REMARK SMILES IDX 20 1 19 2 18 3 17 4 16 5 14 6 15 7 9 8 8 9 7 10 6 12 3 13
REMARK SMILES IDX 4 14 91 15 5 16 2 17 1 18 10 19 11 20 12 21 13 22 21 23
REMARK SMILES IDX 22 24 23 25 24 26 25 27 26 28 27 29 28 30 29 31 90 32 30 33
REMARK SMILES IDX 89 34 31 35 32 36 33 37 83 38 34 39 88 40 82 41 84 42 35 43
REMARK SMILES IDX 87 44 81 45 80 46 36 48 68 49 48 50 67 51 49 52 52 53 66 54
REMARK SMILES IDX 85 55 50 56 51 57 65 59 86 60 53 61 37 62 38 63 46 64 39 65
REMARK SMILES IDX 41 66 47 67 40 68 42 69 43 70 44 71 45 72 69 73 70 74 78 75
REMARK SMILES IDX 71 76 73 77 79 78 72 79 74 80 75 81 76 82 77 83 54 84 55 85
REMARK SMILES IDX 63 86 56 87 58 88 64 89 57 90 59 91 60 92 61 93 62 94
REMARK H PARENT 7 11 84 47 52 58
REMARK Flexibility Score: inf
ROOT
ATOM      1  C   UNL A   1      31.731  27.603  23.216  1.00  0.00     0.188 C 
ENDROOT
BRANCH   1   2
ATOM      2  O   UNL A   1      31.474  26.474  24.040  1.00  0.00    -0.376 OA
BRANCH   2   3
ATOM      3  C   UNL A   1      30.127  26.297  24.486  1.00  0.00     0.202 C 
BRANCH   3   4
ATOM      4  C   UNL A   1      29.940  25.510  25.790  1.00  0.00     0.261 C 
BRANCH   4   5
ATOM      5  O   UNL A   1      30.378  24.135  25.645  1.00  0.00    -0.463 OA
BRANCH   5   6
ATOM      6  C   UNL A   1      31.413  23.747  26.410  1.00  0.00     0.310 C 
ATOM      7  O   UNL A   1      31.454  23.907  27.628  1.00  0.00    -0.252 OA
BRANCH   6   8
ATOM      8  C   UNL A   1      32.599  23.158  25.678  1.00  0.00     0.118 C 
BRANCH   8   9
ATOM      9  C   UNL A   1      32.293  21.645  25.645  1.00  0.00     0.130 C 
BRANCH   9  10
ATOM     10  N   UNL A   1      33.408  20.906  25.100  1.00  0.00    -0.359 N 
ATOM     11  H   UNL A   1      34.310  21.268  25.258  1.00  0.00     0.162 HD
BRANCH  10  12
ATOM     12  C   UNL A   1      33.318  19.764  24.393  1.00  0.00     0.202 A 
ATOM     13  C   UNL A   1      33.811  17.710  23.770  1.00  0.00     0.144 A 
ATOM     14  N   UNL A   1      32.817  17.851  22.890  1.00  0.00    -0.174 NA
ATOM     15  N   UNL A   1      34.122  18.754  24.625  1.00  0.00    -0.204 NA
ATOM     16  S   UNL A   1      32.199  19.383  23.132  1.00  0.00     0.004 S 
BRANCH  13  17
ATOM     17  C   UNL A   1      34.615  16.456  23.809  1.00  0.00     0.075 C 
ATOM     18  C   UNL A   1      34.796  15.902  25.215  1.00  0.00     0.012 C 
ENDBRANCH  13  17
ENDBRANCH  10  12
ENDBRANCH   9  10
ENDBRANCH   8   9
BRANCH   8  19
ATOM     19  C   UNL A   1      34.091  23.355  26.045  1.00  0.00     0.020 C 
BRANCH  19  20
ATOM     20  C   UNL A   1      35.074  24.135  25.153  1.00  0.00    -0.017 C 
ATOM     21  C   UNL A   1      36.238  23.264  24.665  1.00  0.00     0.007 C 
ATOM     22  C   UNL A   1      34.332  24.629  23.895  1.00  0.00     0.007 C 
ENDBRANCH  19  20
ENDBRANCH   8  19
ENDBRANCH   6   8
ENDBRANCH   5   6
ENDBRANCH   4   5
ENDBRANCH   3   4
ENDBRANCH   2   3
ENDBRANCH   1   2
BRANCH   1  23
ATOM     23  C   UNL A   1      32.394  28.795  23.903  1.00  0.00     0.188 C 
BRANCH  23  24
ATOM     24  O   UNL A   1      32.425  28.726  25.330  1.00  0.00    -0.376 OA
BRANCH  24  25
ATOM     25  C   UNL A   1      31.701  29.791  25.955  1.00  0.00     0.202 C 
BRANCH  25  26
ATOM     26  C   UNL A   1      32.619  30.877  26.531  1.00  0.00     0.261 C 
BRANCH  26  27
ATOM     27  O   UNL A   1      33.848  30.310  27.006  1.00  0.00    -0.460 OA
BRANCH  27  28
ATOM     28  C   UNL A   1      34.661  31.180  27.667  1.00  0.00     0.338 C 
ATOM     29  O   UNL A   1      34.398  32.319  27.995  1.00  0.00    -0.246 OA
BRANCH  28  30
ATOM     30  C   UNL A   1      35.884  30.460  28.107  1.00  0.00     0.060 A 
ATOM     31  C   UNL A   1      35.819  29.733  29.305  1.00  0.00     0.016 A 
ATOM     32  C   UNL A   1      37.053  30.441  27.339  1.00  0.00     0.016 A 
ATOM     33  C   UNL A   1      36.927  29.006  29.748  1.00  0.00     0.010 A 
ATOM     34  C   UNL A   1      38.158  29.712  27.782  1.00  0.00     0.010 A 
ATOM     35  C   UNL A   1      38.111  29.014  29.002  1.00  0.00    -0.014 A 
BRANCH  35  36
ATOM     36  C   UNL A   1      39.359  28.434  29.552  1.00  0.00     0.031 A 
ATOM     37  C   UNL A   1      40.006  29.120  30.724  1.00  0.00     0.074 A 
ATOM     38  C   UNL A   1      39.940  27.359  28.988  1.00  0.00     0.049 A 
ATOM     39  N   UNL A   1      41.144  28.861  31.310  1.00  0.00    -0.248 NA
ATOM     40  C   UNL A   1      39.275  30.260  31.302  1.00  0.00     0.031 C 
ATOM     41  C   UNL A   1      39.418  26.617  27.843  1.00  0.00     0.029 A 
ATOM     42  N   UNL A   1      41.127  26.733  29.284  1.00  0.00    -0.354 N 
ATOM     43  C   UNL A   1      41.287  29.828  32.297  1.00  0.00     0.074 A 
ATOM     44  C   UNL A   1      40.121  30.682  32.229  1.00  0.00     0.031 C 
ATOM     45  C   UNL A   1      40.302  25.661  27.505  1.00  0.00     0.029 A 
ATOM     46  C   UNL A   1      41.461  25.741  28.392  1.00  0.00     0.049 A 
ATOM     47  H   UNL A   1      41.684  26.972  30.060  1.00  0.00     0.167 HD
ATOM     48  C   UNL A   1      42.292  29.986  33.189  1.00  0.00     0.034 A 
ATOM     49  C   UNL A   1      42.588  25.007  28.286  1.00  0.00     0.034 A 
ATOM     50  C   UNL A   1      43.437  29.122  33.271  1.00  0.00     0.049 A 
ATOM     51  C   UNL A   1      43.698  25.208  29.288  1.00  0.00     0.074 A 
ATOM     52  C   UNL A   1      44.472  29.157  34.188  1.00  0.00     0.029 A 
ATOM     53  N   UNL A   1      43.710  28.085  32.396  1.00  0.00    -0.354 N 
ATOM     54  N   UNL A   1      43.752  26.031  30.308  1.00  0.00    -0.248 NA
ATOM     55  C   UNL A   1      44.891  24.359  29.142  1.00  0.00     0.031 C 
ATOM     56  C   UNL A   1      45.389  28.157  33.846  1.00  0.00     0.029 A 
ATOM     57  C   UNL A   1      44.907  27.481  32.737  1.00  0.00     0.049 A 
ATOM     58  H   UNL A   1      43.136  27.815  31.642  1.00  0.00     0.167 HD
ATOM     59  C   UNL A   1      44.965  25.776  30.942  1.00  0.00     0.074 A 
ATOM     60  C   UNL A   1      45.605  24.707  30.205  1.00  0.00     0.031 C 
ATOM     61  C   UNL A   1      45.508  26.381  32.028  1.00  0.00     0.034 A 
BRANCH  48  62
ATOM     62  C   UNL A   1      42.191  31.128  34.162  1.00  0.00     0.023 A 
ATOM     63  C   UNL A   1      41.576  30.929  35.413  1.00  0.00     0.012 A 
ATOM     64  C   UNL A   1      42.757  32.382  33.858  1.00  0.00     0.148 A 
ATOM     65  C   UNL A   1      41.501  31.968  36.340  1.00  0.00     0.002 A 
ATOM     66  C   UNL A   1      42.717  33.399  34.804  1.00  0.00     0.091 A 
ATOM     67  F   UNL A   1      43.314  32.557  32.652  1.00  0.00    -0.205 F 
ATOM     68  C   UNL A   1      42.082  33.198  36.039  1.00  0.00     0.022 A 
BRANCH  66  69
ATOM     69  S   UNL A   1      43.502  34.993  34.543  1.00  0.00     0.127 S 
ATOM     70  O   UNL A   1      42.816  35.466  33.342  1.00  0.00    -0.237 OA
ATOM     71  O   UNL A   1      43.152  35.711  35.768  1.00  0.00    -0.237 OA
ATOM     72  O   UNL A   1      44.924  34.721  34.383  1.00  0.00    -0.744 OA
ENDBRANCH  66  69
ENDBRANCH  48  62
BRANCH  49  73
ATOM     73  C   UNL A   1      42.723  23.995  27.199  1.00  0.00     0.023 A 
ATOM     74  C   UNL A   1      43.431  24.324  26.027  1.00  0.00     0.012 A 
ATOM     75  C   UNL A   1      42.153  22.713  27.319  1.00  0.00     0.148 A 
ATOM     76  C   UNL A   1      43.539  23.406  24.980  1.00  0.00     0.002 A 
ATOM     77  C   UNL A   1      42.312  21.784  26.297  1.00  0.00     0.091 A 
ATOM     78  F   UNL A   1      41.466  22.426  28.434  1.00  0.00    -0.205 F 
ATOM     79  C   UNL A   1      42.989  22.134  25.119  1.00  0.00     0.022 A 
BRANCH  77  80
ATOM     80  S   UNL A   1      41.742  20.086  26.440  1.00  0.00     0.127 S 
ATOM     81  O   UNL A   1      40.295  20.246  26.336  1.00  0.00    -0.237 OA
ATOM     82  O   UNL A   1      42.378  19.456  25.283  1.00  0.00    -0.237 OA
ATOM     83  O   UNL A   1      42.237  19.614  27.726  1.00  0.00    -0.744 OA
ENDBRANCH  77  80
ENDBRANCH  49  73
BRANCH  61  84
ATOM     84  C   UNL A   1      46.844  25.888  32.520  1.00  0.00     0.023 A 
ATOM     85  C   UNL A   1      48.027  26.505  32.070  1.00  0.00     0.012 A 
ATOM     86  C   UNL A   1      46.920  24.878  33.499  1.00  0.00     0.148 A 
ATOM     87  C   UNL A   1      49.268  26.106  32.568  1.00  0.00     0.002 A 
ATOM     88  C   UNL A   1      48.155  24.520  34.027  1.00  0.00     0.091 A 
ATOM     89  F   UNL A   1      45.784  24.292  33.903  1.00  0.00    -0.205 F 
ATOM     90  C   UNL A   1      49.330  25.124  33.554  1.00  0.00     0.022 A 
BRANCH  88  91
ATOM     91  S   UNL A   1      48.324  23.338  35.370  1.00  0.00     0.127 S 
ATOM     92  O   UNL A   1      47.602  24.009  36.450  1.00  0.00    -0.237 OA
ATOM     93  O   UNL A   1      47.652  22.156  34.830  1.00  0.00    -0.237 OA
ATOM     94  O   UNL A   1      49.756  23.174  35.585  1.00  0.00    -0.744 OA
ENDBRANCH  88  91
ENDBRANCH  61  84
ENDBRANCH  35  36
ENDBRANCH  28  30
ENDBRANCH  27  28
ENDBRANCH  26  27
ENDBRANCH  25  26
ENDBRANCH  24  25
ENDBRANCH  23  24
ENDBRANCH   1  23
TORSDOF 26
ENDMDL
MODEL 3
REMARK VINA RESULT:      -8.7      2.091      7.743
REMARK SMILES CCc1nsc(NC[C@H](CC(C)C)C(=O)OCCOCCOCCOC(=O)c2ccc(-c3c4nc(c(-c5cccc(S(=O)(=O)[O-])c5F)c5ccc([nH]5)c(-c5cccc(S(=O)(=O)[O-])c5F)c5nc(c(-c6cccc(S(=O)(=O)[O-])c6F)c6ccc3[nH]6)C=C5)C=C4)cc2)n1
REMARK SMILES IDX 20 1 19 2 18 3 17 4 16 5 14 6 15 7 9 8 8 9 7 10 6 12 3 13
REMARK SMILES IDX 4 14 91 15 5 16 2 17 1 18 10 19 11 20 12 21 13 22 21 23
REMARK SMILES IDX 22 24 23 25 24 26 25 27 26 28 27 29 28 30 29 31 90 32 30 33
REMARK SMILES IDX 89 34 31 35 32 36 33 37 83 38 34 39 88 40 82 41 84 42 35 43
REMARK SMILES IDX 87 44 81 45 80 46 36 48 68 49 48 50 67 51 49 52 52 53 66 54
REMARK SMILES IDX 85 55 50 56 51 57 65 59 86 60 53 61 37 62 38 63 46 64 39 65
REMARK SMILES IDX 41 66 47 67 40 68 42 69 43 70 44 71 45 72 69 73 70 74 78 75
REMARK SMILES IDX 71 76 73 77 79 78 72 79 74 80 75 81 76 82 77 83 54 84 55 85
REMARK SMILES IDX 63 86 56 87 58 88 64 89 57 90 59 91 60 92 61 93 62 94
REMARK H PARENT 7 11 84 47 52 58
REMARK Flexibility Score: inf
ROOT
ATOM      1  C   UNL A   1      32.701  28.464  24.890  1.00  0.00     0.188 C 
ENDROOT
BRANCH   1   2
ATOM      2  O   UNL A   1      33.981  28.689  24.316  1.00  0.00    -0.376 OA
BRANCH   2   3
ATOM      3  C   UNL A   1      34.129  28.378  22.928  1.00  0.00     0.202 C 
BRANCH   3   4
ATOM      4  C   UNL A   1      32.952  27.650  22.265  1.00  0.00     0.261 C 
BRANCH   4   5
ATOM      5  O   UNL A   1      33.389  26.441  21.593  1.00  0.00    -0.463 OA
BRANCH   5   6
ATOM      6  C   UNL A   1      33.285  25.293  22.286  1.00  0.00     0.310 C 
ATOM      7  O   UNL A   1      33.839  24.248  21.953  1.00  0.00    -0.252 OA
BRANCH   6   8
ATOM      8  C   UNL A   1      32.363  25.320  23.486  1.00  0.00     0.118 C 
BRANCH   8   9
ATOM      9  C   UNL A   1      33.164  24.576  24.577  1.00  0.00     0.130 C 
BRANCH   9  10
ATOM     10  N   UNL A   1      32.711  23.210  24.705  1.00  0.00    -0.359 N 
ATOM     11  H   UNL A   1      31.739  23.060  24.756  1.00  0.00     0.162 HD
BRANCH  10  12
ATOM     12  C   UNL A   1      33.506  22.126  24.762  1.00  0.00     0.202 A 
ATOM     13  C   UNL A   1      34.060  19.997  24.641  1.00  0.00     0.144 A 
ATOM     14  N   UNL A   1      35.290  20.408  24.955  1.00  0.00    -0.174 NA
ATOM     15  N   UNL A   1      33.037  20.924  24.525  1.00  0.00    -0.204 NA
ATOM     16  S   UNL A   1      35.197  22.068  25.113  1.00  0.00     0.004 S 
BRANCH  13  17
ATOM     17  C   UNL A   1      33.771  18.547  24.457  1.00  0.00     0.075 C 
ATOM     18  C   UNL A   1      32.572  18.283  23.557  1.00  0.00     0.012 C 
ENDBRANCH  13  17
ENDBRANCH  10  12
ENDBRANCH   9  10
ENDBRANCH   8   9
BRANCH   8  19
ATOM     19  C   UNL A   1      30.896  24.828  23.524  1.00  0.00     0.020 C 
BRANCH  19  20
ATOM     20  C   UNL A   1      29.749  25.667  24.117  1.00  0.00    -0.017 C 
ATOM     21  C   UNL A   1      30.001  26.048  25.581  1.00  0.00     0.007 C 
ATOM     22  C   UNL A   1      29.629  26.987  23.330  1.00  0.00     0.007 C 
ENDBRANCH  19  20
ENDBRANCH   8  19
ENDBRANCH   6   8
ENDBRANCH   5   6
ENDBRANCH   4   5
ENDBRANCH   3   4
ENDBRANCH   2   3
ENDBRANCH   1   2
BRANCH   1  23
ATOM     23  C   UNL A   1      31.792  29.686  24.996  1.00  0.00     0.188 C 
BRANCH  23  24
ATOM     24  O   UNL A   1      31.758  30.300  26.286  1.00  0.00    -0.376 OA
BRANCH  24  25
ATOM     25  C   UNL A   1      32.938  31.055  26.576  1.00  0.00     0.202 C 
BRANCH  25  26
ATOM     26  C   UNL A   1      32.774  31.972  27.796  1.00  0.00     0.261 C 
BRANCH  26  27
ATOM     27  O   UNL A   1      32.774  33.352  27.404  1.00  0.00    -0.460 OA
BRANCH  27  28
ATOM     28  C   UNL A   1      33.250  34.213  28.345  1.00  0.00     0.338 C 
ATOM     29  O   UNL A   1      32.760  35.272  28.679  1.00  0.00    -0.246 OA
BRANCH  28  30
ATOM     30  C   UNL A   1      34.385  33.572  29.057  1.00  0.00     0.060 A 
ATOM     31  C   UNL A   1      35.682  33.846  28.598  1.00  0.00     0.016 A 
ATOM     32  C   UNL A   1      34.198  32.769  30.186  1.00  0.00     0.016 A 
ATOM     33  C   UNL A   1      36.790  33.302  29.253  1.00  0.00     0.010 A 
ATOM     34  C   UNL A   1      35.306  32.227  30.841  1.00  0.00     0.010 A 
ATOM     35  C   UNL A   1      36.605  32.467  30.361  1.00  0.00    -0.014 A 
BRANCH  35  36
ATOM     36  C   UNL A   1      37.741  31.708  30.937  1.00  0.00     0.031 A 
ATOM     37  C   UNL A   1      38.116  31.969  32.370  1.00  0.00     0.074 A 
ATOM     38  C   UNL A   1      38.462  30.852  30.191  1.00  0.00     0.049 A 
ATOM     39  N   UNL A   1      39.125  31.508  33.059  1.00  0.00    -0.248 NA
ATOM     40  C   UNL A   1      37.242  32.887  33.121  1.00  0.00     0.031 C 
ATOM     41  C   UNL A   1      38.206  30.526  28.790  1.00  0.00     0.029 A 
ATOM     42  N   UNL A   1      39.590  30.133  30.504  1.00  0.00    -0.354 N 
ATOM     43  C   UNL A   1      39.033  32.107  34.309  1.00  0.00     0.074 A 
ATOM     44  C   UNL A   1      37.872  32.970  34.282  1.00  0.00     0.031 C 
ATOM     45  C   UNL A   1      39.175  29.704  28.350  1.00  0.00     0.029 A 
ATOM     46  C   UNL A   1      40.132  29.466  29.430  1.00  0.00     0.049 A 
ATOM     47  H   UNL A   1      39.973  30.098  31.410  1.00  0.00     0.167 HD
ATOM     48  C   UNL A   1      39.835  31.947  35.386  1.00  0.00     0.034 A 
ATOM     49  C   UNL A   1      41.285  28.773  29.325  1.00  0.00     0.034 A 
ATOM     50  C   UNL A   1      40.974  31.071  35.418  1.00  0.00     0.049 A 
ATOM     51  C   UNL A   1      42.166  28.616  30.539  1.00  0.00     0.074 A 
ATOM     52  C   UNL A   1      41.804  30.784  36.487  1.00  0.00     0.029 A 
ATOM     53  N   UNL A   1      41.453  30.357  34.333  1.00  0.00    -0.354 N 
ATOM     54  N   UNL A   1      41.986  29.071  31.756  1.00  0.00    -0.248 NA
ATOM     55  C   UNL A   1      43.396  27.825  30.374  1.00  0.00     0.031 C 
ATOM     56  C   UNL A   1      42.808  29.920  36.037  1.00  0.00     0.029 A 
ATOM     57  C   UNL A   1      42.581  29.644  34.698  1.00  0.00     0.049 A 
ATOM     58  H   UNL A   1      41.051  30.356  33.434  1.00  0.00     0.167 HD
ATOM     59  C   UNL A   1      43.058  28.595  32.506  1.00  0.00     0.074 A 
ATOM     60  C   UNL A   1      43.872  27.799  31.612  1.00  0.00     0.031 C 
ATOM     61  C   UNL A   1      43.352  28.810  33.812  1.00  0.00     0.034 A 
BRANCH  48  62
ATOM     62  C   UNL A   1      39.500  32.724  36.630  1.00  0.00     0.023 A 
ATOM     63  C   UNL A   1      40.116  33.969  36.865  1.00  0.00     0.012 A 
ATOM     64  C   UNL A   1      38.531  32.247  37.533  1.00  0.00     0.148 A 
ATOM     65  C   UNL A   1      39.793  34.717  37.996  1.00  0.00     0.002 A 
ATOM     66  C   UNL A   1      38.182  33.019  38.635  1.00  0.00     0.091 A 
ATOM     67  F   UNL A   1      37.976  31.049  37.304  1.00  0.00    -0.205 F 
ATOM     68  C   UNL A   1      38.819  34.247  38.874  1.00  0.00     0.022 A 
BRANCH  66  69
ATOM     69  S   UNL A   1      36.886  32.539  39.782  1.00  0.00     0.127 S 
ATOM     70  O   UNL A   1      37.350  31.222  40.216  1.00  0.00    -0.237 OA
ATOM     71  O   UNL A   1      36.976  33.583  40.801  1.00  0.00    -0.237 OA
ATOM     72  O   UNL A   1      35.648  32.542  39.015  1.00  0.00    -0.744 OA
ENDBRANCH  66  69
ENDBRANCH  48  62
BRANCH  49  73
ATOM     73  C   UNL A   1      41.671  28.155  28.024  1.00  0.00     0.023 A 
ATOM     74  C   UNL A   1      42.030  28.980  26.941  1.00  0.00     0.012 A 
ATOM     75  C   UNL A   1      41.682  26.757  27.854  1.00  0.00     0.148 A 
ATOM     76  C   UNL A   1      42.360  28.426  25.703  1.00  0.00     0.002 A 
ATOM     77  C   UNL A   1      42.065  26.209  26.635  1.00  0.00     0.091 A 
ATOM     78  F   UNL A   1      41.318  25.988  28.891  1.00  0.00    -0.205 F 
ATOM     79  C   UNL A   1      42.387  27.042  25.552  1.00  0.00     0.022 A 
BRANCH  77  80
ATOM     80  S   UNL A   1      42.246  24.439  26.388  1.00  0.00     0.127 S 
ATOM     81  O   UNL A   1      43.206  24.087  27.430  1.00  0.00    -0.237 OA
ATOM     82  O   UNL A   1      40.882  23.962  26.619  1.00  0.00    -0.237 OA
ATOM     83  O   UNL A   1      42.711  24.280  25.017  1.00  0.00    -0.744 OA
ENDBRANCH  77  80
ENDBRANCH  49  73
BRANCH  61  84
ATOM     84  C   UNL A   1      44.582  28.150  34.380  1.00  0.00     0.023 A 
ATOM     85  C   UNL A   1      45.825  28.808  34.312  1.00  0.00     0.012 A 
ATOM     86  C   UNL A   1      44.487  26.922  35.065  1.00  0.00     0.148 A 
ATOM     87  C   UNL A   1      46.960  28.243  34.892  1.00  0.00     0.002 A 
ATOM     88  C   UNL A   1      45.611  26.388  35.684  1.00  0.00     0.091 A 
ATOM     89  F   UNL A   1      43.298  26.304  35.106  1.00  0.00    -0.205 F 
ATOM     90  C   UNL A   1      46.850  27.040  35.588  1.00  0.00     0.022 A 
BRANCH  88  91
ATOM     91  S   UNL A   1      45.544  24.898  36.686  1.00  0.00     0.127 S 
ATOM     92  O   UNL A   1      44.504  25.239  37.656  1.00  0.00    -0.237 OA
ATOM     93  O   UNL A   1      45.156  23.883  35.707  1.00  0.00    -0.237 OA
ATOM     94  O   UNL A   1      46.881  24.725  37.240  1.00  0.00    -0.744 OA
ENDBRANCH  88  91
ENDBRANCH  61  84
ENDBRANCH  35  36
ENDBRANCH  28  30
ENDBRANCH  27  28
ENDBRANCH  26  27
ENDBRANCH  25  26
ENDBRANCH  24  25
ENDBRANCH  23  24
ENDBRANCH   1  23
TORSDOF 26
ENDMDL
