MODEL 1
REMARK VINA RESULT:     -11.5      0.000      0.000
REMARK SMILES C[C@@H]1CC[C@@H](C(=O)OCCOCCOCCOC(=O)c2ccc(-c3c4nc(c(-c5cccc(S(=O)(=O)[O-])c5F)c5ccc([nH]5)c(-c5cccc(S(=O)(=O)[O-])c5F)c5nc(c(-c6cccc(S(=O)(=O)[O-])c6F)c6ccc3[nH]6)C=C5)C=C4)cc2)[C@H]2C(=O)N(c3ccccc3)C(=O)[C@@H]21
REMARK SMILES IDX 13 1 12 2 11 3 10 4 9 5 8 6 6 7 7 8 5 9 1 10 2 11 3 12 95 13
REMARK SMILES IDX 4 14 83 15 93 16 84 17 86 18 94 19 85 20 87 21 88 22 92 23
REMARK SMILES IDX 89 24 91 25 90 26 14 27 15 28 16 29 17 30 18 31 19 32 20 33
REMARK SMILES IDX 21 34 82 35 22 36 81 37 23 38 24 39 25 40 75 41 26 42 80 43
REMARK SMILES IDX 74 44 76 45 27 46 79 47 73 48 72 49 28 51 60 52 40 53 59 54
REMARK SMILES IDX 41 55 44 56 58 57 77 58 42 59 43 60 57 62 78 63 45 64 29 65
REMARK SMILES IDX 30 66 38 67 31 68 33 69 39 70 32 71 34 72 35 73 36 74 37 75
REMARK SMILES IDX 61 76 62 77 70 78 63 79 65 80 71 81 64 82 66 83 67 84 68 85
REMARK SMILES IDX 69 86 46 87 47 88 55 89 48 90 50 91 56 92 49 93 51 94 52 95
REMARK SMILES IDX 53 96 54 97
REMARK H PARENT 76 50 44 61
REMARK Flexibility Score: inf
ROOT
ATOM      1  C   UNL A   1      31.882  29.151  25.348  1.00  0.00     0.188 C 
ENDROOT
BRANCH   1   2
ATOM      2  C   UNL A   1      31.290  28.191  24.294  1.00  0.00     0.188 C 
BRANCH   2   3
ATOM      3  O   UNL A   1      30.600  27.089  24.863  1.00  0.00    -0.376 OA
BRANCH   3   4
ATOM      4  C   UNL A   1      30.230  26.053  23.964  1.00  0.00     0.202 C 
BRANCH   4   5
ATOM      5  C   UNL A   1      31.210  25.718  22.827  1.00  0.00     0.261 C 
BRANCH   5   6
ATOM      6  O   UNL A   1      32.325  24.889  23.193  1.00  0.00    -0.463 OA
BRANCH   6   7
ATOM      7  C   UNL A   1      32.054  23.739  23.850  1.00  0.00     0.309 C 
ATOM      8  O   UNL A   1      31.451  22.796  23.362  1.00  0.00    -0.252 OA
BRANCH   7   9
ATOM      9  C   UNL A   1      32.606  23.789  25.278  1.00  0.00     0.112 C 
ATOM     10  C   UNL A   1      36.341  23.514  26.329  1.00  0.00     0.008 C 
ATOM     11  C   UNL A   1      35.611  23.603  24.992  1.00  0.00    -0.001 C 
ATOM     12  C   UNL A   1      34.859  24.963  24.864  1.00  0.00     0.005 C 
ATOM     13  C   UNL A   1      34.637  22.452  24.732  1.00  0.00     0.095 C 
ATOM     14  C   UNL A   1      33.476  25.027  25.540  1.00  0.00     0.016 C 
ATOM     15  C   UNL A   1      33.413  22.567  25.608  1.00  0.00     0.106 C 
ATOM     16  C   UNL A   1      34.950  20.978  24.905  1.00  0.00     0.237 C 
ATOM     17  C   UNL A   1      32.725  21.262  25.401  1.00  0.00     0.238 C 
ATOM     18  N   UNL A   1      33.701  20.359  25.034  1.00  0.00    -0.250 N 
ATOM     19  O   UNL A   1      36.053  20.487  24.817  1.00  0.00    -0.274 OA
ATOM     20  O   UNL A   1      31.549  21.074  25.683  1.00  0.00    -0.274 OA
BRANCH  18  21
ATOM     21  C   UNL A   1      33.427  18.980  24.865  1.00  0.00     0.052 A 
ATOM     22  C   UNL A   1      33.030  18.174  25.932  1.00  0.00     0.027 A 
ATOM     23  C   UNL A   1      33.562  18.388  23.594  1.00  0.00     0.027 A 
ATOM     24  C   UNL A   1      32.744  16.820  25.727  1.00  0.00     0.002 A 
ATOM     25  C   UNL A   1      33.304  17.032  23.395  1.00  0.00     0.002 A 
ATOM     26  C   UNL A   1      32.886  16.249  24.462  1.00  0.00     0.000 A 
ENDBRANCH  18  21
ENDBRANCH   7   9
ENDBRANCH   6   7
ENDBRANCH   5   6
ENDBRANCH   4   5
ENDBRANCH   3   4
ENDBRANCH   2   3
ENDBRANCH   1   2
BRANCH   1  27
ATOM     27  O   UNL A   1      31.353  30.457  25.501  1.00  0.00    -0.376 OA
BRANCH  27  28
ATOM     28  C   UNL A   1      31.640  31.145  26.711  1.00  0.00     0.202 C 
BRANCH  28  29
ATOM     29  C   UNL A   1      31.584  32.689  26.769  1.00  0.00     0.261 C 
BRANCH  29  30
ATOM     30  O   UNL A   1      32.842  33.394  26.798  1.00  0.00    -0.460 OA
BRANCH  30  31
ATOM     31  C   UNL A   1      33.306  33.741  28.029  1.00  0.00     0.338 C 
ATOM     32  O   UNL A   1      32.734  34.432  28.855  1.00  0.00    -0.246 OA
BRANCH  31  33
ATOM     33  C   UNL A   1      34.529  32.960  28.350  1.00  0.00     0.060 A 
ATOM     34  C   UNL A   1      34.386  31.627  28.773  1.00  0.00     0.016 A 
ATOM     35  C   UNL A   1      35.796  33.536  28.282  1.00  0.00     0.016 A 
ATOM     36  C   UNL A   1      35.501  30.875  29.147  1.00  0.00     0.010 A 
ATOM     37  C   UNL A   1      36.911  32.792  28.696  1.00  0.00     0.010 A 
ATOM     38  C   UNL A   1      36.766  31.470  29.161  1.00  0.00    -0.014 A 
BRANCH  38  39
ATOM     39  C   UNL A   1      37.889  30.791  29.855  1.00  0.00     0.031 A 
ATOM     40  C   UNL A   1      38.210  31.203  31.268  1.00  0.00     0.074 A 
ATOM     41  C   UNL A   1      38.616  29.830  29.256  1.00  0.00     0.049 A 
ATOM     42  N   UNL A   1      39.175  30.800  32.052  1.00  0.00    -0.248 NA
ATOM     43  C   UNL A   1      37.323  32.211  31.873  1.00  0.00     0.031 C 
ATOM     44  C   UNL A   1      38.399  29.321  27.904  1.00  0.00     0.029 A 
ATOM     45  N   UNL A   1      39.709  29.131  29.708  1.00  0.00    -0.354 N 
ATOM     46  C   UNL A   1      39.036  31.528  33.228  1.00  0.00     0.074 A 
ATOM     47  C   UNL A   1      37.896  32.402  33.052  1.00  0.00     0.031 C 
ATOM     48  C   UNL A   1      39.354  28.418  27.621  1.00  0.00     0.029 A 
ATOM     49  C   UNL A   1      40.265  28.306  28.759  1.00  0.00     0.049 A 
ATOM     50  H   UNL A   1      40.061  29.213  30.624  1.00  0.00     0.167 HD
ATOM     51  C   UNL A   1      39.781  31.472  34.358  1.00  0.00     0.034 A 
ATOM     52  C   UNL A   1      41.395  27.569  28.795  1.00  0.00     0.034 A 
ATOM     53  C   UNL A   1      40.907  30.597  34.540  1.00  0.00     0.049 A 
ATOM     54  C   UNL A   1      42.230  27.549  30.052  1.00  0.00     0.074 A 
ATOM     55  C   UNL A   1      41.697  30.437  35.665  1.00  0.00     0.029 A 
ATOM     56  N   UNL A   1      41.417  29.749  33.570  1.00  0.00    -0.354 N 
ATOM     57  N   UNL A   1      42.024  28.161  31.193  1.00  0.00    -0.248 NA
ATOM     58  C   UNL A   1      43.439  26.711  30.035  1.00  0.00     0.031 C 
ATOM     59  C   UNL A   1      42.709  29.519  35.362  1.00  0.00     0.029 A 
ATOM     60  C   UNL A   1      42.521  29.075  34.063  1.00  0.00     0.049 A 
ATOM     61  H   UNL A   1      41.049  29.643  32.663  1.00  0.00     0.167 HD
ATOM     62  C   UNL A   1      43.049  27.750  32.040  1.00  0.00     0.074 A 
ATOM     63  C   UNL A   1      43.866  26.822  31.285  1.00  0.00     0.031 C 
ATOM     64  C   UNL A   1      43.299  28.115  33.322  1.00  0.00     0.034 A 
BRANCH  51  65
ATOM     65  C   UNL A   1      39.395  32.384  35.493  1.00  0.00     0.023 A 
ATOM     66  C   UNL A   1      38.559  31.909  36.523  1.00  0.00     0.012 A 
ATOM     67  C   UNL A   1      39.902  33.696  35.563  1.00  0.00     0.148 A 
ATOM     68  C   UNL A   1      38.202  32.738  37.587  1.00  0.00     0.002 A 
ATOM     69  C   UNL A   1      39.582  34.500  36.651  1.00  0.00     0.091 A 
ATOM     70  F   UNL A   1      40.677  34.136  34.562  1.00  0.00    -0.205 F 
ATOM     71  C   UNL A   1      38.722  34.028  37.656  1.00  0.00     0.022 A 
BRANCH  69  72
ATOM     72  S   UNL A   1      40.266  36.146  36.873  1.00  0.00     0.127 S 
ATOM     73  O   UNL A   1      39.517  36.621  38.035  1.00  0.00    -0.237 OA
ATOM     74  O   UNL A   1      41.676  35.858  37.132  1.00  0.00    -0.237 OA
ATOM     75  O   UNL A   1      40.008  36.860  35.631  1.00  0.00    -0.744 OA
ENDBRANCH  69  72
ENDBRANCH  51  65
BRANCH  52  76
ATOM     76  C   UNL A   1      41.803  26.767  27.606  1.00  0.00     0.023 A 
ATOM     77  C   UNL A   1      42.402  27.408  26.503  1.00  0.00     0.012 A 
ATOM     78  C   UNL A   1      41.598  25.374  27.561  1.00  0.00     0.148 A 
ATOM     79  C   UNL A   1      42.757  26.684  25.365  1.00  0.00     0.002 A 
ATOM     80  C   UNL A   1      42.005  24.649  26.448  1.00  0.00     0.091 A 
ATOM     81  F   UNL A   1      41.010  24.786  28.613  1.00  0.00    -0.205 F 
ATOM     82  C   UNL A   1      42.568  25.304  25.341  1.00  0.00     0.022 A 
BRANCH  80  83
ATOM     83  S   UNL A   1      41.915  22.857  26.376  1.00  0.00     0.127 S 
ATOM     84  O   UNL A   1      40.474  22.632  26.306  1.00  0.00    -0.237 OA
ATOM     85  O   UNL A   1      42.645  22.571  25.141  1.00  0.00    -0.237 OA
ATOM     86  O   UNL A   1      42.569  22.380  27.587  1.00  0.00    -0.744 OA
ENDBRANCH  80  83
ENDBRANCH  52  76
BRANCH  64  87
ATOM     87  C   UNL A   1      44.473  27.475  34.023  1.00  0.00     0.023 A 
ATOM     88  C   UNL A   1      45.756  28.047  33.922  1.00  0.00     0.012 A 
ATOM     89  C   UNL A   1      44.287  26.340  34.839  1.00  0.00     0.148 A 
ATOM     90  C   UNL A   1      46.842  27.478  34.589  1.00  0.00     0.002 A 
ATOM     91  C   UNL A   1      45.361  25.810  35.542  1.00  0.00     0.091 A 
ATOM     92  F   UNL A   1      43.062  25.798  34.911  1.00  0.00    -0.205 F 
ATOM     93  C   UNL A   1      46.643  26.368  35.407  1.00  0.00     0.022 A 
BRANCH  91  94
ATOM     94  S   UNL A   1      45.180  24.444  36.695  1.00  0.00     0.127 S 
ATOM     95  O   UNL A   1      45.116  23.297  35.791  1.00  0.00    -0.237 OA
ATOM     96  O   UNL A   1      46.412  24.534  37.480  1.00  0.00    -0.237 OA
ATOM     97  O   UNL A   1      43.963  24.713  37.449  1.00  0.00    -0.744 OA
ENDBRANCH  91  94
ENDBRANCH  64  87
ENDBRANCH  38  39
ENDBRANCH  31  33
ENDBRANCH  30  31
ENDBRANCH  29  30
ENDBRANCH  28  29
ENDBRANCH  27  28
ENDBRANCH   1  27
TORSDOF 21
ENDMDL
MODEL 2
REMARK VINA RESULT:     -11.2      1.860      7.621
REMARK SMILES C[C@@H]1CC[C@@H](C(=O)OCCOCCOCCOC(=O)c2ccc(-c3c4nc(c(-c5cccc(S(=O)(=O)[O-])c5F)c5ccc([nH]5)c(-c5cccc(S(=O)(=O)[O-])c5F)c5nc(c(-c6cccc(S(=O)(=O)[O-])c6F)c6ccc3[nH]6)C=C5)C=C4)cc2)[C@H]2C(=O)N(c3ccccc3)C(=O)[C@@H]21
REMARK SMILES IDX 13 1 12 2 11 3 10 4 9 5 8 6 6 7 7 8 5 9 1 10 2 11 3 12 95 13
REMARK SMILES IDX 4 14 83 15 93 16 84 17 86 18 94 19 85 20 87 21 88 22 92 23
REMARK SMILES IDX 89 24 91 25 90 26 14 27 15 28 16 29 17 30 18 31 19 32 20 33
REMARK SMILES IDX 21 34 82 35 22 36 81 37 23 38 24 39 25 40 75 41 26 42 80 43
REMARK SMILES IDX 74 44 76 45 27 46 79 47 73 48 72 49 28 51 60 52 40 53 59 54
REMARK SMILES IDX 41 55 44 56 58 57 77 58 42 59 43 60 57 62 78 63 45 64 29 65
REMARK SMILES IDX 30 66 38 67 31 68 33 69 39 70 32 71 34 72 35 73 36 74 37 75
REMARK SMILES IDX 61 76 62 77 70 78 63 79 65 80 71 81 64 82 66 83 67 84 68 85
REMARK SMILES IDX 69 86 46 87 47 88 55 89 48 90 50 91 56 92 49 93 51 94 52 95
REMARK SMILES IDX 53 96 54 97
REMARK H PARENT 76 50 44 61
REMARK Flexibility Score: inf
ROOT
ATOM      1  C   UNL A   1      33.337  27.125  26.177  1.00  0.00     0.188 C 
ENDROOT
BRANCH   1   2
ATOM      2  C   UNL A   1      33.833  27.667  24.819  1.00  0.00     0.188 C 
BRANCH   2   3
ATOM      3  O   UNL A   1      32.858  28.433  24.130  1.00  0.00    -0.376 OA
BRANCH   3   4
ATOM      4  C   UNL A   1      32.930  28.404  22.711  1.00  0.00     0.202 C 
BRANCH   4   5
ATOM      5  C   UNL A   1      33.147  27.037  22.040  1.00  0.00     0.261 C 
BRANCH   5   6
ATOM      6  O   UNL A   1      32.070  26.098  22.185  1.00  0.00    -0.463 OA
BRANCH   6   7
ATOM      7  C   UNL A   1      32.358  24.907  22.758  1.00  0.00     0.309 C 
ATOM      8  O   UNL A   1      33.490  24.474  22.907  1.00  0.00    -0.252 OA
BRANCH   7   9
ATOM      9  C   UNL A   1      31.075  24.189  23.185  1.00  0.00     0.112 C 
ATOM     10  C   UNL A   1      29.812  23.670  26.827  1.00  0.00     0.008 C 
ATOM     11  C   UNL A   1      30.971  24.438  26.197  1.00  0.00    -0.001 C 
ATOM     12  C   UNL A   1      30.439  25.568  25.263  1.00  0.00     0.005 C 
ATOM     13  C   UNL A   1      31.959  23.560  25.428  1.00  0.00     0.095 C 
ATOM     14  C   UNL A   1      30.052  25.129  23.838  1.00  0.00     0.016 C 
ATOM     15  C   UNL A   1      31.356  23.063  24.137  1.00  0.00     0.106 C 
ATOM     16  C   UNL A   1      32.581  22.275  25.943  1.00  0.00     0.237 C 
ATOM     17  C   UNL A   1      32.344  22.050  23.668  1.00  0.00     0.238 C 
ATOM     18  N   UNL A   1      32.998  21.593  24.793  1.00  0.00    -0.250 N 
ATOM     19  O   UNL A   1      32.761  22.009  27.110  1.00  0.00    -0.274 OA
ATOM     20  O   UNL A   1      32.387  21.643  22.516  1.00  0.00    -0.274 OA
BRANCH  18  21
ATOM     21  C   UNL A   1      33.934  20.532  24.742  1.00  0.00     0.052 A 
ATOM     22  C   UNL A   1      35.302  20.749  24.910  1.00  0.00     0.027 A 
ATOM     23  C   UNL A   1      33.491  19.215  24.509  1.00  0.00     0.027 A 
ATOM     24  C   UNL A   1      36.198  19.675  24.878  1.00  0.00     0.002 A 
ATOM     25  C   UNL A   1      34.387  18.149  24.449  1.00  0.00     0.002 A 
ATOM     26  C   UNL A   1      35.741  18.379  24.642  1.00  0.00     0.000 A 
ENDBRANCH  18  21
ENDBRANCH   7   9
ENDBRANCH   6   7
ENDBRANCH   5   6
ENDBRANCH   4   5
ENDBRANCH   3   4
ENDBRANCH   2   3
ENDBRANCH   1   2
BRANCH   1  27
ATOM     27  O   UNL A   1      33.015  28.019  27.228  1.00  0.00    -0.376 OA
BRANCH  27  28
ATOM     28  C   UNL A   1      31.799  28.746  27.125  1.00  0.00     0.202 C 
BRANCH  28  29
ATOM     29  C   UNL A   1      31.814  30.277  26.914  1.00  0.00     0.261 C 
BRANCH  29  30
ATOM     30  O   UNL A   1      33.062  30.875  26.505  1.00  0.00    -0.460 OA
BRANCH  30  31
ATOM     31  C   UNL A   1      33.555  31.846  27.320  1.00  0.00     0.338 C 
ATOM     32  O   UNL A   1      32.944  32.802  27.767  1.00  0.00    -0.246 OA
BRANCH  31  33
ATOM     33  C   UNL A   1      34.908  31.466  27.804  1.00  0.00     0.060 A 
ATOM     34  C   UNL A   1      35.140  30.129  28.174  1.00  0.00     0.016 A 
ATOM     35  C   UNL A   1      35.923  32.411  27.938  1.00  0.00     0.016 A 
ATOM     36  C   UNL A   1      36.375  29.739  28.695  1.00  0.00     0.010 A 
ATOM     37  C   UNL A   1      37.150  32.026  28.499  1.00  0.00     0.010 A 
ATOM     38  C   UNL A   1      37.371  30.696  28.910  1.00  0.00    -0.014 A 
BRANCH  38  39
ATOM     39  C   UNL A   1      38.547  30.357  29.750  1.00  0.00     0.031 A 
ATOM     40  C   UNL A   1      39.551  29.372  29.210  1.00  0.00     0.074 A 
ATOM     41  C   UNL A   1      38.732  30.902  30.965  1.00  0.00     0.049 A 
ATOM     42  N   UNL A   1      40.619  28.877  29.778  1.00  0.00    -0.248 NA
ATOM     43  C   UNL A   1      39.311  28.876  27.844  1.00  0.00     0.031 C 
ATOM     44  C   UNL A   1      37.853  31.883  31.597  1.00  0.00     0.029 A 
ATOM     45  N   UNL A   1      39.715  30.680  31.900  1.00  0.00    -0.354 N 
ATOM     46  C   UNL A   1      41.159  27.985  28.859  1.00  0.00     0.074 A 
ATOM     47  C   UNL A   1      40.297  28.003  27.697  1.00  0.00     0.031 C 
ATOM     48  C   UNL A   1      38.314  32.150  32.832  1.00  0.00     0.029 A 
ATOM     49  C   UNL A   1      39.504  31.339  33.088  1.00  0.00     0.049 A 
ATOM     50  H   UNL A   1      40.496  30.103  31.734  1.00  0.00     0.167 HD
ATOM     51  C   UNL A   1      42.275  27.225  28.964  1.00  0.00     0.034 A 
ATOM     52  C   UNL A   1      40.176  31.270  34.256  1.00  0.00     0.034 A 
ATOM     53  C   UNL A   1      43.139  27.213  30.113  1.00  0.00     0.049 A 
ATOM     54  C   UNL A   1      41.395  30.389  34.363  1.00  0.00     0.074 A 
ATOM     55  C   UNL A   1      44.315  26.508  30.295  1.00  0.00     0.029 A 
ATOM     56  N   UNL A   1      42.912  27.920  31.282  1.00  0.00    -0.354 N 
ATOM     57  N   UNL A   1      41.954  29.634  33.447  1.00  0.00    -0.248 NA
ATOM     58  C   UNL A   1      42.095  30.373  35.657  1.00  0.00     0.031 C 
ATOM     59  C   UNL A   1      44.781  26.761  31.590  1.00  0.00     0.029 A 
ATOM     60  C   UNL A   1      43.918  27.659  32.197  1.00  0.00     0.049 A 
ATOM     61  H   UNL A   1      42.148  28.522  31.440  1.00  0.00     0.167 HD
ATOM     62  C   UNL A   1      43.090  29.090  34.040  1.00  0.00     0.074 A 
ATOM     63  C   UNL A   1      43.150  29.616  35.387  1.00  0.00     0.031 C 
ATOM     64  C   UNL A   1      43.997  28.226  33.520  1.00  0.00     0.034 A 
BRANCH  51  65
ATOM     65  C   UNL A   1      42.629  26.342  27.796  1.00  0.00     0.023 A 
ATOM     66  C   UNL A   1      43.545  26.794  26.825  1.00  0.00     0.012 A 
ATOM     67  C   UNL A   1      42.089  25.045  27.687  1.00  0.00     0.148 A 
ATOM     68  C   UNL A   1      43.892  25.983  25.744  1.00  0.00     0.002 A 
ATOM     69  C   UNL A   1      42.478  24.225  26.634  1.00  0.00     0.091 A 
ATOM     70  F   UNL A   1      41.203  24.642  28.608  1.00  0.00    -0.205 F 
ATOM     71  C   UNL A   1      43.366  24.697  25.655  1.00  0.00     0.022 A 
BRANCH  69  72
ATOM     72  S   UNL A   1      41.922  22.524  26.476  1.00  0.00     0.127 S 
ATOM     73  O   UNL A   1      42.554  22.124  25.219  1.00  0.00    -0.237 OA
ATOM     74  O   UNL A   1      42.493  21.903  27.671  1.00  0.00    -0.237 OA
ATOM     75  O   UNL A   1      40.467  22.576  26.453  1.00  0.00    -0.744 OA
ENDBRANCH  69  72
ENDBRANCH  51  65
BRANCH  52  76
ATOM     76  C   UNL A   1      39.723  32.076  35.427  1.00  0.00     0.023 A 
ATOM     77  C   UNL A   1      40.148  33.413  35.560  1.00  0.00     0.012 A 
ATOM     78  C   UNL A   1      38.879  31.524  36.410  1.00  0.00     0.148 A 
ATOM     79  C   UNL A   1      39.768  34.174  36.665  1.00  0.00     0.002 A 
ATOM     80  C   UNL A   1      38.459  32.304  37.480  1.00  0.00     0.091 A 
ATOM     81  F   UNL A   1      38.501  30.245  36.275  1.00  0.00    -0.205 F 
ATOM     82  C   UNL A   1      38.917  33.624  37.621  1.00  0.00     0.022 A 
BRANCH  80  83
ATOM     83  S   UNL A   1      37.267  31.722  38.690  1.00  0.00     0.127 S 
ATOM     84  O   UNL A   1      38.016  31.857  39.937  1.00  0.00    -0.237 OA
ATOM     85  O   UNL A   1      36.176  32.681  38.519  1.00  0.00    -0.237 OA
ATOM     86  O   UNL A   1      36.938  30.359  38.297  1.00  0.00    -0.744 OA
ENDBRANCH  80  83
ENDBRANCH  52  76
BRANCH  64  87
ATOM     87  C   UNL A   1      45.169  27.826  34.383  1.00  0.00     0.023 A 
ATOM     88  C   UNL A   1      46.364  28.569  34.343  1.00  0.00     0.012 A 
ATOM     89  C   UNL A   1      45.057  26.750  35.287  1.00  0.00     0.148 A 
ATOM     90  C   UNL A   1      47.444  28.224  35.158  1.00  0.00     0.002 A 
ATOM     91  C   UNL A   1      46.115  26.445  36.134  1.00  0.00     0.091 A 
ATOM     92  F   UNL A   1      43.917  26.043  35.302  1.00  0.00    -0.205 F 
ATOM     93  C   UNL A   1      47.315  27.171  36.060  1.00  0.00     0.022 A 
BRANCH  91  94
ATOM     94  S   UNL A   1      46.005  25.170  37.395  1.00  0.00     0.127 S 
ATOM     95  O   UNL A   1      47.299  25.297  38.063  1.00  0.00    -0.237 OA
ATOM     96  O   UNL A   1      44.861  25.618  38.190  1.00  0.00    -0.237 OA
ATOM     97  O   UNL A   1      45.790  23.917  36.682  1.00  0.00    -0.744 OA
ENDBRANCH  91  94
ENDBRANCH  64  87
ENDBRANCH  38  39
ENDBRANCH  31  33
ENDBRANCH  30  31
ENDBRANCH  29  30
ENDBRANCH  28  29
ENDBRANCH  27  28
ENDBRANCH   1  27
TORSDOF 21
ENDMDL
MODEL 3
REMARK VINA RESULT:     -11.0      1.852      2.529
REMARK SMILES C[C@@H]1CC[C@@H](C(=O)OCCOCCOCCOC(=O)c2ccc(-c3c4nc(c(-c5cccc(S(=O)(=O)[O-])c5F)c5ccc([nH]5)c(-c5cccc(S(=O)(=O)[O-])c5F)c5nc(c(-c6cccc(S(=O)(=O)[O-])c6F)c6ccc3[nH]6)C=C5)C=C4)cc2)[C@H]2C(=O)N(c3ccccc3)C(=O)[C@@H]21
REMARK SMILES IDX 13 1 12 2 11 3 10 4 9 5 8 6 6 7 7 8 5 9 1 10 2 11 3 12 95 13
REMARK SMILES IDX 4 14 83 15 93 16 84 17 86 18 94 19 85 20 87 21 88 22 92 23
REMARK SMILES IDX 89 24 91 25 90 26 14 27 15 28 16 29 17 30 18 31 19 32 20 33
REMARK SMILES IDX 21 34 82 35 22 36 81 37 23 38 24 39 25 40 75 41 26 42 80 43
REMARK SMILES IDX 74 44 76 45 27 46 79 47 73 48 72 49 28 51 60 52 40 53 59 54
REMARK SMILES IDX 41 55 44 56 58 57 77 58 42 59 43 60 57 62 78 63 45 64 29 65
REMARK SMILES IDX 30 66 38 67 31 68 33 69 39 70 32 71 34 72 35 73 36 74 37 75
REMARK SMILES IDX 61 76 62 77 70 78 63 79 65 80 71 81 64 82 66 83 67 84 68 85
REMARK SMILES IDX 69 86 46 87 47 88 55 89 48 90 50 91 56 92 49 93 51 94 52 95
REMARK SMILES IDX 53 96 54 97
REMARK H PARENT 76 50 44 61
REMARK Flexibility Score: inf
ROOT
ATOM      1  C   UNL A   1      31.290  30.337  25.220  1.00  0.00     0.188 C 
ENDROOT
BRANCH   1   2
ATOM      2  C   UNL A   1      30.319  30.298  24.020  1.00  0.00     0.188 C 
BRANCH   2   3
ATOM      3  O   UNL A   1      30.027  28.983  23.576  1.00  0.00    -0.376 OA
BRANCH   3   4
ATOM      4  C   UNL A   1      30.839  28.485  22.522  1.00  0.00     0.202 C 
BRANCH   4   5
ATOM      5  C   UNL A   1      32.260  28.021  22.881  1.00  0.00     0.261 C 
BRANCH   5   6
ATOM      6  O   UNL A   1      32.355  26.718  23.478  1.00  0.00    -0.463 OA
BRANCH   6   7
ATOM      7  C   UNL A   1      32.421  25.656  22.643  1.00  0.00     0.309 C 
ATOM      8  O   UNL A   1      33.196  25.570  21.703  1.00  0.00    -0.252 OA
BRANCH   7   9
ATOM      9  C   UNL A   1      31.395  24.591  23.041  1.00  0.00     0.112 C 
ATOM     10  C   UNL A   1      30.201  23.759  26.648  1.00  0.00     0.008 C 
ATOM     11  C   UNL A   1      31.101  24.832  26.041  1.00  0.00    -0.001 C 
ATOM     12  C   UNL A   1      30.294  25.740  25.064  1.00  0.00     0.005 C 
ATOM     13  C   UNL A   1      32.337  24.281  25.328  1.00  0.00     0.095 C 
ATOM     14  C   UNL A   1      30.113  25.189  23.637  1.00  0.00     0.016 C 
ATOM     15  C   UNL A   1      31.962  23.612  24.028  1.00  0.00     0.106 C 
ATOM     16  C   UNL A   1      33.293  23.248  25.893  1.00  0.00     0.237 C 
ATOM     17  C   UNL A   1      33.225  22.937  23.617  1.00  0.00     0.238 C 
ATOM     18  N   UNL A   1      33.941  22.710  24.774  1.00  0.00    -0.250 N 
ATOM     19  O   UNL A   1      33.497  23.062  27.072  1.00  0.00    -0.274 OA
ATOM     20  O   UNL A   1      33.435  22.548  22.477  1.00  0.00    -0.274 OA
BRANCH  18  21
ATOM     21  C   UNL A   1      35.152  21.978  24.780  1.00  0.00     0.052 A 
ATOM     22  C   UNL A   1      35.179  20.602  25.013  1.00  0.00     0.027 A 
ATOM     23  C   UNL A   1      36.375  22.640  24.552  1.00  0.00     0.027 A 
ATOM     24  C   UNL A   1      36.392  19.904  24.988  1.00  0.00     0.002 A 
ATOM     25  C   UNL A   1      37.585  21.949  24.555  1.00  0.00     0.002 A 
ATOM     26  C   UNL A   1      37.592  20.577  24.765  1.00  0.00     0.000 A 
ENDBRANCH  18  21
ENDBRANCH   7   9
ENDBRANCH   6   7
ENDBRANCH   5   6
ENDBRANCH   4   5
ENDBRANCH   3   4
ENDBRANCH   2   3
ENDBRANCH   1   2
BRANCH   1  27
ATOM     27  O   UNL A   1      31.058  31.226  26.297  1.00  0.00    -0.376 OA
BRANCH  27  28
ATOM     28  C   UNL A   1      32.193  31.760  26.966  1.00  0.00     0.202 C 
BRANCH  28  29
ATOM     29  C   UNL A   1      32.291  33.274  27.261  1.00  0.00     0.261 C 
BRANCH  29  30
ATOM     30  O   UNL A   1      33.613  33.846  27.341  1.00  0.00    -0.460 OA
BRANCH  30  31
ATOM     31  C   UNL A   1      34.096  34.064  28.595  1.00  0.00     0.338 C 
ATOM     32  O   UNL A   1      33.575  34.733  29.470  1.00  0.00    -0.246 OA
BRANCH  31  33
ATOM     33  C   UNL A   1      35.256  33.172  28.855  1.00  0.00     0.060 A 
ATOM     34  C   UNL A   1      35.014  31.884  29.364  1.00  0.00     0.016 A 
ATOM     35  C   UNL A   1      36.565  33.604  28.648  1.00  0.00     0.016 A 
ATOM     36  C   UNL A   1      36.075  31.034  29.684  1.00  0.00     0.010 A 
ATOM     37  C   UNL A   1      37.630  32.765  29.008  1.00  0.00     0.010 A 
ATOM     38  C   UNL A   1      37.391  31.490  29.558  1.00  0.00    -0.014 A 
BRANCH  38  39
ATOM     39  C   UNL A   1      38.496  30.728  30.192  1.00  0.00     0.031 A 
ATOM     40  C   UNL A   1      38.890  31.080  31.603  1.00  0.00     0.074 A 
ATOM     41  C   UNL A   1      39.143  29.743  29.543  1.00  0.00     0.049 A 
ATOM     42  N   UNL A   1      39.856  30.600  32.341  1.00  0.00    -0.248 NA
ATOM     43  C   UNL A   1      38.086  32.120  32.267  1.00  0.00     0.031 C 
ATOM     44  C   UNL A   1      38.849  29.286  28.187  1.00  0.00     0.029 A 
ATOM     45  N   UNL A   1      40.208  28.969  29.936  1.00  0.00    -0.354 N 
ATOM     46  C   UNL A   1      39.802  31.301  33.540  1.00  0.00     0.074 A 
ATOM     47  C   UNL A   1      38.710  32.244  33.428  1.00  0.00     0.031 C 
ATOM     48  C   UNL A   1      39.739  28.337  27.845  1.00  0.00     0.029 A 
ATOM     49  C   UNL A   1      40.681  28.140  28.946  1.00  0.00     0.049 A 
ATOM     50  H   UNL A   1      40.596  29.004  30.841  1.00  0.00     0.167 HD
ATOM     51  C   UNL A   1      40.581  31.170  34.640  1.00  0.00     0.034 A 
ATOM     52  C   UNL A   1      41.766  27.338  28.922  1.00  0.00     0.034 A 
ATOM     53  C   UNL A   1      41.659  30.226  34.758  1.00  0.00     0.049 A 
ATOM     54  C   UNL A   1      42.642  27.234  30.146  1.00  0.00     0.074 A 
ATOM     55  C   UNL A   1      42.477  29.989  35.848  1.00  0.00     0.029 A 
ATOM     56  N   UNL A   1      42.084  29.378  33.748  1.00  0.00    -0.354 N 
ATOM     57  N   UNL A   1      42.512  27.825  31.309  1.00  0.00    -0.248 NA
ATOM     58  C   UNL A   1      43.798  26.328  30.063  1.00  0.00     0.031 C 
ATOM     59  C   UNL A   1      43.422  29.023  35.484  1.00  0.00     0.029 A 
ATOM     60  C   UNL A   1      43.163  28.627  34.182  1.00  0.00     0.049 A 
ATOM     61  H   UNL A   1      41.678  29.318  32.852  1.00  0.00     0.167 HD
ATOM     62  C   UNL A   1      43.541  27.331  32.107  1.00  0.00     0.074 A 
ATOM     63  C   UNL A   1      44.274  26.379  31.299  1.00  0.00     0.031 C 
ATOM     64  C   UNL A   1      43.857  27.644  33.388  1.00  0.00     0.034 A 
BRANCH  51  65
ATOM     65  C   UNL A   1      40.290  32.070  35.812  1.00  0.00     0.023 A 
ATOM     66  C   UNL A   1      41.074  33.222  36.026  1.00  0.00     0.012 A 
ATOM     67  C   UNL A   1      39.209  31.800  36.673  1.00  0.00     0.148 A 
ATOM     68  C   UNL A   1      40.809  34.072  37.099  1.00  0.00     0.002 A 
ATOM     69  C   UNL A   1      38.921  32.678  37.711  1.00  0.00     0.091 A 
ATOM     70  F   UNL A   1      38.489  30.689  36.466  1.00  0.00    -0.205 F 
ATOM     71  C   UNL A   1      39.727  33.805  37.934  1.00  0.00     0.022 A 
BRANCH  69  72
ATOM     72  S   UNL A   1      37.501  32.468  38.791  1.00  0.00     0.127 S 
ATOM     73  O   UNL A   1      37.763  33.473  39.821  1.00  0.00    -0.237 OA
ATOM     74  O   UNL A   1      36.387  32.786  37.898  1.00  0.00    -0.237 OA
ATOM     75  O   UNL A   1      37.541  31.085  39.245  1.00  0.00    -0.744 OA
ENDBRANCH  69  72
ENDBRANCH  51  65
BRANCH  52  76
ATOM     76  C   UNL A   1      42.084  26.547  27.698  1.00  0.00     0.023 A 
ATOM     77  C   UNL A   1      42.682  27.183  26.591  1.00  0.00     0.012 A 
ATOM     78  C   UNL A   1      41.793  25.171  27.623  1.00  0.00     0.148 A 
ATOM     79  C   UNL A   1      42.954  26.472  25.423  1.00  0.00     0.002 A 
ATOM     80  C   UNL A   1      42.119  24.456  26.478  1.00  0.00     0.091 A 
ATOM     81  F   UNL A   1      41.208  24.589  28.680  1.00  0.00    -0.205 F 
ATOM     82  C   UNL A   1      42.681  25.107  25.368  1.00  0.00     0.022 A 
BRANCH  80  83
ATOM     83  S   UNL A   1      41.918  22.675  26.362  1.00  0.00     0.127 S 
ATOM     84  O   UNL A   1      40.464  22.535  26.373  1.00  0.00    -0.237 OA
ATOM     85  O   UNL A   1      42.556  22.386  25.078  1.00  0.00    -0.237 OA
ATOM     86  O   UNL A   1      42.612  22.123  27.517  1.00  0.00    -0.744 OA
ENDBRANCH  80  83
ENDBRANCH  52  76
BRANCH  64  87
ATOM     87  C   UNL A   1      45.015  26.918  34.029  1.00  0.00     0.023 A 
ATOM     88  C   UNL A   1      46.311  27.465  33.975  1.00  0.00     0.012 A 
ATOM     89  C   UNL A   1      44.800  25.722  34.745  1.00  0.00     0.148 A 
ATOM     90  C   UNL A   1      47.383  26.813  34.587  1.00  0.00     0.002 A 
ATOM     91  C   UNL A   1      45.861  25.107  35.398  1.00  0.00     0.091 A 
ATOM     92  F   UNL A   1      43.562  25.207  34.773  1.00  0.00    -0.205 F 
ATOM     93  C   UNL A   1      47.156  25.643  35.308  1.00  0.00     0.022 A 
BRANCH  91  94
ATOM     94  S   UNL A   1      45.646  23.652  36.429  1.00  0.00     0.127 S 
ATOM     95  O   UNL A   1      47.030  23.249  36.669  1.00  0.00    -0.237 OA
ATOM     96  O   UNL A   1      44.960  24.200  37.600  1.00  0.00    -0.237 OA
ATOM     97  O   UNL A   1      44.850  22.718  35.645  1.00  0.00    -0.744 OA
ENDBRANCH  91  94
ENDBRANCH  64  87
ENDBRANCH  38  39
ENDBRANCH  31  33
ENDBRANCH  30  31
ENDBRANCH  29  30
ENDBRANCH  28  29
ENDBRANCH  27  28
ENDBRANCH   1  27
TORSDOF 21
ENDMDL
