MODEL 1
REMARK VINA RESULT:     -10.4      0.000      0.000
REMARK SMILES O=C(OCCOCCOCCOC(=O)c1ccc(-c2c3nc(c(-c4cccc(S(=O)(=O)[O-])c4F)c4ccc([nH]4)c(-c4cccc(S(=O)(=O)[O-])c4F)c4nc(c(-c5cccc(S(=O)(=O)[O-])c5F)c5ccc2[nH]5)C=C4)C=C3)cc1)C1=Cc2cc(Cl)ccc2O[C@@H]1C(F)(F)F
REMARK SMILES IDX 8 1 7 2 6 3 5 4 4 5 3 6 2 7 1 8 78 9 79 10 88 11 80 12 87 13
REMARK SMILES IDX 81 14 86 15 82 16 85 17 83 18 84 19 89 20 90 21 91 22 92 23
REMARK SMILES IDX 9 24 10 25 11 26 12 27 13 28 14 29 15 30 16 31 77 32 17 33
REMARK SMILES IDX 76 34 18 35 19 36 20 37 70 38 21 39 75 40 69 41 71 42 22 43
REMARK SMILES IDX 74 44 68 45 67 46 23 48 55 49 35 50 54 51 36 52 39 53 53 54
REMARK SMILES IDX 72 55 37 56 38 57 52 59 73 60 40 61 24 62 25 63 33 64 26 65
REMARK SMILES IDX 28 66 34 67 27 68 29 69 30 70 31 71 32 72 56 73 57 74 65 75
REMARK SMILES IDX 58 76 60 77 66 78 59 79 61 80 62 81 63 82 64 83 41 84 42 85
REMARK SMILES IDX 50 86 43 87 45 88 51 89 44 90 46 91 47 92 48 93 49 94
REMARK H PARENT 71 47 39 58
REMARK Flexibility Score: inf
ROOT
ATOM      1  C   UNL A   1      42.895  21.081  26.163  1.00  0.00     0.188 C 
ENDROOT
BRANCH   1   2
ATOM      2  C   UNL A   1      41.762  20.080  26.461  1.00  0.00     0.188 C 
BRANCH   2   3
ATOM      3  O   UNL A   1      40.399  20.206  25.968  1.00  0.00    -0.376 OA
BRANCH   3   4
ATOM      4  C   UNL A   1      39.323  21.444  26.083  1.00  0.00     0.202 C 
BRANCH   4   5
ATOM      5  C   UNL A   1      37.568  21.832  24.851  1.00  0.00     0.261 C 
BRANCH   5   6
ATOM      6  O   UNL A   1      36.955  23.208  24.559  1.00  0.00    -0.460 OA
BRANCH   6   7
ATOM      7  C   UNL A   1      35.865  23.135  23.782  1.00  0.00     0.338 C 
ATOM      8  O   UNL A   1      35.772  23.254  22.589  1.00  0.00    -0.246 OA
BRANCH   7   9
ATOM      9  C   UNL A   1      34.908  23.261  24.857  1.00  0.00     0.087 C 
ATOM     10  C   UNL A   1      34.502  24.668  25.088  1.00  0.00     0.027 C 
ATOM     11  C   UNL A   1      33.735  21.862  24.225  1.00  0.00     0.316 C 
ATOM     12  C   UNL A   1      32.894  25.345  24.591  1.00  0.00     0.019 A 
ATOM     13  O   UNL A   1      32.056  22.587  23.585  1.00  0.00    -0.475 OA
ATOM     14  C   UNL A   1      32.632  26.678  24.740  1.00  0.00     0.032 A 
ATOM     15  C   UNL A   1      31.692  24.361  23.812  1.00  0.00     0.128 A 
ATOM     16  C   UNL A   1      31.371  27.087  24.262  1.00  0.00     0.041 A 
ATOM     17  C   UNL A   1      30.485  24.836  23.392  1.00  0.00     0.048 A 
ATOM     18  Cl  UNL A   1      30.997  28.778  24.409  1.00  0.00    -0.084 Cl
ATOM     19  C   UNL A   1      30.360  26.225  23.644  1.00  0.00     0.024 A 
BRANCH  11  20
ATOM     20  C   UNL A   1      34.051  20.780  25.392  1.00  0.00     0.430 C 
ATOM     21  F   UNL A   1      33.047  20.388  26.188  1.00  0.00    -0.167 F 
ATOM     22  F   UNL A   1      34.449  19.635  24.760  1.00  0.00    -0.167 F 
ATOM     23  F   UNL A   1      35.095  21.121  26.185  1.00  0.00    -0.167 F 
ENDBRANCH  11  20
ENDBRANCH   7   9
ENDBRANCH   6   7
ENDBRANCH   5   6
ENDBRANCH   4   5
ENDBRANCH   3   4
ENDBRANCH   2   3
ENDBRANCH   1   2
BRANCH   1  24
ATOM     24  O   UNL A   1      43.940  20.729  25.288  1.00  0.00    -0.376 OA
BRANCH  24  25
ATOM     25  C   UNL A   1      45.099  21.550  25.329  1.00  0.00     0.202 C 
BRANCH  25  26
ATOM     26  C   UNL A   1      45.180  22.727  24.348  1.00  0.00     0.261 C 
BRANCH  26  27
ATOM     27  O   UNL A   1      45.046  24.012  24.991  1.00  0.00    -0.460 OA
BRANCH  27  28
ATOM     28  C   UNL A   1      43.790  24.518  25.084  1.00  0.00     0.338 C 
ATOM     29  O   UNL A   1      42.860  24.308  24.325  1.00  0.00    -0.246 OA
BRANCH  28  30
ATOM     30  C   UNL A   1      43.626  25.242  26.367  1.00  0.00     0.060 A 
ATOM     31  C   UNL A   1      42.903  24.613  27.393  1.00  0.00     0.016 A 
ATOM     32  C   UNL A   1      44.140  26.527  26.552  1.00  0.00     0.016 A 
ATOM     33  C   UNL A   1      42.657  25.280  28.590  1.00  0.00     0.010 A 
ATOM     34  C   UNL A   1      43.855  27.214  27.738  1.00  0.00     0.010 A 
ATOM     35  C   UNL A   1      43.070  26.609  28.738  1.00  0.00    -0.014 A 
BRANCH  35  36
ATOM     36  C   UNL A   1      42.386  27.438  29.760  1.00  0.00     0.031 A 
ATOM     37  C   UNL A   1      42.976  27.437  31.146  1.00  0.00     0.074 A 
ATOM     38  C   UNL A   1      41.319  28.204  29.474  1.00  0.00     0.049 A 
ATOM     39  N   UNL A   1      42.631  28.126  32.200  1.00  0.00    -0.248 NA
ATOM     40  C   UNL A   1      44.121  26.534  31.369  1.00  0.00     0.031 C 
ATOM     41  C   UNL A   1      40.669  28.306  28.170  1.00  0.00     0.029 A 
ATOM     42  N   UNL A   1      40.590  29.041  30.283  1.00  0.00    -0.354 N 
ATOM     43  C   UNL A   1      43.499  27.728  33.211  1.00  0.00     0.074 A 
ATOM     44  C   UNL A   1      44.377  26.726  32.653  1.00  0.00     0.031 C 
ATOM     45  C   UNL A   1      39.620  29.143  28.272  1.00  0.00     0.029 A 
ATOM     46  C   UNL A   1      39.519  29.626  29.649  1.00  0.00     0.049 A 
ATOM     47  H   UNL A   1      40.813  29.207  31.227  1.00  0.00     0.167 HD
ATOM     48  C   UNL A   1      43.568  28.160  34.491  1.00  0.00     0.034 A 
ATOM     49  C   UNL A   1      38.568  30.450  30.135  1.00  0.00     0.034 A 
ATOM     50  C   UNL A   1      42.685  29.144  35.049  1.00  0.00     0.049 A 
ATOM     51  C   UNL A   1      38.645  30.891  31.578  1.00  0.00     0.074 A 
ATOM     52  C   UNL A   1      42.687  29.675  36.325  1.00  0.00     0.029 A 
ATOM     53  N   UNL A   1      41.621  29.719  34.373  1.00  0.00    -0.354 N 
ATOM     54  N   UNL A   1      39.539  30.593  32.491  1.00  0.00    -0.248 NA
ATOM     55  C   UNL A   1      37.603  31.818  32.045  1.00  0.00     0.031 C 
ATOM     56  C   UNL A   1      41.590  30.534  36.437  1.00  0.00     0.029 A 
ATOM     57  C   UNL A   1      40.948  30.590  35.211  1.00  0.00     0.049 A 
ATOM     58  H   UNL A   1      41.381  29.536  33.436  1.00  0.00     0.167 HD
ATOM     59  C   UNL A   1      39.201  31.338  33.618  1.00  0.00     0.074 A 
ATOM     60  C   UNL A   1      38.024  32.106  33.268  1.00  0.00     0.031 C 
ATOM     61  C   UNL A   1      39.808  31.384  34.830  1.00  0.00     0.034 A 
BRANCH  48  62
ATOM     62  C   UNL A   1      44.626  27.551  35.373  1.00  0.00     0.023 A 
ATOM     63  C   UNL A   1      44.338  26.403  36.139  1.00  0.00     0.012 A 
ATOM     64  C   UNL A   1      45.916  28.111  35.425  1.00  0.00     0.148 A 
ATOM     65  C   UNL A   1      45.306  25.844  36.972  1.00  0.00     0.002 A 
ATOM     66  C   UNL A   1      46.892  27.519  36.216  1.00  0.00     0.091 A 
ATOM     67  F   UNL A   1      46.162  29.220  34.713  1.00  0.00    -0.205 F 
ATOM     68  C   UNL A   1      46.586  26.396  37.002  1.00  0.00     0.022 A 
BRANCH  66  69
ATOM     69  S   UNL A   1      48.589  28.103  36.258  1.00  0.00     0.127 S 
ATOM     70  O   UNL A   1      49.274  26.977  36.892  1.00  0.00    -0.237 OA
ATOM     71  O   UNL A   1      48.887  28.275  34.836  1.00  0.00    -0.237 OA
ATOM     72  O   UNL A   1      48.573  29.336  37.032  1.00  0.00    -0.744 OA
ENDBRANCH  66  69
ENDBRANCH  48  62
BRANCH  49  73
ATOM     73  C   UNL A   1      37.477  30.952  29.249  1.00  0.00     0.023 A 
ATOM     74  C   UNL A   1      37.408  32.322  28.929  1.00  0.00     0.012 A 
ATOM     75  C   UNL A   1      36.494  30.080  28.741  1.00  0.00     0.148 A 
ATOM     76  C   UNL A   1      36.360  32.822  28.155  1.00  0.00     0.002 A 
ATOM     77  C   UNL A   1      35.483  30.574  27.926  1.00  0.00     0.091 A 
ATOM     78  F   UNL A   1      36.568  28.782  29.069  1.00  0.00    -0.205 F 
ATOM     79  C   UNL A   1      35.401  31.947  27.647  1.00  0.00     0.022 A 
BRANCH  77  80
ATOM     80  S   UNL A   1      34.266  29.511  27.142  1.00  0.00     0.127 S 
ATOM     81  O   UNL A   1      33.623  30.431  26.207  1.00  0.00    -0.237 OA
ATOM     82  O   UNL A   1      35.114  28.495  26.520  1.00  0.00    -0.237 OA
ATOM     83  O   UNL A   1      33.419  29.016  28.219  1.00  0.00    -0.744 OA
ENDBRANCH  77  80
ENDBRANCH  49  73
BRANCH  61  84
ATOM     84  C   UNL A   1      39.268  32.356  35.851  1.00  0.00     0.023 A 
ATOM     85  C   UNL A   1      38.255  31.968  36.748  1.00  0.00     0.012 A 
ATOM     86  C   UNL A   1      39.824  33.648  35.955  1.00  0.00     0.148 A 
ATOM     87  C   UNL A   1      37.766  32.867  37.697  1.00  0.00     0.002 A 
ATOM     88  C   UNL A   1      39.376  34.517  36.941  1.00  0.00     0.091 A 
ATOM     89  F   UNL A   1      40.780  34.005  35.084  1.00  0.00    -0.205 F 
ATOM     90  C   UNL A   1      38.334  34.135  37.800  1.00  0.00     0.022 A 
BRANCH  88  91
ATOM     91  S   UNL A   1      40.125  36.125  37.215  1.00  0.00     0.127 S 
ATOM     92  O   UNL A   1      39.387  36.602  38.383  1.00  0.00    -0.237 OA
ATOM     93  O   UNL A   1      41.522  35.776  37.477  1.00  0.00    -0.237 OA
ATOM     94  O   UNL A   1      39.913  36.884  35.990  1.00  0.00    -0.744 OA
ENDBRANCH  88  91
ENDBRANCH  61  84
ENDBRANCH  35  36
ENDBRANCH  28  30
ENDBRANCH  27  28
ENDBRANCH  26  27
ENDBRANCH  25  26
ENDBRANCH  24  25
ENDBRANCH   1  24
TORSDOF 21
ENDMDL
MODEL 2
REMARK VINA RESULT:     -10.2      5.001      8.712
REMARK SMILES O=C(OCCOCCOCCOC(=O)c1ccc(-c2c3nc(c(-c4cccc(S(=O)(=O)[O-])c4F)c4ccc([nH]4)c(-c4cccc(S(=O)(=O)[O-])c4F)c4nc(c(-c5cccc(S(=O)(=O)[O-])c5F)c5ccc2[nH]5)C=C4)C=C3)cc1)C1=Cc2cc(Cl)ccc2O[C@@H]1C(F)(F)F
REMARK SMILES IDX 8 1 7 2 6 3 5 4 4 5 3 6 2 7 1 8 78 9 79 10 88 11 80 12 87 13
REMARK SMILES IDX 81 14 86 15 82 16 85 17 83 18 84 19 89 20 90 21 91 22 92 23
REMARK SMILES IDX 9 24 10 25 11 26 12 27 13 28 14 29 15 30 16 31 77 32 17 33
REMARK SMILES IDX 76 34 18 35 19 36 20 37 70 38 21 39 75 40 69 41 71 42 22 43
REMARK SMILES IDX 74 44 68 45 67 46 23 48 55 49 35 50 54 51 36 52 39 53 53 54
REMARK SMILES IDX 72 55 37 56 38 57 52 59 73 60 40 61 24 62 25 63 33 64 26 65
REMARK SMILES IDX 28 66 34 67 27 68 29 69 30 70 31 71 32 72 56 73 57 74 65 75
REMARK SMILES IDX 58 76 60 77 66 78 59 79 61 80 62 81 63 82 64 83 41 84 42 85
REMARK SMILES IDX 50 86 43 87 45 88 51 89 44 90 46 91 47 92 48 93 49 94
REMARK H PARENT 71 47 39 58
REMARK Flexibility Score: inf
ROOT
ATOM      1  C   UNL A   1      44.253  23.391  28.059  1.00  0.00     0.188 C 
ENDROOT
BRANCH   1   2
ATOM      2  C   UNL A   1      43.522  23.076  29.379  1.00  0.00     0.188 C 
BRANCH   2   3
ATOM      3  O   UNL A   1      43.849  23.670  30.666  1.00  0.00    -0.376 OA
BRANCH   3   4
ATOM      4  C   UNL A   1      44.513  25.127  31.042  1.00  0.00     0.202 C 
BRANCH   4   5
ATOM      5  C   UNL A   1      43.697  26.702  32.307  1.00  0.00     0.261 C 
BRANCH   5   6
ATOM      6  O   UNL A   1      44.155  28.166  32.336  1.00  0.00    -0.460 OA
BRANCH   6   7
ATOM      7  C   UNL A   1      44.145  28.687  33.571  1.00  0.00     0.338 C 
ATOM      8  O   UNL A   1      44.274  28.134  34.632  1.00  0.00    -0.246 OA
BRANCH   7   9
ATOM      9  C   UNL A   1      43.568  29.956  33.192  1.00  0.00     0.087 C 
ATOM     10  C   UNL A   1      42.325  29.796  32.400  1.00  0.00     0.027 C 
ATOM     11  C   UNL A   1      43.660  30.735  34.958  1.00  0.00     0.316 C 
ATOM     12  C   UNL A   1      40.664  30.097  33.064  1.00  0.00     0.019 A 
ATOM     13  O   UNL A   1      41.893  30.956  35.723  1.00  0.00    -0.475 OA
ATOM     14  C   UNL A   1      39.559  29.825  32.305  1.00  0.00     0.032 A 
ATOM     15  C   UNL A   1      40.418  30.623  34.701  1.00  0.00     0.128 A 
ATOM     16  C   UNL A   1      38.329  30.046  32.957  1.00  0.00     0.041 A 
ATOM     17  C   UNL A   1      39.187  30.829  35.251  1.00  0.00     0.048 A 
ATOM     18  Cl  UNL A   1      36.894  29.694  32.043  1.00  0.00    -0.084 Cl
ATOM     19  C   UNL A   1      38.153  30.529  34.329  1.00  0.00     0.024 A 
BRANCH  11  20
ATOM     20  C   UNL A   1      44.829  31.818  34.649  1.00  0.00     0.430 C 
ATOM     21  F   UNL A   1      44.645  32.686  33.646  1.00  0.00    -0.167 F 
ATOM     22  F   UNL A   1      44.932  32.602  35.763  1.00  0.00    -0.167 F 
ATOM     23  F   UNL A   1      46.057  31.267  34.496  1.00  0.00    -0.167 F 
ENDBRANCH  11  20
ENDBRANCH   7   9
ENDBRANCH   6   7
ENDBRANCH   5   6
ENDBRANCH   4   5
ENDBRANCH   3   4
ENDBRANCH   2   3
ENDBRANCH   1   2
BRANCH   1  24
ATOM     24  O   UNL A   1      44.232  22.466  26.999  1.00  0.00    -0.376 OA
BRANCH  24  25
ATOM     25  C   UNL A   1      43.306  22.728  25.954  1.00  0.00     0.202 C 
BRANCH  25  26
ATOM     26  C   UNL A   1      42.039  21.865  25.884  1.00  0.00     0.261 C 
BRANCH  26  27
ATOM     27  O   UNL A   1      41.121  22.115  26.969  1.00  0.00    -0.460 OA
BRANCH  27  28
ATOM     28  C   UNL A   1      39.893  22.584  26.631  1.00  0.00     0.338 C 
ATOM     29  O   UNL A   1      38.958  21.933  26.195  1.00  0.00    -0.246 OA
BRANCH  28  30
ATOM     30  C   UNL A   1      39.758  24.001  27.039  1.00  0.00     0.060 A 
ATOM     31  C   UNL A   1      40.159  24.992  26.128  1.00  0.00     0.016 A 
ATOM     32  C   UNL A   1      39.280  24.356  28.302  1.00  0.00     0.016 A 
ATOM     33  C   UNL A   1      40.122  26.336  26.491  1.00  0.00     0.010 A 
ATOM     34  C   UNL A   1      39.284  25.704  28.682  1.00  0.00     0.010 A 
ATOM     35  C   UNL A   1      39.753  26.690  27.794  1.00  0.00    -0.014 A 
BRANCH  35  36
ATOM     36  C   UNL A   1      40.192  28.012  28.304  1.00  0.00     0.031 A 
ATOM     37  C   UNL A   1      41.668  28.197  28.539  1.00  0.00     0.074 A 
ATOM     38  C   UNL A   1      39.337  29.031  28.503  1.00  0.00     0.049 A 
ATOM     39  N   UNL A   1      42.328  29.264  28.902  1.00  0.00    -0.248 NA
ATOM     40  C   UNL A   1      42.517  27.010  28.329  1.00  0.00     0.031 C 
ATOM     41  C   UNL A   1      37.892  28.983  28.294  1.00  0.00     0.029 A 
ATOM     42  N   UNL A   1      39.574  30.311  28.940  1.00  0.00    -0.354 N 
ATOM     43  C   UNL A   1      43.660  28.873  28.981  1.00  0.00     0.074 A 
ATOM     44  C   UNL A   1      43.717  27.470  28.647  1.00  0.00     0.031 C 
ATOM     45  C   UNL A   1      37.366  30.177  28.624  1.00  0.00     0.029 A 
ATOM     46  C   UNL A   1      38.434  31.067  29.078  1.00  0.00     0.049 A 
ATOM     47  H   UNL A   1      40.476  30.654  29.136  1.00  0.00     0.167 HD
ATOM     48  C   UNL A   1      44.746  29.616  29.298  1.00  0.00     0.034 A 
ATOM     49  C   UNL A   1      38.280  32.330  29.526  1.00  0.00     0.034 A 
ATOM     50  C   UNL A   1      44.686  31.007  29.647  1.00  0.00     0.049 A 
ATOM     51  C   UNL A   1      39.505  33.128  29.909  1.00  0.00     0.074 A 
ATOM     52  C   UNL A   1      45.728  31.861  29.955  1.00  0.00     0.029 A 
ATOM     53  N   UNL A   1      43.516  31.739  29.765  1.00  0.00    -0.354 N 
ATOM     54  N   UNL A   1      40.768  32.780  29.871  1.00  0.00    -0.248 NA
ATOM     55  C   UNL A   1      39.281  34.511  30.357  1.00  0.00     0.031 C 
ATOM     56  C   UNL A   1      45.183  33.098  30.312  1.00  0.00     0.029 A 
ATOM     57  C   UNL A   1      43.808  33.032  30.158  1.00  0.00     0.049 A 
ATOM     58  H   UNL A   1      42.611  31.390  29.594  1.00  0.00     0.167 HD
ATOM     59  C   UNL A   1      41.491  33.914  30.232  1.00  0.00     0.074 A 
ATOM     60  C   UNL A   1      40.522  34.961  30.478  1.00  0.00     0.031 C 
ATOM     61  C   UNL A   1      42.833  34.076  30.349  1.00  0.00     0.034 A 
BRANCH  48  62
ATOM     62  C   UNL A   1      46.083  28.925  29.299  1.00  0.00     0.023 A 
ATOM     63  C   UNL A   1      46.661  28.496  30.511  1.00  0.00     0.012 A 
ATOM     64  C   UNL A   1      46.759  28.682  28.088  1.00  0.00     0.148 A 
ATOM     65  C   UNL A   1      47.908  27.872  30.522  1.00  0.00     0.002 A 
ATOM     66  C   UNL A   1      47.975  28.012  28.100  1.00  0.00     0.091 A 
ATOM     67  F   UNL A   1      46.207  29.124  26.949  1.00  0.00    -0.205 F 
ATOM     68  C   UNL A   1      48.559  27.621  29.315  1.00  0.00     0.022 A 
BRANCH  66  69
ATOM     69  S   UNL A   1      48.850  27.569  26.596  1.00  0.00     0.127 S 
ATOM     70  O   UNL A   1      49.883  26.671  27.110  1.00  0.00    -0.237 OA
ATOM     71  O   UNL A   1      47.801  26.911  25.817  1.00  0.00    -0.237 OA
ATOM     72  O   UNL A   1      49.338  28.818  26.030  1.00  0.00    -0.744 OA
ENDBRANCH  66  69
ENDBRANCH  48  62
BRANCH  49  73
ATOM     73  C   UNL A   1      36.923  32.944  29.605  1.00  0.00     0.023 A 
ATOM     74  C   UNL A   1      36.234  33.279  28.422  1.00  0.00     0.012 A 
ATOM     75  C   UNL A   1      36.321  33.220  30.848  1.00  0.00     0.148 A 
ATOM     76  C   UNL A   1      34.992  33.913  28.475  1.00  0.00     0.002 A 
ATOM     77  C   UNL A   1      35.060  33.802  30.894  1.00  0.00     0.091 A 
ATOM     78  F   UNL A   1      36.998  32.909  31.963  1.00  0.00    -0.205 F 
ATOM     79  C   UNL A   1      34.401  34.168  29.710  1.00  0.00     0.022 A 
BRANCH  77  80
ATOM     80  S   UNL A   1      34.175  34.073  32.434  1.00  0.00     0.127 S 
ATOM     81  O   UNL A   1      33.009  34.827  31.980  1.00  0.00    -0.237 OA
ATOM     82  O   UNL A   1      33.895  32.703  32.862  1.00  0.00    -0.237 OA
ATOM     83  O   UNL A   1      35.095  34.801  33.298  1.00  0.00    -0.744 OA
ENDBRANCH  77  80
ENDBRANCH  49  73
BRANCH  61  84
ATOM     84  C   UNL A   1      43.350  35.454  30.680  1.00  0.00     0.023 A 
ATOM     85  C   UNL A   1      43.540  35.850  32.018  1.00  0.00     0.012 A 
ATOM     86  C   UNL A   1      43.708  36.339  29.641  1.00  0.00     0.148 A 
ATOM     87  C   UNL A   1      44.028  37.122  32.318  1.00  0.00     0.002 A 
ATOM     88  C   UNL A   1      44.250  37.580  29.946  1.00  0.00     0.091 A 
ATOM     89  F   UNL A   1      43.508  35.951  28.373  1.00  0.00    -0.205 F 
ATOM     90  C   UNL A   1      44.393  37.981  31.284  1.00  0.00     0.022 A 
BRANCH  88  91
ATOM     91  S   UNL A   1      44.848  38.704  28.680  1.00  0.00     0.127 S 
ATOM     92  O   UNL A   1      43.605  39.090  28.013  1.00  0.00    -0.237 OA
ATOM     93  O   UNL A   1      45.469  39.764  29.474  1.00  0.00    -0.237 OA
ATOM     94  O   UNL A   1      45.780  37.935  27.866  1.00  0.00    -0.744 OA
ENDBRANCH  88  91
ENDBRANCH  61  84
ENDBRANCH  35  36
ENDBRANCH  28  30
ENDBRANCH  27  28
ENDBRANCH  26  27
ENDBRANCH  25  26
ENDBRANCH  24  25
ENDBRANCH   1  24
TORSDOF 21
ENDMDL
MODEL 3
REMARK VINA RESULT:     -10.2      6.211     11.577
REMARK SMILES O=C(OCCOCCOCCOC(=O)c1ccc(-c2c3nc(c(-c4cccc(S(=O)(=O)[O-])c4F)c4ccc([nH]4)c(-c4cccc(S(=O)(=O)[O-])c4F)c4nc(c(-c5cccc(S(=O)(=O)[O-])c5F)c5ccc2[nH]5)C=C4)C=C3)cc1)C1=Cc2cc(Cl)ccc2O[C@@H]1C(F)(F)F
REMARK SMILES IDX 8 1 7 2 6 3 5 4 4 5 3 6 2 7 1 8 78 9 79 10 88 11 80 12 87 13
REMARK SMILES IDX 81 14 86 15 82 16 85 17 83 18 84 19 89 20 90 21 91 22 92 23
REMARK SMILES IDX 9 24 10 25 11 26 12 27 13 28 14 29 15 30 16 31 77 32 17 33
REMARK SMILES IDX 76 34 18 35 19 36 20 37 70 38 21 39 75 40 69 41 71 42 22 43
REMARK SMILES IDX 74 44 68 45 67 46 23 48 55 49 35 50 54 51 36 52 39 53 53 54
REMARK SMILES IDX 72 55 37 56 38 57 52 59 73 60 40 61 24 62 25 63 33 64 26 65
REMARK SMILES IDX 28 66 34 67 27 68 29 69 30 70 31 71 32 72 56 73 57 74 65 75
REMARK SMILES IDX 58 76 60 77 66 78 59 79 61 80 62 81 63 82 64 83 41 84 42 85
REMARK SMILES IDX 50 86 43 87 45 88 51 89 44 90 46 91 47 92 48 93 49 94
REMARK H PARENT 71 47 39 58
REMARK Flexibility Score: inf
ROOT
ATOM      1  C   UNL A   1      46.054  22.638  24.965  1.00  0.00     0.188 C 
ENDROOT
BRANCH   1   2
ATOM      2  C   UNL A   1      45.498  24.066  24.810  1.00  0.00     0.188 C 
BRANCH   2   3
ATOM      3  O   UNL A   1      46.314  25.249  24.582  1.00  0.00    -0.376 OA
BRANCH   3   4
ATOM      4  C   UNL A   1      46.578  26.573  25.521  1.00  0.00     0.202 C 
BRANCH   4   5
ATOM      5  C   UNL A   1      45.128  28.021  26.261  1.00  0.00     0.261 C 
BRANCH   5   6
ATOM      6  O   UNL A   1      45.452  29.357  26.943  1.00  0.00    -0.460 OA
BRANCH   6   7
ATOM      7  C   UNL A   1      46.047  30.228  26.117  1.00  0.00     0.338 C 
ATOM      8  O   UNL A   1      46.484  30.052  25.011  1.00  0.00    -0.246 OA
BRANCH   7   9
ATOM      9  C   UNL A   1      46.303  31.233  27.123  1.00  0.00     0.087 C 
ATOM     10  C   UNL A   1      47.713  31.228  27.580  1.00  0.00     0.027 C 
ATOM     11  C   UNL A   1      45.460  32.679  26.158  1.00  0.00     0.316 C 
ATOM     12  C   UNL A   1      48.931  32.483  27.098  1.00  0.00     0.019 A 
ATOM     13  O   UNL A   1      46.767  33.970  25.541  1.00  0.00    -0.475 OA
ATOM     14  C   UNL A   1      50.240  32.352  27.472  1.00  0.00     0.032 A 
ATOM     15  C   UNL A   1      48.509  33.814  26.064  1.00  0.00     0.128 A 
ATOM     16  C   UNL A   1      51.095  33.362  26.986  1.00  0.00     0.041 A 
ATOM     17  C   UNL A   1      49.399  34.761  25.651  1.00  0.00     0.048 A 
ATOM     18  Cl  UNL A   1      52.773  33.230  27.414  1.00  0.00    -0.084 Cl
ATOM     19  C   UNL A   1      50.701  34.497  26.146  1.00  0.00     0.024 A 
BRANCH  11  20
ATOM     20  C   UNL A   1      44.169  32.853  27.125  1.00  0.00     0.430 C 
ATOM     21  F   UNL A   1      44.360  33.313  28.369  1.00  0.00    -0.167 F 
ATOM     22  F   UNL A   1      43.368  33.790  26.536  1.00  0.00    -0.167 F 
ATOM     23  F   UNL A   1      43.399  31.741  27.213  1.00  0.00    -0.167 F 
ENDBRANCH  11  20
ENDBRANCH   7   9
ENDBRANCH   6   7
ENDBRANCH   5   6
ENDBRANCH   4   5
ENDBRANCH   3   4
ENDBRANCH   2   3
ENDBRANCH   1   2
BRANCH   1  24
ATOM     24  O   UNL A   1      45.417  21.556  24.329  1.00  0.00    -0.376 OA
BRANCH  24  25
ATOM     25  C   UNL A   1      45.348  20.344  25.067  1.00  0.00     0.202 C 
BRANCH  25  26
ATOM     26  C   UNL A   1      44.073  19.499  24.941  1.00  0.00     0.261 C 
BRANCH  26  27
ATOM     27  O   UNL A   1      43.304  19.446  26.161  1.00  0.00    -0.460 OA
BRANCH  27  28
ATOM     28  C   UNL A   1      42.064  19.996  26.124  1.00  0.00     0.338 C 
ATOM     29  O   UNL A   1      41.028  19.440  25.800  1.00  0.00    -0.246 OA
BRANCH  28  30
ATOM     30  C   UNL A   1      42.090  21.352  26.719  1.00  0.00     0.060 A 
ATOM     31  C   UNL A   1      42.261  22.449  25.857  1.00  0.00     0.016 A 
ATOM     32  C   UNL A   1      41.985  21.549  28.097  1.00  0.00     0.016 A 
ATOM     33  C   UNL A   1      42.367  23.737  26.374  1.00  0.00     0.010 A 
ATOM     34  C   UNL A   1      42.136  22.839  28.619  1.00  0.00     0.010 A 
ATOM     35  C   UNL A   1      42.377  23.928  27.760  1.00  0.00    -0.014 A 
BRANCH  35  36
ATOM     36  C   UNL A   1      42.980  25.178  28.283  1.00  0.00     0.031 A 
ATOM     37  C   UNL A   1      42.049  26.339  28.518  1.00  0.00     0.074 A 
ATOM     38  C   UNL A   1      44.285  25.278  28.592  1.00  0.00     0.049 A 
ATOM     39  N   UNL A   1      42.292  27.511  29.039  1.00  0.00    -0.248 NA
ATOM     40  C   UNL A   1      40.645  26.144  28.112  1.00  0.00     0.031 C 
ATOM     41  C   UNL A   1      45.281  24.223  28.428  1.00  0.00     0.029 A 
ATOM     42  N   UNL A   1      44.993  26.337  29.104  1.00  0.00    -0.354 N 
ATOM     43  C   UNL A   1      41.082  28.196  29.005  1.00  0.00     0.074 A 
ATOM     44  C   UNL A   1      40.109  27.319  28.399  1.00  0.00     0.031 C 
ATOM     45  C   UNL A   1      46.481  24.695  28.813  1.00  0.00     0.029 A 
ATOM     46  C   UNL A   1      46.339  26.088  29.238  1.00  0.00     0.049 A 
ATOM     47  H   UNL A   1      44.577  27.195  29.350  1.00  0.00     0.167 HD
ATOM     48  C   UNL A   1      40.800  29.444  29.446  1.00  0.00     0.034 A 
ATOM     49  C   UNL A   1      47.334  26.898  29.651  1.00  0.00     0.034 A 
ATOM     50  C   UNL A   1      41.772  30.321  30.033  1.00  0.00     0.049 A 
ATOM     51  C   UNL A   1      47.000  28.301  30.104  1.00  0.00     0.074 A 
ATOM     52  C   UNL A   1      41.586  31.593  30.540  1.00  0.00     0.029 A 
ATOM     53  N   UNL A   1      43.120  30.029  30.161  1.00  0.00    -0.354 N 
ATOM     54  N   UNL A   1      45.833  28.895  30.172  1.00  0.00    -0.248 NA
ATOM     55  C   UNL A   1      48.119  29.129  30.578  1.00  0.00     0.031 C 
ATOM     56  C   UNL A   1      42.833  32.092  30.927  1.00  0.00     0.029 A 
ATOM     57  C   UNL A   1      43.783  31.103  30.726  1.00  0.00     0.049 A 
ATOM     58  H   UNL A   1      43.542  29.181  29.892  1.00  0.00     0.167 HD
ATOM     59  C   UNL A   1      46.068  30.141  30.749  1.00  0.00     0.074 A 
ATOM     60  C   UNL A   1      47.489  30.211  31.017  1.00  0.00     0.031 C 
ATOM     61  C   UNL A   1      45.190  31.136  31.031  1.00  0.00     0.034 A 
BRANCH  48  62
ATOM     62  C   UNL A   1      39.384  29.932  29.287  1.00  0.00     0.023 A 
ATOM     63  C   UNL A   1      38.769  29.926  28.018  1.00  0.00     0.012 A 
ATOM     64  C   UNL A   1      38.657  30.379  30.405  1.00  0.00     0.148 A 
ATOM     65  C   UNL A   1      37.465  30.394  27.859  1.00  0.00     0.002 A 
ATOM     66  C   UNL A   1      37.340  30.794  30.250  1.00  0.00     0.091 A 
ATOM     67  F   UNL A   1      39.269  30.405  31.598  1.00  0.00    -0.205 F 
ATOM     68  C   UNL A   1      36.748  30.817  28.977  1.00  0.00     0.022 A 
BRANCH  66  69
ATOM     69  S   UNL A   1      36.308  31.277  31.637  1.00  0.00     0.127 S 
ATOM     70  O   UNL A   1      37.097  32.357  32.229  1.00  0.00    -0.237 OA
ATOM     71  O   UNL A   1      35.084  31.714  30.966  1.00  0.00    -0.237 OA
ATOM     72  O   UNL A   1      36.161  30.089  32.465  1.00  0.00    -0.744 OA
ENDBRANCH  66  69
ENDBRANCH  48  62
BRANCH  49  73
ATOM     73  C   UNL A   1      48.742  26.405  29.699  1.00  0.00     0.023 A 
ATOM     74  C   UNL A   1      49.204  25.712  30.835  1.00  0.00     0.012 A 
ATOM     75  C   UNL A   1      49.631  26.641  28.632  1.00  0.00     0.148 A 
ATOM     76  C   UNL A   1      50.534  25.299  30.926  1.00  0.00     0.002 A 
ATOM     77  C   UNL A   1      50.940  26.179  28.706  1.00  0.00     0.091 A 
ATOM     78  F   UNL A   1      49.177  27.316  27.567  1.00  0.00    -0.205 F 
ATOM     79  C   UNL A   1      51.400  25.525  29.859  1.00  0.00     0.022 A 
BRANCH  77  80
ATOM     80  S   UNL A   1      52.097  26.332  27.341  1.00  0.00     0.127 S 
ATOM     81  O   UNL A   1      53.353  25.927  27.967  1.00  0.00    -0.237 OA
ATOM     82  O   UNL A   1      51.552  25.376  26.378  1.00  0.00    -0.237 OA
ATOM     83  O   UNL A   1      52.029  27.724  26.916  1.00  0.00    -0.744 OA
ENDBRANCH  77  80
ENDBRANCH  49  73
BRANCH  61  84
ATOM     84  C   UNL A   1      45.717  32.358  31.741  1.00  0.00     0.023 A 
ATOM     85  C   UNL A   1      45.617  32.477  33.141  1.00  0.00     0.012 A 
ATOM     86  C   UNL A   1      46.375  33.368  31.009  1.00  0.00     0.148 A 
ATOM     87  C   UNL A   1      46.114  33.605  33.795  1.00  0.00     0.002 A 
ATOM     88  C   UNL A   1      46.922  34.459  31.672  1.00  0.00     0.091 A 
ATOM     89  F   UNL A   1      46.451  33.246  29.676  1.00  0.00    -0.205 F 
ATOM     90  C   UNL A   1      46.776  34.588  33.062  1.00  0.00     0.022 A 
BRANCH  88  91
ATOM     91  S   UNL A   1      47.884  35.715  30.823  1.00  0.00     0.127 S 
ATOM     92  O   UNL A   1      48.314  36.562  31.934  1.00  0.00    -0.237 OA
ATOM     93  O   UNL A   1      48.952  34.924  30.210  1.00  0.00    -0.237 OA
ATOM     94  O   UNL A   1      46.977  36.344  29.872  1.00  0.00    -0.744 OA
ENDBRANCH  88  91
ENDBRANCH  61  84
ENDBRANCH  35  36
ENDBRANCH  28  30
ENDBRANCH  27  28
ENDBRANCH  26  27
ENDBRANCH  25  26
ENDBRANCH  24  25
ENDBRANCH   1  24
TORSDOF 21
ENDMDL
