MODEL 1
REMARK VINA RESULT:     -10.9      0.000      0.000
REMARK SMILES CCc1cccc2c3c([nH]c12)[C@](CC)(CC(=O)OCCOCCOCCOC(=O)c1ccc(-c2c4nc(c(-c5cccc(S(=O)(=O)[O-])c5F)c5ccc([nH]5)c(-c5cccc(S(=O)(=O)[O-])c5F)c5nc(c(-c6cccc(S(=O)(=O)[O-])c6F)c6ccc2[nH]6)C=C5)C=C4)cc1)OCC3
REMARK SMILES IDX 23 1 22 2 21 3 20 4 19 5 18 6 16 7 17 8 15 9 12 10 3 11 4 12
REMARK SMILES IDX 11 13 5 14 7 15 10 16 6 17 8 18 9 19 95 21 94 22 93 23 2 24
REMARK SMILES IDX 1 25 13 26 14 27 24 28 25 29 26 30 27 31 28 32 29 33 30 34
REMARK SMILES IDX 31 35 92 36 32 37 91 38 33 39 34 40 35 41 85 42 36 43 90 44
REMARK SMILES IDX 84 45 86 46 37 47 89 48 83 49 82 50 38 52 70 53 50 54 69 55
REMARK SMILES IDX 51 56 54 57 68 58 87 59 52 60 53 61 67 63 88 64 55 65 39 66
REMARK SMILES IDX 40 67 48 68 41 69 43 70 49 71 42 72 44 73 45 74 46 75 47 76
REMARK SMILES IDX 71 77 72 78 80 79 73 80 75 81 81 82 74 83 76 84 77 85 78 86
REMARK SMILES IDX 79 87 56 88 57 89 65 90 58 91 60 92 66 93 59 94 61 95 62 96
REMARK SMILES IDX 63 97 64 98
REMARK H PARENT 10 20 86 51 54 62
REMARK Flexibility Score: inf
ROOT
ATOM      1  C   UNL A   1      41.350  20.058  27.488  1.00  0.00     0.188 C 
ENDROOT
BRANCH   1   2
ATOM      2  C   UNL A   1      40.873  21.469  27.092  1.00  0.00     0.188 C 
BRANCH   2   3
ATOM      3  O   UNL A   1      39.505  21.706  26.790  1.00  0.00    -0.376 OA
BRANCH   3   4
ATOM      4  C   UNL A   1      39.070  23.010  26.458  1.00  0.00     0.202 C 
BRANCH   4   5
ATOM      5  C   UNL A   1      37.690  23.143  25.799  1.00  0.00     0.261 C 
BRANCH   5   6
ATOM      6  O   UNL A   1      37.493  22.305  24.629  1.00  0.00    -0.463 OA
BRANCH   6   7
ATOM      7  C   UNL A   1      36.385  22.599  23.924  1.00  0.00     0.309 C 
ATOM      8  O   UNL A   1      36.490  23.004  22.766  1.00  0.00    -0.252 OA
BRANCH   7   9
ATOM      9  C   UNL A   1      34.988  22.460  24.549  1.00  0.00     0.164 C 
BRANCH   9  10
ATOM     10  C   UNL A   1      33.549  23.000  24.333  1.00  0.00     0.118 C 
ATOM     11  C   UNL A   1      33.189  28.040  25.232  1.00  0.00    -0.024 A 
ATOM     12  C   UNL A   1      33.139  29.136  24.342  1.00  0.00     0.006 A 
ATOM     13  C   UNL A   1      33.144  26.755  24.614  1.00  0.00     0.049 A 
ATOM     14  C   UNL A   1      33.032  28.977  22.962  1.00  0.00     0.001 A 
ATOM     15  C   UNL A   1      33.071  26.575  23.229  1.00  0.00     0.003 A 
ATOM     16  N   UNL A   1      33.221  25.475  25.154  1.00  0.00    -0.356 N 
ATOM     17  C   UNL A   1      32.976  27.705  22.397  1.00  0.00     0.010 A 
ATOM     18  C   UNL A   1      33.120  25.177  22.979  1.00  0.00    -0.014 A 
ATOM     19  C   UNL A   1      33.396  24.524  24.160  1.00  0.00     0.052 A 
ATOM     20  H   UNL A   1      33.162  25.272  26.115  1.00  0.00     0.166 HD
ATOM     21  C   UNL A   1      32.884  24.421  21.730  1.00  0.00     0.066 C 
ATOM     22  C   UNL A   1      33.230  22.939  21.920  1.00  0.00     0.166 C 
ATOM     23  O   UNL A   1      32.891  22.394  23.204  1.00  0.00    -0.368 OA
BRANCH  11  24
ATOM     24  C   UNL A   1      33.382  28.246  26.725  1.00  0.00     0.034 C 
ATOM     25  C   UNL A   1      34.664  28.953  27.172  1.00  0.00     0.009 C 
ENDBRANCH  11  24
BRANCH  10  26
ATOM     26  C   UNL A   1      32.715  22.645  25.626  1.00  0.00     0.039 C 
ATOM     27  C   UNL A   1      31.228  22.973  25.621  1.00  0.00     0.007 C 
ENDBRANCH  10  26
ENDBRANCH   9  10
ENDBRANCH   7   9
ENDBRANCH   6   7
ENDBRANCH   5   6
ENDBRANCH   4   5
ENDBRANCH   3   4
ENDBRANCH   2   3
ENDBRANCH   1   2
BRANCH   1  28
ATOM     28  O   UNL A   1      41.763  19.172  26.458  1.00  0.00    -0.376 OA
BRANCH  28  29
ATOM     29  C   UNL A   1      42.738  18.203  26.828  1.00  0.00     0.202 C 
BRANCH  29  30
ATOM     30  C   UNL A   1      43.929  18.067  25.865  1.00  0.00     0.261 C 
BRANCH  30  31
ATOM     31  O   UNL A   1      43.809  19.063  24.825  1.00  0.00    -0.460 OA
BRANCH  31  32
ATOM     32  C   UNL A   1      44.915  19.815  24.603  1.00  0.00     0.338 C 
ATOM     33  O   UNL A   1      45.853  19.515  23.882  1.00  0.00    -0.246 OA
BRANCH  32  34
ATOM     34  C   UNL A   1      44.594  21.195  25.053  1.00  0.00     0.060 A 
ATOM     35  C   UNL A   1      43.492  21.943  24.655  1.00  0.00     0.016 A 
ATOM     36  C   UNL A   1      45.576  21.805  25.825  1.00  0.00     0.016 A 
ATOM     37  C   UNL A   1      43.405  23.300  25.038  1.00  0.00     0.010 A 
ATOM     38  C   UNL A   1      45.513  23.153  26.170  1.00  0.00     0.010 A 
ATOM     39  C   UNL A   1      44.431  23.925  25.778  1.00  0.00    -0.014 A 
BRANCH  39  40
ATOM     40  C   UNL A   1      44.228  25.208  26.477  1.00  0.00     0.031 A 
ATOM     41  C   UNL A   1      45.319  26.149  26.219  1.00  0.00     0.074 A 
ATOM     42  C   UNL A   1      43.216  25.721  27.210  1.00  0.00     0.049 A 
ATOM     43  N   UNL A   1      46.350  26.262  26.984  1.00  0.00    -0.248 NA
ATOM     44  C   UNL A   1      45.345  26.959  25.003  1.00  0.00     0.031 C 
ATOM     45  C   UNL A   1      41.978  25.086  27.593  1.00  0.00     0.029 A 
ATOM     46  N   UNL A   1      43.073  26.963  27.777  1.00  0.00    -0.354 N 
ATOM     47  C   UNL A   1      47.017  27.368  26.510  1.00  0.00     0.074 A 
ATOM     48  C   UNL A   1      46.479  27.640  25.196  1.00  0.00     0.031 C 
ATOM     49  C   UNL A   1      41.100  25.962  28.125  1.00  0.00     0.029 A 
ATOM     50  C   UNL A   1      41.814  27.205  28.321  1.00  0.00     0.049 A 
ATOM     51  H   UNL A   1      43.800  27.627  27.797  1.00  0.00     0.167 HD
ATOM     52  C   UNL A   1      47.762  28.122  27.356  1.00  0.00     0.034 A 
ATOM     53  C   UNL A   1      41.421  28.215  29.130  1.00  0.00     0.034 A 
ATOM     54  C   UNL A   1      47.948  27.498  28.647  1.00  0.00     0.049 A 
ATOM     55  C   UNL A   1      42.610  28.526  29.953  1.00  0.00     0.074 A 
ATOM     56  C   UNL A   1      48.418  26.277  29.093  1.00  0.00     0.029 A 
ATOM     57  N   UNL A   1      47.245  28.037  29.697  1.00  0.00    -0.354 N 
ATOM     58  N   UNL A   1      43.122  27.715  30.841  1.00  0.00    -0.248 NA
ATOM     59  C   UNL A   1      43.435  29.663  29.592  1.00  0.00     0.031 C 
ATOM     60  C   UNL A   1      47.631  25.960  30.242  1.00  0.00     0.029 A 
ATOM     61  C   UNL A   1      46.728  27.007  30.443  1.00  0.00     0.049 A 
ATOM     62  H   UNL A   1      47.131  28.997  29.882  1.00  0.00     0.167 HD
ATOM     63  C   UNL A   1      44.479  27.997  30.822  1.00  0.00     0.074 A 
ATOM     64  C   UNL A   1      44.580  29.296  30.171  1.00  0.00     0.031 C 
ATOM     65  C   UNL A   1      45.417  27.036  31.074  1.00  0.00     0.034 A 
BRANCH  52  66
ATOM     66  C   UNL A   1      48.033  29.573  27.131  1.00  0.00     0.023 A 
ATOM     67  C   UNL A   1      49.361  30.020  27.260  1.00  0.00     0.012 A 
ATOM     68  C   UNL A   1      47.022  30.548  26.995  1.00  0.00     0.148 A 
ATOM     69  C   UNL A   1      49.671  31.381  27.232  1.00  0.00     0.002 A 
ATOM     70  C   UNL A   1      47.346  31.891  26.869  1.00  0.00     0.091 A 
ATOM     71  F   UNL A   1      45.734  30.198  27.113  1.00  0.00    -0.205 F 
ATOM     72  C   UNL A   1      48.667  32.317  27.007  1.00  0.00     0.022 A 
BRANCH  70  73
ATOM     73  S   UNL A   1      46.075  33.094  26.475  1.00  0.00     0.127 S 
ATOM     74  O   UNL A   1      45.290  32.379  25.476  1.00  0.00    -0.237 OA
ATOM     75  O   UNL A   1      45.415  33.283  27.767  1.00  0.00    -0.237 OA
ATOM     76  O   UNL A   1      46.816  34.264  26.012  1.00  0.00    -0.744 OA
ENDBRANCH  70  73
ENDBRANCH  52  66
BRANCH  53  77
ATOM     77  C   UNL A   1      40.107  28.888  29.294  1.00  0.00     0.023 A 
ATOM     78  C   UNL A   1      39.289  29.110  28.165  1.00  0.00     0.012 A 
ATOM     79  C   UNL A   1      39.524  29.058  30.570  1.00  0.00     0.148 A 
ATOM     80  C   UNL A   1      37.930  29.428  28.301  1.00  0.00     0.002 A 
ATOM     81  C   UNL A   1      38.170  29.381  30.698  1.00  0.00     0.091 A 
ATOM     82  F   UNL A   1      40.266  28.817  31.662  1.00  0.00    -0.205 F 
ATOM     83  C   UNL A   1      37.366  29.550  29.565  1.00  0.00     0.022 A 
BRANCH  81  84
ATOM     84  S   UNL A   1      37.400  29.549  32.316  1.00  0.00     0.127 S 
ATOM     85  O   UNL A   1      38.296  30.479  33.008  1.00  0.00    -0.237 OA
ATOM     86  O   UNL A   1      36.092  30.101  31.982  1.00  0.00    -0.237 OA
ATOM     87  O   UNL A   1      37.410  28.201  32.870  1.00  0.00    -0.744 OA
ENDBRANCH  81  84
ENDBRANCH  53  77
BRANCH  65  88
ATOM     88  C   UNL A   1      44.992  25.767  31.776  1.00  0.00     0.023 A 
ATOM     89  C   UNL A   1      44.422  24.685  31.077  1.00  0.00     0.012 A 
ATOM     90  C   UNL A   1      45.365  25.583  33.123  1.00  0.00     0.148 A 
ATOM     91  C   UNL A   1      44.228  23.448  31.703  1.00  0.00     0.002 A 
ATOM     92  C   UNL A   1      45.206  24.341  33.731  1.00  0.00     0.091 A 
ATOM     93  F   UNL A   1      45.921  26.619  33.770  1.00  0.00    -0.205 F 
ATOM     94  C   UNL A   1      44.632  23.273  33.025  1.00  0.00     0.022 A 
BRANCH  92  95
ATOM     95  S   UNL A   1      45.805  23.998  35.391  1.00  0.00     0.127 S 
ATOM     96  O   UNL A   1      44.894  24.787  36.219  1.00  0.00    -0.237 OA
ATOM     97  O   UNL A   1      45.623  22.549  35.491  1.00  0.00    -0.237 OA
ATOM     98  O   UNL A   1      47.196  24.434  35.420  1.00  0.00    -0.744 OA
ENDBRANCH  92  95
ENDBRANCH  65  88
ENDBRANCH  39  40
ENDBRANCH  32  34
ENDBRANCH  31  32
ENDBRANCH  30  31
ENDBRANCH  29  30
ENDBRANCH  28  29
ENDBRANCH   1  28
TORSDOF 23
ENDMDL
MODEL 2
REMARK VINA RESULT:     -10.3      2.243      6.123
REMARK SMILES CCc1cccc2c3c([nH]c12)[C@](CC)(CC(=O)OCCOCCOCCOC(=O)c1ccc(-c2c4nc(c(-c5cccc(S(=O)(=O)[O-])c5F)c5ccc([nH]5)c(-c5cccc(S(=O)(=O)[O-])c5F)c5nc(c(-c6cccc(S(=O)(=O)[O-])c6F)c6ccc2[nH]6)C=C5)C=C4)cc1)OCC3
REMARK SMILES IDX 23 1 22 2 21 3 20 4 19 5 18 6 16 7 17 8 15 9 12 10 3 11 4 12
REMARK SMILES IDX 11 13 5 14 7 15 10 16 6 17 8 18 9 19 95 21 94 22 93 23 2 24
REMARK SMILES IDX 1 25 13 26 14 27 24 28 25 29 26 30 27 31 28 32 29 33 30 34
REMARK SMILES IDX 31 35 92 36 32 37 91 38 33 39 34 40 35 41 85 42 36 43 90 44
REMARK SMILES IDX 84 45 86 46 37 47 89 48 83 49 82 50 38 52 70 53 50 54 69 55
REMARK SMILES IDX 51 56 54 57 68 58 87 59 52 60 53 61 67 63 88 64 55 65 39 66
REMARK SMILES IDX 40 67 48 68 41 69 43 70 49 71 42 72 44 73 45 74 46 75 47 76
REMARK SMILES IDX 71 77 72 78 80 79 73 80 75 81 81 82 74 83 76 84 77 85 78 86
REMARK SMILES IDX 79 87 56 88 57 89 65 90 58 91 60 92 66 93 59 94 61 95 62 96
REMARK SMILES IDX 63 97 64 98
REMARK H PARENT 10 20 86 51 54 62
REMARK Flexibility Score: inf
ROOT
ATOM      1  C   UNL A   1      40.755  20.411  27.026  1.00  0.00     0.188 C 
ENDROOT
BRANCH   1   2
ATOM      2  C   UNL A   1      40.232  21.787  26.569  1.00  0.00     0.188 C 
BRANCH   2   3
ATOM      3  O   UNL A   1      38.835  22.035  26.489  1.00  0.00    -0.376 OA
BRANCH   3   4
ATOM      4  C   UNL A   1      38.261  22.455  25.267  1.00  0.00     0.202 C 
BRANCH   4   5
ATOM      5  C   UNL A   1      37.040  21.675  24.761  1.00  0.00     0.261 C 
BRANCH   5   6
ATOM      6  O   UNL A   1      36.262  21.024  25.801  1.00  0.00    -0.463 OA
BRANCH   6   7
ATOM      7  C   UNL A   1      34.942  20.971  25.546  1.00  0.00     0.309 C 
ATOM      8  O   UNL A   1      34.491  20.054  24.859  1.00  0.00    -0.252 OA
BRANCH   7   9
ATOM      9  C   UNL A   1      33.988  22.051  26.079  1.00  0.00     0.164 C 
BRANCH   9  10
ATOM     10  C   UNL A   1      32.741  22.847  25.610  1.00  0.00     0.118 C 
ATOM     11  C   UNL A   1      33.737  27.835  24.930  1.00  0.00    -0.024 A 
ATOM     12  C   UNL A   1      33.967  28.578  23.751  1.00  0.00     0.006 A 
ATOM     13  C   UNL A   1      33.345  26.479  24.724  1.00  0.00     0.049 A 
ATOM     14  C   UNL A   1      33.805  28.036  22.478  1.00  0.00     0.001 A 
ATOM     15  C   UNL A   1      33.211  25.907  23.455  1.00  0.00     0.003 A 
ATOM     16  N   UNL A   1      33.089  25.452  25.627  1.00  0.00    -0.356 N 
ATOM     17  C   UNL A   1      33.408  26.710  22.318  1.00  0.00     0.010 A 
ATOM     18  C   UNL A   1      32.885  24.535  23.640  1.00  0.00    -0.014 A 
ATOM     19  C   UNL A   1      32.993  24.230  24.979  1.00  0.00     0.052 A 
ATOM     20  H   UNL A   1      32.989  25.576  26.598  1.00  0.00     0.166 HD
ATOM     21  C   UNL A   1      32.443  23.518  22.661  1.00  0.00     0.066 C 
ATOM     22  C   UNL A   1      32.387  22.130  23.310  1.00  0.00     0.166 C 
ATOM     23  O   UNL A   1      31.931  22.112  24.671  1.00  0.00    -0.368 OA
BRANCH  11  24
ATOM     24  C   UNL A   1      33.995  28.434  26.302  1.00  0.00     0.034 C 
ATOM     25  C   UNL A   1      32.815  28.474  27.278  1.00  0.00     0.009 C 
ENDBRANCH  11  24
BRANCH  10  26
ATOM     26  C   UNL A   1      31.858  23.132  26.889  1.00  0.00     0.039 C 
ATOM     27  C   UNL A   1      30.344  23.120  26.721  1.00  0.00     0.007 C 
ENDBRANCH  10  26
ENDBRANCH   9  10
ENDBRANCH   7   9
ENDBRANCH   6   7
ENDBRANCH   5   6
ENDBRANCH   4   5
ENDBRANCH   3   4
ENDBRANCH   2   3
ENDBRANCH   1   2
BRANCH   1  28
ATOM     28  O   UNL A   1      41.149  19.477  26.032  1.00  0.00    -0.376 OA
BRANCH  28  29
ATOM     29  C   UNL A   1      42.363  18.776  26.287  1.00  0.00     0.202 C 
BRANCH  29  30
ATOM     30  C   UNL A   1      43.475  18.988  25.246  1.00  0.00     0.261 C 
BRANCH  30  31
ATOM     31  O   UNL A   1      43.423  20.352  24.773  1.00  0.00    -0.460 OA
BRANCH  31  32
ATOM     32  C   UNL A   1      44.599  21.026  24.799  1.00  0.00     0.338 C 
ATOM     33  O   UNL A   1      45.517  20.898  24.004  1.00  0.00    -0.246 OA
BRANCH  32  34
ATOM     34  C   UNL A   1      44.403  22.198  25.691  1.00  0.00     0.060 A 
ATOM     35  C   UNL A   1      44.613  23.528  25.344  1.00  0.00     0.016 A 
ATOM     36  C   UNL A   1      44.119  21.887  27.017  1.00  0.00     0.016 A 
ATOM     37  C   UNL A   1      44.543  24.521  26.346  1.00  0.00     0.010 A 
ATOM     38  C   UNL A   1      44.090  22.860  28.014  1.00  0.00     0.010 A 
ATOM     39  C   UNL A   1      44.307  24.191  27.697  1.00  0.00    -0.014 A 
BRANCH  39  40
ATOM     40  C   UNL A   1      43.892  25.198  28.692  1.00  0.00     0.031 A 
ATOM     41  C   UNL A   1      42.523  25.664  28.459  1.00  0.00     0.074 A 
ATOM     42  C   UNL A   1      44.463  25.696  29.811  1.00  0.00     0.049 A 
ATOM     43  N   UNL A   1      42.242  26.708  27.758  1.00  0.00    -0.248 NA
ATOM     44  C   UNL A   1      41.374  24.900  28.938  1.00  0.00     0.031 C 
ATOM     45  C   UNL A   1      45.766  25.401  30.355  1.00  0.00     0.029 A 
ATOM     46  N   UNL A   1      43.977  26.592  30.731  1.00  0.00    -0.354 N 
ATOM     47  C   UNL A   1      40.895  26.907  27.952  1.00  0.00     0.074 A 
ATOM     48  C   UNL A   1      40.376  25.680  28.513  1.00  0.00     0.031 C 
ATOM     49  C   UNL A   1      45.920  25.896  31.601  1.00  0.00     0.029 A 
ATOM     50  C   UNL A   1      44.778  26.746  31.860  1.00  0.00     0.049 A 
ATOM     51  H   UNL A   1      43.134  27.083  30.603  1.00  0.00     0.167 HD
ATOM     52  C   UNL A   1      40.381  28.160  27.884  1.00  0.00     0.034 A 
ATOM     53  C   UNL A   1      44.706  27.689  32.826  1.00  0.00     0.034 A 
ATOM     54  C   UNL A   1      41.322  29.126  27.365  1.00  0.00     0.049 A 
ATOM     55  C   UNL A   1      44.232  28.906  32.133  1.00  0.00     0.074 A 
ATOM     56  C   UNL A   1      42.100  29.231  26.227  1.00  0.00     0.029 A 
ATOM     57  N   UNL A   1      41.857  30.010  28.270  1.00  0.00    -0.354 N 
ATOM     58  N   UNL A   1      44.924  29.558  31.237  1.00  0.00    -0.248 NA
ATOM     59  C   UNL A   1      42.829  29.266  32.228  1.00  0.00     0.031 C 
ATOM     60  C   UNL A   1      43.308  29.867  26.647  1.00  0.00     0.029 A 
ATOM     61  C   UNL A   1      43.201  30.125  28.016  1.00  0.00     0.049 A 
ATOM     62  H   UNL A   1      41.362  30.480  28.979  1.00  0.00     0.167 HD
ATOM     63  C   UNL A   1      43.968  30.084  30.380  1.00  0.00     0.074 A 
ATOM     64  C   UNL A   1      42.720  30.013  31.128  1.00  0.00     0.031 C 
ATOM     65  C   UNL A   1      44.217  30.263  29.048  1.00  0.00     0.034 A 
BRANCH  52  66
ATOM     66  C   UNL A   1      39.140  28.571  28.607  1.00  0.00     0.023 A 
ATOM     67  C   UNL A   1      38.059  29.042  27.840  1.00  0.00     0.012 A 
ATOM     68  C   UNL A   1      39.058  28.705  30.009  1.00  0.00     0.148 A 
ATOM     69  C   UNL A   1      36.932  29.602  28.446  1.00  0.00     0.002 A 
ATOM     70  C   UNL A   1      37.897  29.171  30.609  1.00  0.00     0.091 A 
ATOM     71  F   UNL A   1      40.144  28.503  30.766  1.00  0.00    -0.205 F 
ATOM     72  C   UNL A   1      36.837  29.640  29.833  1.00  0.00     0.022 A 
BRANCH  70  73
ATOM     73  S   UNL A   1      37.721  29.127  32.394  1.00  0.00     0.127 S 
ATOM     74  O   UNL A   1      36.374  29.658  32.572  1.00  0.00    -0.237 OA
ATOM     75  O   UNL A   1      37.870  27.701  32.686  1.00  0.00    -0.237 OA
ATOM     76  O   UNL A   1      38.820  29.950  32.886  1.00  0.00    -0.744 OA
ENDBRANCH  70  73
ENDBRANCH  52  66
BRANCH  53  77
ATOM     77  C   UNL A   1      45.062  27.648  34.268  1.00  0.00     0.023 A 
ATOM     78  C   UNL A   1      45.966  28.596  34.793  1.00  0.00     0.012 A 
ATOM     79  C   UNL A   1      44.314  26.877  35.187  1.00  0.00     0.148 A 
ATOM     80  C   UNL A   1      46.076  28.813  36.173  1.00  0.00     0.002 A 
ATOM     81  C   UNL A   1      44.433  27.094  36.563  1.00  0.00     0.091 A 
ATOM     82  F   UNL A   1      43.418  25.994  34.718  1.00  0.00    -0.205 F 
ATOM     83  C   UNL A   1      45.302  28.072  37.059  1.00  0.00     0.022 A 
BRANCH  81  84
ATOM     84  S   UNL A   1      43.450  26.157  37.743  1.00  0.00     0.127 S 
ATOM     85  O   UNL A   1      43.815  24.770  37.444  1.00  0.00    -0.237 OA
ATOM     86  O   UNL A   1      43.943  26.653  39.023  1.00  0.00    -0.237 OA
ATOM     87  O   UNL A   1      42.068  26.484  37.412  1.00  0.00    -0.744 OA
ENDBRANCH  81  84
ENDBRANCH  53  77
BRANCH  65  88
ATOM     88  C   UNL A   1      45.650  30.285  28.570  1.00  0.00     0.023 A 
ATOM     89  C   UNL A   1      46.441  31.448  28.644  1.00  0.00     0.012 A 
ATOM     90  C   UNL A   1      46.269  29.064  28.236  1.00  0.00     0.148 A 
ATOM     91  C   UNL A   1      47.817  31.398  28.394  1.00  0.00     0.002 A 
ATOM     92  C   UNL A   1      47.644  29.010  28.024  1.00  0.00     0.091 A 
ATOM     93  F   UNL A   1      45.505  27.962  28.184  1.00  0.00    -0.205 F 
ATOM     94  C   UNL A   1      48.420  30.178  28.097  1.00  0.00     0.022 A 
BRANCH  92  95
ATOM     95  S   UNL A   1      48.517  27.463  27.752  1.00  0.00     0.127 S 
ATOM     96  O   UNL A   1      48.629  26.926  29.108  1.00  0.00    -0.237 OA
ATOM     97  O   UNL A   1      47.592  26.735  26.882  1.00  0.00    -0.237 OA
ATOM     98  O   UNL A   1      49.785  27.815  27.124  1.00  0.00    -0.744 OA
ENDBRANCH  92  95
ENDBRANCH  65  88
ENDBRANCH  39  40
ENDBRANCH  32  34
ENDBRANCH  31  32
ENDBRANCH  30  31
ENDBRANCH  29  30
ENDBRANCH  28  29
ENDBRANCH   1  28
TORSDOF 23
ENDMDL
MODEL 3
REMARK VINA RESULT:     -10.0      4.312     10.107
REMARK SMILES CCc1cccc2c3c([nH]c12)[C@](CC)(CC(=O)OCCOCCOCCOC(=O)c1ccc(-c2c4nc(c(-c5cccc(S(=O)(=O)[O-])c5F)c5ccc([nH]5)c(-c5cccc(S(=O)(=O)[O-])c5F)c5nc(c(-c6cccc(S(=O)(=O)[O-])c6F)c6ccc2[nH]6)C=C5)C=C4)cc1)OCC3
REMARK SMILES IDX 23 1 22 2 21 3 20 4 19 5 18 6 16 7 17 8 15 9 12 10 3 11 4 12
REMARK SMILES IDX 11 13 5 14 7 15 10 16 6 17 8 18 9 19 95 21 94 22 93 23 2 24
REMARK SMILES IDX 1 25 13 26 14 27 24 28 25 29 26 30 27 31 28 32 29 33 30 34
REMARK SMILES IDX 31 35 92 36 32 37 91 38 33 39 34 40 35 41 85 42 36 43 90 44
REMARK SMILES IDX 84 45 86 46 37 47 89 48 83 49 82 50 38 52 70 53 50 54 69 55
REMARK SMILES IDX 51 56 54 57 68 58 87 59 52 60 53 61 67 63 88 64 55 65 39 66
REMARK SMILES IDX 40 67 48 68 41 69 43 70 49 71 42 72 44 73 45 74 46 75 47 76
REMARK SMILES IDX 71 77 72 78 80 79 73 80 75 81 81 82 74 83 76 84 77 85 78 86
REMARK SMILES IDX 79 87 56 88 57 89 65 90 58 91 60 92 66 93 59 94 61 95 62 96
REMARK SMILES IDX 63 97 64 98
REMARK H PARENT 10 20 86 51 54 62
REMARK Flexibility Score: inf
ROOT
ATOM      1  C   UNL A   1      32.599  29.404  25.598  1.00  0.00     0.188 C 
ENDROOT
BRANCH   1   2
ATOM      2  C   UNL A   1      31.410  28.538  25.139  1.00  0.00     0.188 C 
BRANCH   2   3
ATOM      3  O   UNL A   1      30.690  28.872  23.960  1.00  0.00    -0.376 OA
BRANCH   3   4
ATOM      4  C   UNL A   1      31.363  28.953  22.719  1.00  0.00     0.202 C 
BRANCH   4   5
ATOM      5  C   UNL A   1      32.289  27.787  22.346  1.00  0.00     0.261 C 
BRANCH   5   6
ATOM      6  O   UNL A   1      31.612  26.629  21.787  1.00  0.00    -0.463 OA
BRANCH   6   7
ATOM      7  C   UNL A   1      32.354  25.507  21.788  1.00  0.00     0.309 C 
ATOM      8  O   UNL A   1      33.274  25.386  20.979  1.00  0.00    -0.252 OA
BRANCH   7   9
ATOM      9  C   UNL A   1      32.058  24.362  22.769  1.00  0.00     0.164 C 
BRANCH   9  10
ATOM     10  C   UNL A   1      32.402  23.950  24.225  1.00  0.00     0.118 C 
ATOM     11  C   UNL A   1      34.167  19.141  24.537  1.00  0.00    -0.024 A 
ATOM     12  C   UNL A   1      35.483  18.647  24.674  1.00  0.00     0.006 A 
ATOM     13  C   UNL A   1      34.039  20.558  24.629  1.00  0.00     0.049 A 
ATOM     14  C   UNL A   1      36.577  19.480  24.904  1.00  0.00     0.001 A 
ATOM     15  C   UNL A   1      35.129  21.413  24.825  1.00  0.00     0.003 A 
ATOM     16  N   UNL A   1      32.932  21.389  24.495  1.00  0.00    -0.356 N 
ATOM     17  C   UNL A   1      36.409  20.859  25.002  1.00  0.00     0.010 A 
ATOM     18  C   UNL A   1      34.635  22.746  24.789  1.00  0.00    -0.014 A 
ATOM     19  C   UNL A   1      33.313  22.719  24.404  1.00  0.00     0.052 A 
ATOM     20  H   UNL A   1      31.999  21.074  24.466  1.00  0.00     0.166 HD
ATOM     21  C   UNL A   1      35.302  24.021  25.131  1.00  0.00     0.066 C 
ATOM     22  C   UNL A   1      34.413  25.214  24.760  1.00  0.00     0.166 C 
ATOM     23  O   UNL A   1      33.008  25.018  24.979  1.00  0.00    -0.368 OA
BRANCH  11  24
ATOM     24  C   UNL A   1      33.008  18.214  24.213  1.00  0.00     0.034 C 
ATOM     25  C   UNL A   1      32.542  17.265  25.321  1.00  0.00     0.009 C 
ENDBRANCH  11  24
BRANCH  10  26
ATOM     26  C   UNL A   1      31.045  23.566  24.937  1.00  0.00     0.039 C 
ATOM     27  C   UNL A   1      31.039  23.500  26.459  1.00  0.00     0.007 C 
ENDBRANCH  10  26
ENDBRANCH   9  10
ENDBRANCH   7   9
ENDBRANCH   6   7
ENDBRANCH   5   6
ENDBRANCH   4   5
ENDBRANCH   3   4
ENDBRANCH   2   3
ENDBRANCH   1   2
BRANCH   1  28
ATOM     28  O   UNL A   1      32.343  30.479  26.490  1.00  0.00    -0.376 OA
BRANCH  28  29
ATOM     29  C   UNL A   1      31.264  31.338  26.135  1.00  0.00     0.202 C 
BRANCH  29  30
ATOM     30  C   UNL A   1      31.459  32.820  26.493  1.00  0.00     0.261 C 
BRANCH  30  31
ATOM     31  O   UNL A   1      31.957  32.917  27.845  1.00  0.00    -0.460 OA
BRANCH  31  32
ATOM     32  C   UNL A   1      32.829  33.929  28.077  1.00  0.00     0.338 C 
ATOM     33  O   UNL A   1      32.535  35.091  28.306  1.00  0.00    -0.246 OA
BRANCH  32  34
ATOM     34  C   UNL A   1      34.138  33.303  28.400  1.00  0.00     0.060 A 
ATOM     35  C   UNL A   1      34.359  31.948  28.621  1.00  0.00     0.016 A 
ATOM     36  C   UNL A   1      35.177  34.198  28.631  1.00  0.00     0.016 A 
ATOM     37  C   UNL A   1      35.624  31.522  29.081  1.00  0.00     0.010 A 
ATOM     38  C   UNL A   1      36.413  33.785  29.123  1.00  0.00     0.010 A 
ATOM     39  C   UNL A   1      36.656  32.442  29.361  1.00  0.00    -0.014 A 
BRANCH  39  40
ATOM     40  C   UNL A   1      38.063  32.026  29.506  1.00  0.00     0.031 A 
ATOM     41  C   UNL A   1      38.285  30.665  29.012  1.00  0.00     0.074 A 
ATOM     42  C   UNL A   1      39.190  32.662  29.899  1.00  0.00     0.049 A 
ATOM     43  N   UNL A   1      38.233  29.623  29.768  1.00  0.00    -0.248 NA
ATOM     44  C   UNL A   1      38.485  30.403  27.589  1.00  0.00     0.031 C 
ATOM     45  C   UNL A   1      39.329  34.015  30.380  1.00  0.00     0.029 A 
ATOM     46  N   UNL A   1      40.488  32.220  29.943  1.00  0.00    -0.354 N 
ATOM     47  C   UNL A   1      38.687  28.594  28.975  1.00  0.00     0.074 A 
ATOM     48  C   UNL A   1      38.642  29.076  27.613  1.00  0.00     0.031 C 
ATOM     49  C   UNL A   1      40.622  34.394  30.462  1.00  0.00     0.029 A 
ATOM     50  C   UNL A   1      41.422  33.209  30.240  1.00  0.00     0.049 A 
ATOM     51  H   UNL A   1      40.738  31.282  29.777  1.00  0.00     0.167 HD
ATOM     52  C   UNL A   1      39.315  27.533  29.539  1.00  0.00     0.034 A 
ATOM     53  C   UNL A   1      42.725  33.071  30.572  1.00  0.00     0.034 A 
ATOM     54  C   UNL A   1      39.209  27.520  30.981  1.00  0.00     0.049 A 
ATOM     55  C   UNL A   1      42.793  31.797  31.321  1.00  0.00     0.074 A 
ATOM     56  C   UNL A   1      38.172  27.571  31.893  1.00  0.00     0.029 A 
ATOM     57  N   UNL A   1      40.345  27.839  31.684  1.00  0.00    -0.354 N 
ATOM     58  N   UNL A   1      42.243  31.602  32.491  1.00  0.00    -0.248 NA
ATOM     59  C   UNL A   1      43.249  30.603  30.634  1.00  0.00     0.031 C 
ATOM     60  C   UNL A   1      38.674  28.320  33.001  1.00  0.00     0.029 A 
ATOM     61  C   UNL A   1      39.993  28.677  32.712  1.00  0.00     0.049 A 
ATOM     62  H   UNL A   1      41.256  27.522  31.484  1.00  0.00     0.167 HD
ATOM     63  C   UNL A   1      41.898  30.259  32.489  1.00  0.00     0.074 A 
ATOM     64  C   UNL A   1      42.683  29.675  31.410  1.00  0.00     0.031 C 
ATOM     65  C   UNL A   1      40.805  29.795  33.166  1.00  0.00     0.034 A 
BRANCH  52  66
ATOM     66  C   UNL A   1      40.314  26.695  28.810  1.00  0.00     0.023 A 
ATOM     67  C   UNL A   1      41.537  27.294  28.455  1.00  0.00     0.012 A 
ATOM     68  C   UNL A   1      40.032  25.417  28.285  1.00  0.00     0.148 A 
ATOM     69  C   UNL A   1      42.451  26.635  27.629  1.00  0.00     0.002 A 
ATOM     70  C   UNL A   1      40.983  24.728  27.548  1.00  0.00     0.091 A 
ATOM     71  F   UNL A   1      38.796  24.909  28.388  1.00  0.00    -0.205 F 
ATOM     72  C   UNL A   1      42.187  25.339  27.198  1.00  0.00     0.022 A 
BRANCH  70  73
ATOM     73  S   UNL A   1      40.700  23.020  27.076  1.00  0.00     0.127 S 
ATOM     74  O   UNL A   1      40.733  22.346  28.369  1.00  0.00    -0.237 OA
ATOM     75  O   UNL A   1      39.382  23.087  26.444  1.00  0.00    -0.237 OA
ATOM     76  O   UNL A   1      41.786  22.716  26.150  1.00  0.00    -0.744 OA
ENDBRANCH  70  73
ENDBRANCH  52  66
BRANCH  53  77
ATOM     77  C   UNL A   1      43.895  33.959  30.353  1.00  0.00     0.023 A 
ATOM     78  C   UNL A   1      44.732  34.296  31.439  1.00  0.00     0.012 A 
ATOM     79  C   UNL A   1      44.364  34.247  29.050  1.00  0.00     0.148 A 
ATOM     80  C   UNL A   1      46.008  34.840  31.235  1.00  0.00     0.002 A 
ATOM     81  C   UNL A   1      45.635  34.795  28.855  1.00  0.00     0.091 A 
ATOM     82  F   UNL A   1      43.608  33.903  27.996  1.00  0.00    -0.205 F 
ATOM     83  C   UNL A   1      46.465  35.079  29.945  1.00  0.00     0.022 A 
BRANCH  81  84
ATOM     84  S   UNL A   1      46.266  35.120  27.201  1.00  0.00     0.127 S 
ATOM     85  O   UNL A   1      46.294  33.786  26.595  1.00  0.00    -0.237 OA
ATOM     86  O   UNL A   1      45.255  36.016  26.652  1.00  0.00    -0.237 OA
ATOM     87  O   UNL A   1      47.588  35.693  27.419  1.00  0.00    -0.744 OA
ENDBRANCH  81  84
ENDBRANCH  53  77
BRANCH  65  88
ATOM     88  C   UNL A   1      40.202  30.655  34.253  1.00  0.00     0.023 A 
ATOM     89  C   UNL A   1      40.807  30.786  35.519  1.00  0.00     0.012 A 
ATOM     90  C   UNL A   1      39.127  31.504  33.924  1.00  0.00     0.148 A 
ATOM     91  C   UNL A   1      40.353  31.742  36.435  1.00  0.00     0.002 A 
ATOM     92  C   UNL A   1      38.702  32.479  34.823  1.00  0.00     0.091 A 
ATOM     93  F   UNL A   1      38.572  31.377  32.708  1.00  0.00    -0.205 F 
ATOM     94  C   UNL A   1      39.310  32.596  36.083  1.00  0.00     0.022 A 
BRANCH  92  95
ATOM     95  S   UNL A   1      37.446  33.694  34.404  1.00  0.00     0.127 S 
ATOM     96  O   UNL A   1      36.419  33.439  35.414  1.00  0.00    -0.237 OA
ATOM     97  O   UNL A   1      38.168  34.955  34.572  1.00  0.00    -0.237 OA
ATOM     98  O   UNL A   1      37.043  33.407  33.032  1.00  0.00    -0.744 OA
ENDBRANCH  92  95
ENDBRANCH  65  88
ENDBRANCH  39  40
ENDBRANCH  32  34
ENDBRANCH  31  32
ENDBRANCH  30  31
ENDBRANCH  29  30
ENDBRANCH  28  29
ENDBRANCH   1  28
TORSDOF 23
ENDMDL
