MODEL 1
REMARK VINA RESULT:     -10.7      0.000      0.000
REMARK SMILES CC[NH+]1CC[NH+]([C@@H]2CC(=O)N(c3ccc(C(=O)OCCOCCOCCOC(=O)c4ccc(-c5c6nc(c(-c7cccc(S(=O)(=O)[O-])c7F)c7ccc([nH]7)c(-c7cccc(S(=O)(=O)[O-])c7F)c7nc(c(-c8cccc(S(=O)(=O)[O-])c8F)c8ccc5[nH]8)C=C7)C=C6)cc4)cc3)C2=O)CC1
REMARK SMILES IDX 22 1 21 2 20 3 19 4 18 5 16 6 17 7 15 8 12 9 13 10 94 11
REMARK SMILES IDX 14 12 93 13 11 14 7 15 8 16 95 17 9 18 96 19 10 20 6 21 3 22
REMARK SMILES IDX 4 23 98 24 5 26 97 27 2 29 1 30 23 31 24 32 25 33 26 34
REMARK SMILES IDX 27 35 28 36 29 37 30 38 31 39 92 40 32 41 91 42 33 43 34 44
REMARK SMILES IDX 35 45 85 46 36 47 90 48 84 49 86 50 37 51 89 52 83 53 82 54
REMARK SMILES IDX 38 56 70 57 50 58 69 59 51 60 54 61 68 62 87 63 52 64 53 65
REMARK SMILES IDX 67 67 88 68 55 69 39 70 40 71 48 72 41 73 43 74 49 75 42 76
REMARK SMILES IDX 44 77 45 78 46 79 47 80 71 81 72 82 80 83 73 84 75 85 81 86
REMARK SMILES IDX 74 87 76 88 77 89 78 90 79 91 56 92 57 93 65 94 58 95 60 96
REMARK SMILES IDX 66 97 59 98 61 99 62 100 63 101 64 102
REMARK H PARENT 3 25 6 28 86 55 54 66
REMARK Flexibility Score: inf
ROOT
ATOM      1  C   UNL A   1      42.648  18.774  25.982  1.00  0.00     0.188 C 
ENDROOT
BRANCH   1   2
ATOM      2  O   UNL A   1      42.219  19.990  26.554  1.00  0.00    -0.376 OA
BRANCH   2   3
ATOM      3  C   UNL A   1      40.864  20.194  26.911  1.00  0.00     0.202 C 
BRANCH   3   4
ATOM      4  C   UNL A   1      39.643  19.905  26.016  1.00  0.00     0.261 C 
BRANCH   4   5
ATOM      5  O   UNL A   1      39.088  21.003  25.291  1.00  0.00    -0.460 OA
BRANCH   5   6
ATOM      6  C   UNL A   1      38.616  22.021  26.052  1.00  0.00     0.338 C 
ATOM      7  O   UNL A   1      39.243  22.701  26.849  1.00  0.00    -0.246 OA
BRANCH   6   8
ATOM      8  C   UNL A   1      37.228  22.319  25.655  1.00  0.00     0.060 A 
ATOM      9  C   UNL A   1      34.621  22.873  24.779  1.00  0.00     0.052 A 
ATOM     10  C   UNL A   1      35.211  21.630  24.503  1.00  0.00     0.028 A 
ATOM     11  C   UNL A   1      35.325  23.794  25.570  1.00  0.00     0.028 A 
ATOM     12  C   UNL A   1      36.523  21.370  24.906  1.00  0.00     0.018 A 
ATOM     13  C   UNL A   1      36.614  23.514  26.029  1.00  0.00     0.018 A 
BRANCH   9  14
ATOM     14  N   UNL A   1      33.393  23.234  24.169  1.00  0.00    -0.245 N 
ATOM     15  C   UNL A   1      31.840  24.367  22.803  1.00  0.00     0.285 C 
ATOM     16  C   UNL A   1      31.106  23.682  23.946  1.00  0.00     0.176 C 
ATOM     17  C   UNL A   1      33.280  23.873  22.954  1.00  0.00     0.292 C 
ATOM     18  C   UNL A   1      32.178  23.071  24.787  1.00  0.00     0.240 C 
ATOM     19  O   UNL A   1      34.157  24.027  22.115  1.00  0.00    -0.267 OA
ATOM     20  O   UNL A   1      31.934  22.557  25.872  1.00  0.00    -0.274 OA
BRANCH  15  21
ATOM     21  N   UNL A   1      31.770  25.836  22.660  1.00  0.00    -0.315 N 
ATOM     22  N   UNL A   1      32.241  27.689  25.000  1.00  0.00    -0.326 N 
ATOM     23  C   UNL A   1      30.933  27.027  24.787  1.00  0.00     0.324 C 
ATOM     24  C   UNL A   1      33.309  26.928  24.328  1.00  0.00     0.324 C 
ATOM     25  H   UNL A   1      32.473  27.696  25.993  1.00  0.00     0.348 HD
ATOM     26  C   UNL A   1      30.651  26.495  23.352  1.00  0.00     0.325 C 
ATOM     27  C   UNL A   1      33.011  26.598  22.855  1.00  0.00     0.325 C 
ATOM     28  H   UNL A   1      31.581  25.875  21.659  1.00  0.00     0.349 HD
BRANCH  22  29
ATOM     29  C   UNL A   1      32.172  29.101  24.586  1.00  0.00     0.259 C 
ATOM     30  C   UNL A   1      31.577  30.038  25.634  1.00  0.00     0.071 C 
ENDBRANCH  22  29
ENDBRANCH  15  21
ENDBRANCH   9  14
ENDBRANCH   6   8
ENDBRANCH   5   6
ENDBRANCH   4   5
ENDBRANCH   3   4
ENDBRANCH   2   3
ENDBRANCH   1   2
BRANCH   1  31
ATOM     31  C   UNL A   1      44.160  18.558  25.784  1.00  0.00     0.188 C 
BRANCH  31  32
ATOM     32  O   UNL A   1      44.793  19.135  24.664  1.00  0.00    -0.376 OA
BRANCH  32  33
ATOM     33  C   UNL A   1      45.902  20.000  24.836  1.00  0.00     0.202 C 
BRANCH  33  34
ATOM     34  C   UNL A   1      45.834  21.504  25.177  1.00  0.00     0.261 C 
BRANCH  34  35
ATOM     35  O   UNL A   1      44.584  22.053  25.598  1.00  0.00    -0.460 OA
BRANCH  35  36
ATOM     36  C   UNL A   1      44.114  23.078  24.845  1.00  0.00     0.338 C 
ATOM     37  O   UNL A   1      44.113  23.156  23.627  1.00  0.00    -0.246 OA
BRANCH  36  38
ATOM     38  C   UNL A   1      43.418  24.038  25.722  1.00  0.00     0.060 A 
ATOM     39  C   UNL A   1      43.771  25.392  25.645  1.00  0.00     0.016 A 
ATOM     40  C   UNL A   1      42.466  23.602  26.643  1.00  0.00     0.016 A 
ATOM     41  C   UNL A   1      43.193  26.315  26.515  1.00  0.00     0.010 A 
ATOM     42  C   UNL A   1      41.902  24.526  27.528  1.00  0.00     0.010 A 
ATOM     43  C   UNL A   1      42.289  25.878  27.491  1.00  0.00    -0.014 A 
BRANCH  43  44
ATOM     44  C   UNL A   1      41.888  26.802  28.580  1.00  0.00     0.031 A 
ATOM     45  C   UNL A   1      42.732  26.861  29.824  1.00  0.00     0.074 A 
ATOM     46  C   UNL A   1      40.797  27.579  28.468  1.00  0.00     0.049 A 
ATOM     47  N   UNL A   1      42.559  27.568  30.910  1.00  0.00    -0.248 NA
ATOM     48  C   UNL A   1      43.928  26.003  29.849  1.00  0.00     0.031 C 
ATOM     49  C   UNL A   1      39.900  27.616  27.315  1.00  0.00     0.029 A 
ATOM     50  N   UNL A   1      40.243  28.467  29.357  1.00  0.00    -0.354 N 
ATOM     51  C   UNL A   1      43.600  27.213  31.762  1.00  0.00     0.074 A 
ATOM     52  C   UNL A   1      44.394  26.221  31.069  1.00  0.00     0.031 C 
ATOM     53  C   UNL A   1      38.885  28.457  27.580  1.00  0.00     0.029 A 
ATOM     54  C   UNL A   1      39.048  28.996  28.929  1.00  0.00     0.049 A 
ATOM     55  H   UNL A   1      40.661  28.702  30.217  1.00  0.00     0.167 HD
ATOM     56  C   UNL A   1      43.877  27.676  33.003  1.00  0.00     0.034 A 
ATOM     57  C   UNL A   1      38.172  29.800  29.567  1.00  0.00     0.034 A 
ATOM     58  C   UNL A   1      43.093  28.672  33.685  1.00  0.00     0.049 A 
ATOM     59  C   UNL A   1      38.492  30.289  30.957  1.00  0.00     0.074 A 
ATOM     60  C   UNL A   1      43.327  29.251  34.920  1.00  0.00     0.029 A 
ATOM     61  N   UNL A   1      41.915  29.220  33.203  1.00  0.00    -0.354 N 
ATOM     62  N   UNL A   1      39.544  30.042  31.699  1.00  0.00    -0.248 NA
ATOM     63  C   UNL A   1      37.519  31.197  31.582  1.00  0.00     0.031 C 
ATOM     64  C   UNL A   1      42.265  30.115  35.205  1.00  0.00     0.029 A 
ATOM     65  C   UNL A   1      41.398  30.114  34.125  1.00  0.00     0.049 A 
ATOM     66  H   UNL A   1      41.507  29.006  32.334  1.00  0.00     0.167 HD
ATOM     67  C   UNL A   1      39.379  30.791  32.860  1.00  0.00     0.074 A 
ATOM     68  C   UNL A   1      38.133  31.516  32.713  1.00  0.00     0.031 C 
ATOM     69  C   UNL A   1      40.181  30.867  33.952  1.00  0.00     0.034 A 
BRANCH  56  70
ATOM     70  C   UNL A   1      45.081  27.109  33.709  1.00  0.00     0.023 A 
ATOM     71  C   UNL A   1      46.378  27.449  33.275  1.00  0.00     0.012 A 
ATOM     72  C   UNL A   1      44.924  26.274  34.833  1.00  0.00     0.148 A 
ATOM     73  C   UNL A   1      47.501  26.936  33.925  1.00  0.00     0.002 A 
ATOM     74  C   UNL A   1      46.047  25.807  35.505  1.00  0.00     0.091 A 
ATOM     75  F   UNL A   1      43.683  25.944  35.217  1.00  0.00    -0.205 F 
ATOM     76  C   UNL A   1      47.335  26.124  35.044  1.00  0.00     0.022 A 
BRANCH  74  77
ATOM     77  S   UNL A   1      45.938  24.828  37.006  1.00  0.00     0.127 S 
ATOM     78  O   UNL A   1      45.100  23.711  36.570  1.00  0.00    -0.237 OA
ATOM     79  O   UNL A   1      47.339  24.481  37.248  1.00  0.00    -0.237 OA
ATOM     80  O   UNL A   1      45.345  25.697  38.013  1.00  0.00    -0.744 OA
ENDBRANCH  74  77
ENDBRANCH  56  70
BRANCH  57  81
ATOM     81  C   UNL A   1      36.909  30.206  28.889  1.00  0.00     0.023 A 
ATOM     82  C   UNL A   1      36.065  29.225  28.332  1.00  0.00     0.012 A 
ATOM     83  C   UNL A   1      36.537  31.562  28.803  1.00  0.00     0.148 A 
ATOM     84  C   UNL A   1      34.890  29.590  27.675  1.00  0.00     0.002 A 
ATOM     85  C   UNL A   1      35.337  31.914  28.199  1.00  0.00     0.091 A 
ATOM     86  F   UNL A   1      37.361  32.480  29.326  1.00  0.00    -0.205 F 
ATOM     87  C   UNL A   1      34.521  30.931  27.618  1.00  0.00     0.022 A 
BRANCH  85  88
ATOM     88  S   UNL A   1      34.720  33.600  28.186  1.00  0.00     0.127 S 
ATOM     89  O   UNL A   1      35.088  34.063  29.522  1.00  0.00    -0.237 OA
ATOM     90  O   UNL A   1      35.494  34.192  27.094  1.00  0.00    -0.237 OA
ATOM     91  O   UNL A   1      33.291  33.497  27.926  1.00  0.00    -0.744 OA
ENDBRANCH  85  88
ENDBRANCH  57  81
BRANCH  69  92
ATOM     92  C   UNL A   1      39.772  31.801  35.063  1.00  0.00     0.023 A 
ATOM     93  C   UNL A   1      38.849  31.380  36.042  1.00  0.00     0.012 A 
ATOM     94  C   UNL A   1      40.360  33.077  35.175  1.00  0.00     0.148 A 
ATOM     95  C   UNL A   1      38.489  32.228  37.089  1.00  0.00     0.002 A 
ATOM     96  C   UNL A   1      40.038  33.895  36.251  1.00  0.00     0.091 A 
ATOM     97  F   UNL A   1      41.224  33.468  34.227  1.00  0.00    -0.205 F 
ATOM     98  C   UNL A   1      39.091  33.479  37.201  1.00  0.00     0.022 A 
BRANCH  96  99
ATOM     99  S   UNL A   1      40.837  35.480  36.530  1.00  0.00     0.127 S 
ATOM    100  O   UNL A   1      39.801  36.416  36.097  1.00  0.00    -0.237 OA
ATOM    101  O   UNL A   1      41.072  35.459  37.974  1.00  0.00    -0.237 OA
ATOM    102  O   UNL A   1      42.047  35.471  35.720  1.00  0.00    -0.744 OA
ENDBRANCH  96  99
ENDBRANCH  69  92
ENDBRANCH  43  44
ENDBRANCH  36  38
ENDBRANCH  35  36
ENDBRANCH  34  35
ENDBRANCH  33  34
ENDBRANCH  32  33
ENDBRANCH  31  32
ENDBRANCH   1  31
TORSDOF 23
ENDMDL
MODEL 2
REMARK VINA RESULT:     -10.4      4.466     14.150
REMARK SMILES CC[NH+]1CC[NH+]([C@@H]2CC(=O)N(c3ccc(C(=O)OCCOCCOCCOC(=O)c4ccc(-c5c6nc(c(-c7cccc(S(=O)(=O)[O-])c7F)c7ccc([nH]7)c(-c7cccc(S(=O)(=O)[O-])c7F)c7nc(c(-c8cccc(S(=O)(=O)[O-])c8F)c8ccc5[nH]8)C=C7)C=C6)cc4)cc3)C2=O)CC1
REMARK SMILES IDX 22 1 21 2 20 3 19 4 18 5 16 6 17 7 15 8 12 9 13 10 94 11
REMARK SMILES IDX 14 12 93 13 11 14 7 15 8 16 95 17 9 18 96 19 10 20 6 21 3 22
REMARK SMILES IDX 4 23 98 24 5 26 97 27 2 29 1 30 23 31 24 32 25 33 26 34
REMARK SMILES IDX 27 35 28 36 29 37 30 38 31 39 92 40 32 41 91 42 33 43 34 44
REMARK SMILES IDX 35 45 85 46 36 47 90 48 84 49 86 50 37 51 89 52 83 53 82 54
REMARK SMILES IDX 38 56 70 57 50 58 69 59 51 60 54 61 68 62 87 63 52 64 53 65
REMARK SMILES IDX 67 67 88 68 55 69 39 70 40 71 48 72 41 73 43 74 49 75 42 76
REMARK SMILES IDX 44 77 45 78 46 79 47 80 71 81 72 82 80 83 73 84 75 85 81 86
REMARK SMILES IDX 74 87 76 88 77 89 78 90 79 91 56 92 57 93 65 94 58 95 60 96
REMARK SMILES IDX 66 97 59 98 61 99 62 100 63 101 64 102
REMARK H PARENT 3 25 6 28 86 55 54 66
REMARK Flexibility Score: inf
ROOT
ATOM      1  C   UNL A   1      34.573  35.447  32.941  1.00  0.00     0.188 C 
ENDROOT
BRANCH   1   2
ATOM      2  O   UNL A   1      34.745  34.464  33.937  1.00  0.00    -0.376 OA
BRANCH   2   3
ATOM      3  C   UNL A   1      35.478  33.279  33.677  1.00  0.00     0.202 C 
BRANCH   3   4
ATOM      4  C   UNL A   1      36.782  32.853  34.379  1.00  0.00     0.261 C 
BRANCH   4   5
ATOM      5  O   UNL A   1      37.057  33.429  35.656  1.00  0.00    -0.460 OA
BRANCH   5   6
ATOM      6  C   UNL A   1      37.993  32.780  36.394  1.00  0.00     0.338 C 
ATOM      7  O   UNL A   1      38.388  31.635  36.246  1.00  0.00    -0.246 OA
BRANCH   6   8
ATOM      8  C   UNL A   1      38.612  33.732  37.334  1.00  0.00     0.060 A 
ATOM      9  C   UNL A   1      39.675  35.564  39.173  1.00  0.00     0.052 A 
ATOM     10  C   UNL A   1      39.041  34.397  39.624  1.00  0.00     0.028 A 
ATOM     11  C   UNL A   1      39.840  35.753  37.791  1.00  0.00     0.028 A 
ATOM     12  C   UNL A   1      38.478  33.505  38.708  1.00  0.00     0.018 A 
ATOM     13  C   UNL A   1      39.334  34.832  36.872  1.00  0.00     0.018 A 
BRANCH   9  14
ATOM     14  N   UNL A   1      40.030  36.587  40.089  1.00  0.00    -0.245 N 
ATOM     15  C   UNL A   1      40.208  38.720  41.078  1.00  0.00     0.285 C 
ATOM     16  C   UNL A   1      41.327  37.828  41.592  1.00  0.00     0.176 C 
ATOM     17  C   UNL A   1      39.343  37.769  40.249  1.00  0.00     0.292 C 
ATOM     18  C   UNL A   1      41.172  36.542  40.849  1.00  0.00     0.240 C 
ATOM     19  O   UNL A   1      38.228  38.040  39.822  1.00  0.00    -0.267 OA
ATOM     20  O   UNL A   1      42.005  35.647  40.927  1.00  0.00    -0.274 OA
BRANCH  15  21
ATOM     21  N   UNL A   1      40.535  39.957  40.339  1.00  0.00    -0.315 N 
ATOM     22  N   UNL A   1      41.162  42.547  41.764  1.00  0.00    -0.326 N 
ATOM     23  C   UNL A   1      39.766  42.099  41.548  1.00  0.00     0.324 C 
ATOM     24  C   UNL A   1      42.076  41.392  41.721  1.00  0.00     0.324 C 
ATOM     25  H   UNL A   1      41.258  42.957  42.693  1.00  0.00     0.348 HD
ATOM     26  C   UNL A   1      39.543  41.041  40.430  1.00  0.00     0.325 C 
ATOM     27  C   UNL A   1      41.895  40.496  40.484  1.00  0.00     0.325 C 
ATOM     28  H   UNL A   1      40.493  39.577  39.394  1.00  0.00     0.349 HD
BRANCH  22  29
ATOM     29  C   UNL A   1      41.510  43.613  40.808  1.00  0.00     0.259 C 
ATOM     30  C   UNL A   1      42.127  44.856  41.445  1.00  0.00     0.071 C 
ENDBRANCH  22  29
ENDBRANCH  15  21
ENDBRANCH   9  14
ENDBRANCH   6   8
ENDBRANCH   5   6
ENDBRANCH   4   5
ENDBRANCH   3   4
ENDBRANCH   2   3
ENDBRANCH   1   2
BRANCH   1  31
ATOM     31  C   UNL A   1      33.747  35.080  31.693  1.00  0.00     0.188 C 
BRANCH  31  32
ATOM     32  O   UNL A   1      34.420  34.652  30.529  1.00  0.00    -0.376 OA
BRANCH  32  33
ATOM     33  C   UNL A   1      33.691  34.362  29.349  1.00  0.00     0.202 C 
BRANCH  33  34
ATOM     34  C   UNL A   1      34.273  34.282  27.921  1.00  0.00     0.261 C 
BRANCH  34  35
ATOM     35  O   UNL A   1      35.325  33.350  27.664  1.00  0.00    -0.460 OA
BRANCH  35  36
ATOM     36  C   UNL A   1      35.051  32.060  27.978  1.00  0.00     0.338 C 
ATOM     37  O   UNL A   1      34.114  31.389  27.580  1.00  0.00    -0.246 OA
BRANCH  36  38
ATOM     38  C   UNL A   1      36.178  31.505  28.752  1.00  0.00     0.060 A 
ATOM     39  C   UNL A   1      37.393  32.203  28.761  1.00  0.00     0.016 A 
ATOM     40  C   UNL A   1      36.053  30.287  29.419  1.00  0.00     0.016 A 
ATOM     41  C   UNL A   1      38.501  31.667  29.414  1.00  0.00     0.010 A 
ATOM     42  C   UNL A   1      37.172  29.741  30.056  1.00  0.00     0.010 A 
ATOM     43  C   UNL A   1      38.408  30.412  30.026  1.00  0.00    -0.014 A 
BRANCH  43  44
ATOM     44  C   UNL A   1      39.644  29.726  30.477  1.00  0.00     0.031 A 
ATOM     45  C   UNL A   1      40.295  30.179  31.755  1.00  0.00     0.074 A 
ATOM     46  C   UNL A   1      40.179  28.717  29.769  1.00  0.00     0.049 A 
ATOM     47  N   UNL A   1      41.391  29.751  32.325  1.00  0.00    -0.248 NA
ATOM     48  C   UNL A   1      39.623  31.267  32.486  1.00  0.00     0.031 C 
ATOM     49  C   UNL A   1      39.644  28.186  28.517  1.00  0.00     0.029 A 
ATOM     50  N   UNL A   1      41.316  27.981  29.991  1.00  0.00    -0.354 N 
ATOM     51  C   UNL A   1      41.561  30.538  33.458  1.00  0.00     0.074 A 
ATOM     52  C   UNL A   1      40.461  31.477  33.490  1.00  0.00     0.031 C 
ATOM     53  C   UNL A   1      40.471  27.229  28.062  1.00  0.00     0.029 A 
ATOM     54  C   UNL A   1      41.606  27.100  28.975  1.00  0.00     0.049 A 
ATOM     55  H   UNL A   1      41.870  28.073  30.799  1.00  0.00     0.167 HD
ATOM     56  C   UNL A   1      42.538  30.480  34.393  1.00  0.00     0.034 A 
ATOM     57  C   UNL A   1      42.680  26.305  28.789  1.00  0.00     0.034 A 
ATOM     58  C   UNL A   1      43.624  29.537  34.367  1.00  0.00     0.049 A 
ATOM     59  C   UNL A   1      43.765  26.271  29.835  1.00  0.00     0.074 A 
ATOM     60  C   UNL A   1      44.629  29.358  35.301  1.00  0.00     0.029 A 
ATOM     61  N   UNL A   1      43.861  28.629  33.347  1.00  0.00    -0.354 N 
ATOM     62  N   UNL A   1      43.848  26.932  30.964  1.00  0.00    -0.248 NA
ATOM     63  C   UNL A   1      44.889  25.352  29.596  1.00  0.00     0.031 C 
ATOM     64  C   UNL A   1      45.500  28.374  34.822  1.00  0.00     0.029 A 
ATOM     65  C   UNL A   1      45.008  27.903  33.617  1.00  0.00     0.049 A 
ATOM     66  H   UNL A   1      43.296  28.517  32.549  1.00  0.00     0.167 HD
ATOM     67  C   UNL A   1      45.008  26.483  31.587  1.00  0.00     0.074 A 
ATOM     68  C   UNL A   1      45.585  25.479  30.717  1.00  0.00     0.031 C 
ATOM     69  C   UNL A   1      45.551  26.872  32.768  1.00  0.00     0.034 A 
BRANCH  56  70
ATOM     70  C   UNL A   1      42.479  31.468  35.529  1.00  0.00     0.023 A 
ATOM     71  C   UNL A   1      41.912  31.091  36.764  1.00  0.00     0.012 A 
ATOM     72  C   UNL A   1      43.027  32.758  35.386  1.00  0.00     0.148 A 
ATOM     73  C   UNL A   1      41.858  31.994  37.825  1.00  0.00     0.002 A 
ATOM     74  C   UNL A   1      43.014  33.635  36.462  1.00  0.00     0.091 A 
ATOM     75  F   UNL A   1      43.540  33.106  34.197  1.00  0.00    -0.205 F 
ATOM     76  C   UNL A   1      42.417  33.261  37.678  1.00  0.00     0.022 A 
BRANCH  74  77
ATOM     77  S   UNL A   1      43.784  35.257  36.400  1.00  0.00     0.127 S 
ATOM     78  O   UNL A   1      42.990  35.921  35.366  1.00  0.00    -0.237 OA
ATOM     79  O   UNL A   1      43.559  35.755  37.757  1.00  0.00    -0.237 OA
ATOM     80  O   UNL A   1      45.181  35.026  36.061  1.00  0.00    -0.744 OA
ENDBRANCH  74  77
ENDBRANCH  56  70
BRANCH  57  81
ATOM     81  C   UNL A   1      42.775  25.463  27.564  1.00  0.00     0.023 A 
ATOM     82  C   UNL A   1      43.376  25.981  26.401  1.00  0.00     0.012 A 
ATOM     83  C   UNL A   1      42.280  24.144  27.552  1.00  0.00     0.148 A 
ATOM     84  C   UNL A   1      43.454  25.212  25.239  1.00  0.00     0.002 A 
ATOM     85  C   UNL A   1      42.413  23.364  26.410  1.00  0.00     0.091 A 
ATOM     86  F   UNL A   1      41.698  23.675  28.665  1.00  0.00    -0.205 F 
ATOM     87  C   UNL A   1      42.983  23.902  25.247  1.00  0.00     0.022 A 
BRANCH  85  88
ATOM     88  S   UNL A   1      41.948  21.630  26.365  1.00  0.00     0.127 S 
ATOM     89  O   UNL A   1      40.526  21.711  26.036  1.00  0.00    -0.237 OA
ATOM     90  O   UNL A   1      42.801  21.120  25.292  1.00  0.00    -0.237 OA
ATOM     91  O   UNL A   1      42.258  21.102  27.686  1.00  0.00    -0.744 OA
ENDBRANCH  85  88
ENDBRANCH  57  81
BRANCH  69  92
ATOM     92  C   UNL A   1      46.812  26.182  33.226  1.00  0.00     0.023 A 
ATOM     93  C   UNL A   1      48.072  26.750  32.954  1.00  0.00     0.012 A 
ATOM     94  C   UNL A   1      46.740  24.999  33.989  1.00  0.00     0.148 A 
ATOM     95  C   UNL A   1      49.240  26.132  33.401  1.00  0.00     0.002 A 
ATOM     96  C   UNL A   1      47.904  24.418  34.477  1.00  0.00     0.091 A 
ATOM     97  F   UNL A   1      45.533  24.462  34.225  1.00  0.00    -0.205 F 
ATOM     98  C   UNL A   1      49.156  24.975  34.170  1.00  0.00     0.022 A 
BRANCH  96  99
ATOM     99  S   UNL A   1      47.886  22.984  35.558  1.00  0.00     0.127 S 
ATOM    100  O   UNL A   1      49.305  22.833  35.877  1.00  0.00    -0.237 OA
ATOM    101  O   UNL A   1      47.058  23.446  36.673  1.00  0.00    -0.237 OA
ATOM    102  O   UNL A   1      47.303  21.899  34.781  1.00  0.00    -0.744 OA
ENDBRANCH  96  99
ENDBRANCH  69  92
ENDBRANCH  43  44
ENDBRANCH  36  38
ENDBRANCH  35  36
ENDBRANCH  34  35
ENDBRANCH  33  34
ENDBRANCH  32  33
ENDBRANCH  31  32
ENDBRANCH   1  31
TORSDOF 23
ENDMDL
MODEL 3
REMARK VINA RESULT:     -10.1      2.225      2.593
REMARK SMILES CC[NH+]1CC[NH+]([C@@H]2CC(=O)N(c3ccc(C(=O)OCCOCCOCCOC(=O)c4ccc(-c5c6nc(c(-c7cccc(S(=O)(=O)[O-])c7F)c7ccc([nH]7)c(-c7cccc(S(=O)(=O)[O-])c7F)c7nc(c(-c8cccc(S(=O)(=O)[O-])c8F)c8ccc5[nH]8)C=C7)C=C6)cc4)cc3)C2=O)CC1
REMARK SMILES IDX 22 1 21 2 20 3 19 4 18 5 16 6 17 7 15 8 12 9 13 10 94 11
REMARK SMILES IDX 14 12 93 13 11 14 7 15 8 16 95 17 9 18 96 19 10 20 6 21 3 22
REMARK SMILES IDX 4 23 98 24 5 26 97 27 2 29 1 30 23 31 24 32 25 33 26 34
REMARK SMILES IDX 27 35 28 36 29 37 30 38 31 39 92 40 32 41 91 42 33 43 34 44
REMARK SMILES IDX 35 45 85 46 36 47 90 48 84 49 86 50 37 51 89 52 83 53 82 54
REMARK SMILES IDX 38 56 70 57 50 58 69 59 51 60 54 61 68 62 87 63 52 64 53 65
REMARK SMILES IDX 67 67 88 68 55 69 39 70 40 71 48 72 41 73 43 74 49 75 42 76
REMARK SMILES IDX 44 77 45 78 46 79 47 80 71 81 72 82 80 83 73 84 75 85 81 86
REMARK SMILES IDX 74 87 76 88 77 89 78 90 79 91 56 92 57 93 65 94 58 95 60 96
REMARK SMILES IDX 66 97 59 98 61 99 62 100 63 101 64 102
REMARK H PARENT 3 25 6 28 86 55 54 66
REMARK Flexibility Score: inf
ROOT
ATOM      1  C   UNL A   1      42.701  18.708  26.041  1.00  0.00     0.188 C 
ENDROOT
BRANCH   1   2
ATOM      2  O   UNL A   1      42.388  19.997  26.521  1.00  0.00    -0.376 OA
BRANCH   2   3
ATOM      3  C   UNL A   1      41.071  20.328  26.926  1.00  0.00     0.202 C 
BRANCH   3   4
ATOM      4  C   UNL A   1      39.779  19.983  26.161  1.00  0.00     0.261 C 
BRANCH   4   5
ATOM      5  O   UNL A   1      39.234  20.989  25.308  1.00  0.00    -0.460 OA
BRANCH   5   6
ATOM      6  C   UNL A   1      38.842  22.128  25.932  1.00  0.00     0.338 C 
ATOM      7  O   UNL A   1      39.541  22.904  26.562  1.00  0.00    -0.246 OA
BRANCH   6   8
ATOM      8  C   UNL A   1      37.431  22.400  25.600  1.00  0.00     0.060 A 
ATOM      9  C   UNL A   1      34.778  22.910  24.845  1.00  0.00     0.052 A 
ATOM     10  C   UNL A   1      35.385  21.690  24.513  1.00  0.00     0.028 A 
ATOM     11  C   UNL A   1      35.492  23.829  25.630  1.00  0.00     0.028 A 
ATOM     12  C   UNL A   1      36.719  21.453  24.856  1.00  0.00     0.018 A 
ATOM     13  C   UNL A   1      36.805  23.570  26.029  1.00  0.00     0.018 A 
BRANCH   9  14
ATOM     14  N   UNL A   1      33.518  23.256  24.295  1.00  0.00    -0.245 N 
ATOM     15  C   UNL A   1      31.890  24.350  22.985  1.00  0.00     0.285 C 
ATOM     16  C   UNL A   1      31.222  23.702  24.188  1.00  0.00     0.176 C 
ATOM     17  C   UNL A   1      33.336  23.858  23.070  1.00  0.00     0.292 C 
ATOM     18  C   UNL A   1      32.340  23.114  24.985  1.00  0.00     0.240 C 
ATOM     19  O   UNL A   1      34.165  23.985  22.178  1.00  0.00    -0.267 OA
ATOM     20  O   UNL A   1      32.157  22.634  26.096  1.00  0.00    -0.274 OA
BRANCH  15  21
ATOM     21  N   UNL A   1      31.813  25.814  22.803  1.00  0.00    -0.315 N 
ATOM     22  N   UNL A   1      32.570  27.738  25.006  1.00  0.00    -0.326 N 
ATOM     23  C   UNL A   1      31.243  27.082  24.972  1.00  0.00     0.324 C 
ATOM     24  C   UNL A   1      33.547  26.945  24.238  1.00  0.00     0.324 C 
ATOM     25  H   UNL A   1      32.919  27.775  25.964  1.00  0.00     0.348 HD
ATOM     26  C   UNL A   1      30.788  26.507  23.600  1.00  0.00     0.325 C 
ATOM     27  C   UNL A   1      33.074  26.570  22.823  1.00  0.00     0.325 C 
ATOM     28  H   UNL A   1      31.506  25.823  21.830  1.00  0.00     0.349 HD
BRANCH  22  29
ATOM     29  C   UNL A   1      32.461  29.137  24.556  1.00  0.00     0.259 C 
ATOM     30  C   UNL A   1      31.979  30.110  25.629  1.00  0.00     0.071 C 
ENDBRANCH  22  29
ENDBRANCH  15  21
ENDBRANCH   9  14
ENDBRANCH   6   8
ENDBRANCH   5   6
ENDBRANCH   4   5
ENDBRANCH   3   4
ENDBRANCH   2   3
ENDBRANCH   1   2
BRANCH   1  31
ATOM     31  C   UNL A   1      44.183  18.363  25.799  1.00  0.00     0.188 C 
BRANCH  31  32
ATOM     32  O   UNL A   1      44.783  18.742  24.581  1.00  0.00    -0.376 OA
BRANCH  32  33
ATOM     33  C   UNL A   1      45.908  19.605  24.576  1.00  0.00     0.202 C 
BRANCH  33  34
ATOM     34  C   UNL A   1      45.879  21.132  24.801  1.00  0.00     0.261 C 
BRANCH  34  35
ATOM     35  O   UNL A   1      44.701  21.718  25.357  1.00  0.00    -0.460 OA
BRANCH  35  36
ATOM     36  C   UNL A   1      44.138  22.706  24.618  1.00  0.00     0.338 C 
ATOM     37  O   UNL A   1      43.913  22.692  23.420  1.00  0.00    -0.246 OA
BRANCH  36  38
ATOM     38  C   UNL A   1      43.656  23.767  25.524  1.00  0.00     0.060 A 
ATOM     39  C   UNL A   1      43.958  25.100  25.214  1.00  0.00     0.016 A 
ATOM     40  C   UNL A   1      42.960  23.447  26.689  1.00  0.00     0.016 A 
ATOM     41  C   UNL A   1      43.588  26.120  26.088  1.00  0.00     0.010 A 
ATOM     42  C   UNL A   1      42.608  24.470  27.575  1.00  0.00     0.010 A 
ATOM     43  C   UNL A   1      42.952  25.806  27.295  1.00  0.00    -0.014 A 
BRANCH  43  44
ATOM     44  C   UNL A   1      42.808  26.851  28.338  1.00  0.00     0.031 A 
ATOM     45  C   UNL A   1      43.916  27.030  29.339  1.00  0.00     0.074 A 
ATOM     46  C   UNL A   1      41.715  27.631  28.396  1.00  0.00     0.049 A 
ATOM     47  N   UNL A   1      43.995  27.853  30.351  1.00  0.00    -0.248 NA
ATOM     48  C   UNL A   1      45.092  26.157  29.181  1.00  0.00     0.031 C 
ATOM     49  C   UNL A   1      40.574  27.557  27.485  1.00  0.00     0.029 A 
ATOM     50  N   UNL A   1      41.375  28.620  29.285  1.00  0.00    -0.354 N 
ATOM     51  C   UNL A   1      45.207  27.575  30.973  1.00  0.00     0.074 A 
ATOM     52  C   UNL A   1      45.827  26.499  30.229  1.00  0.00     0.031 C 
ATOM     53  C   UNL A   1      39.643  28.441  27.883  1.00  0.00     0.029 A 
ATOM     54  C   UNL A   1      40.110  29.122  29.090  1.00  0.00     0.049 A 
ATOM     55  H   UNL A   1      41.979  28.940  29.994  1.00  0.00     0.167 HD
ATOM     56  C   UNL A   1      45.761  28.166  32.057  1.00  0.00     0.034 A 
ATOM     57  C   UNL A   1      39.399  30.006  29.820  1.00  0.00     0.034 A 
ATOM     58  C   UNL A   1      45.149  29.245  32.787  1.00  0.00     0.049 A 
ATOM     59  C   UNL A   1      40.029  30.638  31.035  1.00  0.00     0.074 A 
ATOM     60  C   UNL A   1      45.659  29.951  33.863  1.00  0.00     0.029 A 
ATOM     61  N   UNL A   1      43.887  29.758  32.533  1.00  0.00    -0.354 N 
ATOM     62  N   UNL A   1      41.226  30.455  31.537  1.00  0.00    -0.248 NA
ATOM     63  C   UNL A   1      39.220  31.627  31.764  1.00  0.00     0.031 C 
ATOM     64  C   UNL A   1      44.685  30.860  34.288  1.00  0.00     0.029 A 
ATOM     65  C   UNL A   1      43.591  30.758  33.445  1.00  0.00     0.049 A 
ATOM     66  H   UNL A   1      43.291  29.458  31.811  1.00  0.00     0.167 HD
ATOM     67  C   UNL A   1      41.329  31.329  32.614  1.00  0.00     0.074 A 
ATOM     68  C   UNL A   1      40.078  32.056  32.680  1.00  0.00     0.031 C 
ATOM     69  C   UNL A   1      42.361  31.509  33.476  1.00  0.00     0.034 A 
BRANCH  56  70
ATOM     70  C   UNL A   1      47.100  27.657  32.524  1.00  0.00     0.023 A 
ATOM     71  C   UNL A   1      47.167  26.621  33.478  1.00  0.00     0.012 A 
ATOM     72  C   UNL A   1      48.292  28.175  31.981  1.00  0.00     0.148 A 
ATOM     73  C   UNL A   1      48.400  26.136  33.913  1.00  0.00     0.002 A 
ATOM     74  C   UNL A   1      49.515  27.653  32.382  1.00  0.00     0.091 A 
ATOM     75  F   UNL A   1      48.208  29.175  31.092  1.00  0.00    -0.205 F 
ATOM     76  C   UNL A   1      49.572  26.644  33.358  1.00  0.00     0.022 A 
BRANCH  74  77
ATOM     77  S   UNL A   1      51.075  28.180  31.665  1.00  0.00     0.127 S 
ATOM     78  O   UNL A   1      52.028  27.321  32.368  1.00  0.00    -0.237 OA
ATOM     79  O   UNL A   1      50.888  27.854  30.251  1.00  0.00    -0.237 OA
ATOM     80  O   UNL A   1      51.188  29.604  31.951  1.00  0.00    -0.744 OA
ENDBRANCH  74  77
ENDBRANCH  56  70
BRANCH  57  81
ATOM     81  C   UNL A   1      38.010  30.358  29.412  1.00  0.00     0.023 A 
ATOM     82  C   UNL A   1      37.057  29.341  29.214  1.00  0.00     0.012 A 
ATOM     83  C   UNL A   1      37.629  31.702  29.228  1.00  0.00     0.148 A 
ATOM     84  C   UNL A   1      35.759  29.652  28.810  1.00  0.00     0.002 A 
ATOM     85  C   UNL A   1      36.319  32.009  28.883  1.00  0.00     0.091 A 
ATOM     86  F   UNL A   1      38.555  32.654  29.406  1.00  0.00    -0.205 F 
ATOM     87  C   UNL A   1      35.387  30.985  28.656  1.00  0.00     0.022 A 
BRANCH  85  88
ATOM     88  S   UNL A   1      35.717  33.698  28.781  1.00  0.00     0.127 S 
ATOM     89  O   UNL A   1      36.867  34.454  29.272  1.00  0.00    -0.237 OA
ATOM     90  O   UNL A   1      35.456  33.835  27.348  1.00  0.00    -0.237 OA
ATOM     91  O   UNL A   1      34.528  33.746  29.619  1.00  0.00    -0.744 OA
ENDBRANCH  85  88
ENDBRANCH  57  81
BRANCH  69  92
ATOM     92  C   UNL A   1      42.215  32.566  34.541  1.00  0.00     0.023 A 
ATOM     93  C   UNL A   1      42.483  33.917  34.243  1.00  0.00     0.012 A 
ATOM     94  C   UNL A   1      41.741  32.225  35.824  1.00  0.00     0.148 A 
ATOM     95  C   UNL A   1      42.321  34.904  35.216  1.00  0.00     0.002 A 
ATOM     96  C   UNL A   1      41.529  33.220  36.771  1.00  0.00     0.091 A 
ATOM     97  F   UNL A   1      41.505  30.933  36.096  1.00  0.00    -0.205 F 
ATOM     98  C   UNL A   1      41.833  34.558  36.474  1.00  0.00     0.022 A 
BRANCH  96  99
ATOM     99  S   UNL A   1      40.811  32.880  38.383  1.00  0.00     0.127 S 
ATOM    100  O   UNL A   1      39.584  32.173  38.019  1.00  0.00    -0.237 OA
ATOM    101  O   UNL A   1      41.835  32.042  39.007  1.00  0.00    -0.237 OA
ATOM    102  O   UNL A   1      40.620  34.176  39.020  1.00  0.00    -0.744 OA
ENDBRANCH  96  99
ENDBRANCH  69  92
ENDBRANCH  43  44
ENDBRANCH  36  38
ENDBRANCH  35  36
ENDBRANCH  34  35
ENDBRANCH  33  34
ENDBRANCH  32  33
ENDBRANCH  31  32
ENDBRANCH   1  31
TORSDOF 23
ENDMDL
