MODEL 1
REMARK VINA RESULT:      -9.8      0.000      0.000
REMARK SMILES COC(=O)C[C@H](NC(=O)N1CC[N@@H+]2CCC[C@@H]2C1)C(=O)OCCOCCOCCOC(=O)c1ccc(-c2c3nc(c(-c4cccc(S(=O)(=O)[O-])c4F)c4ccc([nH]4)c(-c4cccc(S(=O)(=O)[O-])c4F)c4nc(c(-c5cccc(S(=O)(=O)[O-])c5F)c5ccc2[nH]5)C=C4)C=C3)cc1
REMARK SMILES IDX 25 1 24 2 23 3 22 4 21 5 19 6 20 7 6 8 5 9 3 10 4 11 2 12
REMARK SMILES IDX 1 13 7 14 8 15 9 17 10 18 11 19 18 20 12 21 17 22 13 23
REMARK SMILES IDX 16 24 14 25 15 27 26 28 27 29 28 30 29 31 30 32 31 33 32 34
REMARK SMILES IDX 33 35 34 36 95 37 35 38 94 39 36 40 37 41 38 42 88 43 39 44
REMARK SMILES IDX 93 45 87 46 89 47 40 48 92 49 86 50 85 51 41 53 73 54 53 55
REMARK SMILES IDX 72 56 54 57 57 58 71 59 90 60 55 61 56 62 70 64 91 65 58 66
REMARK SMILES IDX 42 67 43 68 51 69 44 70 46 71 52 72 45 73 47 74 48 75 49 76
REMARK SMILES IDX 50 77 74 78 75 79 83 80 76 81 78 82 84 83 77 84 79 85 80 86
REMARK SMILES IDX 81 87 82 88 59 89 60 90 68 91 61 92 63 93 69 94 62 95 64 96
REMARK SMILES IDX 65 97 66 98 67 99
REMARK H PARENT 7 16 13 26 89 52 57 63
REMARK Flexibility Score: inf
ROOT
ATOM      1  C   UNL A   1      35.493  32.614  28.036  1.00  0.00     0.188 C 
ENDROOT
BRANCH   1   2
ATOM      2  O   UNL A   1      34.271  31.963  28.300  1.00  0.00    -0.376 OA
BRANCH   2   3
ATOM      3  C   UNL A   1      33.944  30.952  27.373  1.00  0.00     0.202 C 
BRANCH   3   4
ATOM      4  C   UNL A   1      32.451  30.549  27.251  1.00  0.00     0.261 C 
BRANCH   4   5
ATOM      5  O   UNL A   1      32.127  29.566  26.210  1.00  0.00    -0.462 OA
BRANCH   5   6
ATOM      6  C   UNL A   1      31.581  28.364  26.555  1.00  0.00     0.329 C 
ATOM      7  O   UNL A   1      31.290  28.094  27.718  1.00  0.00    -0.250 OA
BRANCH   6   8
ATOM      8  C   UNL A   1      31.559  27.251  25.419  1.00  0.00     0.204 C 
BRANCH   8   9
ATOM      9  C   UNL A   1      30.834  28.074  24.317  1.00  0.00     0.159 C 
BRANCH   9  10
ATOM     10  C   UNL A   1      30.859  27.583  22.905  1.00  0.00     0.308 C 
ATOM     11  O   UNL A   1      30.222  28.115  22.002  1.00  0.00    -0.252 OA
BRANCH  10  12
ATOM     12  O   UNL A   1      31.735  26.560  22.760  1.00  0.00    -0.469 OA
ATOM     13  C   UNL A   1      31.938  26.165  21.403  1.00  0.00     0.282 C 
ENDBRANCH  10  12
ENDBRANCH   9  10
ENDBRANCH   8   9
BRANCH   8  14
ATOM     14  N   UNL A   1      30.998  25.852  25.561  1.00  0.00    -0.324 N 
ATOM     15  C   UNL A   1      31.398  24.567  25.246  1.00  0.00     0.318 C 
ATOM     16  H   UNL A   1      30.114  25.859  25.994  1.00  0.00     0.166 HD
ATOM     17  O   UNL A   1      30.536  23.844  24.735  1.00  0.00    -0.249 OA
BRANCH  15  18
ATOM     18  N   UNL A   1      32.638  24.033  25.592  1.00  0.00    -0.313 N 
ATOM     19  C   UNL A   1      32.829  22.874  27.044  1.00  0.00     0.183 C 
ATOM     20  C   UNL A   1      34.072  24.205  24.294  1.00  0.00     0.186 C 
ATOM     21  C   UNL A   1      34.210  21.470  26.979  1.00  0.00     0.284 C 
ATOM     22  C   UNL A   1      35.336  22.667  24.203  1.00  0.00     0.204 C 
ATOM     23  N   UNL A   1      35.248  21.321  25.440  1.00  0.00    -0.330 N 
ATOM     24  C   UNL A   1      36.859  22.747  24.089  1.00  0.00     0.073 C 
ATOM     25  C   UNL A   1      36.436  20.511  25.353  1.00  0.00     0.262 C 
ATOM     26  H   UNL A   1      34.471  20.698  25.219  1.00  0.00     0.348 HD
ATOM     27  C   UNL A   1      37.404  21.320  24.457  1.00  0.00     0.068 C 
ENDBRANCH  15  18
ENDBRANCH   8  14
ENDBRANCH   6   8
ENDBRANCH   5   6
ENDBRANCH   4   5
ENDBRANCH   3   4
ENDBRANCH   2   3
ENDBRANCH   1   2
BRANCH   1  28
ATOM     28  C   UNL A   1      35.531  34.175  27.985  1.00  0.00     0.188 C 
BRANCH  28  29
ATOM     29  O   UNL A   1      34.300  34.853  28.035  1.00  0.00    -0.376 OA
BRANCH  29  30
ATOM     30  C   UNL A   1      34.372  36.251  28.196  1.00  0.00     0.202 C 
BRANCH  30  31
ATOM     31  C   UNL A   1      33.192  37.029  28.792  1.00  0.00     0.261 C 
BRANCH  31  32
ATOM     32  O   UNL A   1      32.256  36.260  29.612  1.00  0.00    -0.460 OA
BRANCH  32  33
ATOM     33  C   UNL A   1      32.686  35.857  30.941  1.00  0.00     0.338 C 
ATOM     34  O   UNL A   1      31.855  36.470  31.655  1.00  0.00    -0.246 OA
BRANCH  33  35
ATOM     35  C   UNL A   1      34.309  34.653  31.481  1.00  0.00     0.060 A 
ATOM     36  C   UNL A   1      34.298  33.223  31.998  1.00  0.00     0.016 A 
ATOM     37  C   UNL A   1      35.763  34.923  31.466  1.00  0.00     0.016 A 
ATOM     38  C   UNL A   1      35.350  32.417  32.459  1.00  0.00     0.010 A 
ATOM     39  C   UNL A   1      36.847  34.151  31.881  1.00  0.00     0.010 A 
ATOM     40  C   UNL A   1      36.620  32.913  32.409  1.00  0.00    -0.014 A 
BRANCH  40  41
ATOM     41  C   UNL A   1      37.771  32.146  32.817  1.00  0.00     0.031 A 
ATOM     42  C   UNL A   1      38.413  32.493  34.109  1.00  0.00     0.074 A 
ATOM     43  C   UNL A   1      38.256  31.317  31.883  1.00  0.00     0.049 A 
ATOM     44  N   UNL A   1      39.473  31.974  34.647  1.00  0.00    -0.248 NA
ATOM     45  C   UNL A   1      37.804  33.590  34.891  1.00  0.00     0.031 C 
ATOM     46  C   UNL A   1      37.664  31.111  30.551  1.00  0.00     0.029 A 
ATOM     47  N   UNL A   1      39.373  30.549  31.876  1.00  0.00    -0.354 N 
ATOM     48  C   UNL A   1      39.670  32.681  35.824  1.00  0.00     0.074 A 
ATOM     49  C   UNL A   1      38.644  33.692  35.909  1.00  0.00     0.031 C 
ATOM     50  C   UNL A   1      38.443  30.277  29.850  1.00  0.00     0.029 A 
ATOM     51  C   UNL A   1      39.577  29.908  30.680  1.00  0.00     0.049 A 
ATOM     52  H   UNL A   1      39.974  30.459  32.650  1.00  0.00     0.167 HD
ATOM     53  C   UNL A   1      40.637  32.465  36.739  1.00  0.00     0.034 A 
ATOM     54  C   UNL A   1      40.593  29.109  30.325  1.00  0.00     0.034 A 
ATOM     55  C   UNL A   1      41.646  31.462  36.536  1.00  0.00     0.049 A 
ATOM     56  C   UNL A   1      41.616  28.844  31.387  1.00  0.00     0.074 A 
ATOM     57  C   UNL A   1      42.651  31.054  37.385  1.00  0.00     0.029 A 
ATOM     58  N   UNL A   1      41.780  30.725  35.360  1.00  0.00    -0.354 N 
ATOM     59  N   UNL A   1      41.707  29.375  32.587  1.00  0.00    -0.248 NA
ATOM     60  C   UNL A   1      42.636  27.843  31.084  1.00  0.00     0.031 C 
ATOM     61  C   UNL A   1      43.422  30.106  36.703  1.00  0.00     0.029 A 
ATOM     62  C   UNL A   1      42.863  29.878  35.450  1.00  0.00     0.049 A 
ATOM     63  H   UNL A   1      41.188  30.800  34.578  1.00  0.00     0.167 HD
ATOM     64  C   UNL A   1      42.772  28.747  33.204  1.00  0.00     0.074 A 
ATOM     65  C   UNL A   1      43.281  27.781  32.241  1.00  0.00     0.031 C 
ATOM     66  C   UNL A   1      43.296  28.938  34.441  1.00  0.00     0.034 A 
BRANCH  53  67
ATOM     67  C   UNL A   1      40.632  33.309  37.983  1.00  0.00     0.023 A 
ATOM     68  C   UNL A   1      39.786  32.974  39.063  1.00  0.00     0.012 A 
ATOM     69  C   UNL A   1      41.471  34.434  38.094  1.00  0.00     0.148 A 
ATOM     70  C   UNL A   1      39.752  33.761  40.215  1.00  0.00     0.002 A 
ATOM     71  C   UNL A   1      41.469  35.183  39.264  1.00  0.00     0.091 A 
ATOM     72  F   UNL A   1      42.240  34.761  37.046  1.00  0.00    -0.205 F 
ATOM     73  C   UNL A   1      40.601  34.857  40.320  1.00  0.00     0.022 A 
BRANCH  71  74
ATOM     74  S   UNL A   1      42.573  36.575  39.526  1.00  0.00     0.127 S 
ATOM     75  O   UNL A   1      43.880  35.919  39.530  1.00  0.00    -0.237 OA
ATOM     76  O   UNL A   1      42.306  37.398  38.347  1.00  0.00    -0.237 OA
ATOM     77  O   UNL A   1      42.177  37.172  40.794  1.00  0.00    -0.744 OA
ENDBRANCH  71  74
ENDBRANCH  53  67
BRANCH  54  78
ATOM     78  C   UNL A   1      40.588  28.460  28.993  1.00  0.00     0.023 A 
ATOM     79  C   UNL A   1      41.156  29.131  27.894  1.00  0.00     0.012 A 
ATOM     80  C   UNL A   1      40.124  27.139  28.826  1.00  0.00     0.148 A 
ATOM     81  C   UNL A   1      41.228  28.516  26.644  1.00  0.00     0.002 A 
ATOM     82  C   UNL A   1      40.241  26.515  27.591  1.00  0.00     0.091 A 
ATOM     83  F   UNL A   1      39.610  26.510  29.892  1.00  0.00    -0.205 F 
ATOM     84  C   UNL A   1      40.778  27.206  26.494  1.00  0.00     0.022 A 
BRANCH  82  85
ATOM     85  S   UNL A   1      39.810  24.789  27.341  1.00  0.00     0.127 S 
ATOM     86  O   UNL A   1      38.528  24.700  28.036  1.00  0.00    -0.237 OA
ATOM     87  O   UNL A   1      39.727  24.706  25.882  1.00  0.00    -0.237 OA
ATOM     88  O   UNL A   1      40.901  24.022  27.925  1.00  0.00    -0.744 OA
ENDBRANCH  82  85
ENDBRANCH  54  78
BRANCH  66  89
ATOM     89  C   UNL A   1      44.454  28.061  34.804  1.00  0.00     0.023 A 
ATOM     90  C   UNL A   1      45.771  28.509  34.588  1.00  0.00     0.012 A 
ATOM     91  C   UNL A   1      44.223  26.817  35.418  1.00  0.00     0.148 A 
ATOM     92  C   UNL A   1      46.849  27.703  34.941  1.00  0.00     0.002 A 
ATOM     93  C   UNL A   1      45.301  26.052  35.828  1.00  0.00     0.091 A 
ATOM     94  F   UNL A   1      42.955  26.414  35.592  1.00  0.00    -0.205 F 
ATOM     95  C   UNL A   1      46.614  26.483  35.574  1.00  0.00     0.022 A 
BRANCH  93  96
ATOM     96  S   UNL A   1      45.093  24.531  36.753  1.00  0.00     0.127 S 
ATOM     97  O   UNL A   1      44.370  25.000  37.934  1.00  0.00    -0.237 OA
ATOM     98  O   UNL A   1      44.299  23.720  35.831  1.00  0.00    -0.237 OA
ATOM     99  O   UNL A   1      46.435  24.023  37.006  1.00  0.00    -0.744 OA
ENDBRANCH  93  96
ENDBRANCH  66  89
ENDBRANCH  40  41
ENDBRANCH  33  35
ENDBRANCH  32  33
ENDBRANCH  31  32
ENDBRANCH  30  31
ENDBRANCH  29  30
ENDBRANCH  28  29
ENDBRANCH   1  28
TORSDOF 25
ENDMDL
MODEL 2
REMARK VINA RESULT:      -9.3      5.259      9.476
REMARK SMILES COC(=O)C[C@H](NC(=O)N1CC[N@@H+]2CCC[C@@H]2C1)C(=O)OCCOCCOCCOC(=O)c1ccc(-c2c3nc(c(-c4cccc(S(=O)(=O)[O-])c4F)c4ccc([nH]4)c(-c4cccc(S(=O)(=O)[O-])c4F)c4nc(c(-c5cccc(S(=O)(=O)[O-])c5F)c5ccc2[nH]5)C=C4)C=C3)cc1
REMARK SMILES IDX 25 1 24 2 23 3 22 4 21 5 19 6 20 7 6 8 5 9 3 10 4 11 2 12
REMARK SMILES IDX 1 13 7 14 8 15 9 17 10 18 11 19 18 20 12 21 17 22 13 23
REMARK SMILES IDX 16 24 14 25 15 27 26 28 27 29 28 30 29 31 30 32 31 33 32 34
REMARK SMILES IDX 33 35 34 36 95 37 35 38 94 39 36 40 37 41 38 42 88 43 39 44
REMARK SMILES IDX 93 45 87 46 89 47 40 48 92 49 86 50 85 51 41 53 73 54 53 55
REMARK SMILES IDX 72 56 54 57 57 58 71 59 90 60 55 61 56 62 70 64 91 65 58 66
REMARK SMILES IDX 42 67 43 68 51 69 44 70 46 71 52 72 45 73 47 74 48 75 49 76
REMARK SMILES IDX 50 77 74 78 75 79 83 80 76 81 78 82 84 83 77 84 79 85 80 86
REMARK SMILES IDX 81 87 82 88 59 89 60 90 68 91 61 92 63 93 69 94 62 95 64 96
REMARK SMILES IDX 65 97 66 98 67 99
REMARK H PARENT 7 16 13 26 89 52 57 63
REMARK Flexibility Score: inf
ROOT
ATOM      1  C   UNL A   1      34.848  31.327  27.970  1.00  0.00     0.188 C 
ENDROOT
BRANCH   1   2
ATOM      2  O   UNL A   1      33.620  30.636  27.944  1.00  0.00    -0.376 OA
BRANCH   2   3
ATOM      3  C   UNL A   1      33.501  29.711  26.886  1.00  0.00     0.202 C 
BRANCH   3   4
ATOM      4  C   UNL A   1      32.360  28.664  26.977  1.00  0.00     0.261 C 
BRANCH   4   5
ATOM      5  O   UNL A   1      32.550  27.429  26.205  1.00  0.00    -0.462 OA
BRANCH   5   6
ATOM      6  C   UNL A   1      31.627  26.428  26.286  1.00  0.00     0.329 C 
ATOM      7  O   UNL A   1      30.605  26.539  26.958  1.00  0.00    -0.250 OA
BRANCH   6   8
ATOM      8  C   UNL A   1      32.053  25.028  25.659  1.00  0.00     0.204 C 
BRANCH   8   9
ATOM      9  C   UNL A   1      33.309  25.510  24.878  1.00  0.00     0.159 C 
BRANCH   9  10
ATOM     10  C   UNL A   1      34.452  24.565  24.681  1.00  0.00     0.308 C 
ATOM     11  O   UNL A   1      35.141  24.150  25.606  1.00  0.00    -0.252 OA
BRANCH  10  12
ATOM     12  O   UNL A   1      34.544  24.177  23.388  1.00  0.00    -0.469 OA
ATOM     13  C   UNL A   1      35.413  23.061  23.183  1.00  0.00     0.282 C 
ENDBRANCH  10  12
ENDBRANCH   9  10
ENDBRANCH   8   9
BRANCH   8  14
ATOM     14  N   UNL A   1      31.167  24.123  24.830  1.00  0.00    -0.324 N 
ATOM     15  C   UNL A   1      31.341  23.091  23.929  1.00  0.00     0.318 C 
ATOM     16  H   UNL A   1      30.213  24.323  24.971  1.00  0.00     0.166 HD
ATOM     17  O   UNL A   1      30.639  23.136  22.914  1.00  0.00    -0.249 OA
BRANCH  15  18
ATOM     18  N   UNL A   1      32.140  21.974  24.172  1.00  0.00    -0.313 N 
ATOM     19  C   UNL A   1      32.740  21.560  25.892  1.00  0.00     0.183 C 
ATOM     20  C   UNL A   1      32.273  20.653  22.754  1.00  0.00     0.186 C 
ATOM     21  C   UNL A   1      33.006  19.672  26.389  1.00  0.00     0.284 C 
ATOM     22  C   UNL A   1      32.392  18.757  23.358  1.00  0.00     0.204 C 
ATOM     23  N   UNL A   1      32.598  18.360  25.132  1.00  0.00    -0.330 N 
ATOM     24  C   UNL A   1      33.319  17.679  22.793  1.00  0.00     0.073 C 
ATOM     25  C   UNL A   1      32.967  16.976  25.274  1.00  0.00     0.262 C 
ATOM     26  H   UNL A   1      31.705  18.460  25.615  1.00  0.00     0.348 HD
ATOM     27  C   UNL A   1      33.326  16.511  23.843  1.00  0.00     0.068 C 
ENDBRANCH  15  18
ENDBRANCH   8  14
ENDBRANCH   6   8
ENDBRANCH   5   6
ENDBRANCH   4   5
ENDBRANCH   3   4
ENDBRANCH   2   3
ENDBRANCH   1   2
BRANCH   1  28
ATOM     28  C   UNL A   1      34.845  32.889  28.004  1.00  0.00     0.188 C 
BRANCH  28  29
ATOM     29  O   UNL A   1      34.035  33.513  28.970  1.00  0.00    -0.376 OA
BRANCH  29  30
ATOM     30  C   UNL A   1      34.703  34.340  29.894  1.00  0.00     0.202 C 
BRANCH  30  31
ATOM     31  C   UNL A   1      34.292  34.348  31.372  1.00  0.00     0.261 C 
BRANCH  31  32
ATOM     32  O   UNL A   1      34.211  33.044  32.030  1.00  0.00    -0.460 OA
BRANCH  32  33
ATOM     33  C   UNL A   1      35.432  32.484  32.586  1.00  0.00     0.338 C 
ATOM     34  O   UNL A   1      35.248  32.683  33.811  1.00  0.00    -0.246 OA
BRANCH  33  35
ATOM     35  C   UNL A   1      37.068  31.659  31.578  1.00  0.00     0.060 A 
ATOM     36  C   UNL A   1      38.078  30.639  32.082  1.00  0.00     0.016 A 
ATOM     37  C   UNL A   1      37.571  31.877  30.203  1.00  0.00     0.016 A 
ATOM     38  C   UNL A   1      39.237  30.134  31.476  1.00  0.00     0.010 A 
ATOM     39  C   UNL A   1      38.694  31.381  29.544  1.00  0.00     0.010 A 
ATOM     40  C   UNL A   1      39.537  30.538  30.208  1.00  0.00    -0.014 A 
BRANCH  40  41
ATOM     41  C   UNL A   1      40.681  30.041  29.483  1.00  0.00     0.031 A 
ATOM     42  C   UNL A   1      40.584  28.691  28.876  1.00  0.00     0.074 A 
ATOM     43  C   UNL A   1      41.789  30.785  29.600  1.00  0.00     0.049 A 
ATOM     44  N   UNL A   1      41.493  28.032  28.227  1.00  0.00    -0.248 NA
ATOM     45  C   UNL A   1      39.307  27.966  29.044  1.00  0.00     0.031 C 
ATOM     46  C   UNL A   1      41.877  32.055  30.339  1.00  0.00     0.029 A 
ATOM     47  N   UNL A   1      43.053  30.563  29.163  1.00  0.00    -0.354 N 
ATOM     48  C   UNL A   1      40.910  26.813  27.914  1.00  0.00     0.074 A 
ATOM     49  C   UNL A   1      39.580  26.803  28.474  1.00  0.00     0.031 C 
ATOM     50  C   UNL A   1      43.143  32.489  30.314  1.00  0.00     0.029 A 
ATOM     51  C   UNL A   1      43.939  31.527  29.572  1.00  0.00     0.049 A 
ATOM     52  H   UNL A   1      43.308  29.790  28.609  1.00  0.00     0.167 HD
ATOM     53  C   UNL A   1      41.470  25.812  27.204  1.00  0.00     0.034 A 
ATOM     54  C   UNL A   1      45.260  31.594  29.350  1.00  0.00     0.034 A 
ATOM     55  C   UNL A   1      42.824  25.900  26.731  1.00  0.00     0.049 A 
ATOM     56  C   UNL A   1      45.836  30.497  28.507  1.00  0.00     0.074 A 
ATOM     57  C   UNL A   1      43.526  25.021  25.936  1.00  0.00     0.029 A 
ATOM     58  N   UNL A   1      43.690  26.944  27.051  1.00  0.00    -0.354 N 
ATOM     59  N   UNL A   1      45.238  29.421  28.045  1.00  0.00    -0.248 NA
ATOM     60  C   UNL A   1      47.234  30.639  28.106  1.00  0.00     0.031 C 
ATOM     61  C   UNL A   1      44.832  25.510  25.817  1.00  0.00     0.029 A 
ATOM     62  C   UNL A   1      44.929  26.725  26.488  1.00  0.00     0.049 A 
ATOM     63  H   UNL A   1      43.453  27.724  27.601  1.00  0.00     0.167 HD
ATOM     64  C   UNL A   1      46.174  28.769  27.263  1.00  0.00     0.074 A 
ATOM     65  C   UNL A   1      47.375  29.592  27.306  1.00  0.00     0.031 C 
ATOM     66  C   UNL A   1      46.071  27.604  26.574  1.00  0.00     0.034 A 
BRANCH  53  67
ATOM     67  C   UNL A   1      40.634  24.594  26.923  1.00  0.00     0.023 A 
ATOM     68  C   UNL A   1      39.308  24.736  26.461  1.00  0.00     0.012 A 
ATOM     69  C   UNL A   1      41.161  23.301  27.106  1.00  0.00     0.148 A 
ATOM     70  C   UNL A   1      38.512  23.616  26.217  1.00  0.00     0.002 A 
ATOM     71  C   UNL A   1      40.379  22.190  26.814  1.00  0.00     0.091 A 
ATOM     72  F   UNL A   1      42.409  23.183  27.582  1.00  0.00    -0.205 F 
ATOM     73  C   UNL A   1      39.051  22.345  26.383  1.00  0.00     0.022 A 
BRANCH  71  74
ATOM     74  S   UNL A   1      41.001  20.510  26.929  1.00  0.00     0.127 S 
ATOM     75  O   UNL A   1      42.394  20.681  26.517  1.00  0.00    -0.237 OA
ATOM     76  O   UNL A   1      40.817  20.216  28.350  1.00  0.00    -0.237 OA
ATOM     77  O   UNL A   1      40.183  19.712  26.026  1.00  0.00    -0.744 OA
ENDBRANCH  71  74
ENDBRANCH  53  67
BRANCH  54  78
ATOM     78  C   UNL A   1      46.029  32.767  29.829  1.00  0.00     0.023 A 
ATOM     79  C   UNL A   1      46.706  32.693  31.061  1.00  0.00     0.012 A 
ATOM     80  C   UNL A   1      46.184  33.915  29.027  1.00  0.00     0.148 A 
ATOM     81  C   UNL A   1      47.494  33.756  31.504  1.00  0.00     0.002 A 
ATOM     82  C   UNL A   1      47.008  34.950  29.451  1.00  0.00     0.091 A 
ATOM     83  F   UNL A   1      45.550  33.953  27.846  1.00  0.00    -0.205 F 
ATOM     84  C   UNL A   1      47.651  34.881  30.697  1.00  0.00     0.022 A 
BRANCH  82  85
ATOM     85  S   UNL A   1      47.372  36.375  28.419  1.00  0.00     0.127 S 
ATOM     86  O   UNL A   1      47.877  35.741  27.205  1.00  0.00    -0.237 OA
ATOM     87  O   UNL A   1      46.053  36.997  28.288  1.00  0.00    -0.237 OA
ATOM     88  O   UNL A   1      48.337  37.168  29.169  1.00  0.00    -0.744 OA
ENDBRANCH  82  85
ENDBRANCH  54  78
BRANCH  66  89
ATOM     89  C   UNL A   1      47.288  27.191  25.804  1.00  0.00     0.023 A 
ATOM     90  C   UNL A   1      47.382  27.482  24.430  1.00  0.00     0.012 A 
ATOM     91  C   UNL A   1      48.358  26.568  26.470  1.00  0.00     0.148 A 
ATOM     92  C   UNL A   1      48.518  27.115  23.716  1.00  0.00     0.002 A 
ATOM     93  C   UNL A   1      49.512  26.269  25.767  1.00  0.00     0.091 A 
ATOM     94  F   UNL A   1      48.226  26.290  27.775  1.00  0.00    -0.205 F 
ATOM     95  C   UNL A   1      49.588  26.523  24.387  1.00  0.00     0.022 A 
BRANCH  93  96
ATOM     96  S   UNL A   1      50.976  25.618  26.571  1.00  0.00     0.127 S 
ATOM     97  O   UNL A   1      51.846  25.350  25.427  1.00  0.00    -0.237 OA
ATOM     98  O   UNL A   1      51.391  26.745  27.406  1.00  0.00    -0.237 OA
ATOM     99  O   UNL A   1      50.542  24.441  27.312  1.00  0.00    -0.744 OA
ENDBRANCH  93  96
ENDBRANCH  66  89
ENDBRANCH  40  41
ENDBRANCH  33  35
ENDBRANCH  32  33
ENDBRANCH  31  32
ENDBRANCH  30  31
ENDBRANCH  29  30
ENDBRANCH  28  29
ENDBRANCH   1  28
TORSDOF 25
ENDMDL
MODEL 3
REMARK VINA RESULT:      -9.2      1.866      2.208
REMARK SMILES COC(=O)C[C@H](NC(=O)N1CC[N@@H+]2CCC[C@@H]2C1)C(=O)OCCOCCOCCOC(=O)c1ccc(-c2c3nc(c(-c4cccc(S(=O)(=O)[O-])c4F)c4ccc([nH]4)c(-c4cccc(S(=O)(=O)[O-])c4F)c4nc(c(-c5cccc(S(=O)(=O)[O-])c5F)c5ccc2[nH]5)C=C4)C=C3)cc1
REMARK SMILES IDX 25 1 24 2 23 3 22 4 21 5 19 6 20 7 6 8 5 9 3 10 4 11 2 12
REMARK SMILES IDX 1 13 7 14 8 15 9 17 10 18 11 19 18 20 12 21 17 22 13 23
REMARK SMILES IDX 16 24 14 25 15 27 26 28 27 29 28 30 29 31 30 32 31 33 32 34
REMARK SMILES IDX 33 35 34 36 95 37 35 38 94 39 36 40 37 41 38 42 88 43 39 44
REMARK SMILES IDX 93 45 87 46 89 47 40 48 92 49 86 50 85 51 41 53 73 54 53 55
REMARK SMILES IDX 72 56 54 57 57 58 71 59 90 60 55 61 56 62 70 64 91 65 58 66
REMARK SMILES IDX 42 67 43 68 51 69 44 70 46 71 52 72 45 73 47 74 48 75 49 76
REMARK SMILES IDX 50 77 74 78 75 79 83 80 76 81 78 82 84 83 77 84 79 85 80 86
REMARK SMILES IDX 81 87 82 88 59 89 60 90 68 91 61 92 63 93 69 94 62 95 64 96
REMARK SMILES IDX 65 97 66 98 67 99
REMARK H PARENT 7 16 13 26 89 52 57 63
REMARK Flexibility Score: inf
ROOT
ATOM      1  C   UNL A   1      35.159  31.916  28.216  1.00  0.00     0.188 C 
ENDROOT
BRANCH   1   2
ATOM      2  O   UNL A   1      33.846  31.407  28.159  1.00  0.00    -0.376 OA
BRANCH   2   3
ATOM      3  C   UNL A   1      33.428  31.033  26.865  1.00  0.00     0.202 C 
BRANCH   3   4
ATOM      4  C   UNL A   1      32.033  30.369  26.728  1.00  0.00     0.261 C 
BRANCH   4   5
ATOM      5  O   UNL A   1      31.801  29.593  25.503  1.00  0.00    -0.462 OA
BRANCH   5   6
ATOM      6  C   UNL A   1      31.839  28.230  25.544  1.00  0.00     0.329 C 
ATOM      7  O   UNL A   1      32.523  27.624  26.365  1.00  0.00    -0.250 OA
BRANCH   6   8
ATOM      8  C   UNL A   1      31.141  27.471  24.331  1.00  0.00     0.204 C 
BRANCH   8   9
ATOM      9  C   UNL A   1      29.986  28.480  24.075  1.00  0.00     0.159 C 
BRANCH   9  10
ATOM     10  C   UNL A   1      29.615  28.822  22.667  1.00  0.00     0.308 C 
ATOM     11  O   UNL A   1      30.242  28.417  21.695  1.00  0.00    -0.252 OA
BRANCH  10  12
ATOM     12  O   UNL A   1      28.467  29.539  22.627  1.00  0.00    -0.469 OA
ATOM     13  C   UNL A   1      28.507  30.732  23.410  1.00  0.00     0.282 C 
ENDBRANCH  10  12
ENDBRANCH   9  10
ENDBRANCH   8   9
BRANCH   8  14
ATOM     14  N   UNL A   1      30.665  26.035  24.342  1.00  0.00    -0.324 N 
ATOM     15  C   UNL A   1      31.200  24.792  24.064  1.00  0.00     0.318 C 
ATOM     16  H   UNL A   1      29.723  25.968  24.623  1.00  0.00     0.166 HD
ATOM     17  O   UNL A   1      30.486  24.034  23.399  1.00  0.00    -0.249 OA
BRANCH  15  18
ATOM     18  N   UNL A   1      32.401  24.327  24.597  1.00  0.00    -0.313 N 
ATOM     19  C   UNL A   1      32.457  23.413  26.224  1.00  0.00     0.183 C 
ATOM     20  C   UNL A   1      33.944  24.300  23.416  1.00  0.00     0.186 C 
ATOM     21  C   UNL A   1      33.829  22.026  26.502  1.00  0.00     0.284 C 
ATOM     22  C   UNL A   1      35.199  22.774  23.680  1.00  0.00     0.204 C 
ATOM     23  N   UNL A   1      34.994  21.641  25.102  1.00  0.00    -0.330 N 
ATOM     24  C   UNL A   1      36.727  22.845  23.686  1.00  0.00     0.073 C 
ATOM     25  C   UNL A   1      36.179  20.836  25.247  1.00  0.00     0.262 C 
ATOM     26  H   UNL A   1      34.235  20.986  24.916  1.00  0.00     0.348 HD
ATOM     27  C   UNL A   1      37.227  21.499  24.321  1.00  0.00     0.068 C 
ENDBRANCH  15  18
ENDBRANCH   8  14
ENDBRANCH   6   8
ENDBRANCH   5   6
ENDBRANCH   4   5
ENDBRANCH   3   4
ENDBRANCH   2   3
ENDBRANCH   1   2
BRANCH   1  28
ATOM     28  C   UNL A   1      35.376  33.459  28.322  1.00  0.00     0.188 C 
BRANCH  28  29
ATOM     29  O   UNL A   1      34.318  34.290  27.910  1.00  0.00    -0.376 OA
BRANCH  29  30
ATOM     30  C   UNL A   1      34.314  35.594  28.444  1.00  0.00     0.202 C 
BRANCH  30  31
ATOM     31  C   UNL A   1      32.990  36.314  28.732  1.00  0.00     0.261 C 
BRANCH  31  32
ATOM     32  O   UNL A   1      32.183  35.774  29.826  1.00  0.00    -0.460 OA
BRANCH  32  33
ATOM     33  C   UNL A   1      32.763  35.762  31.159  1.00  0.00     0.338 C 
ATOM     34  O   UNL A   1      32.006  36.565  31.755  1.00  0.00    -0.246 OA
BRANCH  33  35
ATOM     35  C   UNL A   1      34.456  34.738  31.838  1.00  0.00     0.060 A 
ATOM     36  C   UNL A   1      34.559  33.311  32.354  1.00  0.00     0.016 A 
ATOM     37  C   UNL A   1      35.868  35.166  31.948  1.00  0.00     0.016 A 
ATOM     38  C   UNL A   1      35.650  32.621  32.904  1.00  0.00     0.010 A 
ATOM     39  C   UNL A   1      36.991  34.514  32.456  1.00  0.00     0.010 A 
ATOM     40  C   UNL A   1      36.857  33.255  32.964  1.00  0.00    -0.014 A 
BRANCH  40  41
ATOM     41  C   UNL A   1      38.046  32.615  33.469  1.00  0.00     0.031 A 
ATOM     42  C   UNL A   1      38.518  33.001  34.823  1.00  0.00     0.074 A 
ATOM     43  C   UNL A   1      38.711  31.871  32.575  1.00  0.00     0.049 A 
ATOM     44  N   UNL A   1      39.576  32.594  35.453  1.00  0.00    -0.248 NA
ATOM     45  C   UNL A   1      37.715  34.000  35.557  1.00  0.00     0.031 C 
ATOM     46  C   UNL A   1      38.275  31.632  31.190  1.00  0.00     0.029 A 
ATOM     47  N   UNL A   1      39.905  31.237  32.666  1.00  0.00    -0.354 N 
ATOM     48  C   UNL A   1      39.578  33.288  36.654  1.00  0.00     0.074 A 
ATOM     49  C   UNL A   1      38.436  34.172  36.653  1.00  0.00     0.031 C 
ATOM     50  C   UNL A   1      39.209  30.911  30.556  1.00  0.00     0.029 A 
ATOM     51  C   UNL A   1      40.294  30.655  31.486  1.00  0.00     0.049 A 
ATOM     52  H   UNL A   1      40.437  31.198  33.493  1.00  0.00     0.167 HD
ATOM     53  C   UNL A   1      40.473  33.162  37.655  1.00  0.00     0.034 A 
ATOM     54  C   UNL A   1      41.426  29.987  31.220  1.00  0.00     0.034 A 
ATOM     55  C   UNL A   1      41.606  32.287  37.536  1.00  0.00     0.049 A 
ATOM     56  C   UNL A   1      42.369  29.815  32.372  1.00  0.00     0.074 A 
ATOM     57  C   UNL A   1      42.568  31.977  38.472  1.00  0.00     0.029 A 
ATOM     58  N   UNL A   1      41.936  31.601  36.368  1.00  0.00    -0.354 N 
ATOM     59  N   UNL A   1      42.283  30.322  33.582  1.00  0.00    -0.248 NA
ATOM     60  C   UNL A   1      43.522  28.945  32.154  1.00  0.00     0.031 C 
ATOM     61  C   UNL A   1      43.505  31.141  37.855  1.00  0.00     0.029 A 
ATOM     62  C   UNL A   1      43.098  30.882  36.550  1.00  0.00     0.049 A 
ATOM     63  H   UNL A   1      41.416  31.627  35.534  1.00  0.00     0.167 HD
ATOM     64  C   UNL A   1      43.351  29.805  34.290  1.00  0.00     0.074 A 
ATOM     65  C   UNL A   1      44.058  28.928  33.367  1.00  0.00     0.031 C 
ATOM     66  C   UNL A   1      43.730  30.024  35.575  1.00  0.00     0.034 A 
BRANCH  53  67
ATOM     67  C   UNL A   1      40.251  33.969  38.904  1.00  0.00     0.023 A 
ATOM     68  C   UNL A   1      41.014  35.133  39.140  1.00  0.00     0.012 A 
ATOM     69  C   UNL A   1      39.280  33.584  39.847  1.00  0.00     0.148 A 
ATOM     70  C   UNL A   1      40.836  35.881  40.305  1.00  0.00     0.002 A 
ATOM     71  C   UNL A   1      39.074  34.360  40.981  1.00  0.00     0.091 A 
ATOM     72  F   UNL A   1      38.591  32.455  39.628  1.00  0.00    -0.205 F 
ATOM     73  C   UNL A   1      39.859  35.500  41.219  1.00  0.00     0.022 A 
BRANCH  71  74
ATOM     74  S   UNL A   1      37.794  33.994  42.187  1.00  0.00     0.127 S 
ATOM     75  O   UNL A   1      36.683  33.590  41.326  1.00  0.00    -0.237 OA
ATOM     76  O   UNL A   1      38.402  32.905  42.951  1.00  0.00    -0.237 OA
ATOM     77  O   UNL A   1      37.580  35.225  42.936  1.00  0.00    -0.744 OA
ENDBRANCH  71  74
ENDBRANCH  53  67
BRANCH  54  78
ATOM     78  C   UNL A   1      41.623  29.375  29.884  1.00  0.00     0.023 A 
ATOM     79  C   UNL A   1      42.411  30.042  28.927  1.00  0.00     0.012 A 
ATOM     80  C   UNL A   1      41.126  28.089  29.590  1.00  0.00     0.148 A 
ATOM     81  C   UNL A   1      42.670  29.457  27.688  1.00  0.00     0.002 A 
ATOM     82  C   UNL A   1      41.428  27.492  28.373  1.00  0.00     0.091 A 
ATOM     83  F   UNL A   1      40.400  27.461  30.526  1.00  0.00    -0.205 F 
ATOM     84  C   UNL A   1      42.185  28.180  27.413  1.00  0.00     0.022 A 
BRANCH  82  85
ATOM     85  S   UNL A   1      40.957  25.801  27.988  1.00  0.00     0.127 S 
ATOM     86  O   UNL A   1      41.229  25.737  26.554  1.00  0.00    -0.237 OA
ATOM     87  O   UNL A   1      41.880  25.033  28.825  1.00  0.00    -0.237 OA
ATOM     88  O   UNL A   1      39.558  25.684  28.373  1.00  0.00    -0.744 OA
ENDBRANCH  82  85
ENDBRANCH  54  78
BRANCH  66  89
ATOM     89  C   UNL A   1      44.943  29.276  36.036  1.00  0.00     0.023 A 
ATOM     90  C   UNL A   1      46.222  29.844  35.876  1.00  0.00     0.012 A 
ATOM     91  C   UNL A   1      44.797  28.037  36.684  1.00  0.00     0.148 A 
ATOM     92  C   UNL A   1      47.349  29.160  36.319  1.00  0.00     0.002 A 
ATOM     93  C   UNL A   1      45.916  27.396  37.183  1.00  0.00     0.091 A 
ATOM     94  F   UNL A   1      43.565  27.518  36.802  1.00  0.00    -0.205 F 
ATOM     95  C   UNL A   1      47.195  27.945  36.985  1.00  0.00     0.022 A 
BRANCH  93  96
ATOM     96  S   UNL A   1      45.801  25.893  38.153  1.00  0.00     0.127 S 
ATOM     97  O   UNL A   1      44.943  26.320  39.257  1.00  0.00    -0.237 OA
ATOM     98  O   UNL A   1      45.171  24.969  37.210  1.00  0.00    -0.237 OA
ATOM     99  O   UNL A   1      47.166  25.544  38.525  1.00  0.00    -0.744 OA
ENDBRANCH  93  96
ENDBRANCH  66  89
ENDBRANCH  40  41
ENDBRANCH  33  35
ENDBRANCH  32  33
ENDBRANCH  31  32
ENDBRANCH  30  31
ENDBRANCH  29  30
ENDBRANCH  28  29
ENDBRANCH   1  28
TORSDOF 25
ENDMDL
