MODEL 1
REMARK VINA RESULT:     -11.3      0.000      0.000
REMARK SMILES O=C(OCCOCCOCCOC(=O)[C@H]1[C@@H](C(=O)Nc2cc(F)ccc2F)[C@@H]2C=C[C@H]1O2)c1ccc(-c2c3nc(c(-c4cccc(S(=O)(=O)[O-])c4F)c4ccc([nH]4)c(-c4cccc(S(=O)(=O)[O-])c4F)c4nc(c(-c5cccc(S(=O)(=O)[O-])c5F)c5ccc2[nH]5)C=C4)C=C3)cc1
REMARK SMILES IDX 7 1 6 2 5 3 4 4 3 5 2 6 1 7 33 8 34 9 95 10 35 11 94 12
REMARK SMILES IDX 36 13 37 14 38 15 88 16 39 17 93 18 87 19 89 20 40 21 92 22
REMARK SMILES IDX 86 23 85 24 41 26 73 27 53 28 72 29 54 30 57 31 71 32 90 33
REMARK SMILES IDX 55 34 56 35 70 37 91 38 58 39 42 40 43 41 51 42 44 43 46 44
REMARK SMILES IDX 52 45 45 46 47 47 48 48 49 49 50 50 74 51 75 52 83 53 76 54
REMARK SMILES IDX 78 55 84 56 77 57 79 58 80 59 81 60 82 61 59 62 60 63 68 64
REMARK SMILES IDX 61 65 63 66 69 67 62 68 64 69 65 70 66 71 67 72 8 73 9 74
REMARK SMILES IDX 10 75 11 76 12 77 13 78 14 79 15 80 16 81 31 82 28 83 30 84
REMARK SMILES IDX 32 85 29 86 17 87 18 88 19 89 20 91 21 92 26 93 22 94 25 95
REMARK SMILES IDX 27 96 23 97 24 98
REMARK H PARENT 89 25 57 36 19 90
REMARK Flexibility Score: inf
ROOT
ATOM      1  C   UNL A   1      33.056  29.443  26.855  1.00  0.00     0.188 C 
ENDROOT
BRANCH   1   2
ATOM      2  O   UNL A   1      32.838  30.729  26.265  1.00  0.00    -0.376 OA
BRANCH   2   3
ATOM      3  C   UNL A   1      31.790  31.459  26.900  1.00  0.00     0.202 C 
BRANCH   3   4
ATOM      4  C   UNL A   1      31.883  32.971  26.665  1.00  0.00     0.261 C 
BRANCH   4   5
ATOM      5  O   UNL A   1      32.428  33.678  27.789  1.00  0.00    -0.460 OA
BRANCH   5   6
ATOM      6  C   UNL A   1      33.719  33.999  28.058  1.00  0.00     0.338 C 
ATOM      7  O   UNL A   1      34.032  35.186  27.941  1.00  0.00    -0.246 OA
BRANCH   6   8
ATOM      8  C   UNL A   1      34.782  33.034  28.522  1.00  0.00     0.060 A 
ATOM      9  C   UNL A   1      34.579  31.828  29.203  1.00  0.00     0.016 A 
ATOM     10  C   UNL A   1      36.116  33.392  28.244  1.00  0.00     0.016 A 
ATOM     11  C   UNL A   1      35.643  31.061  29.681  1.00  0.00     0.010 A 
ATOM     12  C   UNL A   1      37.190  32.612  28.689  1.00  0.00     0.010 A 
ATOM     13  C   UNL A   1      36.953  31.466  29.455  1.00  0.00    -0.014 A 
BRANCH  13  14
ATOM     14  C   UNL A   1      38.056  30.775  30.149  1.00  0.00     0.031 A 
ATOM     15  C   UNL A   1      38.489  31.297  31.485  1.00  0.00     0.074 A 
ATOM     16  C   UNL A   1      38.640  29.686  29.621  1.00  0.00     0.049 A 
ATOM     17  N   UNL A   1      39.420  30.842  32.277  1.00  0.00    -0.248 NA
ATOM     18  C   UNL A   1      37.736  32.441  32.029  1.00  0.00     0.031 C 
ATOM     19  C   UNL A   1      38.223  29.013  28.397  1.00  0.00     0.029 A 
ATOM     20  N   UNL A   1      39.760  28.997  30.009  1.00  0.00    -0.354 N 
ATOM     21  C   UNL A   1      39.332  31.605  33.430  1.00  0.00     0.074 A 
ATOM     22  C   UNL A   1      38.301  32.596  33.217  1.00  0.00     0.031 C 
ATOM     23  C   UNL A   1      39.174  28.141  28.026  1.00  0.00     0.029 A 
ATOM     24  C   UNL A   1      40.234  28.160  29.025  1.00  0.00     0.049 A 
ATOM     25  H   UNL A   1      40.179  29.091  30.895  1.00  0.00     0.167 HD
ATOM     26  C   UNL A   1      40.016  31.450  34.587  1.00  0.00     0.034 A 
ATOM     27  C   UNL A   1      41.412  27.516  28.932  1.00  0.00     0.034 A 
ATOM     28  C   UNL A   1      41.060  30.481  34.762  1.00  0.00     0.049 A 
ATOM     29  C   UNL A   1      42.298  27.503  30.142  1.00  0.00     0.074 A 
ATOM     30  C   UNL A   1      41.805  30.205  35.892  1.00  0.00     0.029 A 
ATOM     31  N   UNL A   1      41.533  29.654  33.754  1.00  0.00    -0.354 N 
ATOM     32  N   UNL A   1      42.117  28.110  31.290  1.00  0.00    -0.248 NA
ATOM     33  C   UNL A   1      43.492  26.652  30.090  1.00  0.00     0.031 C 
ATOM     34  C   UNL A   1      42.755  29.232  35.554  1.00  0.00     0.029 A 
ATOM     35  C   UNL A   1      42.586  28.889  34.220  1.00  0.00     0.049 A 
ATOM     36  H   UNL A   1      41.172  29.617  32.839  1.00  0.00     0.167 HD
ATOM     37  C   UNL A   1      43.126  27.656  32.126  1.00  0.00     0.074 A 
ATOM     38  C   UNL A   1      43.934  26.742  31.339  1.00  0.00     0.031 C 
ATOM     39  C   UNL A   1      43.347  27.952  33.430  1.00  0.00     0.034 A 
BRANCH  26  40
ATOM     40  C   UNL A   1      39.614  32.332  35.732  1.00  0.00     0.023 A 
ATOM     41  C   UNL A   1      40.210  33.605  35.864  1.00  0.00     0.012 A 
ATOM     42  C   UNL A   1      38.681  31.902  36.690  1.00  0.00     0.148 A 
ATOM     43  C   UNL A   1      39.908  34.421  36.953  1.00  0.00     0.002 A 
ATOM     44  C   UNL A   1      38.362  32.735  37.758  1.00  0.00     0.091 A 
ATOM     45  F   UNL A   1      38.154  30.676  36.565  1.00  0.00    -0.205 F 
ATOM     46  C   UNL A   1      38.981  33.988  37.896  1.00  0.00     0.022 A 
BRANCH  44  47
ATOM     47  S   UNL A   1      37.151  32.278  39.002  1.00  0.00     0.127 S 
ATOM     48  O   UNL A   1      37.584  33.081  40.144  1.00  0.00    -0.237 OA
ATOM     49  O   UNL A   1      35.896  32.718  38.389  1.00  0.00    -0.237 OA
ATOM     50  O   UNL A   1      37.271  30.835  39.164  1.00  0.00    -0.744 OA
ENDBRANCH  44  47
ENDBRANCH  26  40
BRANCH  27  51
ATOM     51  C   UNL A   1      41.770  26.815  27.670  1.00  0.00     0.023 A 
ATOM     52  C   UNL A   1      42.293  27.533  26.582  1.00  0.00     0.012 A 
ATOM     53  C   UNL A   1      41.644  25.413  27.574  1.00  0.00     0.148 A 
ATOM     54  C   UNL A   1      42.665  26.872  25.409  1.00  0.00     0.002 A 
ATOM     55  C   UNL A   1      42.048  24.756  26.417  1.00  0.00     0.091 A 
ATOM     56  F   UNL A   1      41.139  24.747  28.623  1.00  0.00    -0.205 F 
ATOM     57  C   UNL A   1      42.549  25.486  25.329  1.00  0.00     0.022 A 
BRANCH  55  58
ATOM     58  S   UNL A   1      42.035  22.964  26.268  1.00  0.00     0.127 S 
ATOM     59  O   UNL A   1      40.605  22.671  26.323  1.00  0.00    -0.237 OA
ATOM     60  O   UNL A   1      42.656  22.768  24.957  1.00  0.00    -0.237 OA
ATOM     61  O   UNL A   1      42.828  22.470  27.385  1.00  0.00    -0.744 OA
ENDBRANCH  55  58
ENDBRANCH  27  51
BRANCH  39  62
ATOM     62  C   UNL A   1      44.480  27.245  34.114  1.00  0.00     0.023 A 
ATOM     63  C   UNL A   1      45.767  27.815  34.107  1.00  0.00     0.012 A 
ATOM     64  C   UNL A   1      44.243  26.064  34.843  1.00  0.00     0.148 A 
ATOM     65  C   UNL A   1      46.809  27.206  34.804  1.00  0.00     0.002 A 
ATOM     66  C   UNL A   1      45.275  25.490  35.575  1.00  0.00     0.091 A 
ATOM     67  F   UNL A   1      43.015  25.527  34.812  1.00  0.00    -0.205 F 
ATOM     68  C   UNL A   1      46.560  26.055  35.549  1.00  0.00     0.022 A 
BRANCH  66  69
ATOM     69  S   UNL A   1      45.014  24.069  36.642  1.00  0.00     0.127 S 
ATOM     70  O   UNL A   1      44.306  23.153  35.750  1.00  0.00    -0.237 OA
ATOM     71  O   UNL A   1      46.384  23.669  36.967  1.00  0.00    -0.237 OA
ATOM     72  O   UNL A   1      44.246  24.559  37.779  1.00  0.00    -0.744 OA
ENDBRANCH  66  69
ENDBRANCH  39  62
ENDBRANCH  13  14
ENDBRANCH   6   8
ENDBRANCH   5   6
ENDBRANCH   4   5
ENDBRANCH   3   4
ENDBRANCH   2   3
ENDBRANCH   1   2
BRANCH   1  73
ATOM     73  C   UNL A   1      31.758  28.759  27.279  1.00  0.00     0.188 C 
BRANCH  73  74
ATOM     74  O   UNL A   1      31.329  27.676  26.454  1.00  0.00    -0.376 OA
BRANCH  74  75
ATOM     75  C   UNL A   1      32.316  27.142  25.563  1.00  0.00     0.202 C 
BRANCH  75  76
ATOM     76  C   UNL A   1      33.067  25.880  26.019  1.00  0.00     0.261 C 
BRANCH  76  77
ATOM     77  O   UNL A   1      32.563  24.653  25.444  1.00  0.00    -0.463 OA
BRANCH  77  78
ATOM     78  C   UNL A   1      33.107  23.504  25.935  1.00  0.00     0.312 C 
ATOM     79  O   UNL A   1      32.694  22.916  26.932  1.00  0.00    -0.252 OA
BRANCH  78  80
ATOM     80  C   UNL A   1      34.381  23.076  25.251  1.00  0.00     0.147 C 
ATOM     81  C   UNL A   1      34.187  22.135  24.027  1.00  0.00     0.129 C 
ATOM     82  C   UNL A   1      35.290  24.154  24.653  1.00  0.00     0.157 C 
ATOM     83  C   UNL A   1      35.057  22.823  22.954  1.00  0.00     0.155 C 
ATOM     84  C   UNL A   1      36.640  23.530  24.391  1.00  0.00     0.004 C 
ATOM     85  O   UNL A   1      34.811  24.215  23.285  1.00  0.00    -0.365 OA
ATOM     86  C   UNL A   1      36.493  22.714  23.341  1.00  0.00     0.004 C 
BRANCH  81  87
ATOM     87  C   UNL A   1      32.813  22.006  23.390  1.00  0.00     0.231 C 
ATOM     88  O   UNL A   1      32.231  22.949  22.850  1.00  0.00    -0.274 OA
ATOM     89  N   UNL A   1      32.301  20.752  23.175  1.00  0.00    -0.323 N 
ATOM     90  H   UNL A   1      31.580  20.706  22.507  1.00  0.00     0.170 HD
BRANCH  89  91
ATOM     91  C   UNL A   1      32.646  19.524  23.759  1.00  0.00     0.080 A 
ATOM     92  C   UNL A   1      33.185  18.462  23.032  1.00  0.00     0.068 A 
ATOM     93  C   UNL A   1      32.484  19.386  25.141  1.00  0.00     0.146 A 
ATOM     94  C   UNL A   1      33.468  17.264  23.678  1.00  0.00     0.125 A 
ATOM     95  C   UNL A   1      32.748  18.179  25.783  1.00  0.00     0.044 A 
ATOM     96  F   UNL A   1      32.017  20.416  25.863  1.00  0.00    -0.205 F 
ATOM     97  F   UNL A   1      34.002  16.253  22.983  1.00  0.00    -0.207 F 
ATOM     98  C   UNL A   1      33.233  17.104  25.040  1.00  0.00     0.042 A 
ENDBRANCH  89  91
ENDBRANCH  81  87
ENDBRANCH  78  80
ENDBRANCH  77  78
ENDBRANCH  76  77
ENDBRANCH  75  76
ENDBRANCH  74  75
ENDBRANCH  73  74
ENDBRANCH   1  73
TORSDOF 22
ENDMDL
MODEL 2
REMARK VINA RESULT:     -11.1      1.623      2.768
REMARK SMILES O=C(OCCOCCOCCOC(=O)[C@H]1[C@@H](C(=O)Nc2cc(F)ccc2F)[C@@H]2C=C[C@H]1O2)c1ccc(-c2c3nc(c(-c4cccc(S(=O)(=O)[O-])c4F)c4ccc([nH]4)c(-c4cccc(S(=O)(=O)[O-])c4F)c4nc(c(-c5cccc(S(=O)(=O)[O-])c5F)c5ccc2[nH]5)C=C4)C=C3)cc1
REMARK SMILES IDX 7 1 6 2 5 3 4 4 3 5 2 6 1 7 33 8 34 9 95 10 35 11 94 12
REMARK SMILES IDX 36 13 37 14 38 15 88 16 39 17 93 18 87 19 89 20 40 21 92 22
REMARK SMILES IDX 86 23 85 24 41 26 73 27 53 28 72 29 54 30 57 31 71 32 90 33
REMARK SMILES IDX 55 34 56 35 70 37 91 38 58 39 42 40 43 41 51 42 44 43 46 44
REMARK SMILES IDX 52 45 45 46 47 47 48 48 49 49 50 50 74 51 75 52 83 53 76 54
REMARK SMILES IDX 78 55 84 56 77 57 79 58 80 59 81 60 82 61 59 62 60 63 68 64
REMARK SMILES IDX 61 65 63 66 69 67 62 68 64 69 65 70 66 71 67 72 8 73 9 74
REMARK SMILES IDX 10 75 11 76 12 77 13 78 14 79 15 80 16 81 31 82 28 83 30 84
REMARK SMILES IDX 32 85 29 86 17 87 18 88 19 89 20 91 21 92 26 93 22 94 25 95
REMARK SMILES IDX 27 96 23 97 24 98
REMARK H PARENT 89 25 57 36 19 90
REMARK Flexibility Score: inf
ROOT
ATOM      1  C   UNL A   1      33.671  29.813  26.832  1.00  0.00     0.188 C 
ENDROOT
BRANCH   1   2
ATOM      2  O   UNL A   1      33.586  31.241  26.840  1.00  0.00    -0.376 OA
BRANCH   2   3
ATOM      3  C   UNL A   1      32.273  31.716  27.138  1.00  0.00     0.202 C 
BRANCH   3   4
ATOM      4  C   UNL A   1      32.105  33.218  26.880  1.00  0.00     0.261 C 
BRANCH   4   5
ATOM      5  O   UNL A   1      32.591  34.027  27.960  1.00  0.00    -0.460 OA
BRANCH   5   6
ATOM      6  C   UNL A   1      33.872  34.290  28.328  1.00  0.00     0.338 C 
ATOM      7  O   UNL A   1      34.237  35.466  28.269  1.00  0.00    -0.246 OA
BRANCH   6   8
ATOM      8  C   UNL A   1      34.862  33.270  28.835  1.00  0.00     0.060 A 
ATOM      9  C   UNL A   1      34.637  32.300  29.818  1.00  0.00     0.016 A 
ATOM     10  C   UNL A   1      36.148  33.310  28.262  1.00  0.00     0.016 A 
ATOM     11  C   UNL A   1      35.659  31.473  30.288  1.00  0.00     0.010 A 
ATOM     12  C   UNL A   1      37.171  32.462  28.702  1.00  0.00     0.010 A 
ATOM     13  C   UNL A   1      36.938  31.573  29.756  1.00  0.00    -0.014 A 
BRANCH  13  14
ATOM     14  C   UNL A   1      38.053  30.860  30.409  1.00  0.00     0.031 A 
ATOM     15  C   UNL A   1      38.537  31.363  31.734  1.00  0.00     0.074 A 
ATOM     16  C   UNL A   1      38.603  29.767  29.853  1.00  0.00     0.049 A 
ATOM     17  N   UNL A   1      39.487  30.887  32.491  1.00  0.00    -0.248 NA
ATOM     18  C   UNL A   1      37.820  32.514  32.312  1.00  0.00     0.031 C 
ATOM     19  C   UNL A   1      38.136  29.111  28.638  1.00  0.00     0.029 A 
ATOM     20  N   UNL A   1      39.724  29.058  30.198  1.00  0.00    -0.354 N 
ATOM     21  C   UNL A   1      39.447  31.642  33.653  1.00  0.00     0.074 A 
ATOM     22  C   UNL A   1      38.426  32.650  33.482  1.00  0.00     0.031 C 
ATOM     23  C   UNL A   1      39.062  28.228  28.228  1.00  0.00     0.029 A 
ATOM     24  C   UNL A   1      40.153  28.223  29.193  1.00  0.00     0.049 A 
ATOM     25  H   UNL A   1      40.173  29.138  31.071  1.00  0.00     0.167 HD
ATOM     26  C   UNL A   1      40.166  31.467  34.785  1.00  0.00     0.034 A 
ATOM     27  C   UNL A   1      41.317  27.562  29.056  1.00  0.00     0.034 A 
ATOM     28  C   UNL A   1      41.201  30.481  34.919  1.00  0.00     0.049 A 
ATOM     29  C   UNL A   1      42.242  27.525  30.236  1.00  0.00     0.074 A 
ATOM     30  C   UNL A   1      41.978  30.184  36.021  1.00  0.00     0.029 A 
ATOM     31  N   UNL A   1      41.628  29.655  33.888  1.00  0.00    -0.354 N 
ATOM     32  N   UNL A   1      42.109  28.125  31.394  1.00  0.00    -0.248 NA
ATOM     33  C   UNL A   1      43.421  26.657  30.138  1.00  0.00     0.031 C 
ATOM     34  C   UNL A   1      42.901  29.200  35.644  1.00  0.00     0.029 A 
ATOM     35  C   UNL A   1      42.684  28.871  34.314  1.00  0.00     0.049 A 
ATOM     36  H   UNL A   1      41.237  29.632  32.985  1.00  0.00     0.167 HD
ATOM     37  C   UNL A   1      43.137  27.648  32.193  1.00  0.00     0.074 A 
ATOM     38  C   UNL A   1      43.905  26.730  31.372  1.00  0.00     0.031 C 
ATOM     39  C   UNL A   1      43.405  27.930  33.491  1.00  0.00     0.034 A 
BRANCH  26  40
ATOM     40  C   UNL A   1      39.815  32.344  35.951  1.00  0.00     0.023 A 
ATOM     41  C   UNL A   1      40.539  33.539  36.157  1.00  0.00     0.012 A 
ATOM     42  C   UNL A   1      38.802  31.984  36.855  1.00  0.00     0.148 A 
ATOM     43  C   UNL A   1      40.283  34.342  37.267  1.00  0.00     0.002 A 
ATOM     44  C   UNL A   1      38.532  32.807  37.944  1.00  0.00     0.091 A 
ATOM     45  F   UNL A   1      38.153  30.828  36.661  1.00  0.00    -0.205 F 
ATOM     46  C   UNL A   1      39.276  33.979  38.156  1.00  0.00     0.022 A 
BRANCH  44  47
ATOM     47  S   UNL A   1      37.229  32.439  39.123  1.00  0.00     0.127 S 
ATOM     48  O   UNL A   1      37.520  33.394  40.191  1.00  0.00    -0.237 OA
ATOM     49  O   UNL A   1      36.021  32.737  38.351  1.00  0.00    -0.237 OA
ATOM     50  O   UNL A   1      37.392  31.035  39.472  1.00  0.00    -0.744 OA
ENDBRANCH  44  47
ENDBRANCH  26  40
BRANCH  27  51
ATOM     51  C   UNL A   1      41.624  26.867  27.777  1.00  0.00     0.023 A 
ATOM     52  C   UNL A   1      42.092  27.591  26.668  1.00  0.00     0.012 A 
ATOM     53  C   UNL A   1      41.504  25.464  27.683  1.00  0.00     0.148 A 
ATOM     54  C   UNL A   1      42.415  26.936  25.477  1.00  0.00     0.002 A 
ATOM     55  C   UNL A   1      41.861  24.813  26.507  1.00  0.00     0.091 A 
ATOM     56  F   UNL A   1      41.053  24.792  28.752  1.00  0.00    -0.205 F 
ATOM     57  C   UNL A   1      42.306  25.549  25.400  1.00  0.00     0.022 A 
BRANCH  55  58
ATOM     58  S   UNL A   1      41.855  23.022  26.354  1.00  0.00     0.127 S 
ATOM     59  O   UNL A   1      42.609  22.618  27.537  1.00  0.00    -0.237 OA
ATOM     60  O   UNL A   1      40.423  22.721  26.400  1.00  0.00    -0.237 OA
ATOM     61  O   UNL A   1      42.484  22.734  25.072  1.00  0.00    -0.744 OA
ENDBRANCH  55  58
ENDBRANCH  27  51
BRANCH  39  62
ATOM     62  C   UNL A   1      44.549  27.200  34.132  1.00  0.00     0.023 A 
ATOM     63  C   UNL A   1      45.813  27.813  34.212  1.00  0.00     0.012 A 
ATOM     64  C   UNL A   1      44.341  25.946  34.739  1.00  0.00     0.148 A 
ATOM     65  C   UNL A   1      46.863  27.176  34.873  1.00  0.00     0.002 A 
ATOM     66  C   UNL A   1      45.377  25.341  35.437  1.00  0.00     0.091 A 
ATOM     67  F   UNL A   1      43.134  25.372  34.626  1.00  0.00    -0.205 F 
ATOM     68  C   UNL A   1      46.640  25.950  35.498  1.00  0.00     0.022 A 
BRANCH  66  69
ATOM     69  S   UNL A   1      45.147  23.815  36.356  1.00  0.00     0.127 S 
ATOM     70  O   UNL A   1      46.474  23.209  36.262  1.00  0.00    -0.237 OA
ATOM     71  O   UNL A   1      44.791  24.305  37.688  1.00  0.00    -0.237 OA
ATOM     72  O   UNL A   1      44.078  23.096  35.675  1.00  0.00    -0.744 OA
ENDBRANCH  66  69
ENDBRANCH  39  62
ENDBRANCH  13  14
ENDBRANCH   6   8
ENDBRANCH   5   6
ENDBRANCH   4   5
ENDBRANCH   3   4
ENDBRANCH   2   3
ENDBRANCH   1   2
BRANCH   1  73
ATOM     73  C   UNL A   1      32.313  29.140  26.642  1.00  0.00     0.188 C 
BRANCH  73  74
ATOM     74  O   UNL A   1      32.348  27.784  26.199  1.00  0.00    -0.376 OA
BRANCH  74  75
ATOM     75  C   UNL A   1      33.514  27.399  25.461  1.00  0.00     0.202 C 
BRANCH  75  76
ATOM     76  C   UNL A   1      33.777  25.893  25.292  1.00  0.00     0.261 C 
BRANCH  76  77
ATOM     77  O   UNL A   1      34.109  25.500  23.941  1.00  0.00    -0.463 OA
BRANCH  77  78
ATOM     78  C   UNL A   1      34.533  24.214  23.787  1.00  0.00     0.312 C 
ATOM     79  O   UNL A   1      35.097  23.789  22.781  1.00  0.00    -0.252 OA
BRANCH  78  80
ATOM     80  C   UNL A   1      34.112  23.282  24.896  1.00  0.00     0.147 C 
ATOM     81  C   UNL A   1      32.828  22.452  24.606  1.00  0.00     0.129 C 
ATOM     82  C   UNL A   1      35.082  22.182  25.337  1.00  0.00     0.157 C 
ATOM     83  C   UNL A   1      33.282  21.024  24.974  1.00  0.00     0.155 C 
ATOM     84  C   UNL A   1      34.613  21.660  26.674  1.00  0.00     0.004 C 
ATOM     85  O   UNL A   1      34.657  21.069  24.510  1.00  0.00    -0.365 OA
ATOM     86  C   UNL A   1      33.507  20.944  26.446  1.00  0.00     0.004 C 
BRANCH  81  87
ATOM     87  C   UNL A   1      32.312  22.342  23.180  1.00  0.00     0.231 C 
ATOM     88  O   UNL A   1      32.578  21.391  22.441  1.00  0.00    -0.274 OA
ATOM     89  N   UNL A   1      31.313  23.188  22.773  1.00  0.00    -0.323 N 
ATOM     90  H   UNL A   1      30.814  22.890  21.979  1.00  0.00     0.170 HD
BRANCH  89  91
ATOM     91  C   UNL A   1      30.892  24.413  23.312  1.00  0.00     0.080 A 
ATOM     92  C   UNL A   1      30.322  24.528  24.580  1.00  0.00     0.068 A 
ATOM     93  C   UNL A   1      31.104  25.570  22.556  1.00  0.00     0.146 A 
ATOM     94  C   UNL A   1      29.898  25.774  25.029  1.00  0.00     0.125 A 
ATOM     95  C   UNL A   1      30.660  26.813  22.998  1.00  0.00     0.044 A 
ATOM     96  F   UNL A   1      31.700  25.482  21.357  1.00  0.00    -0.205 F 
ATOM     97  F   UNL A   1      29.367  25.885  26.252  1.00  0.00    -0.207 F 
ATOM     98  C   UNL A   1      30.039  26.912  24.241  1.00  0.00     0.042 A 
ENDBRANCH  89  91
ENDBRANCH  81  87
ENDBRANCH  78  80
ENDBRANCH  77  78
ENDBRANCH  76  77
ENDBRANCH  75  76
ENDBRANCH  74  75
ENDBRANCH  73  74
ENDBRANCH   1  73
TORSDOF 22
ENDMDL
MODEL 3
REMARK VINA RESULT:     -11.0      4.690      6.665
REMARK SMILES O=C(OCCOCCOCCOC(=O)[C@H]1[C@@H](C(=O)Nc2cc(F)ccc2F)[C@@H]2C=C[C@H]1O2)c1ccc(-c2c3nc(c(-c4cccc(S(=O)(=O)[O-])c4F)c4ccc([nH]4)c(-c4cccc(S(=O)(=O)[O-])c4F)c4nc(c(-c5cccc(S(=O)(=O)[O-])c5F)c5ccc2[nH]5)C=C4)C=C3)cc1
REMARK SMILES IDX 7 1 6 2 5 3 4 4 3 5 2 6 1 7 33 8 34 9 95 10 35 11 94 12
REMARK SMILES IDX 36 13 37 14 38 15 88 16 39 17 93 18 87 19 89 20 40 21 92 22
REMARK SMILES IDX 86 23 85 24 41 26 73 27 53 28 72 29 54 30 57 31 71 32 90 33
REMARK SMILES IDX 55 34 56 35 70 37 91 38 58 39 42 40 43 41 51 42 44 43 46 44
REMARK SMILES IDX 52 45 45 46 47 47 48 48 49 49 50 50 74 51 75 52 83 53 76 54
REMARK SMILES IDX 78 55 84 56 77 57 79 58 80 59 81 60 82 61 59 62 60 63 68 64
REMARK SMILES IDX 61 65 63 66 69 67 62 68 64 69 65 70 66 71 67 72 8 73 9 74
REMARK SMILES IDX 10 75 11 76 12 77 13 78 14 79 15 80 16 81 31 82 28 83 30 84
REMARK SMILES IDX 32 85 29 86 17 87 18 88 19 89 20 91 21 92 26 93 22 94 25 95
REMARK SMILES IDX 27 96 23 97 24 98
REMARK H PARENT 89 25 57 36 19 90
REMARK Flexibility Score: inf
ROOT
ATOM      1  C   UNL A   1      34.250  31.988  27.838  1.00  0.00     0.188 C 
ENDROOT
BRANCH   1   2
ATOM      2  O   UNL A   1      34.020  32.312  29.213  1.00  0.00    -0.376 OA
BRANCH   2   3
ATOM      3  C   UNL A   1      34.165  33.705  29.486  1.00  0.00     0.202 C 
BRANCH   3   4
ATOM      4  C   UNL A   1      34.418  34.004  30.968  1.00  0.00     0.261 C 
BRANCH   4   5
ATOM      5  O   UNL A   1      34.478  32.817  31.774  1.00  0.00    -0.460 OA
BRANCH   5   6
ATOM      6  C   UNL A   1      35.515  32.322  32.498  1.00  0.00     0.338 C 
ATOM      7  O   UNL A   1      35.517  32.569  33.706  1.00  0.00    -0.246 OA
BRANCH   6   8
ATOM      8  C   UNL A   1      36.634  31.470  31.951  1.00  0.00     0.060 A 
ATOM      9  C   UNL A   1      37.653  30.853  32.685  1.00  0.00     0.016 A 
ATOM     10  C   UNL A   1      36.654  31.287  30.554  1.00  0.00     0.016 A 
ATOM     11  C   UNL A   1      38.703  30.173  32.065  1.00  0.00     0.010 A 
ATOM     12  C   UNL A   1      37.684  30.578  29.925  1.00  0.00     0.010 A 
ATOM     13  C   UNL A   1      38.741  30.060  30.681  1.00  0.00    -0.014 A 
BRANCH  13  14
ATOM     14  C   UNL A   1      39.958  29.540  30.029  1.00  0.00     0.031 A 
ATOM     15  C   UNL A   1      41.107  30.479  29.821  1.00  0.00     0.074 A 
ATOM     16  C   UNL A   1      40.054  28.252  29.658  1.00  0.00     0.049 A 
ATOM     17  N   UNL A   1      42.272  30.237  29.287  1.00  0.00    -0.248 NA
ATOM     18  C   UNL A   1      40.948  31.850  30.338  1.00  0.00     0.031 C 
ATOM     19  C   UNL A   1      39.059  27.219  29.921  1.00  0.00     0.029 A 
ATOM     20  N   UNL A   1      41.007  27.607  28.912  1.00  0.00    -0.354 N 
ATOM     21  C   UNL A   1      43.003  31.404  29.449  1.00  0.00     0.074 A 
ATOM     22  C   UNL A   1      42.134  32.377  30.073  1.00  0.00     0.031 C 
ATOM     23  C   UNL A   1      39.347  26.132  29.189  1.00  0.00     0.029 A 
ATOM     24  C   UNL A   1      40.581  26.380  28.456  1.00  0.00     0.049 A 
ATOM     25  H   UNL A   1      41.897  27.981  28.722  1.00  0.00     0.167 HD
ATOM     26  C   UNL A   1      44.305  31.620  29.153  1.00  0.00     0.034 A 
ATOM     27  C   UNL A   1      41.115  25.573  27.522  1.00  0.00     0.034 A 
ATOM     28  C   UNL A   1      45.137  30.649  28.501  1.00  0.00     0.049 A 
ATOM     29  C   UNL A   1      42.486  25.906  27.012  1.00  0.00     0.074 A 
ATOM     30  C   UNL A   1      46.476  30.736  28.176  1.00  0.00     0.029 A 
ATOM     31  N   UNL A   1      44.687  29.421  28.038  1.00  0.00    -0.354 N 
ATOM     32  N   UNL A   1      43.232  26.944  27.302  1.00  0.00    -0.248 NA
ATOM     33  C   UNL A   1      43.131  24.925  26.131  1.00  0.00     0.031 C 
ATOM     34  C   UNL A   1      46.827  29.570  27.482  1.00  0.00     0.029 A 
ATOM     35  C   UNL A   1      45.710  28.750  27.395  1.00  0.00     0.049 A 
ATOM     36  H   UNL A   1      43.771  29.077  28.150  1.00  0.00     0.167 HD
ATOM     37  C   UNL A   1      44.463  26.709  26.707  1.00  0.00     0.074 A 
ATOM     38  C   UNL A   1      44.350  25.439  26.014  1.00  0.00     0.031 C 
ATOM     39  C   UNL A   1      45.586  27.466  26.751  1.00  0.00     0.034 A 
BRANCH  26  40
ATOM     40  C   UNL A   1      44.882  32.941  29.571  1.00  0.00     0.023 A 
ATOM     41  C   UNL A   1      45.444  33.070  30.860  1.00  0.00     0.012 A 
ATOM     42  C   UNL A   1      44.844  34.055  28.717  1.00  0.00     0.148 A 
ATOM     43  C   UNL A   1      45.928  34.300  31.303  1.00  0.00     0.002 A 
ATOM     44  C   UNL A   1      45.356  35.272  29.156  1.00  0.00     0.091 A 
ATOM     45  F   UNL A   1      44.273  33.919  27.512  1.00  0.00    -0.205 F 
ATOM     46  C   UNL A   1      45.889  35.399  30.449  1.00  0.00     0.022 A 
BRANCH  44  47
ATOM     47  S   UNL A   1      45.383  36.733  28.113  1.00  0.00     0.127 S 
ATOM     48  O   UNL A   1      45.546  37.798  29.101  1.00  0.00    -0.237 OA
ATOM     49  O   UNL A   1      46.560  36.494  27.275  1.00  0.00    -0.237 OA
ATOM     50  O   UNL A   1      44.117  36.731  27.392  1.00  0.00    -0.744 OA
ENDBRANCH  44  47
ENDBRANCH  26  40
BRANCH  27  51
ATOM     51  C   UNL A   1      40.360  24.375  27.065  1.00  0.00     0.023 A 
ATOM     52  C   UNL A   1      39.134  24.520  26.396  1.00  0.00     0.012 A 
ATOM     53  C   UNL A   1      40.898  23.083  27.247  1.00  0.00     0.148 A 
ATOM     54  C   UNL A   1      38.441  23.399  25.933  1.00  0.00     0.002 A 
ATOM     55  C   UNL A   1      40.222  21.973  26.753  1.00  0.00     0.091 A 
ATOM     56  F   UNL A   1      42.069  22.966  27.890  1.00  0.00    -0.205 F 
ATOM     57  C   UNL A   1      38.987  22.129  26.105  1.00  0.00     0.022 A 
BRANCH  55  58
ATOM     58  S   UNL A   1      40.902  20.311  26.835  1.00  0.00     0.127 S 
ATOM     59  O   UNL A   1      39.969  19.565  25.996  1.00  0.00    -0.237 OA
ATOM     60  O   UNL A   1      42.234  20.503  26.259  1.00  0.00    -0.237 OA
ATOM     61  O   UNL A   1      40.909  19.956  28.248  1.00  0.00    -0.744 OA
ENDBRANCH  55  58
ENDBRANCH  27  51
BRANCH  39  62
ATOM     62  C   UNL A   1      46.810  26.921  26.073  1.00  0.00     0.023 A 
ATOM     63  C   UNL A   1      46.970  27.081  24.684  1.00  0.00     0.012 A 
ATOM     64  C   UNL A   1      47.842  26.337  26.832  1.00  0.00     0.148 A 
ATOM     65  C   UNL A   1      48.136  26.649  24.056  1.00  0.00     0.002 A 
ATOM     66  C   UNL A   1      49.021  25.953  26.207  1.00  0.00     0.091 A 
ATOM     67  F   UNL A   1      47.654  26.172  28.150  1.00  0.00    -0.205 F 
ATOM     68  C   UNL A   1      49.166  26.100  24.819  1.00  0.00     0.022 A 
BRANCH  66  69
ATOM     69  S   UNL A   1      50.433  25.336  27.128  1.00  0.00     0.127 S 
ATOM     70  O   UNL A   1      49.862  24.173  27.805  1.00  0.00    -0.237 OA
ATOM     71  O   UNL A   1      51.384  25.017  26.063  1.00  0.00    -0.237 OA
ATOM     72  O   UNL A   1      50.851  26.427  27.998  1.00  0.00    -0.744 OA
ENDBRANCH  66  69
ENDBRANCH  39  62
ENDBRANCH  13  14
ENDBRANCH   6   8
ENDBRANCH   5   6
ENDBRANCH   4   5
ENDBRANCH   3   4
ENDBRANCH   2   3
ENDBRANCH   1   2
BRANCH   1  73
ATOM     73  C   UNL A   1      33.187  31.053  27.265  1.00  0.00     0.188 C 
BRANCH  73  74
ATOM     74  O   UNL A   1      33.672  29.984  26.453  1.00  0.00    -0.376 OA
BRANCH  74  75
ATOM     75  C   UNL A   1      34.104  28.813  27.157  1.00  0.00     0.202 C 
BRANCH  75  76
ATOM     76  C   UNL A   1      33.888  27.457  26.466  1.00  0.00     0.261 C 
BRANCH  76  77
ATOM     77  O   UNL A   1      32.510  27.018  26.445  1.00  0.00    -0.463 OA
BRANCH  77  78
ATOM     78  C   UNL A   1      31.830  27.262  25.290  1.00  0.00     0.312 C 
ATOM     79  O   UNL A   1      30.660  27.634  25.244  1.00  0.00    -0.252 OA
BRANCH  78  80
ATOM     80  C   UNL A   1      32.575  26.881  24.035  1.00  0.00     0.147 C 
ATOM     81  C   UNL A   1      32.326  25.428  23.537  1.00  0.00     0.129 C 
ATOM     82  C   UNL A   1      32.314  27.681  22.756  1.00  0.00     0.157 C 
ATOM     83  C   UNL A   1      32.006  25.652  22.045  1.00  0.00     0.155 C 
ATOM     84  C   UNL A   1      33.429  27.378  21.784  1.00  0.00     0.004 C 
ATOM     85  O   UNL A   1      31.265  26.898  22.131  1.00  0.00    -0.365 OA
ATOM     86  C   UNL A   1      33.234  26.130  21.345  1.00  0.00     0.004 C 
BRANCH  81  87
ATOM     87  C   UNL A   1      31.141  24.643  24.076  1.00  0.00     0.231 C 
ATOM     88  O   UNL A   1      29.973  24.906  23.785  1.00  0.00    -0.274 OA
ATOM     89  N   UNL A   1      31.374  23.445  24.701  1.00  0.00    -0.323 N 
ATOM     90  H   UNL A   1      30.595  22.846  24.755  1.00  0.00     0.170 HD
BRANCH  89  91
ATOM     91  C   UNL A   1      32.550  22.940  25.277  1.00  0.00     0.080 A 
ATOM     92  C   UNL A   1      32.876  23.123  26.621  1.00  0.00     0.068 A 
ATOM     93  C   UNL A   1      33.400  22.176  24.470  1.00  0.00     0.146 A 
ATOM     94  C   UNL A   1      34.078  22.620  27.107  1.00  0.00     0.125 A 
ATOM     95  C   UNL A   1      34.613  21.693  24.953  1.00  0.00     0.044 A 
ATOM     96  F   UNL A   1      33.073  21.946  23.189  1.00  0.00    -0.205 F 
ATOM     97  F   UNL A   1      34.382  22.782  28.400  1.00  0.00    -0.207 F 
ATOM     98  C   UNL A   1      34.959  21.929  26.282  1.00  0.00     0.042 A 
ENDBRANCH  89  91
ENDBRANCH  81  87
ENDBRANCH  78  80
ENDBRANCH  77  78
ENDBRANCH  76  77
ENDBRANCH  75  76
ENDBRANCH  74  75
ENDBRANCH  73  74
ENDBRANCH   1  73
TORSDOF 22
ENDMDL
