MODEL 1
REMARK VINA RESULT:     -12.5      0.000      0.000
REMARK SMILES Cc1ccc(-c2ncc(C(=O)OCCOCCOCCOC(=O)c3ccc(-c4c5nc(c(-c6cccc(S(=O)(=O)[O-])c6F)c6ccc([nH]6)c(-c6cccc(S(=O)(=O)[O-])c6F)c6nc(c(-c7cccc(S(=O)(=O)[O-])c7F)c7ccc4[nH]7)C=C6)C=C5)cc3)c(Nc3ccccc3)n2)cc1
REMARK SMILES IDX 17 1 16 2 15 3 14 4 13 5 12 6 10 7 11 8 9 9 6 10 7 11 95 12
REMARK SMILES IDX 8 13 87 14 5 15 1 16 2 17 3 18 97 19 4 20 96 21 88 22 89 24
REMARK SMILES IDX 90 25 94 26 91 27 93 28 92 29 18 30 19 31 20 32 21 33 22 34
REMARK SMILES IDX 23 35 24 36 25 37 86 38 26 39 85 40 27 41 28 42 29 43 79 44
REMARK SMILES IDX 30 45 84 46 78 47 80 48 31 49 83 50 77 51 76 52 32 54 64 55
REMARK SMILES IDX 44 56 63 57 45 58 48 59 62 60 81 61 46 62 47 63 61 65 82 66
REMARK SMILES IDX 49 67 33 68 34 69 42 70 35 71 37 72 43 73 36 74 38 75 39 76
REMARK SMILES IDX 40 77 41 78 65 79 66 80 74 81 67 82 69 83 75 84 68 85 70 86
REMARK SMILES IDX 71 87 72 88 73 89 50 90 51 91 59 92 52 93 54 94 60 95 53 96
REMARK SMILES IDX 55 97 56 98 57 99 58 100
REMARK H PARENT 88 23 80 53 48 64
REMARK Flexibility Score: inf
ROOT
ATOM      1  C   UNL A   1      35.547  19.975  24.981  1.00  0.00     0.188 C 
ENDROOT
BRANCH   1   2
ATOM      2  C   UNL A   1      34.652  18.762  24.654  1.00  0.00     0.188 C 
BRANCH   2   3
ATOM      3  O   UNL A   1      33.220  18.818  24.460  1.00  0.00    -0.376 OA
BRANCH   3   4
ATOM      4  C   UNL A   1      32.508  19.345  23.326  1.00  0.00     0.202 C 
BRANCH   4   5
ATOM      5  C   UNL A   1      32.132  21.004  22.908  1.00  0.00     0.261 C 
BRANCH   5   6
ATOM      6  O   UNL A   1      32.815  22.560  23.430  1.00  0.00    -0.460 OA
BRANCH   6   7
ATOM      7  C   UNL A   1      33.473  23.761  22.867  1.00  0.00     0.343 C 
ATOM      8  O   UNL A   1      34.602  23.868  22.387  1.00  0.00    -0.246 OA
BRANCH   7   9
ATOM      9  C   UNL A   1      32.929  25.110  22.858  1.00  0.00     0.121 A 
ATOM     10  C   UNL A   1      31.297  27.225  22.930  1.00  0.00     0.161 A 
ATOM     11  N   UNL A   1      31.205  26.427  21.853  1.00  0.00    -0.236 NA
ATOM     12  N   UNL A   1      32.136  27.084  23.953  1.00  0.00    -0.210 NA
ATOM     13  C   UNL A   1      32.042  25.375  21.845  1.00  0.00     0.133 A 
ATOM     14  C   UNL A   1      32.906  25.990  23.987  1.00  0.00     0.149 A 
BRANCH  10  15
ATOM     15  C   UNL A   1      30.362  28.316  23.079  1.00  0.00     0.019 A 
ATOM     16  C   UNL A   1      27.613  31.576  23.554  1.00  0.00     0.044 C 
ATOM     17  C   UNL A   1      28.564  30.430  23.425  1.00  0.00    -0.051 A 
ATOM     18  C   UNL A   1      28.138  29.236  22.833  1.00  0.00     0.004 A 
ATOM     19  C   UNL A   1      29.875  30.541  23.901  1.00  0.00     0.004 A 
ATOM     20  C   UNL A   1      29.034  28.184  22.658  1.00  0.00     0.012 A 
ATOM     21  C   UNL A   1      30.763  29.484  23.738  1.00  0.00     0.012 A 
ENDBRANCH  10  15
BRANCH  14  22
ATOM     22  N   UNL A   1      33.530  25.804  25.240  1.00  0.00    -0.339 N 
ATOM     23  H   UNL A   1      34.110  26.537  25.550  1.00  0.00     0.168 HD
BRANCH  22  24
ATOM     24  C   UNL A   1      33.415  24.678  26.109  1.00  0.00     0.040 A 
ATOM     25  C   UNL A   1      34.546  23.916  26.418  1.00  0.00     0.026 A 
ATOM     26  C   UNL A   1      32.179  24.186  26.561  1.00  0.00     0.026 A 
ATOM     27  C   UNL A   1      34.467  22.710  27.136  1.00  0.00     0.002 A 
ATOM     28  C   UNL A   1      32.095  22.998  27.323  1.00  0.00     0.002 A 
ATOM     29  C   UNL A   1      33.240  22.253  27.600  1.00  0.00     0.000 A 
ENDBRANCH  22  24
ENDBRANCH  14  22
ENDBRANCH   7   9
ENDBRANCH   6   7
ENDBRANCH   5   6
ENDBRANCH   4   5
ENDBRANCH   3   4
ENDBRANCH   2   3
ENDBRANCH   1   2
BRANCH   1  30
ATOM     30  O   UNL A   1      36.853  19.871  24.442  1.00  0.00    -0.376 OA
BRANCH  30  31
ATOM     31  C   UNL A   1      37.919  20.073  25.362  1.00  0.00     0.202 C 
BRANCH  31  32
ATOM     32  C   UNL A   1      38.481  21.514  25.437  1.00  0.00     0.261 C 
BRANCH  32  33
ATOM     33  O   UNL A   1      39.329  21.741  26.587  1.00  0.00    -0.460 OA
BRANCH  33  34
ATOM     34  C   UNL A   1      40.493  22.450  26.362  1.00  0.00     0.338 C 
ATOM     35  O   UNL A   1      41.534  21.916  26.017  1.00  0.00    -0.246 OA
BRANCH  34  36
ATOM     36  C   UNL A   1      40.263  23.907  26.611  1.00  0.00     0.060 A 
ATOM     37  C   UNL A   1      41.109  25.001  26.393  1.00  0.00     0.016 A 
ATOM     38  C   UNL A   1      39.165  24.181  27.330  1.00  0.00     0.016 A 
ATOM     39  C   UNL A   1      40.944  26.300  27.075  1.00  0.00     0.010 A 
ATOM     40  C   UNL A   1      39.205  25.324  28.114  1.00  0.00     0.010 A 
ATOM     41  C   UNL A   1      39.983  26.519  28.066  1.00  0.00    -0.014 A 
BRANCH  41  42
ATOM     42  C   UNL A   1      39.764  27.903  29.068  1.00  0.00     0.031 A 
ATOM     43  C   UNL A   1      38.865  29.436  28.880  1.00  0.00     0.074 A 
ATOM     44  C   UNL A   1      40.493  27.933  30.208  1.00  0.00     0.049 A 
ATOM     45  N   UNL A   1      39.096  30.558  29.548  1.00  0.00    -0.248 NA
ATOM     46  C   UNL A   1      37.748  29.800  27.914  1.00  0.00     0.031 C 
ATOM     47  C   UNL A   1      40.265  28.811  31.347  1.00  0.00     0.029 A 
ATOM     48  N   UNL A   1      41.682  27.272  30.523  1.00  0.00    -0.354 N 
ATOM     49  C   UNL A   1      38.111  31.529  29.226  1.00  0.00     0.074 A 
ATOM     50  C   UNL A   1      37.377  31.035  28.147  1.00  0.00     0.031 C 
ATOM     51  C   UNL A   1      41.389  28.877  32.063  1.00  0.00     0.029 A 
ATOM     52  C   UNL A   1      42.407  28.124  31.359  1.00  0.00     0.049 A 
ATOM     53  H   UNL A   1      41.958  26.379  30.214  1.00  0.00     0.167 HD
ATOM     54  C   UNL A   1      37.826  32.649  29.944  1.00  0.00     0.034 A 
ATOM     55  C   UNL A   1      43.687  28.521  31.150  1.00  0.00     0.034 A 
ATOM     56  C   UNL A   1      38.866  32.855  30.916  1.00  0.00     0.049 A 
ATOM     57  C   UNL A   1      43.869  30.030  31.155  1.00  0.00     0.074 A 
ATOM     58  C   UNL A   1      39.038  32.456  32.226  1.00  0.00     0.029 A 
ATOM     59  N   UNL A   1      40.104  33.234  30.439  1.00  0.00    -0.354 N 
ATOM     60  N   UNL A   1      42.908  30.889  31.377  1.00  0.00    -0.248 NA
ATOM     61  C   UNL A   1      45.131  30.706  30.866  1.00  0.00     0.031 C 
ATOM     62  C   UNL A   1      40.434  32.495  32.498  1.00  0.00     0.029 A 
ATOM     63  C   UNL A   1      41.090  32.962  31.370  1.00  0.00     0.049 A 
ATOM     64  H   UNL A   1      40.263  33.642  29.557  1.00  0.00     0.167 HD
ATOM     65  C   UNL A   1      43.338  32.166  31.109  1.00  0.00     0.074 A 
ATOM     66  C   UNL A   1      44.763  32.001  30.886  1.00  0.00     0.031 C 
ATOM     67  C   UNL A   1      42.478  33.231  31.014  1.00  0.00     0.034 A 
BRANCH  54  68
ATOM     68  C   UNL A   1      36.423  33.305  29.963  1.00  0.00     0.023 A 
ATOM     69  C   UNL A   1      35.947  33.798  28.732  1.00  0.00     0.012 A 
ATOM     70  C   UNL A   1      35.607  33.626  31.086  1.00  0.00     0.148 A 
ATOM     71  C   UNL A   1      34.853  34.675  28.637  1.00  0.00     0.002 A 
ATOM     72  C   UNL A   1      34.594  34.595  31.013  1.00  0.00     0.091 A 
ATOM     73  F   UNL A   1      35.699  32.911  32.215  1.00  0.00    -0.205 F 
ATOM     74  C   UNL A   1      34.216  35.128  29.783  1.00  0.00     0.022 A 
BRANCH  72  75
ATOM     75  S   UNL A   1      33.878  35.339  32.501  1.00  0.00     0.127 S 
ATOM     76  O   UNL A   1      33.104  36.461  31.960  1.00  0.00    -0.237 OA
ATOM     77  O   UNL A   1      33.066  34.258  33.050  1.00  0.00    -0.237 OA
ATOM     78  O   UNL A   1      35.022  35.756  33.305  1.00  0.00    -0.744 OA
ENDBRANCH  72  75
ENDBRANCH  54  68
BRANCH  55  79
ATOM     79  C   UNL A   1      44.603  27.455  30.654  1.00  0.00     0.023 A 
ATOM     80  C   UNL A   1      44.731  26.330  31.503  1.00  0.00     0.012 A 
ATOM     81  C   UNL A   1      44.974  27.309  29.301  1.00  0.00     0.148 A 
ATOM     82  C   UNL A   1      45.147  25.086  31.018  1.00  0.00     0.002 A 
ATOM     83  C   UNL A   1      45.362  26.050  28.821  1.00  0.00     0.091 A 
ATOM     84  F   UNL A   1      44.799  28.356  28.484  1.00  0.00    -0.205 F 
ATOM     85  C   UNL A   1      45.439  24.942  29.673  1.00  0.00     0.022 A 
BRANCH  83  86
ATOM     86  S   UNL A   1      45.551  25.655  27.083  1.00  0.00     0.127 S 
ATOM     87  O   UNL A   1      46.848  26.235  26.755  1.00  0.00    -0.237 OA
ATOM     88  O   UNL A   1      45.514  24.193  27.107  1.00  0.00    -0.237 OA
ATOM     89  O   UNL A   1      44.407  26.274  26.446  1.00  0.00    -0.744 OA
ENDBRANCH  83  86
ENDBRANCH  55  79
BRANCH  67  90
ATOM     90  C   UNL A   1      42.813  34.625  30.485  1.00  0.00     0.023 A 
ATOM     91  C   UNL A   1      43.117  35.705  31.332  1.00  0.00     0.012 A 
ATOM     92  C   UNL A   1      43.037  34.836  29.094  1.00  0.00     0.148 A 
ATOM     93  C   UNL A   1      43.581  36.931  30.834  1.00  0.00     0.002 A 
ATOM     94  C   UNL A   1      43.625  36.007  28.620  1.00  0.00     0.091 A 
ATOM     95  F   UNL A   1      42.689  33.892  28.206  1.00  0.00    -0.205 F 
ATOM     96  C   UNL A   1      43.866  37.073  29.483  1.00  0.00     0.022 A 
BRANCH  94  97
ATOM     97  S   UNL A   1      44.269  36.067  26.939  1.00  0.00     0.127 S 
ATOM     98  O   UNL A   1      43.060  35.938  26.130  1.00  0.00    -0.237 OA
ATOM     99  O   UNL A   1      44.901  37.387  26.878  1.00  0.00    -0.237 OA
ATOM    100  O   UNL A   1      45.211  34.955  26.892  1.00  0.00    -0.744 OA
ENDBRANCH  94  97
ENDBRANCH  67  90
ENDBRANCH  41  42
ENDBRANCH  34  36
ENDBRANCH  33  34
ENDBRANCH  32  33
ENDBRANCH  31  32
ENDBRANCH  30  31
ENDBRANCH   1  30
TORSDOF 23
ENDMDL
MODEL 2
REMARK VINA RESULT:     -12.0      1.734      2.213
REMARK SMILES Cc1ccc(-c2ncc(C(=O)OCCOCCOCCOC(=O)c3ccc(-c4c5nc(c(-c6cccc(S(=O)(=O)[O-])c6F)c6ccc([nH]6)c(-c6cccc(S(=O)(=O)[O-])c6F)c6nc(c(-c7cccc(S(=O)(=O)[O-])c7F)c7ccc4[nH]7)C=C6)C=C5)cc3)c(Nc3ccccc3)n2)cc1
REMARK SMILES IDX 17 1 16 2 15 3 14 4 13 5 12 6 10 7 11 8 9 9 6 10 7 11 95 12
REMARK SMILES IDX 8 13 87 14 5 15 1 16 2 17 3 18 97 19 4 20 96 21 88 22 89 24
REMARK SMILES IDX 90 25 94 26 91 27 93 28 92 29 18 30 19 31 20 32 21 33 22 34
REMARK SMILES IDX 23 35 24 36 25 37 86 38 26 39 85 40 27 41 28 42 29 43 79 44
REMARK SMILES IDX 30 45 84 46 78 47 80 48 31 49 83 50 77 51 76 52 32 54 64 55
REMARK SMILES IDX 44 56 63 57 45 58 48 59 62 60 81 61 46 62 47 63 61 65 82 66
REMARK SMILES IDX 49 67 33 68 34 69 42 70 35 71 37 72 43 73 36 74 38 75 39 76
REMARK SMILES IDX 40 77 41 78 65 79 66 80 74 81 67 82 69 83 75 84 68 85 70 86
REMARK SMILES IDX 71 87 72 88 73 89 50 90 51 91 59 92 52 93 54 94 60 95 53 96
REMARK SMILES IDX 55 97 56 98 57 99 58 100
REMARK H PARENT 88 23 80 53 48 64
REMARK Flexibility Score: inf
ROOT
ATOM      1  C   UNL A   1      35.490  21.164  24.836  1.00  0.00     0.188 C 
ENDROOT
BRANCH   1   2
ATOM      2  C   UNL A   1      34.917  19.745  25.035  1.00  0.00     0.188 C 
BRANCH   2   3
ATOM      3  O   UNL A   1      33.522  19.440  25.258  1.00  0.00    -0.376 OA
BRANCH   3   4
ATOM      4  C   UNL A   1      32.413  19.709  24.381  1.00  0.00     0.202 C 
BRANCH   4   5
ATOM      5  C   UNL A   1      32.131  21.071  23.316  1.00  0.00     0.261 C 
BRANCH   5   6
ATOM      6  O   UNL A   1      32.926  22.652  23.147  1.00  0.00    -0.460 OA
BRANCH   6   7
ATOM      7  C   UNL A   1      33.127  23.724  22.146  1.00  0.00     0.343 C 
ATOM      8  O   UNL A   1      33.700  23.664  21.057  1.00  0.00    -0.246 OA
BRANCH   7   9
ATOM      9  C   UNL A   1      32.757  25.121  22.302  1.00  0.00     0.121 A 
ATOM     10  C   UNL A   1      31.398  27.404  22.593  1.00  0.00     0.161 A 
ATOM     11  N   UNL A   1      31.284  26.780  21.408  1.00  0.00    -0.236 NA
ATOM     12  N   UNL A   1      32.138  27.015  23.627  1.00  0.00    -0.210 NA
ATOM     13  C   UNL A   1      31.983  25.637  21.293  1.00  0.00     0.133 A 
ATOM     14  C   UNL A   1      32.763  25.835  23.544  1.00  0.00     0.149 A 
BRANCH  10  15
ATOM     15  C   UNL A   1      30.597  28.579  22.847  1.00  0.00     0.019 A 
ATOM     16  C   UNL A   1      28.207  32.071  23.558  1.00  0.00     0.044 C 
ATOM     17  C   UNL A   1      29.062  30.876  23.287  1.00  0.00    -0.051 A 
ATOM     18  C   UNL A   1      30.050  30.504  24.207  1.00  0.00     0.004 A 
ATOM     19  C   UNL A   1      28.888  30.131  22.116  1.00  0.00     0.004 A 
ATOM     20  C   UNL A   1      30.812  29.360  23.989  1.00  0.00     0.012 A 
ATOM     21  C   UNL A   1      29.660  28.997  21.894  1.00  0.00     0.012 A 
ENDBRANCH  10  15
BRANCH  14  22
ATOM     22  N   UNL A   1      33.268  25.399  24.788  1.00  0.00    -0.339 N 
ATOM     23  H   UNL A   1      34.094  25.835  25.099  1.00  0.00     0.168 HD
BRANCH  22  24
ATOM     24  C   UNL A   1      32.719  24.401  25.647  1.00  0.00     0.040 A 
ATOM     25  C   UNL A   1      31.332  24.246  25.742  1.00  0.00     0.026 A 
ATOM     26  C   UNL A   1      33.500  23.648  26.540  1.00  0.00     0.026 A 
ATOM     27  C   UNL A   1      30.734  23.392  26.684  1.00  0.00     0.002 A 
ATOM     28  C   UNL A   1      32.909  22.752  27.460  1.00  0.00     0.002 A 
ATOM     29  C   UNL A   1      31.523  22.634  27.540  1.00  0.00     0.000 A 
ENDBRANCH  22  24
ENDBRANCH  14  22
ENDBRANCH   7   9
ENDBRANCH   6   7
ENDBRANCH   5   6
ENDBRANCH   4   5
ENDBRANCH   3   4
ENDBRANCH   2   3
ENDBRANCH   1   2
BRANCH   1  30
ATOM     30  O   UNL A   1      36.776  21.172  24.244  1.00  0.00    -0.376 OA
BRANCH  30  31
ATOM     31  C   UNL A   1      37.870  21.029  25.143  1.00  0.00     0.202 C 
BRANCH  31  32
ATOM     32  C   UNL A   1      38.438  22.344  25.731  1.00  0.00     0.261 C 
BRANCH  32  33
ATOM     33  O   UNL A   1      39.473  22.133  26.718  1.00  0.00    -0.460 OA
BRANCH  33  34
ATOM     34  C   UNL A   1      40.634  22.864  26.558  1.00  0.00     0.338 C 
ATOM     35  O   UNL A   1      41.703  22.351  26.270  1.00  0.00    -0.246 OA
BRANCH  34  36
ATOM     36  C   UNL A   1      40.363  24.317  26.795  1.00  0.00     0.060 A 
ATOM     37  C   UNL A   1      40.958  25.448  26.225  1.00  0.00     0.016 A 
ATOM     38  C   UNL A   1      39.576  24.569  27.852  1.00  0.00     0.016 A 
ATOM     39  C   UNL A   1      40.918  26.785  26.849  1.00  0.00     0.010 A 
ATOM     40  C   UNL A   1      39.780  25.775  28.504  1.00  0.00     0.010 A 
ATOM     41  C   UNL A   1      40.362  27.016  28.110  1.00  0.00    -0.014 A 
BRANCH  41  42
ATOM     42  C   UNL A   1      40.380  28.462  29.047  1.00  0.00     0.031 A 
ATOM     43  C   UNL A   1      39.320  29.898  29.125  1.00  0.00     0.074 A 
ATOM     44  C   UNL A   1      41.466  28.647  29.833  1.00  0.00     0.049 A 
ATOM     45  N   UNL A   1      39.660  31.089  29.599  1.00  0.00    -0.248 NA
ATOM     46  C   UNL A   1      37.897  30.089  28.623  1.00  0.00     0.031 C 
ATOM     47  C   UNL A   1      41.578  29.602  30.927  1.00  0.00     0.029 A 
ATOM     48  N   UNL A   1      42.750  28.111  29.719  1.00  0.00    -0.354 N 
ATOM     49  C   UNL A   1      38.530  31.949  29.613  1.00  0.00     0.074 A 
ATOM     50  C   UNL A   1      37.509  31.307  28.911  1.00  0.00     0.031 C 
ATOM     51  C   UNL A   1      42.873  29.817  31.171  1.00  0.00     0.029 A 
ATOM     52  C   UNL A   1      43.636  29.086  30.181  1.00  0.00     0.049 A 
ATOM     53  H   UNL A   1      42.986  27.218  29.378  1.00  0.00     0.167 HD
ATOM     54  C   UNL A   1      38.410  33.102  30.326  1.00  0.00     0.034 A 
ATOM     55  C   UNL A   1      44.705  29.562  29.493  1.00  0.00     0.034 A 
ATOM     56  C   UNL A   1      39.706  33.472  30.832  1.00  0.00     0.049 A 
ATOM     57  C   UNL A   1      44.717  31.074  29.350  1.00  0.00     0.074 A 
ATOM     58  C   UNL A   1      40.382  33.205  32.003  1.00  0.00     0.029 A 
ATOM     59  N   UNL A   1      40.638  33.903  29.910  1.00  0.00    -0.354 N 
ATOM     60  N   UNL A   1      43.819  31.872  29.866  1.00  0.00    -0.248 NA
ATOM     61  C   UNL A   1      45.710  31.818  28.579  1.00  0.00     0.031 C 
ATOM     62  C   UNL A   1      41.769  33.374  31.736  1.00  0.00     0.029 A 
ATOM     63  C   UNL A   1      41.918  33.790  30.423  1.00  0.00     0.049 A 
ATOM     64  H   UNL A   1      40.423  34.243  29.012  1.00  0.00     0.167 HD
ATOM     65  C   UNL A   1      43.987  33.151  29.391  1.00  0.00     0.074 A 
ATOM     66  C   UNL A   1      45.242  33.077  28.665  1.00  0.00     0.031 C 
ATOM     67  C   UNL A   1      43.045  34.134  29.565  1.00  0.00     0.034 A 
BRANCH  54  68
ATOM     68  C   UNL A   1      37.050  33.647  30.828  1.00  0.00     0.023 A 
ATOM     69  C   UNL A   1      36.665  33.264  32.129  1.00  0.00     0.012 A 
ATOM     70  C   UNL A   1      36.052  34.352  30.097  1.00  0.00     0.148 A 
ATOM     71  C   UNL A   1      35.352  33.415  32.607  1.00  0.00     0.002 A 
ATOM     72  C   UNL A   1      34.713  34.394  30.520  1.00  0.00     0.091 A 
ATOM     73  F   UNL A   1      36.392  35.111  29.047  1.00  0.00    -0.205 F 
ATOM     74  C   UNL A   1      34.359  33.919  31.780  1.00  0.00     0.022 A 
BRANCH  72  75
ATOM     75  S   UNL A   1      33.374  34.870  29.399  1.00  0.00     0.127 S 
ATOM     76  O   UNL A   1      33.260  33.703  28.518  1.00  0.00    -0.237 OA
ATOM     77  O   UNL A   1      32.241  35.056  30.301  1.00  0.00    -0.237 OA
ATOM     78  O   UNL A   1      33.856  36.067  28.718  1.00  0.00    -0.744 OA
ENDBRANCH  72  75
ENDBRANCH  54  68
BRANCH  55  79
ATOM     79  C   UNL A   1      45.483  28.529  28.750  1.00  0.00     0.023 A 
ATOM     80  C   UNL A   1      45.948  27.448  29.534  1.00  0.00     0.012 A 
ATOM     81  C   UNL A   1      45.412  28.352  27.353  1.00  0.00     0.148 A 
ATOM     82  C   UNL A   1      46.269  26.211  28.966  1.00  0.00     0.002 A 
ATOM     83  C   UNL A   1      45.709  27.099  26.798  1.00  0.00     0.091 A 
ATOM     84  F   UNL A   1      44.918  29.355  26.615  1.00  0.00    -0.205 F 
ATOM     85  C   UNL A   1      46.126  26.031  27.602  1.00  0.00     0.022 A 
BRANCH  83  86
ATOM     86  S   UNL A   1      45.361  26.647  25.099  1.00  0.00     0.127 S 
ATOM     87  O   UNL A   1      46.075  27.666  24.337  1.00  0.00    -0.237 OA
ATOM     88  O   UNL A   1      45.935  25.304  25.027  1.00  0.00    -0.237 OA
ATOM     89  O   UNL A   1      43.917  26.689  25.004  1.00  0.00    -0.744 OA
ENDBRANCH  83  86
ENDBRANCH  55  79
BRANCH  67  90
ATOM     90  C   UNL A   1      43.018  35.497  28.876  1.00  0.00     0.023 A 
ATOM     91  C   UNL A   1      42.168  35.783  27.793  1.00  0.00     0.012 A 
ATOM     92  C   UNL A   1      43.708  36.608  29.442  1.00  0.00     0.148 A 
ATOM     93  C   UNL A   1      42.034  37.080  27.277  1.00  0.00     0.002 A 
ATOM     94  C   UNL A   1      43.467  37.911  29.012  1.00  0.00     0.091 A 
ATOM     95  F   UNL A   1      44.608  36.414  30.419  1.00  0.00    -0.205 F 
ATOM     96  C   UNL A   1      42.657  38.150  27.905  1.00  0.00     0.022 A 
BRANCH  94  97
ATOM     97  S   UNL A   1      44.028  39.301  30.013  1.00  0.00     0.127 S 
ATOM     98  O   UNL A   1      43.216  40.404  29.507  1.00  0.00    -0.237 OA
ATOM     99  O   UNL A   1      43.696  38.878  31.375  1.00  0.00    -0.237 OA
ATOM    100  O   UNL A   1      45.460  39.363  29.742  1.00  0.00    -0.744 OA
ENDBRANCH  94  97
ENDBRANCH  67  90
ENDBRANCH  41  42
ENDBRANCH  34  36
ENDBRANCH  33  34
ENDBRANCH  32  33
ENDBRANCH  31  32
ENDBRANCH  30  31
ENDBRANCH   1  30
TORSDOF 23
ENDMDL
MODEL 3
REMARK VINA RESULT:     -11.8      2.506      4.091
REMARK SMILES Cc1ccc(-c2ncc(C(=O)OCCOCCOCCOC(=O)c3ccc(-c4c5nc(c(-c6cccc(S(=O)(=O)[O-])c6F)c6ccc([nH]6)c(-c6cccc(S(=O)(=O)[O-])c6F)c6nc(c(-c7cccc(S(=O)(=O)[O-])c7F)c7ccc4[nH]7)C=C6)C=C5)cc3)c(Nc3ccccc3)n2)cc1
REMARK SMILES IDX 17 1 16 2 15 3 14 4 13 5 12 6 10 7 11 8 9 9 6 10 7 11 95 12
REMARK SMILES IDX 8 13 87 14 5 15 1 16 2 17 3 18 97 19 4 20 96 21 88 22 89 24
REMARK SMILES IDX 90 25 94 26 91 27 93 28 92 29 18 30 19 31 20 32 21 33 22 34
REMARK SMILES IDX 23 35 24 36 25 37 86 38 26 39 85 40 27 41 28 42 29 43 79 44
REMARK SMILES IDX 30 45 84 46 78 47 80 48 31 49 83 50 77 51 76 52 32 54 64 55
REMARK SMILES IDX 44 56 63 57 45 58 48 59 62 60 81 61 46 62 47 63 61 65 82 66
REMARK SMILES IDX 49 67 33 68 34 69 42 70 35 71 37 72 43 73 36 74 38 75 39 76
REMARK SMILES IDX 40 77 41 78 65 79 66 80 74 81 67 82 69 83 75 84 68 85 70 86
REMARK SMILES IDX 71 87 72 88 73 89 50 90 51 91 59 92 52 93 54 94 60 95 53 96
REMARK SMILES IDX 55 97 56 98 57 99 58 100
REMARK H PARENT 88 23 80 53 48 64
REMARK Flexibility Score: inf
ROOT
ATOM      1  C   UNL A   1      35.643  21.146  25.613  1.00  0.00     0.188 C 
ENDROOT
BRANCH   1   2
ATOM      2  C   UNL A   1      34.599  20.301  24.854  1.00  0.00     0.188 C 
BRANCH   2   3
ATOM      3  O   UNL A   1      33.204  20.192  25.214  1.00  0.00    -0.376 OA
BRANCH   3   4
ATOM      4  C   UNL A   1      32.179  21.193  25.071  1.00  0.00     0.202 C 
BRANCH   4   5
ATOM      5  C   UNL A   1      32.055  22.782  25.796  1.00  0.00     0.261 C 
BRANCH   5   6
ATOM      6  O   UNL A   1      31.214  24.268  25.302  1.00  0.00    -0.460 OA
BRANCH   6   7
ATOM      7  C   UNL A   1      30.572  25.465  25.894  1.00  0.00     0.343 C 
ATOM      8  O   UNL A   1      29.402  25.615  26.249  1.00  0.00    -0.246 OA
BRANCH   7   9
ATOM      9  C   UNL A   1      31.196  26.763  26.089  1.00  0.00     0.121 A 
ATOM     10  C   UNL A   1      32.808  28.751  26.856  1.00  0.00     0.161 A 
ATOM     11  N   UNL A   1      32.038  28.196  27.807  1.00  0.00    -0.236 NA
ATOM     12  N   UNL A   1      32.831  28.429  25.566  1.00  0.00    -0.210 NA
ATOM     13  C   UNL A   1      31.236  27.202  27.388  1.00  0.00     0.133 A 
ATOM     14  C   UNL A   1      32.099  27.382  25.166  1.00  0.00     0.149 A 
BRANCH  10  15
ATOM     15  C   UNL A   1      33.782  29.751  27.234  1.00  0.00     0.019 A 
ATOM     16  C   UNL A   1      36.640  32.752  28.345  1.00  0.00     0.044 C 
ATOM     17  C   UNL A   1      35.644  31.720  27.921  1.00  0.00    -0.051 A 
ATOM     18  C   UNL A   1      36.075  30.429  27.596  1.00  0.00     0.004 A 
ATOM     19  C   UNL A   1      34.284  32.040  27.840  1.00  0.00     0.004 A 
ATOM     20  C   UNL A   1      35.148  29.448  27.256  1.00  0.00     0.012 A 
ATOM     21  C   UNL A   1      33.362  31.062  27.486  1.00  0.00     0.012 A 
ENDBRANCH  10  15
BRANCH  14  22
ATOM     22  N   UNL A   1      32.425  26.960  23.859  1.00  0.00    -0.339 N 
ATOM     23  H   UNL A   1      32.110  27.535  23.125  1.00  0.00     0.168 HD
BRANCH  22  24
ATOM     24  C   UNL A   1      33.157  25.795  23.480  1.00  0.00     0.040 A 
ATOM     25  C   UNL A   1      32.685  24.978  22.448  1.00  0.00     0.026 A 
ATOM     26  C   UNL A   1      34.268  25.325  24.200  1.00  0.00     0.026 A 
ATOM     27  C   UNL A   1      33.275  23.740  22.139  1.00  0.00     0.002 A 
ATOM     28  C   UNL A   1      34.896  24.103  23.866  1.00  0.00     0.002 A 
ATOM     29  C   UNL A   1      34.391  23.304  22.843  1.00  0.00     0.000 A 
ENDBRANCH  22  24
ENDBRANCH  14  22
ENDBRANCH   7   9
ENDBRANCH   6   7
ENDBRANCH   5   6
ENDBRANCH   4   5
ENDBRANCH   3   4
ENDBRANCH   2   3
ENDBRANCH   1   2
BRANCH   1  30
ATOM     30  O   UNL A   1      36.769  21.488  24.824  1.00  0.00    -0.376 OA
BRANCH  30  31
ATOM     31  C   UNL A   1      37.983  20.829  25.162  1.00  0.00     0.202 C 
BRANCH  31  32
ATOM     32  C   UNL A   1      38.891  21.565  26.178  1.00  0.00     0.261 C 
BRANCH  32  33
ATOM     33  O   UNL A   1      39.266  22.896  25.755  1.00  0.00    -0.460 OA
BRANCH  33  34
ATOM     34  C   UNL A   1      38.639  23.945  26.399  1.00  0.00     0.338 C 
ATOM     35  O   UNL A   1      37.431  24.112  26.367  1.00  0.00    -0.246 OA
BRANCH  34  36
ATOM     36  C   UNL A   1      39.651  24.797  27.099  1.00  0.00     0.060 A 
ATOM     37  C   UNL A   1      40.239  24.644  28.360  1.00  0.00     0.016 A 
ATOM     38  C   UNL A   1      39.877  25.983  26.515  1.00  0.00     0.016 A 
ATOM     39  C   UNL A   1      40.867  25.755  29.101  1.00  0.00     0.010 A 
ATOM     40  C   UNL A   1      40.252  27.025  27.349  1.00  0.00     0.010 A 
ATOM     41  C   UNL A   1      40.846  27.076  28.645  1.00  0.00    -0.014 A 
BRANCH  41  42
ATOM     42  C   UNL A   1      41.377  28.503  29.453  1.00  0.00     0.031 A 
ATOM     43  C   UNL A   1      40.551  29.979  30.028  1.00  0.00     0.074 A 
ATOM     44  C   UNL A   1      42.714  28.629  29.617  1.00  0.00     0.049 A 
ATOM     45  N   UNL A   1      41.130  31.146  30.275  1.00  0.00    -0.248 NA
ATOM     46  C   UNL A   1      39.072  30.236  30.274  1.00  0.00     0.031 C 
ATOM     47  C   UNL A   1      43.383  29.559  30.518  1.00  0.00     0.029 A 
ATOM     48  N   UNL A   1      43.760  28.044  28.900  1.00  0.00    -0.354 N 
ATOM     49  C   UNL A   1      40.187  32.051  30.830  1.00  0.00     0.074 A 
ATOM     50  C   UNL A   1      38.926  31.464  30.709  1.00  0.00     0.031 C 
ATOM     51  C   UNL A   1      44.643  29.716  30.107  1.00  0.00     0.029 A 
ATOM     52  C   UNL A   1      44.801  28.973  28.874  1.00  0.00     0.049 A 
ATOM     53  H   UNL A   1      43.762  27.149  28.490  1.00  0.00     0.167 HD
ATOM     54  C   UNL A   1      40.477  33.195  31.508  1.00  0.00     0.034 A 
ATOM     55  C   UNL A   1      45.425  29.418  27.754  1.00  0.00     0.034 A 
ATOM     56  C   UNL A   1      41.870  33.502  31.325  1.00  0.00     0.049 A 
ATOM     57  C   UNL A   1      45.435  30.931  27.618  1.00  0.00     0.074 A 
ATOM     58  C   UNL A   1      43.015  33.186  32.026  1.00  0.00     0.029 A 
ATOM     59  N   UNL A   1      42.261  33.912  30.067  1.00  0.00    -0.354 N 
ATOM     60  N   UNL A   1      44.933  31.755  28.501  1.00  0.00    -0.248 NA
ATOM     61  C   UNL A   1      45.965  31.648  26.461  1.00  0.00     0.031 C 
ATOM     62  C   UNL A   1      44.108  33.304  31.122  1.00  0.00     0.029 A 
ATOM     63  C   UNL A   1      43.623  33.738  29.899  1.00  0.00     0.049 A 
ATOM     64  H   UNL A   1      41.655  34.277  29.383  1.00  0.00     0.167 HD
ATOM     65  C   UNL A   1      44.908  33.035  27.999  1.00  0.00     0.074 A 
ATOM     66  C   UNL A   1      45.653  32.924  26.758  1.00  0.00     0.031 C 
ATOM     67  C   UNL A   1      44.211  34.052  28.602  1.00  0.00     0.034 A 
BRANCH  54  68
ATOM     68  C   UNL A   1      39.552  33.784  32.602  1.00  0.00     0.023 A 
ATOM     69  C   UNL A   1      40.047  33.754  33.922  1.00  0.00     0.012 A 
ATOM     70  C   UNL A   1      38.197  34.208  32.486  1.00  0.00     0.148 A 
ATOM     71  C   UNL A   1      39.228  33.963  35.045  1.00  0.00     0.002 A 
ATOM     72  C   UNL A   1      37.349  34.295  33.602  1.00  0.00     0.091 A 
ATOM     73  F   UNL A   1      37.730  34.666  31.317  1.00  0.00    -0.205 F 
ATOM     74  C   UNL A   1      37.865  34.167  34.889  1.00  0.00     0.022 A 
BRANCH  72  75
ATOM     75  S   UNL A   1      35.549  34.373  33.427  1.00  0.00     0.127 S 
ATOM     76  O   UNL A   1      35.306  35.807  33.234  1.00  0.00    -0.237 OA
ATOM     77  O   UNL A   1      35.297  33.557  32.244  1.00  0.00    -0.237 OA
ATOM     78  O   UNL A   1      35.022  33.860  34.687  1.00  0.00    -0.744 OA
ENDBRANCH  72  75
ENDBRANCH  54  68
BRANCH  55  79
ATOM     79  C   UNL A   1      45.702  28.369  26.731  1.00  0.00     0.023 A 
ATOM     80  C   UNL A   1      47.044  27.924  26.675  1.00  0.00     0.012 A 
ATOM     81  C   UNL A   1      44.708  27.544  26.167  1.00  0.00     0.148 A 
ATOM     82  C   UNL A   1      47.384  26.678  26.141  1.00  0.00     0.002 A 
ATOM     83  C   UNL A   1      45.057  26.285  25.660  1.00  0.00     0.091 A 
ATOM     84  F   UNL A   1      43.430  27.938  26.270  1.00  0.00    -0.205 F 
ATOM     85  C   UNL A   1      46.387  25.850  25.655  1.00  0.00     0.022 A 
BRANCH  83  86
ATOM     86  S   UNL A   1      43.869  25.021  25.209  1.00  0.00     0.127 S 
ATOM     87  O   UNL A   1      43.507  24.438  26.497  1.00  0.00    -0.237 OA
ATOM     88  O   UNL A   1      42.819  25.816  24.572  1.00  0.00    -0.237 OA
ATOM     89  O   UNL A   1      44.593  24.150  24.307  1.00  0.00    -0.744 OA
ENDBRANCH  83  86
ENDBRANCH  55  79
BRANCH  67  90
ATOM     90  C   UNL A   1      43.916  35.427  28.008  1.00  0.00     0.023 A 
ATOM     91  C   UNL A   1      42.955  35.628  27.001  1.00  0.00     0.012 A 
ATOM     92  C   UNL A   1      44.457  36.603  28.602  1.00  0.00     0.148 A 
ATOM     93  C   UNL A   1      42.579  36.911  26.581  1.00  0.00     0.002 A 
ATOM     94  C   UNL A   1      43.980  37.871  28.274  1.00  0.00     0.091 A 
ATOM     95  F   UNL A   1      45.444  36.507  29.506  1.00  0.00    -0.205 F 
ATOM     96  C   UNL A   1      43.065  38.034  27.238  1.00  0.00     0.022 A 
BRANCH  94  97
ATOM     97  S   UNL A   1      44.381  39.277  29.327  1.00  0.00     0.127 S 
ATOM     98  O   UNL A   1      45.839  39.317  29.263  1.00  0.00    -0.237 OA
ATOM     99  O   UNL A   1      43.714  40.392  28.652  1.00  0.00    -0.237 OA
ATOM    100  O   UNL A   1      43.791  38.922  30.613  1.00  0.00    -0.744 OA
ENDBRANCH  94  97
ENDBRANCH  67  90
ENDBRANCH  41  42
ENDBRANCH  34  36
ENDBRANCH  33  34
ENDBRANCH  32  33
ENDBRANCH  31  32
ENDBRANCH  30  31
ENDBRANCH   1  30
TORSDOF 23
ENDMDL
