MODEL 1
REMARK VINA RESULT:     -11.8      0.000      0.000
REMARK SMILES Cc1ccnc(C(=O)c2[nH]c3cc(F)ccc3c2CC(=O)OCCOCCOCCOC(=O)c2ccc(-c3c4nc(c(-c5cccc(S(=O)(=O)[O-])c5F)c5ccc([nH]5)c(-c5cccc(S(=O)(=O)[O-])c5F)c5nc(c(-c6cccc(S(=O)(=O)[O-])c6F)c6ccc3[nH]6)C=C5)C=C4)cc2)c1
REMARK SMILES IDX 26 1 25 2 24 3 23 4 22 5 20 6 21 7 19 8 18 9 9 10 10 11
REMARK SMILES IDX 11 12 17 14 12 15 16 16 13 17 15 18 14 19 7 20 8 21 6 22
REMARK SMILES IDX 1 23 2 24 3 25 97 26 4 27 5 28 27 29 28 30 29 31 30 32 31 33
REMARK SMILES IDX 32 34 33 35 34 36 35 37 96 38 36 39 95 40 37 41 38 42 39 43
REMARK SMILES IDX 89 44 40 45 94 46 88 47 90 48 41 49 93 50 87 51 86 52 42 54
REMARK SMILES IDX 74 55 54 56 73 57 55 58 58 59 72 60 91 61 56 62 57 63 71 65
REMARK SMILES IDX 92 66 59 67 43 68 44 69 52 70 45 71 47 72 53 73 46 74 48 75
REMARK SMILES IDX 49 76 50 77 51 78 75 79 76 80 84 81 77 82 79 83 85 84 78 85
REMARK SMILES IDX 80 86 81 87 82 88 83 89 60 90 61 91 69 92 62 93 64 94 70 95
REMARK SMILES IDX 63 96 65 97 66 98 67 99 68 100
REMARK H PARENT 10 13 90 53 58 64
REMARK Flexibility Score: inf
ROOT
ATOM      1  C   UNL A   1      40.158  20.903  26.552  1.00  0.00     0.188 C 
ENDROOT
BRANCH   1   2
ATOM      2  O   UNL A   1      39.324  21.548  25.598  1.00  0.00    -0.376 OA
BRANCH   2   3
ATOM      3  C   UNL A   1      38.089  22.083  26.050  1.00  0.00     0.202 C 
BRANCH   3   4
ATOM      4  C   UNL A   1      37.632  23.380  25.379  1.00  0.00     0.261 C 
BRANCH   4   5
ATOM      5  O   UNL A   1      36.737  23.143  24.269  1.00  0.00    -0.463 OA
BRANCH   5   6
ATOM      6  C   UNL A   1      35.432  23.424  24.510  1.00  0.00     0.310 C 
ATOM      7  O   UNL A   1      35.024  23.813  25.604  1.00  0.00    -0.252 OA
BRANCH   6   8
ATOM      8  C   UNL A   1      34.488  23.321  23.324  1.00  0.00     0.161 C 
BRANCH   8   9
ATOM      9  C   UNL A   1      33.000  23.545  23.489  1.00  0.00     0.000 A 
ATOM     10  C   UNL A   1      31.961  22.650  23.188  1.00  0.00     0.093 A 
ATOM     11  N   UNL A   1      30.779  23.278  23.510  1.00  0.00    -0.351 N 
ATOM     12  C   UNL A   1      30.988  24.624  23.663  1.00  0.00     0.049 A 
ATOM     13  H   UNL A   1      29.910  22.826  23.612  1.00  0.00     0.167 HD
ATOM     14  C   UNL A   1      32.370  24.820  23.691  1.00  0.00     0.004 A 
ATOM     15  C   UNL A   1      30.064  25.672  23.746  1.00  0.00     0.066 A 
ATOM     16  C   UNL A   1      32.855  26.141  23.807  1.00  0.00     0.013 A 
ATOM     17  C   UNL A   1      30.581  26.963  23.805  1.00  0.00     0.125 A 
ATOM     18  C   UNL A   1      31.947  27.206  23.836  1.00  0.00     0.040 A 
ATOM     19  F   UNL A   1      29.732  28.002  23.808  1.00  0.00    -0.207 F 
BRANCH  10  20
ATOM     20  C   UNL A   1      32.048  21.307  22.644  1.00  0.00     0.227 C 
ATOM     21  O   UNL A   1      31.907  21.070  21.446  1.00  0.00    -0.285 OA
BRANCH  20  22
ATOM     22  C   UNL A   1      32.272  20.148  23.555  1.00  0.00     0.113 A 
ATOM     23  C   UNL A   1      33.740  16.665  23.454  1.00  0.00     0.044 C 
ATOM     24  C   UNL A   1      33.185  17.971  23.942  1.00  0.00    -0.047 A 
ATOM     25  C   UNL A   1      33.231  18.287  25.302  1.00  0.00     0.023 A 
ATOM     26  C   UNL A   1      32.716  18.935  23.043  1.00  0.00     0.036 A 
ATOM     27  C   UNL A   1      32.713  19.501  25.720  1.00  0.00     0.112 A 
ATOM     28  N   UNL A   1      32.192  20.421  24.878  1.00  0.00    -0.253 NA
ENDBRANCH  20  22
ENDBRANCH  10  20
ENDBRANCH   8   9
ENDBRANCH   6   8
ENDBRANCH   5   6
ENDBRANCH   4   5
ENDBRANCH   3   4
ENDBRANCH   2   3
ENDBRANCH   1   2
BRANCH   1  29
ATOM     29  C   UNL A   1      40.899  19.610  26.139  1.00  0.00     0.188 C 
BRANCH  29  30
ATOM     30  O   UNL A   1      42.048  19.694  25.306  1.00  0.00    -0.376 OA
BRANCH  30  31
ATOM     31  C   UNL A   1      43.242  20.185  25.903  1.00  0.00     0.202 C 
BRANCH  31  32
ATOM     32  C   UNL A   1      43.861  21.394  25.207  1.00  0.00     0.261 C 
BRANCH  32  33
ATOM     33  O   UNL A   1      42.887  22.430  24.982  1.00  0.00    -0.460 OA
BRANCH  33  34
ATOM     34  C   UNL A   1      43.419  23.673  24.909  1.00  0.00     0.338 C 
ATOM     35  O   UNL A   1      44.453  23.980  24.337  1.00  0.00    -0.246 OA
BRANCH  34  36
ATOM     36  C   UNL A   1      42.587  24.682  25.600  1.00  0.00     0.060 A 
ATOM     37  C   UNL A   1      42.855  26.039  25.455  1.00  0.00     0.016 A 
ATOM     38  C   UNL A   1      41.736  24.261  26.621  1.00  0.00     0.016 A 
ATOM     39  C   UNL A   1      42.434  26.945  26.430  1.00  0.00     0.010 A 
ATOM     40  C   UNL A   1      41.224  25.191  27.535  1.00  0.00     0.010 A 
ATOM     41  C   UNL A   1      41.637  26.535  27.507  1.00  0.00    -0.014 A 
BRANCH  41  42
ATOM     42  C   UNL A   1      41.325  27.471  28.633  1.00  0.00     0.031 A 
ATOM     43  C   UNL A   1      42.176  27.476  29.888  1.00  0.00     0.074 A 
ATOM     44  C   UNL A   1      40.311  28.357  28.535  1.00  0.00     0.049 A 
ATOM     45  N   UNL A   1      41.986  28.115  31.017  1.00  0.00    -0.248 NA
ATOM     46  C   UNL A   1      43.405  26.663  29.874  1.00  0.00     0.031 C 
ATOM     47  C   UNL A   1      39.436  28.520  27.373  1.00  0.00     0.029 A 
ATOM     48  N   UNL A   1      39.837  29.284  29.435  1.00  0.00    -0.354 N 
ATOM     49  C   UNL A   1      43.029  27.739  31.859  1.00  0.00     0.074 A 
ATOM     50  C   UNL A   1      43.860  26.821  31.111  1.00  0.00     0.031 C 
ATOM     51  C   UNL A   1      38.548  29.494  27.620  1.00  0.00     0.029 A 
ATOM     52  C   UNL A   1      38.719  29.955  28.992  1.00  0.00     0.049 A 
ATOM     53  H   UNL A   1      40.257  29.452  30.311  1.00  0.00     0.167 HD
ATOM     54  C   UNL A   1      43.279  28.120  33.136  1.00  0.00     0.034 A 
ATOM     55  C   UNL A   1      37.881  30.798  29.628  1.00  0.00     0.034 A 
ATOM     56  C   UNL A   1      42.472  29.049  33.882  1.00  0.00     0.049 A 
ATOM     57  C   UNL A   1      38.140  31.145  31.067  1.00  0.00     0.074 A 
ATOM     58  C   UNL A   1      42.637  29.477  35.189  1.00  0.00     0.029 A 
ATOM     59  N   UNL A   1      41.346  29.694  33.395  1.00  0.00    -0.354 N 
ATOM     60  N   UNL A   1      39.139  30.790  31.837  1.00  0.00    -0.248 NA
ATOM     61  C   UNL A   1      37.157  32.019  31.722  1.00  0.00     0.031 C 
ATOM     62  C   UNL A   1      41.596  30.357  35.500  1.00  0.00     0.029 A 
ATOM     63  C   UNL A   1      40.802  30.507  34.375  1.00  0.00     0.049 A 
ATOM     64  H   UNL A   1      40.985  29.589  32.484  1.00  0.00     0.167 HD
ATOM     65  C   UNL A   1      38.914  31.412  33.060  1.00  0.00     0.074 A 
ATOM     66  C   UNL A   1      37.709  32.200  32.913  1.00  0.00     0.031 C 
ATOM     67  C   UNL A   1      39.626  31.319  34.209  1.00  0.00     0.034 A 
BRANCH  54  68
ATOM     68  C   UNL A   1      44.489  27.540  33.826  1.00  0.00     0.023 A 
ATOM     69  C   UNL A   1      45.735  28.190  33.722  1.00  0.00     0.012 A 
ATOM     70  C   UNL A   1      44.369  26.404  34.654  1.00  0.00     0.148 A 
ATOM     71  C   UNL A   1      46.846  27.709  34.417  1.00  0.00     0.002 A 
ATOM     72  C   UNL A   1      45.470  25.954  35.372  1.00  0.00     0.091 A 
ATOM     73  F   UNL A   1      43.178  25.793  34.727  1.00  0.00    -0.205 F 
ATOM     74  C   UNL A   1      46.711  26.601  35.249  1.00  0.00     0.022 A 
BRANCH  72  75
ATOM     75  S   UNL A   1      45.387  24.579  36.526  1.00  0.00     0.127 S 
ATOM     76  O   UNL A   1      45.490  23.432  35.623  1.00  0.00    -0.237 OA
ATOM     77  O   UNL A   1      46.565  24.807  37.360  1.00  0.00    -0.237 OA
ATOM     78  O   UNL A   1      44.112  24.709  37.218  1.00  0.00    -0.744 OA
ENDBRANCH  72  75
ENDBRANCH  54  68
BRANCH  55  79
ATOM     79  C   UNL A   1      36.687  31.345  28.919  1.00  0.00     0.023 A 
ATOM     80  C   UNL A   1      36.581  32.729  28.684  1.00  0.00     0.012 A 
ATOM     81  C   UNL A   1      35.652  30.497  28.478  1.00  0.00     0.148 A 
ATOM     82  C   UNL A   1      35.454  33.259  28.052  1.00  0.00     0.002 A 
ATOM     83  C   UNL A   1      34.570  31.021  27.783  1.00  0.00     0.091 A 
ATOM     84  F   UNL A   1      35.745  29.185  28.743  1.00  0.00    -0.205 F 
ATOM     85  C   UNL A   1      34.457  32.404  27.587  1.00  0.00     0.022 A 
BRANCH  83  86
ATOM     86  S   UNL A   1      33.334  29.964  27.022  1.00  0.00     0.127 S 
ATOM     87  O   UNL A   1      33.160  28.927  28.035  1.00  0.00    -0.237 OA
ATOM     88  O   UNL A   1      32.199  30.876  26.873  1.00  0.00    -0.237 OA
ATOM     89  O   UNL A   1      33.921  29.535  25.759  1.00  0.00    -0.744 OA
ENDBRANCH  83  86
ENDBRANCH  55  79
BRANCH  67  90
ATOM     90  C   UNL A   1      39.134  32.118  35.388  1.00  0.00     0.023 A 
ATOM     91  C   UNL A   1      39.359  33.509  35.438  1.00  0.00     0.012 A 
ATOM     92  C   UNL A   1      38.440  31.494  36.443  1.00  0.00     0.148 A 
ATOM     93  C   UNL A   1      38.952  34.255  36.544  1.00  0.00     0.002 A 
ATOM     94  C   UNL A   1      37.991  32.253  37.517  1.00  0.00     0.091 A 
ATOM     95  F   UNL A   1      38.250  30.168  36.390  1.00  0.00    -0.205 F 
ATOM     96  C   UNL A   1      38.261  33.630  37.578  1.00  0.00     0.022 A 
BRANCH  94  97
ATOM     97  S   UNL A   1      37.014  31.543  38.846  1.00  0.00     0.127 S 
ATOM     98  O   UNL A   1      37.882  31.756  40.003  1.00  0.00    -0.237 OA
ATOM     99  O   UNL A   1      35.808  32.373  38.827  1.00  0.00    -0.237 OA
ATOM    100  O   UNL A   1      36.789  30.152  38.474  1.00  0.00    -0.744 OA
ENDBRANCH  94  97
ENDBRANCH  67  90
ENDBRANCH  41  42
ENDBRANCH  34  36
ENDBRANCH  33  34
ENDBRANCH  32  33
ENDBRANCH  31  32
ENDBRANCH  30  31
ENDBRANCH  29  30
ENDBRANCH   1  29
TORSDOF 23
ENDMDL
MODEL 2
REMARK VINA RESULT:     -11.2      1.910      3.423
REMARK SMILES Cc1ccnc(C(=O)c2[nH]c3cc(F)ccc3c2CC(=O)OCCOCCOCCOC(=O)c2ccc(-c3c4nc(c(-c5cccc(S(=O)(=O)[O-])c5F)c5ccc([nH]5)c(-c5cccc(S(=O)(=O)[O-])c5F)c5nc(c(-c6cccc(S(=O)(=O)[O-])c6F)c6ccc3[nH]6)C=C5)C=C4)cc2)c1
REMARK SMILES IDX 26 1 25 2 24 3 23 4 22 5 20 6 21 7 19 8 18 9 9 10 10 11
REMARK SMILES IDX 11 12 17 14 12 15 16 16 13 17 15 18 14 19 7 20 8 21 6 22
REMARK SMILES IDX 1 23 2 24 3 25 97 26 4 27 5 28 27 29 28 30 29 31 30 32 31 33
REMARK SMILES IDX 32 34 33 35 34 36 35 37 96 38 36 39 95 40 37 41 38 42 39 43
REMARK SMILES IDX 89 44 40 45 94 46 88 47 90 48 41 49 93 50 87 51 86 52 42 54
REMARK SMILES IDX 74 55 54 56 73 57 55 58 58 59 72 60 91 61 56 62 57 63 71 65
REMARK SMILES IDX 92 66 59 67 43 68 44 69 52 70 45 71 47 72 53 73 46 74 48 75
REMARK SMILES IDX 49 76 50 77 51 78 75 79 76 80 84 81 77 82 79 83 85 84 78 85
REMARK SMILES IDX 80 86 81 87 82 88 83 89 60 90 61 91 69 92 62 93 64 94 70 95
REMARK SMILES IDX 63 96 65 97 66 98 67 99 68 100
REMARK H PARENT 10 13 90 53 58 64
REMARK Flexibility Score: inf
ROOT
ATOM      1  C   UNL A   1      40.461  21.252  26.795  1.00  0.00     0.188 C 
ENDROOT
BRANCH   1   2
ATOM      2  O   UNL A   1      39.514  21.704  25.834  1.00  0.00    -0.376 OA
BRANCH   2   3
ATOM      3  C   UNL A   1      38.709  22.824  26.170  1.00  0.00     0.202 C 
BRANCH   3   4
ATOM      4  C   UNL A   1      37.559  23.139  25.212  1.00  0.00     0.261 C 
BRANCH   4   5
ATOM      5  O   UNL A   1      36.430  22.255  25.394  1.00  0.00    -0.463 OA
BRANCH   5   6
ATOM      6  C   UNL A   1      35.363  22.804  26.027  1.00  0.00     0.310 C 
ATOM      7  O   UNL A   1      35.271  24.010  26.256  1.00  0.00    -0.252 OA
BRANCH   6   8
ATOM      8  C   UNL A   1      34.222  21.862  26.370  1.00  0.00     0.161 C 
BRANCH   8   9
ATOM      9  C   UNL A   1      33.484  21.102  25.288  1.00  0.00     0.000 A 
ATOM     10  C   UNL A   1      32.171  21.309  24.841  1.00  0.00     0.093 A 
ATOM     11  N   UNL A   1      31.933  20.394  23.841  1.00  0.00    -0.351 N 
ATOM     12  C   UNL A   1      32.884  19.407  23.872  1.00  0.00     0.049 A 
ATOM     13  H   UNL A   1      31.188  20.440  23.199  1.00  0.00     0.167 HD
ATOM     14  C   UNL A   1      33.888  19.836  24.741  1.00  0.00     0.004 A 
ATOM     15  C   UNL A   1      32.910  18.166  23.224  1.00  0.00     0.066 A 
ATOM     16  C   UNL A   1      34.980  18.974  24.979  1.00  0.00     0.013 A 
ATOM     17  C   UNL A   1      33.976  17.322  23.524  1.00  0.00     0.125 A 
ATOM     18  C   UNL A   1      34.997  17.707  24.382  1.00  0.00     0.040 A 
ATOM     19  F   UNL A   1      34.003  16.094  22.986  1.00  0.00    -0.207 F 
BRANCH  10  20
ATOM     20  C   UNL A   1      31.197  22.284  25.300  1.00  0.00     0.227 C 
ATOM     21  O   UNL A   1      30.337  22.014  26.136  1.00  0.00    -0.285 OA
BRANCH  20  22
ATOM     22  C   UNL A   1      31.191  23.658  24.721  1.00  0.00     0.113 A 
ATOM     23  C   UNL A   1      32.231  25.439  21.553  1.00  0.00     0.044 C 
ATOM     24  C   UNL A   1      31.597  25.125  22.876  1.00  0.00    -0.047 A 
ATOM     25  C   UNL A   1      30.648  25.993  23.421  1.00  0.00     0.023 A 
ATOM     26  C   UNL A   1      31.857  23.915  23.529  1.00  0.00     0.036 A 
ATOM     27  C   UNL A   1      30.079  25.672  24.643  1.00  0.00     0.112 A 
ATOM     28  N   UNL A   1      30.366  24.544  25.327  1.00  0.00    -0.253 NA
ENDBRANCH  20  22
ENDBRANCH  10  20
ENDBRANCH   8   9
ENDBRANCH   6   8
ENDBRANCH   5   6
ENDBRANCH   4   5
ENDBRANCH   3   4
ENDBRANCH   2   3
ENDBRANCH   1   2
BRANCH   1  29
ATOM     29  C   UNL A   1      41.246  19.952  26.510  1.00  0.00     0.188 C 
BRANCH  29  30
ATOM     30  O   UNL A   1      42.146  19.901  25.410  1.00  0.00    -0.376 OA
BRANCH  30  31
ATOM     31  C   UNL A   1      43.493  20.281  25.661  1.00  0.00     0.202 C 
BRANCH  31  32
ATOM     32  C   UNL A   1      44.028  21.392  24.762  1.00  0.00     0.261 C 
BRANCH  32  33
ATOM     33  O   UNL A   1      43.163  22.543  24.774  1.00  0.00    -0.460 OA
BRANCH  33  34
ATOM     34  C   UNL A   1      43.779  23.685  25.163  1.00  0.00     0.338 C 
ATOM     35  O   UNL A   1      44.953  23.966  24.982  1.00  0.00    -0.246 OA
BRANCH  34  36
ATOM     36  C   UNL A   1      42.855  24.617  25.846  1.00  0.00     0.060 A 
ATOM     37  C   UNL A   1      42.941  25.987  25.623  1.00  0.00     0.016 A 
ATOM     38  C   UNL A   1      42.109  24.148  26.925  1.00  0.00     0.016 A 
ATOM     39  C   UNL A   1      42.449  26.885  26.573  1.00  0.00     0.010 A 
ATOM     40  C   UNL A   1      41.522  25.054  27.818  1.00  0.00     0.010 A 
ATOM     41  C   UNL A   1      41.758  26.435  27.705  1.00  0.00    -0.014 A 
BRANCH  41  42
ATOM     42  C   UNL A   1      41.377  27.385  28.800  1.00  0.00     0.031 A 
ATOM     43  C   UNL A   1      42.260  27.545  30.021  1.00  0.00     0.074 A 
ATOM     44  C   UNL A   1      40.267  28.146  28.699  1.00  0.00     0.049 A 
ATOM     45  N   UNL A   1      42.034  28.212  31.128  1.00  0.00    -0.248 NA
ATOM     46  C   UNL A   1      43.572  26.874  30.000  1.00  0.00     0.031 C 
ATOM     47  C   UNL A   1      39.344  28.155  27.563  1.00  0.00     0.029 A 
ATOM     48  N   UNL A   1      39.719  29.057  29.573  1.00  0.00    -0.354 N 
ATOM     49  C   UNL A   1      43.139  27.995  31.947  1.00  0.00     0.074 A 
ATOM     50  C   UNL A   1      44.044  27.141  31.211  1.00  0.00     0.031 C 
ATOM     51  C   UNL A   1      38.359  29.034  27.798  1.00  0.00     0.029 A 
ATOM     52  C   UNL A   1      38.519  29.577  29.142  1.00  0.00     0.049 A 
ATOM     53  H   UNL A   1      40.144  29.312  30.425  1.00  0.00     0.167 HD
ATOM     54  C   UNL A   1      43.383  28.463  33.196  1.00  0.00     0.034 A 
ATOM     55  C   UNL A   1      37.612  30.351  29.769  1.00  0.00     0.034 A 
ATOM     56  C   UNL A   1      42.499  29.332  33.928  1.00  0.00     0.049 A 
ATOM     57  C   UNL A   1      37.874  30.793  31.181  1.00  0.00     0.074 A 
ATOM     58  C   UNL A   1      42.655  29.838  35.209  1.00  0.00     0.029 A 
ATOM     59  N   UNL A   1      41.293  29.822  33.454  1.00  0.00    -0.354 N 
ATOM     60  N   UNL A   1      38.930  30.590  31.930  1.00  0.00    -0.248 NA
ATOM     61  C   UNL A   1      36.819  31.583  31.832  1.00  0.00     0.031 C 
ATOM     62  C   UNL A   1      41.531  30.610  35.517  1.00  0.00     0.029 A 
ATOM     63  C   UNL A   1      40.691  30.616  34.416  1.00  0.00     0.049 A 
ATOM     64  H   UNL A   1      40.919  29.634  32.563  1.00  0.00     0.167 HD
ATOM     65  C   UNL A   1      38.674  31.241  33.131  1.00  0.00     0.074 A 
ATOM     66  C   UNL A   1      37.383  31.882  32.993  1.00  0.00     0.031 C 
ATOM     67  C   UNL A   1      39.426  31.283  34.257  1.00  0.00     0.034 A 
BRANCH  54  68
ATOM     68  C   UNL A   1      44.671  28.055  33.867  1.00  0.00     0.023 A 
ATOM     69  C   UNL A   1      45.832  28.834  33.689  1.00  0.00     0.012 A 
ATOM     70  C   UNL A   1      44.706  26.955  34.748  1.00  0.00     0.148 A 
ATOM     71  C   UNL A   1      47.011  28.515  34.364  1.00  0.00     0.002 A 
ATOM     72  C   UNL A   1      45.873  26.665  35.446  1.00  0.00     0.091 A 
ATOM     73  F   UNL A   1      43.594  26.219  34.892  1.00  0.00    -0.205 F 
ATOM     74  C   UNL A   1      47.028  27.439  35.249  1.00  0.00     0.022 A 
BRANCH  72  75
ATOM     75  S   UNL A   1      45.980  25.347  36.662  1.00  0.00     0.127 S 
ATOM     76  O   UNL A   1      44.715  25.507  37.379  1.00  0.00    -0.237 OA
ATOM     77  O   UNL A   1      46.057  24.156  35.818  1.00  0.00    -0.237 OA
ATOM     78  O   UNL A   1      47.176  25.618  37.447  1.00  0.00    -0.744 OA
ENDBRANCH  72  75
ENDBRANCH  54  68
BRANCH  55  79
ATOM     79  C   UNL A   1      36.342  30.727  29.080  1.00  0.00     0.023 A 
ATOM     80  C   UNL A   1      35.499  29.724  28.562  1.00  0.00     0.012 A 
ATOM     81  C   UNL A   1      35.967  32.077  28.931  1.00  0.00     0.148 A 
ATOM     82  C   UNL A   1      34.326  30.062  27.885  1.00  0.00     0.002 A 
ATOM     83  C   UNL A   1      34.762  32.402  28.324  1.00  0.00     0.091 A 
ATOM     84  F   UNL A   1      36.798  33.024  29.393  1.00  0.00    -0.205 F 
ATOM     85  C   UNL A   1      33.949  31.398  27.781  1.00  0.00     0.022 A 
BRANCH  83  86
ATOM     86  S   UNL A   1      34.142  34.088  28.296  1.00  0.00     0.127 S 
ATOM     87  O   UNL A   1      34.429  34.536  29.655  1.00  0.00    -0.237 OA
ATOM     88  O   UNL A   1      34.971  34.702  27.257  1.00  0.00    -0.237 OA
ATOM     89  O   UNL A   1      32.733  33.973  27.942  1.00  0.00    -0.744 OA
ENDBRANCH  83  86
ENDBRANCH  55  79
BRANCH  67  90
ATOM     90  C   UNL A   1      38.884  32.078  35.416  1.00  0.00     0.023 A 
ATOM     91  C   UNL A   1      38.958  33.486  35.399  1.00  0.00     0.012 A 
ATOM     92  C   UNL A   1      38.292  31.432  36.519  1.00  0.00     0.148 A 
ATOM     93  C   UNL A   1      38.503  34.235  36.484  1.00  0.00     0.002 A 
ATOM     94  C   UNL A   1      37.793  32.188  37.574  1.00  0.00     0.091 A 
ATOM     95  F   UNL A   1      38.247  30.093  36.530  1.00  0.00    -0.205 F 
ATOM     96  C   UNL A   1      37.914  33.587  37.567  1.00  0.00     0.022 A 
BRANCH  94  97
ATOM     97  S   UNL A   1      36.938  31.439  38.964  1.00  0.00     0.127 S 
ATOM     98  O   UNL A   1      36.671  30.092  38.461  1.00  0.00    -0.237 OA
ATOM     99  O   UNL A   1      37.946  31.505  40.024  1.00  0.00    -0.237 OA
ATOM    100  O   UNL A   1      35.763  32.268  39.202  1.00  0.00    -0.744 OA
ENDBRANCH  94  97
ENDBRANCH  67  90
ENDBRANCH  41  42
ENDBRANCH  34  36
ENDBRANCH  33  34
ENDBRANCH  32  33
ENDBRANCH  31  32
ENDBRANCH  30  31
ENDBRANCH  29  30
ENDBRANCH   1  29
TORSDOF 23
ENDMDL
MODEL 3
REMARK VINA RESULT:     -11.0      5.121      7.125
REMARK SMILES Cc1ccnc(C(=O)c2[nH]c3cc(F)ccc3c2CC(=O)OCCOCCOCCOC(=O)c2ccc(-c3c4nc(c(-c5cccc(S(=O)(=O)[O-])c5F)c5ccc([nH]5)c(-c5cccc(S(=O)(=O)[O-])c5F)c5nc(c(-c6cccc(S(=O)(=O)[O-])c6F)c6ccc3[nH]6)C=C5)C=C4)cc2)c1
REMARK SMILES IDX 26 1 25 2 24 3 23 4 22 5 20 6 21 7 19 8 18 9 9 10 10 11
REMARK SMILES IDX 11 12 17 14 12 15 16 16 13 17 15 18 14 19 7 20 8 21 6 22
REMARK SMILES IDX 1 23 2 24 3 25 97 26 4 27 5 28 27 29 28 30 29 31 30 32 31 33
REMARK SMILES IDX 32 34 33 35 34 36 35 37 96 38 36 39 95 40 37 41 38 42 39 43
REMARK SMILES IDX 89 44 40 45 94 46 88 47 90 48 41 49 93 50 87 51 86 52 42 54
REMARK SMILES IDX 74 55 54 56 73 57 55 58 58 59 72 60 91 61 56 62 57 63 71 65
REMARK SMILES IDX 92 66 59 67 43 68 44 69 52 70 45 71 47 72 53 73 46 74 48 75
REMARK SMILES IDX 49 76 50 77 51 78 75 79 76 80 84 81 77 82 79 83 85 84 78 85
REMARK SMILES IDX 80 86 81 87 82 88 83 89 60 90 61 91 69 92 62 93 64 94 70 95
REMARK SMILES IDX 63 96 65 97 66 98 67 99 68 100
REMARK H PARENT 10 13 90 53 58 64
REMARK Flexibility Score: inf
ROOT
ATOM      1  C   UNL A   1      35.608  22.048  24.243  1.00  0.00     0.188 C 
ENDROOT
BRANCH   1   2
ATOM      2  O   UNL A   1      34.345  22.519  23.788  1.00  0.00    -0.376 OA
BRANCH   2   3
ATOM      3  C   UNL A   1      34.332  23.576  22.840  1.00  0.00     0.202 C 
BRANCH   3   4
ATOM      4  C   UNL A   1      32.998  23.834  22.138  1.00  0.00     0.261 C 
BRANCH   4   5
ATOM      5  O   UNL A   1      32.317  24.999  22.656  1.00  0.00    -0.463 OA
BRANCH   5   6
ATOM      6  C   UNL A   1      32.605  26.164  22.024  1.00  0.00     0.310 C 
ATOM      7  O   UNL A   1      33.722  26.422  21.576  1.00  0.00    -0.252 OA
BRANCH   6   8
ATOM      8  C   UNL A   1      31.446  27.122  21.811  1.00  0.00     0.161 C 
BRANCH   8   9
ATOM      9  C   UNL A   1      31.242  28.316  22.720  1.00  0.00     0.000 A 
ATOM     10  C   UNL A   1      31.935  28.620  23.902  1.00  0.00     0.093 A 
ATOM     11  N   UNL A   1      31.421  29.803  24.382  1.00  0.00    -0.351 N 
ATOM     12  C   UNL A   1      30.224  30.077  23.771  1.00  0.00     0.049 A 
ATOM     13  H   UNL A   1      31.848  30.369  25.066  1.00  0.00     0.167 HD
ATOM     14  C   UNL A   1      30.100  29.188  22.703  1.00  0.00     0.004 A 
ATOM     15  C   UNL A   1      29.242  31.017  24.103  1.00  0.00     0.066 A 
ATOM     16  C   UNL A   1      28.924  29.238  21.924  1.00  0.00     0.013 A 
ATOM     17  C   UNL A   1      28.074  31.002  23.345  1.00  0.00     0.125 A 
ATOM     18  C   UNL A   1      27.907  30.135  22.274  1.00  0.00     0.040 A 
ATOM     19  F   UNL A   1      27.075  31.832  23.676  1.00  0.00    -0.207 F 
BRANCH  10  20
ATOM     20  C   UNL A   1      33.000  27.874  24.549  1.00  0.00     0.227 C 
ATOM     21  O   UNL A   1      34.188  28.146  24.387  1.00  0.00    -0.285 OA
BRANCH  20  22
ATOM     22  C   UNL A   1      32.671  26.703  25.412  1.00  0.00     0.113 A 
ATOM     23  C   UNL A   1      29.650  24.721  26.525  1.00  0.00     0.044 C 
ATOM     24  C   UNL A   1      31.064  25.146  26.257  1.00  0.00    -0.047 A 
ATOM     25  C   UNL A   1      32.116  24.251  26.467  1.00  0.00     0.023 A 
ATOM     26  C   UNL A   1      31.346  26.395  25.693  1.00  0.00     0.036 A 
ATOM     27  C   UNL A   1      33.409  24.673  26.207  1.00  0.00     0.112 A 
ATOM     28  N   UNL A   1      33.713  25.899  25.727  1.00  0.00    -0.253 NA
ENDBRANCH  20  22
ENDBRANCH  10  20
ENDBRANCH   8   9
ENDBRANCH   6   8
ENDBRANCH   5   6
ENDBRANCH   4   5
ENDBRANCH   3   4
ENDBRANCH   2   3
ENDBRANCH   1   2
BRANCH   1  29
ATOM     29  C   UNL A   1      35.659  20.753  25.085  1.00  0.00     0.188 C 
BRANCH  29  30
ATOM     30  O   UNL A   1      36.794  19.901  24.998  1.00  0.00    -0.376 OA
BRANCH  30  31
ATOM     31  C   UNL A   1      38.071  20.522  25.067  1.00  0.00     0.202 C 
BRANCH  31  32
ATOM     32  C   UNL A   1      39.230  19.579  25.381  1.00  0.00     0.261 C 
BRANCH  32  33
ATOM     33  O   UNL A   1      39.828  19.885  26.655  1.00  0.00    -0.460 OA
BRANCH  33  34
ATOM     34  C   UNL A   1      40.995  20.566  26.561  1.00  0.00     0.338 C 
ATOM     35  O   UNL A   1      42.004  20.187  25.989  1.00  0.00    -0.246 OA
BRANCH  34  36
ATOM     36  C   UNL A   1      40.932  21.883  27.232  1.00  0.00     0.060 A 
ATOM     37  C   UNL A   1      40.158  22.909  26.702  1.00  0.00     0.016 A 
ATOM     38  C   UNL A   1      41.875  22.179  28.213  1.00  0.00     0.016 A 
ATOM     39  C   UNL A   1      40.452  24.240  27.008  1.00  0.00     0.010 A 
ATOM     40  C   UNL A   1      42.092  23.508  28.601  1.00  0.00     0.010 A 
ATOM     41  C   UNL A   1      41.446  24.567  27.939  1.00  0.00    -0.014 A 
BRANCH  41  42
ATOM     42  C   UNL A   1      41.869  25.989  28.143  1.00  0.00     0.031 A 
ATOM     43  C   UNL A   1      43.263  26.440  27.755  1.00  0.00     0.074 A 
ATOM     44  C   UNL A   1      41.006  26.904  28.634  1.00  0.00     0.049 A 
ATOM     45  N   UNL A   1      43.856  27.589  27.976  1.00  0.00    -0.248 NA
ATOM     46  C   UNL A   1      44.103  25.480  27.016  1.00  0.00     0.031 C 
ATOM     47  C   UNL A   1      39.613  26.645  29.001  1.00  0.00     0.029 A 
ATOM     48  N   UNL A   1      41.177  28.239  28.919  1.00  0.00    -0.354 N 
ATOM     49  C   UNL A   1      45.143  27.469  27.460  1.00  0.00     0.074 A 
ATOM     50  C   UNL A   1      45.250  26.139  26.904  1.00  0.00     0.031 C 
ATOM     51  C   UNL A   1      39.053  27.780  29.443  1.00  0.00     0.029 A 
ATOM     52  C   UNL A   1      40.069  28.824  29.491  1.00  0.00     0.049 A 
ATOM     53  H   UNL A   1      42.011  28.729  28.732  1.00  0.00     0.167 HD
ATOM     54  C   UNL A   1      46.148  28.380  27.445  1.00  0.00     0.034 A 
ATOM     55  C   UNL A   1      39.897  30.037  30.053  1.00  0.00     0.034 A 
ATOM     56  C   UNL A   1      46.046  29.715  27.976  1.00  0.00     0.049 A 
ATOM     57  C   UNL A   1      41.051  31.000  30.090  1.00  0.00     0.074 A 
ATOM     58  C   UNL A   1      47.020  30.699  28.024  1.00  0.00     0.029 A 
ATOM     59  N   UNL A   1      44.909  30.256  28.553  1.00  0.00    -0.354 N 
ATOM     60  N   UNL A   1      42.252  30.871  29.583  1.00  0.00    -0.248 NA
ATOM     61  C   UNL A   1      40.818  32.282  30.770  1.00  0.00     0.031 C 
ATOM     62  C   UNL A   1      46.480  31.823  28.656  1.00  0.00     0.029 A 
ATOM     63  C   UNL A   1      45.158  31.554  28.968  1.00  0.00     0.049 A 
ATOM     64  H   UNL A   1      44.049  29.786  28.654  1.00  0.00     0.167 HD
ATOM     65  C   UNL A   1      42.911  32.061  29.868  1.00  0.00     0.074 A 
ATOM     66  C   UNL A   1      41.961  32.914  30.551  1.00  0.00     0.031 C 
ATOM     67  C   UNL A   1      44.196  32.410  29.611  1.00  0.00     0.034 A 
BRANCH  54  68
ATOM     68  C   UNL A   1      47.463  27.976  26.826  1.00  0.00     0.023 A 
ATOM     69  C   UNL A   1      48.548  27.620  27.652  1.00  0.00     0.012 A 
ATOM     70  C   UNL A   1      47.593  27.858  25.426  1.00  0.00     0.148 A 
ATOM     71  C   UNL A   1      49.746  27.169  27.095  1.00  0.00     0.002 A 
ATOM     72  C   UNL A   1      48.775  27.373  24.881  1.00  0.00     0.091 A 
ATOM     73  F   UNL A   1      46.553  28.215  24.659  1.00  0.00    -0.205 F 
ATOM     74  C   UNL A   1      49.855  27.035  25.713  1.00  0.00     0.022 A 
BRANCH  72  75
ATOM     75  S   UNL A   1      48.995  27.094  23.119  1.00  0.00     0.127 S 
ATOM     76  O   UNL A   1      48.164  25.910  22.904  1.00  0.00    -0.237 OA
ATOM     77  O   UNL A   1      48.460  28.328  22.545  1.00  0.00    -0.237 OA
ATOM     78  O   UNL A   1      50.423  26.894  22.917  1.00  0.00    -0.744 OA
ENDBRANCH  72  75
ENDBRANCH  54  68
BRANCH  55  79
ATOM     79  C   UNL A   1      38.586  30.400  30.667  1.00  0.00     0.023 A 
ATOM     80  C   UNL A   1      38.300  30.019  31.992  1.00  0.00     0.012 A 
ATOM     81  C   UNL A   1      37.617  31.119  29.940  1.00  0.00     0.148 A 
ATOM     82  C   UNL A   1      37.065  30.321  32.568  1.00  0.00     0.002 A 
ATOM     83  C   UNL A   1      36.421  31.482  30.544  1.00  0.00     0.091 A 
ATOM     84  F   UNL A   1      37.884  31.440  28.665  1.00  0.00    -0.205 F 
ATOM     85  C   UNL A   1      36.133  31.067  31.851  1.00  0.00     0.022 A 
BRANCH  83  86
ATOM     86  S   UNL A   1      35.245  32.572  29.734  1.00  0.00     0.127 S 
ATOM     87  O   UNL A   1      34.159  32.619  30.708  1.00  0.00    -0.237 OA
ATOM     88  O   UNL A   1      36.013  33.812  29.607  1.00  0.00    -0.237 OA
ATOM     89  O   UNL A   1      34.939  31.929  28.463  1.00  0.00    -0.744 OA
ENDBRANCH  83  86
ENDBRANCH  55  79
BRANCH  67  90
ATOM     90  C   UNL A   1      44.635  33.785  30.042  1.00  0.00     0.023 A 
ATOM     91  C   UNL A   1      45.259  33.963  31.294  1.00  0.00     0.012 A 
ATOM     92  C   UNL A   1      44.437  34.900  29.205  1.00  0.00     0.148 A 
ATOM     93  C   UNL A   1      45.629  35.235  31.728  1.00  0.00     0.002 A 
ATOM     94  C   UNL A   1      44.857  36.158  29.623  1.00  0.00     0.091 A 
ATOM     95  F   UNL A   1      43.825  34.717  28.027  1.00  0.00    -0.205 F 
ATOM     96  C   UNL A   1      45.436  36.331  30.890  1.00  0.00     0.022 A 
BRANCH  94  97
ATOM     97  S   UNL A   1      44.728  37.606  28.568  1.00  0.00     0.127 S 
ATOM     98  O   UNL A   1      45.084  38.682  29.491  1.00  0.00    -0.237 OA
ATOM     99  O   UNL A   1      45.730  37.331  27.536  1.00  0.00    -0.237 OA
ATOM    100  O   UNL A   1      43.355  37.622  28.080  1.00  0.00    -0.744 OA
ENDBRANCH  94  97
ENDBRANCH  67  90
ENDBRANCH  41  42
ENDBRANCH  34  36
ENDBRANCH  33  34
ENDBRANCH  32  33
ENDBRANCH  31  32
ENDBRANCH  30  31
ENDBRANCH  29  30
ENDBRANCH   1  29
TORSDOF 23
ENDMDL
