MODEL 1
REMARK VINA RESULT:      -9.9      0.000      0.000
REMARK SMILES CC(C)Cc1ccc([C@@H](C)C(=O)OCCOCCOCCOC(=O)c2ccc(-c3c4nc(c(-c5cccc(S(=O)(=O)[O-])c5F)c5ccc([nH]5)c(-c5cccc(S(=O)(=O)[O-])c5F)c5nc(c(-c6cccc(S(=O)(=O)[O-])c6F)c6ccc3[nH]6)C=C5)C=C4)cc2)cc1
REMARK SMILES IDX 17 1 16 2 15 3 14 4 13 5 11 6 12 7 9 8 10 9 8 10 5 11 6 12
REMARK SMILES IDX 89 13 7 14 88 15 4 16 2 17 1 18 3 19 18 20 19 21 20 22 21 23
REMARK SMILES IDX 22 24 23 25 24 26 25 27 26 28 87 29 27 30 86 31 28 32 29 33
REMARK SMILES IDX 30 34 80 35 31 36 85 37 79 38 81 39 32 40 84 41 78 42 77 43
REMARK SMILES IDX 33 45 65 46 45 47 64 48 46 49 49 50 63 51 82 52 47 53 48 54
REMARK SMILES IDX 62 56 83 57 50 58 34 59 35 60 43 61 36 62 38 63 44 64 37 65
REMARK SMILES IDX 39 66 40 67 41 68 42 69 66 70 67 71 75 72 68 73 70 74 76 75
REMARK SMILES IDX 69 76 71 77 72 78 73 79 74 80 51 81 52 82 60 83 53 84 55 85
REMARK SMILES IDX 61 86 54 87 56 88 57 89 58 90 59 91
REMARK H PARENT 81 44 49 55
REMARK Flexibility Score: inf
ROOT
ATOM      1  C   UNL A   1      33.549  26.563  22.002  1.00  0.00     0.188 C 
ENDROOT
BRANCH   1   2
ATOM      2  O   UNL A   1      33.567  25.592  23.042  1.00  0.00    -0.376 OA
BRANCH   2   3
ATOM      3  C   UNL A   1      34.313  25.848  24.223  1.00  0.00     0.202 C 
BRANCH   3   4
ATOM      4  C   UNL A   1      34.599  24.677  25.178  1.00  0.00     0.261 C 
BRANCH   4   5
ATOM      5  O   UNL A   1      33.585  24.428  26.178  1.00  0.00    -0.463 OA
BRANCH   5   6
ATOM      6  C   UNL A   1      32.722  23.413  25.918  1.00  0.00     0.313 C 
ATOM      7  O   UNL A   1      31.793  23.512  25.118  1.00  0.00    -0.252 OA
BRANCH   6   8
ATOM      8  C   UNL A   1      32.967  22.099  26.662  1.00  0.00     0.126 C 
ATOM      9  C   UNL A   1      34.060  22.328  27.706  1.00  0.00     0.025 C 
BRANCH   8  10
ATOM     10  C   UNL A   1      33.236  20.794  25.919  1.00  0.00    -0.034 A 
ATOM     11  C   UNL A   1      33.855  18.458  24.418  1.00  0.00    -0.048 A 
ATOM     12  C   UNL A   1      32.533  18.752  24.781  1.00  0.00     0.004 A 
ATOM     13  C   UNL A   1      34.869  19.317  24.849  1.00  0.00     0.004 A 
ATOM     14  C   UNL A   1      32.226  19.906  25.522  1.00  0.00     0.005 A 
ATOM     15  C   UNL A   1      34.563  20.477  25.566  1.00  0.00     0.005 A 
BRANCH  11  16
ATOM     16  C   UNL A   1      34.183  17.278  23.528  1.00  0.00     0.038 C 
BRANCH  16  17
ATOM     17  C   UNL A   1      34.287  15.944  24.306  1.00  0.00    -0.013 C 
ATOM     18  C   UNL A   1      35.388  15.966  25.373  1.00  0.00     0.008 C 
ATOM     19  C   UNL A   1      32.954  15.606  24.977  1.00  0.00     0.008 C 
ENDBRANCH  16  17
ENDBRANCH  11  16
ENDBRANCH   8  10
ENDBRANCH   6   8
ENDBRANCH   5   6
ENDBRANCH   4   5
ENDBRANCH   3   4
ENDBRANCH   2   3
ENDBRANCH   1   2
BRANCH   1  20
ATOM     20  C   UNL A   1      33.577  28.051  22.380  1.00  0.00     0.188 C 
BRANCH  20  21
ATOM     21  O   UNL A   1      33.110  28.327  23.683  1.00  0.00    -0.376 OA
BRANCH  21  22
ATOM     22  C   UNL A   1      32.247  29.434  23.830  1.00  0.00     0.202 C 
BRANCH  22  23
ATOM     23  C   UNL A   1      31.663  29.659  25.232  1.00  0.00     0.261 C 
BRANCH  23  24
ATOM     24  O   UNL A   1      32.599  29.656  26.325  1.00  0.00    -0.460 OA
BRANCH  24  25
ATOM     25  C   UNL A   1      33.017  30.850  26.802  1.00  0.00     0.338 C 
ATOM     26  O   UNL A   1      32.362  31.880  26.869  1.00  0.00    -0.246 OA
BRANCH  25  27
ATOM     27  C   UNL A   1      34.346  30.648  27.427  1.00  0.00     0.060 A 
ATOM     28  C   UNL A   1      34.821  29.345  27.641  1.00  0.00     0.016 A 
ATOM     29  C   UNL A   1      35.134  31.746  27.776  1.00  0.00     0.016 A 
ATOM     30  C   UNL A   1      36.083  29.139  28.211  1.00  0.00     0.010 A 
ATOM     31  C   UNL A   1      36.384  31.536  28.367  1.00  0.00     0.010 A 
ATOM     32  C   UNL A   1      36.861  30.234  28.605  1.00  0.00    -0.014 A 
BRANCH  32  33
ATOM     33  C   UNL A   1      38.116  30.050  29.382  1.00  0.00     0.031 A 
ATOM     34  C   UNL A   1      39.169  29.118  28.845  1.00  0.00     0.074 A 
ATOM     35  C   UNL A   1      38.295  30.646  30.576  1.00  0.00     0.049 A 
ATOM     36  N   UNL A   1      40.269  28.694  29.410  1.00  0.00    -0.248 NA
ATOM     37  C   UNL A   1      38.946  28.590  27.488  1.00  0.00     0.031 C 
ATOM     38  C   UNL A   1      37.368  31.586  31.202  1.00  0.00     0.029 A 
ATOM     39  N   UNL A   1      39.309  30.511  31.496  1.00  0.00    -0.354 N 
ATOM     40  C   UNL A   1      40.846  27.814  28.503  1.00  0.00     0.074 A 
ATOM     41  C   UNL A   1      39.980  27.773  27.344  1.00  0.00     0.031 C 
ATOM     42  C   UNL A   1      37.833  31.912  32.421  1.00  0.00     0.029 A 
ATOM     43  C   UNL A   1      39.068  31.173  32.678  1.00  0.00     0.049 A 
ATOM     44  H   UNL A   1      40.127  29.991  31.324  1.00  0.00     0.167 HD
ATOM     45  C   UNL A   1      41.993  27.103  28.623  1.00  0.00     0.034 A 
ATOM     46  C   UNL A   1      39.744  31.151  33.846  1.00  0.00     0.034 A 
ATOM     47  C   UNL A   1      42.861  27.153  29.767  1.00  0.00     0.049 A 
ATOM     48  C   UNL A   1      40.992  30.311  33.968  1.00  0.00     0.074 A 
ATOM     49  C   UNL A   1      44.074  26.511  29.953  1.00  0.00     0.029 A 
ATOM     50  N   UNL A   1      42.603  27.861  30.930  1.00  0.00    -0.354 N 
ATOM     51  N   UNL A   1      41.588  29.574  33.061  1.00  0.00    -0.248 NA
ATOM     52  C   UNL A   1      41.674  30.318  35.272  1.00  0.00     0.031 C 
ATOM     53  C   UNL A   1      44.526  26.795  31.245  1.00  0.00     0.029 A 
ATOM     54  C   UNL A   1      43.621  27.653  31.846  1.00  0.00     0.049 A 
ATOM     55  H   UNL A   1      41.814  28.430  31.081  1.00  0.00     0.167 HD
ATOM     56  C   UNL A   1      42.730  29.065  33.672  1.00  0.00     0.074 A 
ATOM     57  C   UNL A   1      42.756  29.594  35.019  1.00  0.00     0.031 C 
ATOM     58  C   UNL A   1      43.667  28.224  33.168  1.00  0.00     0.034 A 
BRANCH  45  59
ATOM     59  C   UNL A   1      42.383  26.198  27.484  1.00  0.00     0.023 A 
ATOM     60  C   UNL A   1      43.247  26.668  26.475  1.00  0.00     0.012 A 
ATOM     61  C   UNL A   1      41.957  24.855  27.462  1.00  0.00     0.148 A 
ATOM     62  C   UNL A   1      43.659  25.822  25.445  1.00  0.00     0.002 A 
ATOM     63  C   UNL A   1      42.410  24.006  26.461  1.00  0.00     0.091 A 
ATOM     64  F   UNL A   1      41.121  24.434  28.421  1.00  0.00    -0.205 F 
ATOM     65  C   UNL A   1      43.252  24.490  25.446  1.00  0.00     0.022 A 
BRANCH  63  66
ATOM     66  S   UNL A   1      42.011  22.255  26.417  1.00  0.00     0.127 S 
ATOM     67  O   UNL A   1      42.672  21.833  25.182  1.00  0.00    -0.237 OA
ATOM     68  O   UNL A   1      42.640  21.768  27.644  1.00  0.00    -0.237 OA
ATOM     69  O   UNL A   1      40.557  22.173  26.401  1.00  0.00    -0.744 OA
ENDBRANCH  63  66
ENDBRANCH  45  59
BRANCH  46  70
ATOM     70  C   UNL A   1      39.267  31.953  35.011  1.00  0.00     0.023 A 
ATOM     71  C   UNL A   1      38.248  31.438  35.837  1.00  0.00     0.012 A 
ATOM     72  C   UNL A   1      39.792  33.231  35.288  1.00  0.00     0.148 A 
ATOM     73  C   UNL A   1      37.734  32.194  36.892  1.00  0.00     0.002 A 
ATOM     74  C   UNL A   1      39.317  33.955  36.375  1.00  0.00     0.091 A 
ATOM     75  F   UNL A   1      40.745  33.715  34.479  1.00  0.00    -0.205 F 
ATOM     76  C   UNL A   1      38.274  33.448  37.166  1.00  0.00     0.022 A 
BRANCH  74  77
ATOM     77  S   UNL A   1      40.026  35.527  36.875  1.00  0.00     0.127 S 
ATOM     78  O   UNL A   1      39.650  36.393  35.761  1.00  0.00    -0.237 OA
ATOM     79  O   UNL A   1      39.318  35.791  38.128  1.00  0.00    -0.237 OA
ATOM     80  O   UNL A   1      41.454  35.284  37.030  1.00  0.00    -0.744 OA
ENDBRANCH  74  77
ENDBRANCH  46  70
BRANCH  58  81
ATOM     81  C   UNL A   1      44.833  27.852  34.050  1.00  0.00     0.023 A 
ATOM     82  C   UNL A   1      45.987  28.660  34.075  1.00  0.00     0.012 A 
ATOM     83  C   UNL A   1      44.755  26.736  34.910  1.00  0.00     0.148 A 
ATOM     84  C   UNL A   1      47.058  28.344  34.913  1.00  0.00     0.002 A 
ATOM     85  C   UNL A   1      45.802  26.458  35.780  1.00  0.00     0.091 A 
ATOM     86  F   UNL A   1      43.655  25.971  34.863  1.00  0.00    -0.205 F 
ATOM     87  C   UNL A   1      46.960  27.252  35.772  1.00  0.00     0.022 A 
BRANCH  85  88
ATOM     88  S   UNL A   1      45.727  25.133  36.991  1.00  0.00     0.127 S 
ATOM     89  O   UNL A   1      45.297  24.002  36.170  1.00  0.00    -0.237 OA
ATOM     90  O   UNL A   1      47.114  25.059  37.452  1.00  0.00    -0.237 OA
ATOM     91  O   UNL A   1      44.775  25.565  38.004  1.00  0.00    -0.744 OA
ENDBRANCH  85  88
ENDBRANCH  58  81
ENDBRANCH  32  33
ENDBRANCH  25  27
ENDBRANCH  24  25
ENDBRANCH  23  24
ENDBRANCH  22  23
ENDBRANCH  21  22
ENDBRANCH  20  21
ENDBRANCH   1  20
TORSDOF 23
ENDMDL
MODEL 2
REMARK VINA RESULT:      -9.9      2.116      8.131
REMARK SMILES CC(C)Cc1ccc([C@@H](C)C(=O)OCCOCCOCCOC(=O)c2ccc(-c3c4nc(c(-c5cccc(S(=O)(=O)[O-])c5F)c5ccc([nH]5)c(-c5cccc(S(=O)(=O)[O-])c5F)c5nc(c(-c6cccc(S(=O)(=O)[O-])c6F)c6ccc3[nH]6)C=C5)C=C4)cc2)cc1
REMARK SMILES IDX 17 1 16 2 15 3 14 4 13 5 11 6 12 7 9 8 10 9 8 10 5 11 6 12
REMARK SMILES IDX 89 13 7 14 88 15 4 16 2 17 1 18 3 19 18 20 19 21 20 22 21 23
REMARK SMILES IDX 22 24 23 25 24 26 25 27 26 28 87 29 27 30 86 31 28 32 29 33
REMARK SMILES IDX 30 34 80 35 31 36 85 37 79 38 81 39 32 40 84 41 78 42 77 43
REMARK SMILES IDX 33 45 65 46 45 47 64 48 46 49 49 50 63 51 82 52 47 53 48 54
REMARK SMILES IDX 62 56 83 57 50 58 34 59 35 60 43 61 36 62 38 63 44 64 37 65
REMARK SMILES IDX 39 66 40 67 41 68 42 69 66 70 67 71 75 72 68 73 70 74 76 75
REMARK SMILES IDX 69 76 71 77 72 78 73 79 74 80 51 81 52 82 60 83 53 84 55 85
REMARK SMILES IDX 61 86 54 87 56 88 57 89 58 90 59 91
REMARK H PARENT 81 44 49 55
REMARK Flexibility Score: inf
ROOT
ATOM      1  C   UNL A   1      30.397  29.169  22.762  1.00  0.00     0.188 C 
ENDROOT
BRANCH   1   2
ATOM      2  O   UNL A   1      30.122  27.789  22.557  1.00  0.00    -0.376 OA
BRANCH   2   3
ATOM      3  C   UNL A   1      30.253  26.882  23.644  1.00  0.00     0.202 C 
BRANCH   3   4
ATOM      4  C   UNL A   1      30.673  25.435  23.343  1.00  0.00     0.261 C 
BRANCH   4   5
ATOM      5  O   UNL A   1      31.755  25.284  22.396  1.00  0.00    -0.463 OA
BRANCH   5   6
ATOM      6  C   UNL A   1      32.987  25.066  22.920  1.00  0.00     0.313 C 
ATOM      7  O   UNL A   1      34.028  25.329  22.319  1.00  0.00    -0.252 OA
BRANCH   6   8
ATOM      8  C   UNL A   1      33.036  24.486  24.335  1.00  0.00     0.126 C 
ATOM      9  C   UNL A   1      33.975  25.346  25.181  1.00  0.00     0.025 C 
BRANCH   8  10
ATOM     10  C   UNL A   1      33.330  23.009  24.586  1.00  0.00    -0.034 A 
ATOM     11  C   UNL A   1      33.973  20.255  24.890  1.00  0.00    -0.048 A 
ATOM     12  C   UNL A   1      32.681  20.727  25.158  1.00  0.00     0.004 A 
ATOM     13  C   UNL A   1      34.952  21.178  24.512  1.00  0.00     0.004 A 
ATOM     14  C   UNL A   1      32.362  22.088  25.008  1.00  0.00     0.005 A 
ATOM     15  C   UNL A   1      34.631  22.527  24.340  1.00  0.00     0.005 A 
BRANCH  11  16
ATOM     16  C   UNL A   1      34.299  18.777  24.943  1.00  0.00     0.038 C 
BRANCH  16  17
ATOM     17  C   UNL A   1      33.314  17.912  24.122  1.00  0.00    -0.013 C 
ATOM     18  C   UNL A   1      34.025  17.000  23.115  1.00  0.00     0.008 C 
ATOM     19  C   UNL A   1      32.452  17.050  25.048  1.00  0.00     0.008 C 
ENDBRANCH  16  17
ENDBRANCH  11  16
ENDBRANCH   8  10
ENDBRANCH   6   8
ENDBRANCH   5   6
ENDBRANCH   4   5
ENDBRANCH   3   4
ENDBRANCH   2   3
ENDBRANCH   1   2
BRANCH   1  20
ATOM     20  C   UNL A   1      30.595  29.678  24.198  1.00  0.00     0.188 C 
BRANCH  20  21
ATOM     21  O   UNL A   1      31.940  29.701  24.625  1.00  0.00    -0.376 OA
BRANCH  21  22
ATOM     22  C   UNL A   1      32.180  30.102  25.957  1.00  0.00     0.202 C 
BRANCH  22  23
ATOM     23  C   UNL A   1      33.617  29.931  26.469  1.00  0.00     0.261 C 
BRANCH  23  24
ATOM     24  O   UNL A   1      33.903  30.480  27.769  1.00  0.00    -0.460 OA
BRANCH  24  25
ATOM     25  C   UNL A   1      34.849  31.442  27.854  1.00  0.00     0.338 C 
ATOM     26  O   UNL A   1      34.705  32.633  27.619  1.00  0.00    -0.246 OA
BRANCH  25  27
ATOM     27  C   UNL A   1      36.050  30.841  28.484  1.00  0.00     0.060 A 
ATOM     28  C   UNL A   1      37.324  31.325  28.152  1.00  0.00     0.016 A 
ATOM     29  C   UNL A   1      35.913  29.819  29.424  1.00  0.00     0.016 A 
ATOM     30  C   UNL A   1      38.464  30.781  28.754  1.00  0.00     0.010 A 
ATOM     31  C   UNL A   1      37.056  29.261  30.006  1.00  0.00     0.010 A 
ATOM     32  C   UNL A   1      38.339  29.724  29.665  1.00  0.00    -0.014 A 
BRANCH  32  33
ATOM     33  C   UNL A   1      39.534  29.001  30.176  1.00  0.00     0.031 A 
ATOM     34  C   UNL A   1      40.224  29.524  31.407  1.00  0.00     0.074 A 
ATOM     35  C   UNL A   1      40.040  27.936  29.525  1.00  0.00     0.049 A 
ATOM     36  N   UNL A   1      41.353  29.147  31.949  1.00  0.00    -0.248 NA
ATOM     37  C   UNL A   1      39.550  30.623  32.119  1.00  0.00     0.031 C 
ATOM     38  C   UNL A   1      39.462  27.316  28.336  1.00  0.00     0.029 A 
ATOM     39  N   UNL A   1      41.189  27.215  29.756  1.00  0.00    -0.354 N 
ATOM     40  C   UNL A   1      41.552  29.992  33.035  1.00  0.00     0.074 A 
ATOM     41  C   UNL A   1      40.420  30.893  33.083  1.00  0.00     0.031 C 
ATOM     42  C   UNL A   1      40.278  26.333  27.915  1.00  0.00     0.029 A 
ATOM     43  C   UNL A   1      41.456  26.282  28.780  1.00  0.00     0.049 A 
ATOM     44  H   UNL A   1      41.763  27.353  30.543  1.00  0.00     0.167 HD
ATOM     45  C   UNL A   1      42.582  30.016  33.913  1.00  0.00     0.034 A 
ATOM     46  C   UNL A   1      42.544  25.508  28.583  1.00  0.00     0.034 A 
ATOM     47  C   UNL A   1      43.700  29.113  33.876  1.00  0.00     0.049 A 
ATOM     48  C   UNL A   1      43.700  25.591  29.550  1.00  0.00     0.074 A 
ATOM     49  C   UNL A   1      44.762  29.025  34.759  1.00  0.00     0.029 A 
ATOM     50  N   UNL A   1      43.919  28.159  32.895  1.00  0.00    -0.354 N 
ATOM     51  N   UNL A   1      43.821  26.313  30.638  1.00  0.00    -0.248 NA
ATOM     52  C   UNL A   1      44.863  24.733  29.272  1.00  0.00     0.031 C 
ATOM     53  C   UNL A   1      45.646  28.050  34.287  1.00  0.00     0.029 A 
ATOM     54  C   UNL A   1      45.110  27.496  33.136  1.00  0.00     0.049 A 
ATOM     55  H   UNL A   1      43.315  27.978  32.138  1.00  0.00     0.167 HD
ATOM     56  C   UNL A   1      45.050  25.968  31.192  1.00  0.00     0.074 A 
ATOM     57  C   UNL A   1      45.627  24.956  30.333  1.00  0.00     0.031 C 
ATOM     58  C   UNL A   1      45.654  26.453  32.305  1.00  0.00     0.034 A 
BRANCH  45  59
ATOM     59  C   UNL A   1      42.558  31.059  34.999  1.00  0.00     0.023 A 
ATOM     60  C   UNL A   1      42.054  30.737  36.275  1.00  0.00     0.012 A 
ATOM     61  C   UNL A   1      43.113  32.335  34.775  1.00  0.00     0.148 A 
ATOM     62  C   UNL A   1      42.077  31.678  37.304  1.00  0.00     0.002 A 
ATOM     63  C   UNL A   1      43.176  33.250  35.818  1.00  0.00     0.091 A 
ATOM     64  F   UNL A   1      43.570  32.626  33.550  1.00  0.00    -0.205 F 
ATOM     65  C   UNL A   1      42.649  32.927  37.079  1.00  0.00     0.022 A 
BRANCH  63  66
ATOM     66  S   UNL A   1      43.966  34.855  35.655  1.00  0.00     0.127 S 
ATOM     67  O   UNL A   1      43.068  35.706  36.435  1.00  0.00    -0.237 OA
ATOM     68  O   UNL A   1      45.271  34.618  36.273  1.00  0.00    -0.237 OA
ATOM     69  O   UNL A   1      44.009  35.141  34.228  1.00  0.00    -0.744 OA
ENDBRANCH  63  66
ENDBRANCH  45  59
BRANCH  46  70
ATOM     70  C   UNL A   1      42.607  24.573  27.422  1.00  0.00     0.023 A 
ATOM     71  C   UNL A   1      43.201  25.002  26.218  1.00  0.00     0.012 A 
ATOM     72  C   UNL A   1      42.059  23.277  27.491  1.00  0.00     0.148 A 
ATOM     73  C   UNL A   1      43.212  24.173  25.094  1.00  0.00     0.002 A 
ATOM     74  C   UNL A   1      42.126  22.436  26.387  1.00  0.00     0.091 A 
ATOM     75  F   UNL A   1      41.479  22.894  28.637  1.00  0.00    -0.205 F 
ATOM     76  C   UNL A   1      42.684  22.889  25.182  1.00  0.00     0.022 A 
BRANCH  74  77
ATOM     77  S   UNL A   1      41.575  20.727  26.437  1.00  0.00     0.127 S 
ATOM     78  O   UNL A   1      40.152  20.863  26.134  1.00  0.00    -0.237 OA
ATOM     79  O   UNL A   1      42.377  20.122  25.374  1.00  0.00    -0.237 OA
ATOM     80  O   UNL A   1      41.890  20.251  27.777  1.00  0.00    -0.744 OA
ENDBRANCH  74  77
ENDBRANCH  46  70
BRANCH  58  81
ATOM     81  C   UNL A   1      46.990  25.871  32.698  1.00  0.00     0.023 A 
ATOM     82  C   UNL A   1      48.181  26.430  32.195  1.00  0.00     0.012 A 
ATOM     83  C   UNL A   1      47.065  24.809  33.623  1.00  0.00     0.148 A 
ATOM     84  C   UNL A   1      49.422  25.921  32.577  1.00  0.00     0.002 A 
ATOM     85  C   UNL A   1      48.305  24.343  34.042  1.00  0.00     0.091 A 
ATOM     86  F   UNL A   1      45.921  24.280  34.082  1.00  0.00    -0.205 F 
ATOM     87  C   UNL A   1      49.484  24.887  33.508  1.00  0.00     0.022 A 
BRANCH  85  88
ATOM     88  S   UNL A   1      48.487  23.082  35.309  1.00  0.00     0.127 S 
ATOM     89  O   UNL A   1      49.939  22.912  35.354  1.00  0.00    -0.237 OA
ATOM     90  O   UNL A   1      47.913  23.739  36.483  1.00  0.00    -0.237 OA
ATOM     91  O   UNL A   1      47.740  21.924  34.837  1.00  0.00    -0.744 OA
ENDBRANCH  85  88
ENDBRANCH  58  81
ENDBRANCH  32  33
ENDBRANCH  25  27
ENDBRANCH  24  25
ENDBRANCH  23  24
ENDBRANCH  22  23
ENDBRANCH  21  22
ENDBRANCH  20  21
ENDBRANCH   1  20
TORSDOF 23
ENDMDL
MODEL 3
REMARK VINA RESULT:      -9.8      1.876      7.828
REMARK SMILES CC(C)Cc1ccc([C@@H](C)C(=O)OCCOCCOCCOC(=O)c2ccc(-c3c4nc(c(-c5cccc(S(=O)(=O)[O-])c5F)c5ccc([nH]5)c(-c5cccc(S(=O)(=O)[O-])c5F)c5nc(c(-c6cccc(S(=O)(=O)[O-])c6F)c6ccc3[nH]6)C=C5)C=C4)cc2)cc1
REMARK SMILES IDX 17 1 16 2 15 3 14 4 13 5 11 6 12 7 9 8 10 9 8 10 5 11 6 12
REMARK SMILES IDX 89 13 7 14 88 15 4 16 2 17 1 18 3 19 18 20 19 21 20 22 21 23
REMARK SMILES IDX 22 24 23 25 24 26 25 27 26 28 87 29 27 30 86 31 28 32 29 33
REMARK SMILES IDX 30 34 80 35 31 36 85 37 79 38 81 39 32 40 84 41 78 42 77 43
REMARK SMILES IDX 33 45 65 46 45 47 64 48 46 49 49 50 63 51 82 52 47 53 48 54
REMARK SMILES IDX 62 56 83 57 50 58 34 59 35 60 43 61 36 62 38 63 44 64 37 65
REMARK SMILES IDX 39 66 40 67 41 68 42 69 66 70 67 71 75 72 68 73 70 74 76 75
REMARK SMILES IDX 69 76 71 77 72 78 73 79 74 80 51 81 52 82 60 83 53 84 55 85
REMARK SMILES IDX 61 86 54 87 56 88 57 89 58 90 59 91
REMARK H PARENT 81 44 49 55
REMARK Flexibility Score: inf
ROOT
ATOM      1  C   UNL A   1      32.061  28.456  26.620  1.00  0.00     0.188 C 
ENDROOT
BRANCH   1   2
ATOM      2  O   UNL A   1      31.033  27.870  25.829  1.00  0.00    -0.376 OA
BRANCH   2   3
ATOM      3  C   UNL A   1      31.338  27.405  24.522  1.00  0.00     0.202 C 
BRANCH   3   4
ATOM      4  C   UNL A   1      32.305  26.219  24.374  1.00  0.00     0.261 C 
BRANCH   4   5
ATOM      5  O   UNL A   1      31.775  24.931  24.762  1.00  0.00    -0.463 OA
BRANCH   5   6
ATOM      6  C   UNL A   1      32.147  24.472  25.984  1.00  0.00     0.313 C 
ATOM      7  O   UNL A   1      31.467  24.635  26.996  1.00  0.00    -0.252 OA
BRANCH   6   8
ATOM      8  C   UNL A   1      33.469  23.706  26.054  1.00  0.00     0.126 C 
ATOM      9  C   UNL A   1      34.582  24.609  25.521  1.00  0.00     0.025 C 
BRANCH   8  10
ATOM     10  C   UNL A   1      33.620  22.308  25.462  1.00  0.00    -0.034 A 
ATOM     11  C   UNL A   1      33.732  19.655  24.440  1.00  0.00    -0.048 A 
ATOM     12  C   UNL A   1      34.861  20.255  25.016  1.00  0.00     0.004 A 
ATOM     13  C   UNL A   1      32.560  20.408  24.339  1.00  0.00     0.004 A 
ATOM     14  C   UNL A   1      34.807  21.565  25.522  1.00  0.00     0.005 A 
ATOM     15  C   UNL A   1      32.497  21.703  24.862  1.00  0.00     0.005 A 
BRANCH  11  16
ATOM     16  C   UNL A   1      33.750  18.209  23.993  1.00  0.00     0.038 C 
BRANCH  16  17
ATOM     17  C   UNL A   1      33.762  17.211  25.175  1.00  0.00    -0.013 C 
ATOM     18  C   UNL A   1      32.353  16.777  25.596  1.00  0.00     0.008 C 
ATOM     19  C   UNL A   1      34.578  15.965  24.821  1.00  0.00     0.008 C 
ENDBRANCH  16  17
ENDBRANCH  11  16
ENDBRANCH   8  10
ENDBRANCH   6   8
ENDBRANCH   5   6
ENDBRANCH   4   5
ENDBRANCH   3   4
ENDBRANCH   2   3
ENDBRANCH   1   2
BRANCH   1  20
ATOM     20  C   UNL A   1      32.987  29.497  25.974  1.00  0.00     0.188 C 
BRANCH  20  21
ATOM     21  O   UNL A   1      32.931  30.774  26.572  1.00  0.00    -0.376 OA
BRANCH  21  22
ATOM     22  C   UNL A   1      31.690  31.445  26.529  1.00  0.00     0.202 C 
BRANCH  22  23
ATOM     23  C   UNL A   1      31.704  32.926  26.936  1.00  0.00     0.261 C 
BRANCH  23  24
ATOM     24  O   UNL A   1      32.988  33.576  26.945  1.00  0.00    -0.460 OA
BRANCH  24  25
ATOM     25  C   UNL A   1      33.406  34.131  28.105  1.00  0.00     0.338 C 
ATOM     26  O   UNL A   1      32.877  35.054  28.707  1.00  0.00    -0.246 OA
BRANCH  25  27
ATOM     27  C   UNL A   1      34.506  33.290  28.637  1.00  0.00     0.060 A 
ATOM     28  C   UNL A   1      34.211  32.044  29.211  1.00  0.00     0.016 A 
ATOM     29  C   UNL A   1      35.830  33.722  28.544  1.00  0.00     0.016 A 
ATOM     30  C   UNL A   1      35.241  31.231  29.698  1.00  0.00     0.010 A 
ATOM     31  C   UNL A   1      36.854  32.918  29.055  1.00  0.00     0.010 A 
ATOM     32  C   UNL A   1      36.568  31.676  29.650  1.00  0.00    -0.014 A 
BRANCH  32  33
ATOM     33  C   UNL A   1      37.659  30.925  30.327  1.00  0.00     0.031 A 
ATOM     34  C   UNL A   1      37.953  31.224  31.772  1.00  0.00     0.074 A 
ATOM     35  C   UNL A   1      38.421  30.040  29.657  1.00  0.00     0.049 A 
ATOM     36  N   UNL A   1      38.937  30.803  32.523  1.00  0.00    -0.248 NA
ATOM     37  C   UNL A   1      37.010  32.122  32.461  1.00  0.00     0.031 C 
ATOM     38  C   UNL A   1      38.234  29.643  28.264  1.00  0.00     0.029 A 
ATOM     39  N   UNL A   1      39.539  29.345  30.058  1.00  0.00    -0.354 N 
ATOM     40  C   UNL A   1      38.763  31.421  33.756  1.00  0.00     0.074 A 
ATOM     41  C   UNL A   1      37.571  32.236  33.656  1.00  0.00     0.031 C 
ATOM     42  C   UNL A   1      39.227  28.807  27.911  1.00  0.00     0.029 A 
ATOM     43  C   UNL A   1      40.142  28.642  29.039  1.00  0.00     0.049 A 
ATOM     44  H   UNL A   1      39.875  29.352  30.983  1.00  0.00     0.167 HD
ATOM     45  C   UNL A   1      39.525  31.320  34.871  1.00  0.00     0.034 A 
ATOM     46  C   UNL A   1      41.317  27.980  29.009  1.00  0.00     0.034 A 
ATOM     47  C   UNL A   1      40.701  30.500  34.977  1.00  0.00     0.049 A 
ATOM     48  C   UNL A   1      42.171  27.924  30.252  1.00  0.00     0.074 A 
ATOM     49  C   UNL A   1      41.504  30.290  36.085  1.00  0.00     0.029 A 
ATOM     50  N   UNL A   1      41.260  29.775  33.937  1.00  0.00    -0.354 N 
ATOM     51  N   UNL A   1      41.934  28.418  31.445  1.00  0.00    -0.248 NA
ATOM     52  C   UNL A   1      43.448  27.199  30.151  1.00  0.00     0.031 C 
ATOM     53  C   UNL A   1      42.574  29.476  35.702  1.00  0.00     0.029 A 
ATOM     54  C   UNL A   1      42.411  29.138  34.369  1.00  0.00     0.049 A 
ATOM     55  H   UNL A   1      40.892  29.720  33.025  1.00  0.00     0.167 HD
ATOM     56  C   UNL A   1      43.009  28.030  32.240  1.00  0.00     0.074 A 
ATOM     57  C   UNL A   1      43.887  27.243  31.402  1.00  0.00     0.031 C 
ATOM     58  C   UNL A   1      43.254  28.312  33.544  1.00  0.00     0.034 A 
BRANCH  45  59
ATOM     59  C   UNL A   1      39.117  32.121  36.079  1.00  0.00     0.023 A 
ATOM     60  C   UNL A   1      39.443  33.490  36.160  1.00  0.00     0.012 A 
ATOM     61  C   UNL A   1      38.338  31.533  37.095  1.00  0.00     0.148 A 
ATOM     62  C   UNL A   1      39.023  34.255  37.249  1.00  0.00     0.002 A 
ATOM     63  C   UNL A   1      37.883  32.312  38.151  1.00  0.00     0.091 A 
ATOM     64  F   UNL A   1      38.055  30.226  37.008  1.00  0.00    -0.205 F 
ATOM     65  C   UNL A   1      38.233  33.670  38.235  1.00  0.00     0.022 A 
BRANCH  63  66
ATOM     66  S   UNL A   1      36.793  31.675  39.429  1.00  0.00     0.127 S 
ATOM     67  O   UNL A   1      35.976  30.726  38.674  1.00  0.00    -0.237 OA
ATOM     68  O   UNL A   1      37.740  31.060  40.359  1.00  0.00    -0.237 OA
ATOM     69  O   UNL A   1      36.076  32.826  39.960  1.00  0.00    -0.744 OA
ENDBRANCH  63  66
ENDBRANCH  45  59
BRANCH  46  70
ATOM     70  C   UNL A   1      41.771  27.301  27.760  1.00  0.00     0.023 A 
ATOM     71  C   UNL A   1      42.219  28.078  26.673  1.00  0.00     0.012 A 
ATOM     72  C   UNL A   1      41.735  25.899  27.631  1.00  0.00     0.148 A 
ATOM     73  C   UNL A   1      42.585  27.474  25.469  1.00  0.00     0.002 A 
ATOM     74  C   UNL A   1      42.155  25.300  26.449  1.00  0.00     0.091 A 
ATOM     75  F   UNL A   1      41.285  25.177  28.667  1.00  0.00    -0.205 F 
ATOM     76  C   UNL A   1      42.561  26.087  25.360  1.00  0.00     0.022 A 
BRANCH  74  77
ATOM     77  S   UNL A   1      42.268  23.519  26.253  1.00  0.00     0.127 S 
ATOM     78  O   UNL A   1      40.866  23.118  26.345  1.00  0.00    -0.237 OA
ATOM     79  O   UNL A   1      42.856  23.400  24.919  1.00  0.00    -0.237 OA
ATOM     80  O   UNL A   1      43.128  23.057  27.334  1.00  0.00    -0.744 OA
ENDBRANCH  74  77
ENDBRANCH  46  70
BRANCH  58  81
ATOM     81  C   UNL A   1      44.496  27.730  34.172  1.00  0.00     0.023 A 
ATOM     82  C   UNL A   1      45.695  28.469  34.185  1.00  0.00     0.012 A 
ATOM     83  C   UNL A   1      44.454  26.475  34.815  1.00  0.00     0.148 A 
ATOM     84  C   UNL A   1      46.841  27.955  34.793  1.00  0.00     0.002 A 
ATOM     85  C   UNL A   1      45.583  25.993  35.465  1.00  0.00     0.091 A 
ATOM     86  F   UNL A   1      43.308  25.779  34.782  1.00  0.00    -0.205 F 
ATOM     87  C   UNL A   1      46.782  26.724  35.443  1.00  0.00     0.022 A 
BRANCH  85  88
ATOM     88  S   UNL A   1      45.576  24.465  36.411  1.00  0.00     0.127 S 
ATOM     89  O   UNL A   1      44.999  24.902  37.681  1.00  0.00    -0.237 OA
ATOM     90  O   UNL A   1      44.704  23.609  35.607  1.00  0.00    -0.237 OA
ATOM     91  O   UNL A   1      46.963  24.024  36.476  1.00  0.00    -0.744 OA
ENDBRANCH  85  88
ENDBRANCH  58  81
ENDBRANCH  32  33
ENDBRANCH  25  27
ENDBRANCH  24  25
ENDBRANCH  23  24
ENDBRANCH  22  23
ENDBRANCH  21  22
ENDBRANCH  20  21
ENDBRANCH   1  20
TORSDOF 23
ENDMDL
