MODEL 1
REMARK VINA RESULT:     -10.9      0.000      0.000
REMARK SMILES Cc1ccc(S(=O)(=O)n2cc(C(=O)C(=O)NCC(=O)OCCOCCOCCOC(=O)c3ccc(-c4c5nc(c(-c6cccc(S(=O)(=O)[O-])c6F)c6ccc([nH]6)c(-c6cccc(S(=O)(=O)[O-])c6F)c6nc(c(-c7cccc(S(=O)(=O)[O-])c7F)c7ccc4[nH]7)C=C6)C=C5)cc3)c3ccccc32)cc1
REMARK SMILES IDX 24 1 23 2 22 3 21 4 20 5 18 6 19 7 17 8 16 9 14 10 15 11
REMARK SMILES IDX 12 13 13 14 11 15 9 16 10 17 100 18 95 19 99 20 96 21 98 22
REMARK SMILES IDX 97 23 6 24 7 25 8 26 5 27 1 28 2 29 3 30 102 31 4 32 101 33
REMARK SMILES IDX 25 34 26 35 27 36 28 37 29 38 30 39 31 40 32 41 33 42 94 43
REMARK SMILES IDX 34 44 93 45 35 46 36 47 37 48 87 49 38 50 92 51 86 52 88 53
REMARK SMILES IDX 39 54 91 55 85 56 84 57 40 59 72 60 52 61 71 62 53 63 56 64
REMARK SMILES IDX 70 65 89 66 54 67 55 68 69 70 90 71 57 72 41 73 42 74 50 75
REMARK SMILES IDX 43 76 45 77 51 78 44 79 46 80 47 81 48 82 49 83 73 84 74 85
REMARK SMILES IDX 82 86 75 87 77 88 83 89 76 90 78 91 79 92 80 93 81 94 58 95
REMARK SMILES IDX 59 96 67 97 60 98 62 99 68 100 61 101 63 102 64 103 65 104
REMARK SMILES IDX 66 105
REMARK H PARENT 16 12 88 58 56 69
REMARK Flexibility Score: inf
ROOT
ATOM      1  C   UNL A   1      32.929  30.572  26.854  1.00  0.00     0.188 C 
ENDROOT
BRANCH   1   2
ATOM      2  O   UNL A   1      32.498  29.210  26.865  1.00  0.00    -0.376 OA
BRANCH   2   3
ATOM      3  C   UNL A   1      31.961  28.890  25.547  1.00  0.00     0.202 C 
BRANCH   3   4
ATOM      4  C   UNL A   1      33.111  28.249  24.657  1.00  0.00     0.261 C 
BRANCH   4   5
ATOM      5  O   UNL A   1      33.045  27.618  23.224  1.00  0.00    -0.462 OA
BRANCH   5   6
ATOM      6  C   UNL A   1      33.422  26.491  22.537  1.00  0.00     0.325 C 
ATOM      7  O   UNL A   1      33.780  26.355  21.382  1.00  0.00    -0.250 OA
BRANCH   6   8
ATOM      8  C   UNL A   1      33.376  25.202  23.233  1.00  0.00     0.239 C 
BRANCH   8   9
ATOM      9  N   UNL A   1      32.077  24.623  23.380  1.00  0.00    -0.338 N 
ATOM     10  C   UNL A   1      31.697  24.194  24.628  1.00  0.00     0.292 C 
ATOM     11  O   UNL A   1      30.574  23.799  24.894  1.00  0.00    -0.265 OA
ATOM     12  H   UNL A   1      31.472  24.534  22.608  1.00  0.00     0.164 HD
BRANCH  10  13
ATOM     13  C   UNL A   1      32.855  24.162  25.656  1.00  0.00     0.252 C 
ATOM     14  O   UNL A   1      33.045  25.130  26.380  1.00  0.00    -0.283 OA
BRANCH  13  15
ATOM     15  C   UNL A   1      33.731  23.000  25.604  1.00  0.00     0.054 A 
ATOM     16  N   UNL A   1      35.639  21.903  25.424  1.00  0.00    -0.240 N 
ATOM     17  C   UNL A   1      35.084  23.075  25.852  1.00  0.00     0.117 A 
ATOM     18  C   UNL A   1      34.663  20.962  25.162  1.00  0.00     0.065 A 
ATOM     19  C   UNL A   1      33.434  21.622  25.340  1.00  0.00     0.012 A 
ATOM     20  C   UNL A   1      34.730  19.627  24.739  1.00  0.00     0.028 A 
ATOM     21  C   UNL A   1      32.241  20.882  25.189  1.00  0.00     0.011 A 
ATOM     22  C   UNL A   1      33.533  18.925  24.578  1.00  0.00     0.002 A 
ATOM     23  C   UNL A   1      32.308  19.533  24.824  1.00  0.00     0.001 A 
BRANCH  16  24
ATOM     24  S   UNL A   1      37.168  21.934  24.666  1.00  0.00     0.268 S 
ATOM     25  O   UNL A   1      37.086  22.744  23.501  1.00  0.00    -0.201 OA
ATOM     26  O   UNL A   1      37.585  20.520  24.604  1.00  0.00    -0.201 OA
BRANCH  24  27
ATOM     27  C   UNL A   1      38.260  22.722  25.834  1.00  0.00     0.088 A 
ATOM     28  C   UNL A   1      41.277  24.528  28.299  1.00  0.00     0.044 C 
ATOM     29  C   UNL A   1      40.188  23.885  27.496  1.00  0.00    -0.051 A 
ATOM     30  C   UNL A   1      40.236  22.516  27.202  1.00  0.00     0.005 A 
ATOM     31  C   UNL A   1      39.134  24.654  27.001  1.00  0.00     0.005 A 
ATOM     32  C   UNL A   1      39.275  21.934  26.375  1.00  0.00     0.022 A 
ATOM     33  C   UNL A   1      38.173  24.076  26.175  1.00  0.00     0.022 A 
ENDBRANCH  24  27
ENDBRANCH  16  24
ENDBRANCH  13  15
ENDBRANCH  10  13
ENDBRANCH   8   9
ENDBRANCH   6   8
ENDBRANCH   5   6
ENDBRANCH   4   5
ENDBRANCH   3   4
ENDBRANCH   2   3
ENDBRANCH   1   2
BRANCH   1  34
ATOM     34  C   UNL A   1      31.834  31.629  26.900  1.00  0.00     0.188 C 
BRANCH  34  35
ATOM     35  O   UNL A   1      32.207  33.004  26.952  1.00  0.00    -0.376 OA
BRANCH  35  36
ATOM     36  C   UNL A   1      32.971  33.440  28.073  1.00  0.00     0.202 C 
BRANCH  36  37
ATOM     37  C   UNL A   1      34.385  34.012  27.802  1.00  0.00     0.261 C 
BRANCH  37  38
ATOM     38  O   UNL A   1      35.400  32.993  27.736  1.00  0.00    -0.460 OA
BRANCH  38  39
ATOM     39  C   UNL A   1      35.784  32.437  28.930  1.00  0.00     0.338 C 
ATOM     40  O   UNL A   1      35.040  32.159  29.852  1.00  0.00    -0.246 OA
BRANCH  39  41
ATOM     41  C   UNL A   1      37.269  32.594  28.992  1.00  0.00     0.060 A 
ATOM     42  C   UNL A   1      38.088  31.586  29.465  1.00  0.00     0.016 A 
ATOM     43  C   UNL A   1      37.818  33.840  28.963  1.00  0.00     0.016 A 
ATOM     44  C   UNL A   1      39.284  31.895  30.186  1.00  0.00     0.010 A 
ATOM     45  C   UNL A   1      38.873  34.091  29.864  1.00  0.00     0.010 A 
ATOM     46  C   UNL A   1      39.572  33.168  30.670  1.00  0.00    -0.014 A 
BRANCH  46  47
ATOM     47  C   UNL A   1      40.417  33.414  32.083  1.00  0.00     0.031 A 
ATOM     48  C   UNL A   1      40.061  34.145  33.546  1.00  0.00     0.074 A 
ATOM     49  C   UNL A   1      41.730  33.076  32.025  1.00  0.00     0.049 A 
ATOM     50  N   UNL A   1      40.660  35.184  34.106  1.00  0.00    -0.248 NA
ATOM     51  C   UNL A   1      38.981  33.745  34.469  1.00  0.00     0.031 C 
ATOM     52  C   UNL A   1      42.716  33.223  33.089  1.00  0.00     0.029 A 
ATOM     53  N   UNL A   1      42.523  32.808  30.904  1.00  0.00    -0.354 N 
ATOM     54  C   UNL A   1      40.013  35.462  35.345  1.00  0.00     0.074 A 
ATOM     55  C   UNL A   1      38.816  34.726  35.342  1.00  0.00     0.031 C 
ATOM     56  C   UNL A   1      43.902  33.466  32.503  1.00  0.00     0.029 A 
ATOM     57  C   UNL A   1      43.661  33.591  31.070  1.00  0.00     0.049 A 
ATOM     58  H   UNL A   1      42.320  32.197  30.158  1.00  0.00     0.167 HD
ATOM     59  C   UNL A   1      40.551  35.994  36.488  1.00  0.00     0.034 A 
ATOM     60  C   UNL A   1      43.991  34.651  30.268  1.00  0.00     0.034 A 
ATOM     61  C   UNL A   1      41.952  36.205  36.277  1.00  0.00     0.049 A 
ATOM     62  C   UNL A   1      44.333  35.907  31.055  1.00  0.00     0.074 A 
ATOM     63  C   UNL A   1      43.043  35.362  36.399  1.00  0.00     0.029 A 
ATOM     64  N   UNL A   1      42.321  37.245  35.463  1.00  0.00    -0.354 N 
ATOM     65  N   UNL A   1      44.135  36.065  32.336  1.00  0.00    -0.248 NA
ATOM     66  C   UNL A   1      44.896  37.104  30.433  1.00  0.00     0.031 C 
ATOM     67  C   UNL A   1      44.023  35.824  35.483  1.00  0.00     0.029 A 
ATOM     68  C   UNL A   1      43.548  36.979  34.887  1.00  0.00     0.049 A 
ATOM     69  H   UNL A   1      41.791  38.061  35.312  1.00  0.00     0.167 HD
ATOM     70  C   UNL A   1      44.381  37.373  32.675  1.00  0.00     0.074 A 
ATOM     71  C   UNL A   1      44.932  37.957  31.469  1.00  0.00     0.031 C 
ATOM     72  C   UNL A   1      44.041  37.906  33.887  1.00  0.00     0.034 A 
BRANCH  59  73
ATOM     73  C   UNL A   1      39.870  35.860  37.871  1.00  0.00     0.023 A 
ATOM     74  C   UNL A   1      39.461  37.040  38.530  1.00  0.00     0.012 A 
ATOM     75  C   UNL A   1      39.729  34.657  38.618  1.00  0.00     0.148 A 
ATOM     76  C   UNL A   1      39.068  37.053  39.879  1.00  0.00     0.002 A 
ATOM     77  C   UNL A   1      39.421  34.682  39.993  1.00  0.00     0.091 A 
ATOM     78  F   UNL A   1      39.912  33.477  38.004  1.00  0.00    -0.205 F 
ATOM     79  C   UNL A   1      39.093  35.884  40.625  1.00  0.00     0.022 A 
BRANCH  77  80
ATOM     80  S   UNL A   1      39.685  33.235  41.050  1.00  0.00     0.127 S 
ATOM     81  O   UNL A   1      40.500  32.355  40.206  1.00  0.00    -0.237 OA
ATOM     82  O   UNL A   1      40.393  33.788  42.201  1.00  0.00    -0.237 OA
ATOM     83  O   UNL A   1      38.342  32.715  41.293  1.00  0.00    -0.744 OA
ENDBRANCH  77  80
ENDBRANCH  59  73
BRANCH  60  84
ATOM     84  C   UNL A   1      43.483  34.669  28.843  1.00  0.00     0.023 A 
ATOM     85  C   UNL A   1      42.514  35.644  28.492  1.00  0.00     0.012 A 
ATOM     86  C   UNL A   1      44.058  33.918  27.791  1.00  0.00     0.148 A 
ATOM     87  C   UNL A   1      42.169  35.898  27.158  1.00  0.00     0.002 A 
ATOM     88  C   UNL A   1      43.738  34.204  26.454  1.00  0.00     0.091 A 
ATOM     89  F   UNL A   1      44.981  32.994  28.085  1.00  0.00    -0.205 F 
ATOM     90  C   UNL A   1      42.786  35.183  26.139  1.00  0.00     0.022 A 
BRANCH  88  91
ATOM     91  S   UNL A   1      44.712  33.533  25.086  1.00  0.00     0.127 S 
ATOM     92  O   UNL A   1      45.756  34.546  24.912  1.00  0.00    -0.237 OA
ATOM     93  O   UNL A   1      45.204  32.256  25.582  1.00  0.00    -0.237 OA
ATOM     94  O   UNL A   1      43.722  33.484  24.016  1.00  0.00    -0.744 OA
ENDBRANCH  88  91
ENDBRANCH  60  84
BRANCH  72  95
ATOM     95  C   UNL A   1      44.027  39.383  34.224  1.00  0.00     0.023 A 
ATOM     96  C   UNL A   1      43.125  40.276  33.624  1.00  0.00     0.012 A 
ATOM     97  C   UNL A   1      44.769  39.866  35.336  1.00  0.00     0.148 A 
ATOM     98  C   UNL A   1      43.004  41.600  34.062  1.00  0.00     0.002 A 
ATOM     99  C   UNL A   1      44.541  41.138  35.851  1.00  0.00     0.091 A 
ATOM    100  F   UNL A   1      45.687  39.081  35.922  1.00  0.00    -0.205 F 
ATOM    101  C   UNL A   1      43.689  42.025  35.193  1.00  0.00     0.022 A 
BRANCH  99 102
ATOM    102  S   UNL A   1      45.176  41.565  37.480  1.00  0.00     0.127 S 
ATOM    103  O   UNL A   1      46.621  41.534  37.275  1.00  0.00    -0.237 OA
ATOM    104  O   UNL A   1      44.625  42.902  37.707  1.00  0.00    -0.237 OA
ATOM    105  O   UNL A   1      44.620  40.537  38.352  1.00  0.00    -0.744 OA
ENDBRANCH  99 102
ENDBRANCH  72  95
ENDBRANCH  46  47
ENDBRANCH  39  41
ENDBRANCH  38  39
ENDBRANCH  37  38
ENDBRANCH  36  37
ENDBRANCH  35  36
ENDBRANCH  34  35
ENDBRANCH   1  34
TORSDOF 25
ENDMDL
MODEL 2
REMARK VINA RESULT:     -10.7      3.825      5.713
REMARK SMILES Cc1ccc(S(=O)(=O)n2cc(C(=O)C(=O)NCC(=O)OCCOCCOCCOC(=O)c3ccc(-c4c5nc(c(-c6cccc(S(=O)(=O)[O-])c6F)c6ccc([nH]6)c(-c6cccc(S(=O)(=O)[O-])c6F)c6nc(c(-c7cccc(S(=O)(=O)[O-])c7F)c7ccc4[nH]7)C=C6)C=C5)cc3)c3ccccc32)cc1
REMARK SMILES IDX 24 1 23 2 22 3 21 4 20 5 18 6 19 7 17 8 16 9 14 10 15 11
REMARK SMILES IDX 12 13 13 14 11 15 9 16 10 17 100 18 95 19 99 20 96 21 98 22
REMARK SMILES IDX 97 23 6 24 7 25 8 26 5 27 1 28 2 29 3 30 102 31 4 32 101 33
REMARK SMILES IDX 25 34 26 35 27 36 28 37 29 38 30 39 31 40 32 41 33 42 94 43
REMARK SMILES IDX 34 44 93 45 35 46 36 47 37 48 87 49 38 50 92 51 86 52 88 53
REMARK SMILES IDX 39 54 91 55 85 56 84 57 40 59 72 60 52 61 71 62 53 63 56 64
REMARK SMILES IDX 70 65 89 66 54 67 55 68 69 70 90 71 57 72 41 73 42 74 50 75
REMARK SMILES IDX 43 76 45 77 51 78 44 79 46 80 47 81 48 82 49 83 73 84 74 85
REMARK SMILES IDX 82 86 75 87 77 88 83 89 76 90 78 91 79 92 80 93 81 94 58 95
REMARK SMILES IDX 59 96 67 97 60 98 62 99 68 100 61 101 63 102 64 103 65 104
REMARK SMILES IDX 66 105
REMARK H PARENT 16 12 88 58 56 69
REMARK Flexibility Score: inf
ROOT
ATOM      1  C   UNL A   1      31.265  26.843  24.637  1.00  0.00     0.188 C 
ENDROOT
BRANCH   1   2
ATOM      2  O   UNL A   1      32.364  26.641  25.526  1.00  0.00    -0.376 OA
BRANCH   2   3
ATOM      3  C   UNL A   1      32.409  25.227  25.882  1.00  0.00     0.202 C 
BRANCH   3   4
ATOM      4  C   UNL A   1      31.691  24.379  24.745  1.00  0.00     0.261 C 
BRANCH   4   5
ATOM      5  O   UNL A   1      32.012  22.945  24.202  1.00  0.00    -0.462 OA
BRANCH   5   6
ATOM      6  C   UNL A   1      32.466  21.721  24.627  1.00  0.00     0.325 C 
ATOM      7  O   UNL A   1      31.858  20.768  25.079  1.00  0.00    -0.250 OA
BRANCH   6   8
ATOM      8  C   UNL A   1      33.909  21.464  24.596  1.00  0.00     0.239 C 
BRANCH   8   9
ATOM      9  N   UNL A   1      34.663  22.267  23.685  1.00  0.00    -0.338 N 
ATOM     10  C   UNL A   1      35.983  22.506  23.974  1.00  0.00     0.292 C 
ATOM     11  O   UNL A   1      36.751  23.072  23.212  1.00  0.00    -0.265 OA
ATOM     12  H   UNL A   1      34.247  22.638  22.874  1.00  0.00     0.164 HD
BRANCH  10  13
ATOM     13  C   UNL A   1      36.397  22.079  25.403  1.00  0.00     0.252 C 
ATOM     14  O   UNL A   1      35.533  21.821  26.230  1.00  0.00    -0.283 OA
BRANCH  13  15
ATOM     15  C   UNL A   1      37.821  22.133  25.705  1.00  0.00     0.054 A 
ATOM     16  N   UNL A   1      39.869  21.353  25.978  1.00  0.00    -0.240 N 
ATOM     17  C   UNL A   1      38.710  21.171  25.278  1.00  0.00     0.117 A 
ATOM     18  C   UNL A   1      39.859  22.564  26.641  1.00  0.00     0.065 A 
ATOM     19  C   UNL A   1      38.584  23.113  26.421  1.00  0.00     0.012 A 
ATOM     20  C   UNL A   1      40.811  23.205  27.448  1.00  0.00     0.028 A 
ATOM     21  C   UNL A   1      38.301  24.395  26.944  1.00  0.00     0.011 A 
ATOM     22  C   UNL A   1      40.496  24.462  27.968  1.00  0.00     0.002 A 
ATOM     23  C   UNL A   1      39.270  25.061  27.700  1.00  0.00     0.001 A 
BRANCH  16  24
ATOM     24  S   UNL A   1      40.755  19.987  26.491  1.00  0.00     0.268 S 
ATOM     25  O   UNL A   1      40.293  18.847  25.780  1.00  0.00    -0.201 OA
ATOM     26  O   UNL A   1      40.725  20.052  27.965  1.00  0.00    -0.201 OA
BRANCH  24  27
ATOM     27  C   UNL A   1      42.443  20.311  26.016  1.00  0.00     0.088 A 
ATOM     28  C   UNL A   1      46.364  20.943  24.385  1.00  0.00     0.044 C 
ATOM     29  C   UNL A   1      45.025  20.713  25.016  1.00  0.00    -0.051 A 
ATOM     30  C   UNL A   1      44.473  19.427  25.060  1.00  0.00     0.005 A 
ATOM     31  C   UNL A   1      44.299  21.787  25.532  1.00  0.00     0.005 A 
ATOM     32  C   UNL A   1      43.187  19.223  25.560  1.00  0.00     0.022 A 
ATOM     33  C   UNL A   1      43.013  21.588  26.031  1.00  0.00     0.022 A 
ENDBRANCH  24  27
ENDBRANCH  16  24
ENDBRANCH  13  15
ENDBRANCH  10  13
ENDBRANCH   8   9
ENDBRANCH   6   8
ENDBRANCH   5   6
ENDBRANCH   4   5
ENDBRANCH   3   4
ENDBRANCH   2   3
ENDBRANCH   1   2
BRANCH   1  34
ATOM     34  C   UNL A   1      31.003  28.278  24.199  1.00  0.00     0.188 C 
BRANCH  34  35
ATOM     35  O   UNL A   1      31.921  29.295  24.593  1.00  0.00    -0.376 OA
BRANCH  35  36
ATOM     36  C   UNL A   1      31.570  30.107  25.710  1.00  0.00     0.202 C 
BRANCH  36  37
ATOM     37  C   UNL A   1      32.520  30.099  26.933  1.00  0.00     0.261 C 
BRANCH  37  38
ATOM     38  O   UNL A   1      33.685  30.923  26.746  1.00  0.00    -0.460 OA
BRANCH  38  39
ATOM     39  C   UNL A   1      34.169  31.558  27.862  1.00  0.00     0.338 C 
ATOM     40  O   UNL A   1      33.734  32.593  28.330  1.00  0.00    -0.246 OA
BRANCH  39  41
ATOM     41  C   UNL A   1      35.504  30.943  28.133  1.00  0.00     0.060 A 
ATOM     42  C   UNL A   1      35.630  29.749  28.817  1.00  0.00     0.016 A 
ATOM     43  C   UNL A   1      36.626  31.712  28.069  1.00  0.00     0.016 A 
ATOM     44  C   UNL A   1      36.748  29.515  29.678  1.00  0.00     0.010 A 
ATOM     45  C   UNL A   1      37.581  31.530  29.092  1.00  0.00     0.010 A 
ATOM     46  C   UNL A   1      37.623  30.522  30.078  1.00  0.00    -0.014 A 
BRANCH  46  47
ATOM     47  C   UNL A   1      38.355  30.524  31.572  1.00  0.00     0.031 A 
ATOM     48  C   UNL A   1      38.638  31.694  32.734  1.00  0.00     0.074 A 
ATOM     49  C   UNL A   1      38.989  29.368  31.895  1.00  0.00     0.049 A 
ATOM     50  N   UNL A   1      39.802  32.115  33.202  1.00  0.00    -0.248 NA
ATOM     51  C   UNL A   1      37.604  32.480  33.436  1.00  0.00     0.031 C 
ATOM     52  C   UNL A   1      39.748  29.100  33.111  1.00  0.00     0.029 A 
ATOM     53  N   UNL A   1      39.339  28.293  31.070  1.00  0.00    -0.354 N 
ATOM     54  C   UNL A   1      39.557  33.131  34.172  1.00  0.00     0.074 A 
ATOM     55  C   UNL A   1      38.207  33.495  34.032  1.00  0.00     0.031 C 
ATOM     56  C   UNL A   1      40.733  28.243  32.786  1.00  0.00     0.029 A 
ATOM     57  C   UNL A   1      40.682  28.050  31.342  1.00  0.00     0.049 A 
ATOM     58  H   UNL A   1      38.760  27.813  30.434  1.00  0.00     0.167 HD
ATOM     59  C   UNL A   1      40.298  33.448  35.280  1.00  0.00     0.034 A 
ATOM     60  C   UNL A   1      41.697  28.253  30.446  1.00  0.00     0.034 A 
ATOM     61  C   UNL A   1      41.399  32.536  35.370  1.00  0.00     0.049 A 
ATOM     62  C   UNL A   1      42.846  29.063  31.026  1.00  0.00     0.074 A 
ATOM     63  C   UNL A   1      41.508  31.268  35.911  1.00  0.00     0.029 A 
ATOM     64  N   UNL A   1      42.427  32.695  34.476  1.00  0.00    -0.354 N 
ATOM     65  N   UNL A   1      42.815  29.699  32.166  1.00  0.00    -0.248 NA
ATOM     66  C   UNL A   1      44.119  29.245  30.329  1.00  0.00     0.031 C 
ATOM     67  C   UNL A   1      42.521  30.595  35.180  1.00  0.00     0.029 A 
ATOM     68  C   UNL A   1      43.064  31.486  34.271  1.00  0.00     0.049 A 
ATOM     69  H   UNL A   1      42.676  33.544  34.044  1.00  0.00     0.167 HD
ATOM     70  C   UNL A   1      43.943  30.471  32.287  1.00  0.00     0.074 A 
ATOM     71  C   UNL A   1      44.761  30.088  31.153  1.00  0.00     0.031 C 
ATOM     72  C   UNL A   1      44.093  31.427  33.252  1.00  0.00     0.034 A 
BRANCH  59  73
ATOM     73  C   UNL A   1      39.723  34.267  36.461  1.00  0.00     0.023 A 
ATOM     74  C   UNL A   1      40.072  35.631  36.558  1.00  0.00     0.012 A 
ATOM     75  C   UNL A   1      38.972  33.744  37.550  1.00  0.00     0.148 A 
ATOM     76  C   UNL A   1      39.816  36.395  37.710  1.00  0.00     0.002 A 
ATOM     77  C   UNL A   1      38.795  34.482  38.737  1.00  0.00     0.091 A 
ATOM     78  F   UNL A   1      38.438  32.516  37.450  1.00  0.00    -0.205 F 
ATOM     79  C   UNL A   1      39.221  35.810  38.818  1.00  0.00     0.022 A 
BRANCH  77  80
ATOM     80  S   UNL A   1      38.257  33.690  40.276  1.00  0.00     0.127 S 
ATOM     81  O   UNL A   1      37.015  33.015  39.881  1.00  0.00    -0.237 OA
ATOM     82  O   UNL A   1      39.360  32.785  40.587  1.00  0.00    -0.237 OA
ATOM     83  O   UNL A   1      38.039  34.801  41.197  1.00  0.00    -0.744 OA
ENDBRANCH  77  80
ENDBRANCH  59  73
BRANCH  60  84
ATOM     84  C   UNL A   1      41.387  28.180  28.967  1.00  0.00     0.023 A 
ATOM     85  C   UNL A   1      40.441  29.094  28.437  1.00  0.00     0.012 A 
ATOM     86  C   UNL A   1      42.126  27.404  28.044  1.00  0.00     0.148 A 
ATOM     87  C   UNL A   1      40.271  29.268  27.057  1.00  0.00     0.002 A 
ATOM     88  C   UNL A   1      41.980  27.611  26.662  1.00  0.00     0.091 A 
ATOM     89  F   UNL A   1      43.033  26.535  28.507  1.00  0.00    -0.205 F 
ATOM     90  C   UNL A   1      41.046  28.532  26.170  1.00  0.00     0.022 A 
BRANCH  88  91
ATOM     91  S   UNL A   1      43.155  26.916  25.475  1.00  0.00     0.127 S 
ATOM     92  O   UNL A   1      42.979  27.785  24.309  1.00  0.00    -0.237 OA
ATOM     93  O   UNL A   1      44.450  27.050  26.124  1.00  0.00    -0.237 OA
ATOM     94  O   UNL A   1      42.641  25.561  25.311  1.00  0.00    -0.744 OA
ENDBRANCH  88  91
ENDBRANCH  60  84
BRANCH  72  95
ATOM     95  C   UNL A   1      45.173  32.491  33.276  1.00  0.00     0.023 A 
ATOM     96  C   UNL A   1      46.008  32.680  34.389  1.00  0.00     0.012 A 
ATOM     97  C   UNL A   1      45.529  33.169  32.080  1.00  0.00     0.148 A 
ATOM     98  C   UNL A   1      47.107  33.544  34.342  1.00  0.00     0.002 A 
ATOM     99  C   UNL A   1      46.700  33.916  32.002  1.00  0.00     0.091 A 
ATOM    100  F   UNL A   1      44.744  33.075  30.994  1.00  0.00    -0.205 F 
ATOM    101  C   UNL A   1      47.472  34.141  33.142  1.00  0.00     0.022 A 
BRANCH  99 102
ATOM    102  S   UNL A   1      47.334  34.411  30.392  1.00  0.00     0.127 S 
ATOM    103  O   UNL A   1      47.503  33.131  29.711  1.00  0.00    -0.237 OA
ATOM    104  O   UNL A   1      46.256  35.245  29.857  1.00  0.00    -0.237 OA
ATOM    105  O   UNL A   1      48.553  35.147  30.708  1.00  0.00    -0.744 OA
ENDBRANCH  99 102
ENDBRANCH  72  95
ENDBRANCH  46  47
ENDBRANCH  39  41
ENDBRANCH  38  39
ENDBRANCH  37  38
ENDBRANCH  36  37
ENDBRANCH  35  36
ENDBRANCH  34  35
ENDBRANCH   1  34
TORSDOF 25
ENDMDL
MODEL 3
REMARK VINA RESULT:     -10.6      4.637      8.312
REMARK SMILES Cc1ccc(S(=O)(=O)n2cc(C(=O)C(=O)NCC(=O)OCCOCCOCCOC(=O)c3ccc(-c4c5nc(c(-c6cccc(S(=O)(=O)[O-])c6F)c6ccc([nH]6)c(-c6cccc(S(=O)(=O)[O-])c6F)c6nc(c(-c7cccc(S(=O)(=O)[O-])c7F)c7ccc4[nH]7)C=C6)C=C5)cc3)c3ccccc32)cc1
REMARK SMILES IDX 24 1 23 2 22 3 21 4 20 5 18 6 19 7 17 8 16 9 14 10 15 11
REMARK SMILES IDX 12 13 13 14 11 15 9 16 10 17 100 18 95 19 99 20 96 21 98 22
REMARK SMILES IDX 97 23 6 24 7 25 8 26 5 27 1 28 2 29 3 30 102 31 4 32 101 33
REMARK SMILES IDX 25 34 26 35 27 36 28 37 29 38 30 39 31 40 32 41 33 42 94 43
REMARK SMILES IDX 34 44 93 45 35 46 36 47 37 48 87 49 38 50 92 51 86 52 88 53
REMARK SMILES IDX 39 54 91 55 85 56 84 57 40 59 72 60 52 61 71 62 53 63 56 64
REMARK SMILES IDX 70 65 89 66 54 67 55 68 69 70 90 71 57 72 41 73 42 74 50 75
REMARK SMILES IDX 43 76 45 77 51 78 44 79 46 80 47 81 48 82 49 83 73 84 74 85
REMARK SMILES IDX 82 86 75 87 77 88 83 89 76 90 78 91 79 92 80 93 81 94 58 95
REMARK SMILES IDX 59 96 67 97 60 98 62 99 68 100 61 101 63 102 64 103 65 104
REMARK SMILES IDX 66 105
REMARK H PARENT 16 12 88 58 56 69
REMARK Flexibility Score: inf
ROOT
ATOM      1  C   UNL A   1      45.395  20.737  24.547  1.00  0.00     0.188 C 
ENDROOT
BRANCH   1   2
ATOM      2  O   UNL A   1      44.191  19.971  24.519  1.00  0.00    -0.376 OA
BRANCH   2   3
ATOM      3  C   UNL A   1      44.454  18.683  25.151  1.00  0.00     0.202 C 
BRANCH   3   4
ATOM      4  C   UNL A   1      43.205  18.276  26.047  1.00  0.00     0.261 C 
BRANCH   4   5
ATOM      5  O   UNL A   1      41.745  18.844  26.059  1.00  0.00    -0.462 OA
BRANCH   5   6
ATOM      6  C   UNL A   1      40.985  19.817  26.660  1.00  0.00     0.325 C 
ATOM      7  O   UNL A   1      41.168  20.434  27.693  1.00  0.00    -0.250 OA
BRANCH   6   8
ATOM      8  C   UNL A   1      39.717  20.197  26.032  1.00  0.00     0.239 C 
BRANCH   8   9
ATOM      9  N   UNL A   1      39.349  21.573  26.160  1.00  0.00    -0.338 N 
ATOM     10  C   UNL A   1      38.098  21.950  25.740  1.00  0.00     0.292 C 
ATOM     11  O   UNL A   1      37.634  23.066  25.914  1.00  0.00    -0.265 OA
ATOM     12  H   UNL A   1      39.976  22.231  26.540  1.00  0.00     0.164 HD
BRANCH  10  13
ATOM     13  C   UNL A   1      37.355  20.858  24.933  1.00  0.00     0.252 C 
ATOM     14  O   UNL A   1      37.999  20.005  24.338  1.00  0.00    -0.283 OA
BRANCH  13  15
ATOM     15  C   UNL A   1      35.908  20.999  24.838  1.00  0.00     0.054 A 
ATOM     16  N   UNL A   1      33.951  22.005  25.016  1.00  0.00    -0.240 N 
ATOM     17  C   UNL A   1      35.280  22.224  24.792  1.00  0.00     0.117 A 
ATOM     18  C   UNL A   1      33.652  20.659  24.932  1.00  0.00     0.065 A 
ATOM     19  C   UNL A   1      34.881  20.002  24.747  1.00  0.00     0.012 A 
ATOM     20  C   UNL A   1      32.446  19.952  25.051  1.00  0.00     0.028 A 
ATOM     21  C   UNL A   1      34.879  18.601  24.570  1.00  0.00     0.011 A 
ATOM     22  C   UNL A   1      32.477  18.565  24.893  1.00  0.00     0.002 A 
ATOM     23  C   UNL A   1      33.669  17.900  24.631  1.00  0.00     0.001 A 
BRANCH  16  24
ATOM     24  S   UNL A   1      33.069  23.125  25.956  1.00  0.00     0.268 S 
ATOM     25  O   UNL A   1      33.974  23.838  26.788  1.00  0.00    -0.201 OA
ATOM     26  O   UNL A   1      31.946  22.346  26.512  1.00  0.00    -0.201 OA
BRANCH  24  27
ATOM     27  C   UNL A   1      32.352  24.264  24.786  1.00  0.00     0.088 A 
ATOM     28  C   UNL A   1      30.778  27.389  22.297  1.00  0.00     0.044 C 
ATOM     29  C   UNL A   1      31.281  26.255  23.137  1.00  0.00    -0.051 A 
ATOM     30  C   UNL A   1      30.748  26.026  24.413  1.00  0.00     0.005 A 
ATOM     31  C   UNL A   1      32.313  25.440  22.671  1.00  0.00     0.005 A 
ATOM     32  C   UNL A   1      31.279  25.033  25.236  1.00  0.00     0.022 A 
ATOM     33  C   UNL A   1      32.846  24.447  23.491  1.00  0.00     0.022 A 
ENDBRANCH  24  27
ENDBRANCH  16  24
ENDBRANCH  13  15
ENDBRANCH  10  13
ENDBRANCH   8   9
ENDBRANCH   6   8
ENDBRANCH   5   6
ENDBRANCH   4   5
ENDBRANCH   3   4
ENDBRANCH   2   3
ENDBRANCH   1   2
BRANCH   1  34
ATOM     34  C   UNL A   1      45.409  21.943  25.478  1.00  0.00     0.188 C 
BRANCH  34  35
ATOM     35  O   UNL A   1      44.984  23.206  24.974  1.00  0.00    -0.376 OA
BRANCH  35  36
ATOM     36  C   UNL A   1      43.600  23.369  24.679  1.00  0.00     0.202 C 
BRANCH  36  37
ATOM     37  C   UNL A   1      42.575  22.849  25.717  1.00  0.00     0.261 C 
BRANCH  37  38
ATOM     38  O   UNL A   1      41.552  23.813  26.029  1.00  0.00    -0.460 OA
BRANCH  38  39
ATOM     39  C   UNL A   1      41.369  24.099  27.359  1.00  0.00     0.338 C 
ATOM     40  O   UNL A   1      40.360  23.869  27.999  1.00  0.00    -0.246 OA
BRANCH  39  41
ATOM     41  C   UNL A   1      42.468  25.044  27.726  1.00  0.00     0.060 A 
ATOM     42  C   UNL A   1      43.041  25.040  28.983  1.00  0.00     0.016 A 
ATOM     43  C   UNL A   1      42.662  26.172  26.988  1.00  0.00     0.016 A 
ATOM     44  C   UNL A   1      43.498  26.256  29.581  1.00  0.00     0.010 A 
ATOM     45  C   UNL A   1      42.914  27.362  27.702  1.00  0.00     0.010 A 
ATOM     46  C   UNL A   1      43.181  27.515  29.079  1.00  0.00    -0.014 A 
BRANCH  46  47
ATOM     47  C   UNL A   1      42.971  28.841  30.063  1.00  0.00     0.031 A 
ATOM     48  C   UNL A   1      41.730  29.940  30.295  1.00  0.00     0.074 A 
ATOM     49  C   UNL A   1      44.079  29.220  30.749  1.00  0.00     0.049 A 
ATOM     50  N   UNL A   1      41.758  31.251  30.113  1.00  0.00    -0.248 NA
ATOM     51  C   UNL A   1      40.361  29.614  30.739  1.00  0.00     0.031 C 
ATOM     52  C   UNL A   1      44.200  30.363  31.646  1.00  0.00     0.029 A 
ATOM     53  N   UNL A   1      45.410  28.836  30.555  1.00  0.00    -0.354 N 
ATOM     54  C   UNL A   1      40.469  31.775  30.424  1.00  0.00     0.074 A 
ATOM     55  C   UNL A   1      39.602  30.672  30.507  1.00  0.00     0.031 C 
ATOM     56  C   UNL A   1      45.466  30.808  31.555  1.00  0.00     0.029 A 
ATOM     57  C   UNL A   1      46.128  30.028  30.517  1.00  0.00     0.049 A 
ATOM     58  H   UNL A   1      45.763  27.921  30.466  1.00  0.00     0.167 HD
ATOM     59  C   UNL A   1      40.149  33.007  30.931  1.00  0.00     0.034 A 
ATOM     60  C   UNL A   1      46.762  30.508  29.402  1.00  0.00     0.034 A 
ATOM     61  C   UNL A   1      41.362  33.732  31.168  1.00  0.00     0.049 A 
ATOM     62  C   UNL A   1      46.427  31.962  29.109  1.00  0.00     0.074 A 
ATOM     63  C   UNL A   1      42.237  33.745  32.239  1.00  0.00     0.029 A 
ATOM     64  N   UNL A   1      42.037  34.212  30.075  1.00  0.00    -0.354 N 
ATOM     65  N   UNL A   1      45.481  32.646  29.695  1.00  0.00    -0.248 NA
ATOM     66  C   UNL A   1      47.124  32.748  28.092  1.00  0.00     0.031 C 
ATOM     67  C   UNL A   1      43.517  34.069  31.719  1.00  0.00     0.029 A 
ATOM     68  C   UNL A   1      43.382  34.328  30.366  1.00  0.00     0.049 A 
ATOM     69  H   UNL A   1      41.624  34.440  29.210  1.00  0.00     0.167 HD
ATOM     70  C   UNL A   1      45.335  33.855  29.061  1.00  0.00     0.074 A 
ATOM     71  C   UNL A   1      46.438  33.901  28.122  1.00  0.00     0.031 C 
ATOM     72  C   UNL A   1      44.279  34.692  29.287  1.00  0.00     0.034 A 
BRANCH  59  73
ATOM     73  C   UNL A   1      38.790  33.303  31.609  1.00  0.00     0.023 A 
ATOM     74  C   UNL A   1      38.693  33.140  33.007  1.00  0.00     0.012 A 
ATOM     75  C   UNL A   1      37.570  33.602  30.938  1.00  0.00     0.148 A 
ATOM     76  C   UNL A   1      37.461  33.136  33.683  1.00  0.00     0.002 A 
ATOM     77  C   UNL A   1      36.330  33.510  31.600  1.00  0.00     0.091 A 
ATOM     78  F   UNL A   1      37.604  33.960  29.644  1.00  0.00    -0.205 F 
ATOM     79  C   UNL A   1      36.275  33.273  32.975  1.00  0.00     0.022 A 
BRANCH  77  80
ATOM     80  S   UNL A   1      34.769  33.432  30.683  1.00  0.00     0.127 S 
ATOM     81  O   UNL A   1      33.761  33.574  31.738  1.00  0.00    -0.237 OA
ATOM     82  O   UNL A   1      34.858  34.574  29.778  1.00  0.00    -0.237 OA
ATOM     83  O   UNL A   1      34.777  32.106  30.070  1.00  0.00    -0.744 OA
ENDBRANCH  77  80
ENDBRANCH  59  73
BRANCH  60  84
ATOM     84  C   UNL A   1      47.220  29.526  28.346  1.00  0.00     0.023 A 
ATOM     85  C   UNL A   1      48.282  28.644  28.670  1.00  0.00     0.012 A 
ATOM     86  C   UNL A   1      46.527  29.290  27.136  1.00  0.00     0.148 A 
ATOM     87  C   UNL A   1      48.608  27.548  27.859  1.00  0.00     0.002 A 
ATOM     88  C   UNL A   1      46.831  28.168  26.348  1.00  0.00     0.091 A 
ATOM     89  F   UNL A   1      45.513  30.098  26.801  1.00  0.00    -0.205 F 
ATOM     90  C   UNL A   1      47.878  27.306  26.702  1.00  0.00     0.022 A 
BRANCH  88  91
ATOM     91  S   UNL A   1      45.740  27.629  25.010  1.00  0.00     0.127 S 
ATOM     92  O   UNL A   1      46.467  28.061  23.813  1.00  0.00    -0.237 OA
ATOM     93  O   UNL A   1      45.660  26.184  25.165  1.00  0.00    -0.237 OA
ATOM     94  O   UNL A   1      44.527  28.387  25.296  1.00  0.00    -0.744 OA
ENDBRANCH  88  91
ENDBRANCH  60  84
BRANCH  72  95
ATOM     95  C   UNL A   1      43.911  35.892  28.436  1.00  0.00     0.023 A 
ATOM     96  C   UNL A   1      43.142  35.768  27.267  1.00  0.00     0.012 A 
ATOM     97  C   UNL A   1      44.131  37.207  28.927  1.00  0.00     0.148 A 
ATOM     98  C   UNL A   1      42.665  36.891  26.582  1.00  0.00     0.002 A 
ATOM     99  C   UNL A   1      43.537  38.307  28.318  1.00  0.00     0.091 A 
ATOM    100  F   UNL A   1      44.902  37.399  30.010  1.00  0.00    -0.205 F 
ATOM    101  C   UNL A   1      42.836  38.160  27.121  1.00  0.00     0.022 A 
BRANCH  99 102
ATOM    102  S   UNL A   1      43.488  39.884  29.184  1.00  0.00     0.127 S 
ATOM    103  O   UNL A   1      44.786  40.466  28.858  1.00  0.00    -0.237 OA
ATOM    104  O   UNL A   1      42.347  40.562  28.566  1.00  0.00    -0.237 OA
ATOM    105  O   UNL A   1      43.273  39.510  30.577  1.00  0.00    -0.744 OA
ENDBRANCH  99 102
ENDBRANCH  72  95
ENDBRANCH  46  47
ENDBRANCH  39  41
ENDBRANCH  38  39
ENDBRANCH  37  38
ENDBRANCH  36  37
ENDBRANCH  35  36
ENDBRANCH  34  35
ENDBRANCH   1  34
TORSDOF 25
ENDMDL
