MODEL 1
REMARK VINA RESULT:      -7.3      0.000      0.000
REMARK SMILES COc1cccc([C@H](CC(=O)OCCOCCOCCOC(=O)c2ccc(-c3c4nc(c(-c5cccc(S(=O)(=O)[O-])c5F)c5ccc([nH]5)c(-c5cccc(S(=O)(=O)[O-])c5F)c5nc(c(-c6cccc(S(=O)(=O)[O-])c6F)c6ccc3[nH]6)C=C5)C=C4)cc2)NS(=O)(=O)c2ccc3c(c2)C[C@@H](C)N3C(C)=O)c1
REMARK SMILES IDX 16 1 15 2 14 3 13 4 12 5 10 6 11 7 9 8 8 9 7 10 3 11 4 12
REMARK SMILES IDX 104 13 5 14 6 15 2 16 1 17 87 18 88 20 89 21 90 22 91 23
REMARK SMILES IDX 92 24 96 25 93 26 95 27 94 28 97 29 100 30 98 31 99 32
REMARK SMILES IDX 101 33 102 34 103 35 17 36 18 37 19 38 20 39 21 40 22 41
REMARK SMILES IDX 23 42 24 43 25 44 86 45 26 46 85 47 27 48 28 49 29 50 79 51
REMARK SMILES IDX 30 52 84 53 78 54 80 55 31 56 83 57 77 58 76 59 32 61 64 62
REMARK SMILES IDX 44 63 63 64 45 65 48 66 62 67 81 68 46 69 47 70 61 72 82 73
REMARK SMILES IDX 49 74 33 75 34 76 42 77 35 78 37 79 43 80 36 81 38 82 39 83
REMARK SMILES IDX 40 84 41 85 65 86 66 87 74 88 67 89 69 90 75 91 68 92 70 93
REMARK SMILES IDX 71 94 72 95 73 96 50 97 51 98 59 99 52 100 54 101 60 102
REMARK SMILES IDX 53 103 55 104 56 105 57 106 58 107
REMARK H PARENT 87 19 80 60 48 71
REMARK Flexibility Score: inf
ROOT
ATOM      1  C   UNL A   1      44.695  28.432  35.746  1.00  0.00     0.188 C 
ENDROOT
BRANCH   1   2
ATOM      2  O   UNL A   1      43.438  29.035  36.018  1.00  0.00    -0.376 OA
BRANCH   2   3
ATOM      3  C   UNL A   1      42.315  28.163  36.039  1.00  0.00     0.202 C 
BRANCH   3   4
ATOM      4  C   UNL A   1      41.732  27.797  34.668  1.00  0.00     0.261 C 
BRANCH   4   5
ATOM      5  O   UNL A   1      41.447  28.952  33.835  1.00  0.00    -0.463 OA
BRANCH   5   6
ATOM      6  C   UNL A   1      40.138  29.303  33.766  1.00  0.00     0.307 C 
ATOM      7  O   UNL A   1      39.543  29.875  34.679  1.00  0.00    -0.252 OA
BRANCH   6   8
ATOM      8  C   UNL A   1      39.473  29.134  32.413  1.00  0.00     0.147 C 
BRANCH   8   9
ATOM      9  C   UNL A   1      39.600  30.075  31.189  1.00  0.00     0.111 C 
BRANCH   9  10
ATOM     10  C   UNL A   1      40.205  29.345  29.979  1.00  0.00    -0.026 A 
ATOM     11  C   UNL A   1      40.671  27.196  28.893  1.00  0.00     0.119 A 
ATOM     12  C   UNL A   1      41.646  27.798  28.115  1.00  0.00     0.046 A 
ATOM     13  C   UNL A   1      39.907  27.981  29.763  1.00  0.00     0.051 A 
ATOM     14  C   UNL A   1      41.826  29.172  28.178  1.00  0.00     0.004 A 
ATOM     15  C   UNL A   1      41.161  29.934  29.142  1.00  0.00     0.005 A 
BRANCH  11  16
ATOM     16  O   UNL A   1      40.619  25.835  28.787  1.00  0.00    -0.497 OA
ATOM     17  C   UNL A   1      41.517  25.239  27.867  1.00  0.00     0.278 C 
ENDBRANCH  11  16
ENDBRANCH   9  10
BRANCH   9  18
ATOM     18  N   UNL A   1      38.389  30.824  30.821  1.00  0.00    -0.203 NA
ATOM     19  H   UNL A   1      38.613  31.303  29.949  1.00  0.00     0.142 HD
BRANCH  18  20
ATOM     20  S   UNL A   1      36.876  30.103  30.578  1.00  0.00     0.241 S 
ATOM     21  O   UNL A   1      36.775  29.501  29.270  1.00  0.00    -0.207 OA
ATOM     22  O   UNL A   1      36.548  29.363  31.775  1.00  0.00    -0.207 OA
BRANCH  20  23
ATOM     23  C   UNL A   1      35.813  31.530  30.580  1.00  0.00     0.082 A 
ATOM     24  C   UNL A   1      35.754  32.404  29.471  1.00  0.00     0.024 A 
ATOM     25  C   UNL A   1      35.131  31.797  31.763  1.00  0.00     0.027 A 
ATOM     26  C   UNL A   1      35.153  33.659  29.596  1.00  0.00     0.028 A 
ATOM     27  C   UNL A   1      34.565  33.039  31.875  1.00  0.00    -0.021 A 
ATOM     28  C   UNL A   1      34.634  33.977  30.834  1.00  0.00     0.047 A 
ATOM     29  C   UNL A   1      33.843  33.613  33.055  1.00  0.00     0.063 C 
ATOM     30  N   UNL A   1      34.117  35.199  31.302  1.00  0.00    -0.309 N 
ATOM     31  C   UNL A   1      34.114  35.099  32.787  1.00  0.00     0.092 C 
ATOM     32  C   UNL A   1      35.503  35.479  33.348  1.00  0.00     0.032 C 
BRANCH  30  33
ATOM     33  C   UNL A   1      33.260  35.933  30.507  1.00  0.00     0.224 C 
ATOM     34  C   UNL A   1      32.974  35.283  29.172  1.00  0.00     0.115 C 
ATOM     35  O   UNL A   1      32.892  37.078  30.752  1.00  0.00    -0.275 OA
ENDBRANCH  30  33
ENDBRANCH  20  23
ENDBRANCH  18  20
ENDBRANCH   9  18
ENDBRANCH   8   9
ENDBRANCH   6   8
ENDBRANCH   5   6
ENDBRANCH   4   5
ENDBRANCH   3   4
ENDBRANCH   2   3
ENDBRANCH   1   2
BRANCH   1  36
ATOM     36  C   UNL A   1      45.481  29.054  34.592  1.00  0.00     0.188 C 
BRANCH  36  37
ATOM     37  O   UNL A   1      45.944  28.203  33.547  1.00  0.00    -0.376 OA
BRANCH  37  38
ATOM     38  C   UNL A   1      45.013  27.211  33.089  1.00  0.00     0.202 C 
BRANCH  38  39
ATOM     39  C   UNL A   1      44.457  27.194  31.643  1.00  0.00     0.261 C 
BRANCH  39  40
ATOM     40  O   UNL A   1      45.053  26.257  30.739  1.00  0.00    -0.460 OA
BRANCH  40  41
ATOM     41  C   UNL A   1      46.323  26.557  30.370  1.00  0.00     0.338 C 
ATOM     42  O   UNL A   1      47.266  25.789  30.317  1.00  0.00    -0.246 OA
BRANCH  41  43
ATOM     43  C   UNL A   1      46.347  27.915  29.784  1.00  0.00     0.060 A 
ATOM     44  C   UNL A   1      47.132  28.864  30.442  1.00  0.00     0.016 A 
ATOM     45  C   UNL A   1      45.645  28.272  28.632  1.00  0.00     0.016 A 
ATOM     46  C   UNL A   1      47.249  30.152  29.937  1.00  0.00     0.010 A 
ATOM     47  C   UNL A   1      45.703  29.601  28.174  1.00  0.00     0.010 A 
ATOM     48  C   UNL A   1      46.492  30.556  28.839  1.00  0.00    -0.014 A 
BRANCH  48  49
ATOM     49  C   UNL A   1      46.365  32.018  28.599  1.00  0.00     0.031 A 
ATOM     50  C   UNL A   1      45.098  32.699  29.037  1.00  0.00     0.074 A 
ATOM     51  C   UNL A   1      47.389  32.769  28.143  1.00  0.00     0.049 A 
ATOM     52  N   UNL A   1      44.698  33.925  28.826  1.00  0.00    -0.248 NA
ATOM     53  C   UNL A   1      44.160  31.887  29.831  1.00  0.00     0.031 C 
ATOM     54  C   UNL A   1      48.725  32.275  27.815  1.00  0.00     0.029 A 
ATOM     55  N   UNL A   1      47.454  34.115  27.876  1.00  0.00    -0.354 N 
ATOM     56  C   UNL A   1      43.428  34.007  29.385  1.00  0.00     0.074 A 
ATOM     57  C   UNL A   1      43.137  32.717  29.973  1.00  0.00     0.031 C 
ATOM     58  C   UNL A   1      49.470  33.299  27.365  1.00  0.00     0.029 A 
ATOM     59  C   UNL A   1      48.645  34.505  27.308  1.00  0.00     0.049 A 
ATOM     60  H   UNL A   1      46.720  34.741  28.073  1.00  0.00     0.167 HD
ATOM     61  C   UNL A   1      42.579  35.060  29.405  1.00  0.00     0.034 A 
ATOM     62  C   UNL A   1      49.007  35.679  26.748  1.00  0.00     0.034 A 
ATOM     63  C   UNL A   1      42.894  36.360  28.881  1.00  0.00     0.049 A 
ATOM     64  C   UNL A   1      48.026  36.823  26.725  1.00  0.00     0.074 A 
ATOM     65  C   UNL A   1      42.096  37.491  28.856  1.00  0.00     0.029 A 
ATOM     66  N   UNL A   1      44.101  36.708  28.299  1.00  0.00    -0.354 N 
ATOM     67  N   UNL A   1      46.819  36.887  27.233  1.00  0.00    -0.248 NA
ATOM     68  C   UNL A   1      48.459  38.063  26.061  1.00  0.00     0.031 C 
ATOM     69  C   UNL A   1      42.812  38.515  28.230  1.00  0.00     0.029 A 
ATOM     70  C   UNL A   1      44.070  38.034  27.903  1.00  0.00     0.049 A 
ATOM     71  H   UNL A   1      44.868  36.102  28.183  1.00  0.00     0.167 HD
ATOM     72  C   UNL A   1      46.360  38.175  26.973  1.00  0.00     0.074 A 
ATOM     73  C   UNL A   1      47.428  38.867  26.285  1.00  0.00     0.031 C 
ATOM     74  C   UNL A   1      45.157  38.729  27.264  1.00  0.00     0.034 A 
BRANCH  61  75
ATOM     75  C   UNL A   1      41.209  34.841  29.988  1.00  0.00     0.023 A 
ATOM     76  C   UNL A   1      40.080  34.765  29.151  1.00  0.00     0.012 A 
ATOM     77  C   UNL A   1      41.057  34.660  31.377  1.00  0.00     0.148 A 
ATOM     78  C   UNL A   1      38.814  34.538  29.692  1.00  0.00     0.002 A 
ATOM     79  C   UNL A   1      39.802  34.386  31.903  1.00  0.00     0.091 A 
ATOM     80  F   UNL A   1      42.144  34.764  32.157  1.00  0.00    -0.205 F 
ATOM     81  C   UNL A   1      38.678  34.336  31.063  1.00  0.00     0.022 A 
BRANCH  79  82
ATOM     82  S   UNL A   1      39.541  34.028  33.643  1.00  0.00     0.127 S 
ATOM     83  O   UNL A   1      38.143  33.601  33.650  1.00  0.00    -0.237 OA
ATOM     84  O   UNL A   1      40.508  32.957  33.884  1.00  0.00    -0.237 OA
ATOM     85  O   UNL A   1      39.816  35.268  34.356  1.00  0.00    -0.744 OA
ENDBRANCH  79  82
ENDBRANCH  61  75
BRANCH  62  86
ATOM     86  C   UNL A   1      50.351  35.819  26.114  1.00  0.00     0.023 A 
ATOM     87  C   UNL A   1      50.522  35.532  24.746  1.00  0.00     0.012 A 
ATOM     88  C   UNL A   1      51.463  36.244  26.869  1.00  0.00     0.148 A 
ATOM     89  C   UNL A   1      51.780  35.644  24.149  1.00  0.00     0.002 A 
ATOM     90  C   UNL A   1      52.696  36.417  26.255  1.00  0.00     0.091 A 
ATOM     91  F   UNL A   1      51.288  36.481  28.177  1.00  0.00    -0.205 F 
ATOM     92  C   UNL A   1      52.862  36.099  24.898  1.00  0.00     0.022 A 
BRANCH  90  93
ATOM     93  S   UNL A   1      54.104  37.130  27.110  1.00  0.00     0.127 S 
ATOM     94  O   UNL A   1      55.190  36.248  26.690  1.00  0.00    -0.237 OA
ATOM     95  O   UNL A   1      54.149  38.477  26.539  1.00  0.00    -0.237 OA
ATOM     96  O   UNL A   1      53.768  37.089  28.527  1.00  0.00    -0.744 OA
ENDBRANCH  90  93
ENDBRANCH  62  86
BRANCH  74  97
ATOM     97  C   UNL A   1      44.934  40.172  26.887  1.00  0.00     0.023 A 
ATOM     98  C   UNL A   1      44.199  40.493  25.729  1.00  0.00     0.012 A 
ATOM     99  C   UNL A   1      45.384  41.209  27.728  1.00  0.00     0.148 A 
ATOM    100  C   UNL A   1      43.943  41.823  25.398  1.00  0.00     0.002 A 
ATOM    101  C   UNL A   1      45.084  42.530  27.419  1.00  0.00     0.091 A 
ATOM    102  F   UNL A   1      46.095  40.884  28.819  1.00  0.00    -0.205 F 
ATOM    103  C   UNL A   1      44.375  42.840  26.247  1.00  0.00     0.022 A 
BRANCH 101 104
ATOM    104  S   UNL A   1      45.514  43.897  28.502  1.00  0.00     0.127 S 
ATOM    105  O   UNL A   1      46.904  43.588  28.833  1.00  0.00    -0.237 OA
ATOM    106  O   UNL A   1      45.339  45.055  27.624  1.00  0.00    -0.237 OA
ATOM    107  O   UNL A   1      44.579  43.837  29.618  1.00  0.00    -0.744 OA
ENDBRANCH 101 104
ENDBRANCH  74  97
ENDBRANCH  48  49
ENDBRANCH  41  43
ENDBRANCH  40  41
ENDBRANCH  39  40
ENDBRANCH  38  39
ENDBRANCH  37  38
ENDBRANCH  36  37
ENDBRANCH   1  36
TORSDOF 27
ENDMDL
MODEL 2
REMARK VINA RESULT:      -7.1      7.303     13.315
REMARK SMILES COc1cccc([C@H](CC(=O)OCCOCCOCCOC(=O)c2ccc(-c3c4nc(c(-c5cccc(S(=O)(=O)[O-])c5F)c5ccc([nH]5)c(-c5cccc(S(=O)(=O)[O-])c5F)c5nc(c(-c6cccc(S(=O)(=O)[O-])c6F)c6ccc3[nH]6)C=C5)C=C4)cc2)NS(=O)(=O)c2ccc3c(c2)C[C@@H](C)N3C(C)=O)c1
REMARK SMILES IDX 16 1 15 2 14 3 13 4 12 5 10 6 11 7 9 8 8 9 7 10 3 11 4 12
REMARK SMILES IDX 104 13 5 14 6 15 2 16 1 17 87 18 88 20 89 21 90 22 91 23
REMARK SMILES IDX 92 24 96 25 93 26 95 27 94 28 97 29 100 30 98 31 99 32
REMARK SMILES IDX 101 33 102 34 103 35 17 36 18 37 19 38 20 39 21 40 22 41
REMARK SMILES IDX 23 42 24 43 25 44 86 45 26 46 85 47 27 48 28 49 29 50 79 51
REMARK SMILES IDX 30 52 84 53 78 54 80 55 31 56 83 57 77 58 76 59 32 61 64 62
REMARK SMILES IDX 44 63 63 64 45 65 48 66 62 67 81 68 46 69 47 70 61 72 82 73
REMARK SMILES IDX 49 74 33 75 34 76 42 77 35 78 37 79 43 80 36 81 38 82 39 83
REMARK SMILES IDX 40 84 41 85 65 86 66 87 74 88 67 89 69 90 75 91 68 92 70 93
REMARK SMILES IDX 71 94 72 95 73 96 50 97 51 98 59 99 52 100 54 101 60 102
REMARK SMILES IDX 53 103 55 104 56 105 57 106 58 107
REMARK H PARENT 87 19 80 60 48 71
REMARK Flexibility Score: inf
ROOT
ATOM      1  C   UNL A   1      51.872  24.612  38.553  1.00  0.00     0.188 C 
ENDROOT
BRANCH   1   2
ATOM      2  O   UNL A   1      50.475  24.819  38.706  1.00  0.00    -0.376 OA
BRANCH   2   3
ATOM      3  C   UNL A   1      50.027  25.142  40.016  1.00  0.00     0.202 C 
BRANCH   3   4
ATOM      4  C   UNL A   1      48.638  25.789  40.102  1.00  0.00     0.261 C 
BRANCH   4   5
ATOM      5  O   UNL A   1      47.727  25.339  39.065  1.00  0.00    -0.463 OA
BRANCH   5   6
ATOM      6  C   UNL A   1      46.741  24.508  39.486  1.00  0.00     0.307 C 
ATOM      7  O   UNL A   1      45.643  24.906  39.875  1.00  0.00    -0.252 OA
BRANCH   6   8
ATOM      8  C   UNL A   1      46.980  23.026  39.269  1.00  0.00     0.147 C 
BRANCH   8   9
ATOM      9  C   UNL A   1      45.988  22.002  38.661  1.00  0.00     0.111 C 
BRANCH   9  10
ATOM     10  C   UNL A   1      45.892  22.152  37.134  1.00  0.00    -0.026 A 
ATOM     11  C   UNL A   1      44.771  23.230  35.238  1.00  0.00     0.119 A 
ATOM     12  C   UNL A   1      45.231  22.230  34.395  1.00  0.00     0.046 A 
ATOM     13  C   UNL A   1      45.164  23.227  36.580  1.00  0.00     0.051 A 
ATOM     14  C   UNL A   1      46.102  21.266  34.881  1.00  0.00     0.004 A 
ATOM     15  C   UNL A   1      46.383  21.184  36.248  1.00  0.00     0.005 A 
BRANCH  11  16
ATOM     16  O   UNL A   1      43.880  24.092  34.664  1.00  0.00    -0.497 OA
ATOM     17  C   UNL A   1      43.926  25.435  35.112  1.00  0.00     0.278 C 
ENDBRANCH  11  16
ENDBRANCH   9  10
BRANCH   9  18
ATOM     18  N   UNL A   1      46.182  20.600  39.058  1.00  0.00    -0.203 NA
ATOM     19  H   UNL A   1      45.876  20.040  38.262  1.00  0.00     0.142 HD
BRANCH  18  20
ATOM     20  S   UNL A   1      47.676  19.955  39.528  1.00  0.00     0.241 S 
ATOM     21  O   UNL A   1      48.272  19.164  38.478  1.00  0.00    -0.207 OA
ATOM     22  O   UNL A   1      48.416  21.005  40.190  1.00  0.00    -0.207 OA
BRANCH  20  23
ATOM     23  C   UNL A   1      47.175  18.828  40.811  1.00  0.00     0.082 A 
ATOM     24  C   UNL A   1      47.940  17.682  41.123  1.00  0.00     0.024 A 
ATOM     25  C   UNL A   1      45.944  19.075  41.410  1.00  0.00     0.027 A 
ATOM     26  C   UNL A   1      47.394  16.665  41.910  1.00  0.00     0.028 A 
ATOM     27  C   UNL A   1      45.416  18.060  42.164  1.00  0.00    -0.021 A 
ATOM     28  C   UNL A   1      46.102  16.851  42.353  1.00  0.00     0.047 A 
ATOM     29  C   UNL A   1      44.087  18.028  42.853  1.00  0.00     0.063 C 
ATOM     30  N   UNL A   1      45.245  15.955  43.020  1.00  0.00    -0.309 N 
ATOM     31  C   UNL A   1      43.873  16.509  42.864  1.00  0.00     0.092 C 
ATOM     32  C   UNL A   1      43.272  16.065  41.510  1.00  0.00     0.032 C 
BRANCH  30  33
ATOM     33  C   UNL A   1      45.729  15.188  44.061  1.00  0.00     0.224 C 
ATOM     34  C   UNL A   1      46.281  16.006  45.206  1.00  0.00     0.115 C 
ATOM     35  O   UNL A   1      45.873  13.969  44.020  1.00  0.00    -0.275 OA
ENDBRANCH  30  33
ENDBRANCH  20  23
ENDBRANCH  18  20
ENDBRANCH   9  18
ENDBRANCH   8   9
ENDBRANCH   6   8
ENDBRANCH   5   6
ENDBRANCH   4   5
ENDBRANCH   3   4
ENDBRANCH   2   3
ENDBRANCH   1   2
BRANCH   1  36
ATOM     36  C   UNL A   1      52.289  23.173  38.248  1.00  0.00     0.188 C 
BRANCH  36  37
ATOM     37  O   UNL A   1      51.599  22.469  37.220  1.00  0.00    -0.376 OA
BRANCH  37  38
ATOM     38  C   UNL A   1      52.209  22.503  35.920  1.00  0.00     0.202 C 
BRANCH  38  39
ATOM     39  C   UNL A   1      52.180  23.762  35.018  1.00  0.00     0.261 C 
BRANCH  39  40
ATOM     40  O   UNL A   1      51.986  23.541  33.616  1.00  0.00    -0.460 OA
BRANCH  40  41
ATOM     41  C   UNL A   1      50.766  23.049  33.285  1.00  0.00     0.338 C 
ATOM     42  O   UNL A   1      50.435  21.877  33.267  1.00  0.00    -0.246 OA
BRANCH  41  43
ATOM     43  C   UNL A   1      49.803  24.168  33.197  1.00  0.00     0.060 A 
ATOM     44  C   UNL A   1      48.637  24.047  33.955  1.00  0.00     0.016 A 
ATOM     45  C   UNL A   1      50.009  25.306  32.416  1.00  0.00     0.016 A 
ATOM     46  C   UNL A   1      47.697  25.069  33.967  1.00  0.00     0.010 A 
ATOM     47  C   UNL A   1      49.014  26.298  32.368  1.00  0.00     0.010 A 
ATOM     48  C   UNL A   1      47.839  26.174  33.131  1.00  0.00    -0.014 A 
BRANCH  48  49
ATOM     49  C   UNL A   1      46.635  27.017  32.904  1.00  0.00     0.031 A 
ATOM     50  C   UNL A   1      45.828  26.774  31.658  1.00  0.00     0.074 A 
ATOM     51  C   UNL A   1      46.166  27.876  33.831  1.00  0.00     0.049 A 
ATOM     52  N   UNL A   1      44.822  27.453  31.174  1.00  0.00    -0.248 NA
ATOM     53  C   UNL A   1      46.201  25.596  30.855  1.00  0.00     0.031 C 
ATOM     54  C   UNL A   1      46.757  28.112  35.148  1.00  0.00     0.029 A 
ATOM     55  N   UNL A   1      45.078  28.715  33.796  1.00  0.00    -0.354 N 
ATOM     56  C   UNL A   1      44.498  26.838  29.971  1.00  0.00     0.074 A 
ATOM     57  C   UNL A   1      45.393  25.713  29.812  1.00  0.00     0.031 C 
ATOM     58  C   UNL A   1      46.040  29.053  35.784  1.00  0.00     0.029 A 
ATOM     59  C   UNL A   1      44.983  29.536  34.896  1.00  0.00     0.049 A 
ATOM     60  H   UNL A   1      44.428  28.727  33.057  1.00  0.00     0.167 HD
ATOM     61  C   UNL A   1      43.544  27.182  29.075  1.00  0.00     0.034 A 
ATOM     62  C   UNL A   1      44.179  30.594  35.135  1.00  0.00     0.034 A 
ATOM     63  C   UNL A   1      42.612  28.259  29.263  1.00  0.00     0.049 A 
ATOM     64  C   UNL A   1      43.162  31.001  34.099  1.00  0.00     0.074 A 
ATOM     65  C   UNL A   1      41.607  28.682  28.410  1.00  0.00     0.029 A 
ATOM     66  N   UNL A   1      42.560  29.076  30.380  1.00  0.00    -0.354 N 
ATOM     67  N   UNL A   1      42.878  30.431  32.952  1.00  0.00    -0.248 NA
ATOM     68  C   UNL A   1      42.347  32.190  34.392  1.00  0.00     0.031 C 
ATOM     69  C   UNL A   1      40.968  29.777  29.000  1.00  0.00     0.029 A 
ATOM     70  C   UNL A   1      41.547  30.008  30.237  1.00  0.00     0.049 A 
ATOM     71  H   UNL A   1      43.156  29.005  31.160  1.00  0.00     0.167 HD
ATOM     72  C   UNL A   1      41.838  31.174  32.402  1.00  0.00     0.074 A 
ATOM     73  C   UNL A   1      41.524  32.220  33.352  1.00  0.00     0.031 C 
ATOM     74  C   UNL A   1      41.209  31.014  31.211  1.00  0.00     0.034 A 
BRANCH  61  75
ATOM     75  C   UNL A   1      43.479  26.402  27.790  1.00  0.00     0.023 A 
ATOM     76  C   UNL A   1      44.156  26.856  26.643  1.00  0.00     0.012 A 
ATOM     77  C   UNL A   1      42.778  25.180  27.745  1.00  0.00     0.148 A 
ATOM     78  C   UNL A   1      44.114  26.119  25.460  1.00  0.00     0.002 A 
ATOM     79  C   UNL A   1      42.781  24.427  26.579  1.00  0.00     0.091 A 
ATOM     80  F   UNL A   1      42.118  24.781  28.843  1.00  0.00    -0.205 F 
ATOM     81  C   UNL A   1      43.438  24.900  25.432  1.00  0.00     0.022 A 
BRANCH  79  82
ATOM     82  S   UNL A   1      42.012  22.808  26.472  1.00  0.00     0.127 S 
ATOM     83  O   UNL A   1      42.588  22.130  27.631  1.00  0.00    -0.237 OA
ATOM     84  O   UNL A   1      40.591  23.136  26.600  1.00  0.00    -0.237 OA
ATOM     85  O   UNL A   1      42.396  22.262  25.177  1.00  0.00    -0.744 OA
ENDBRANCH  79  82
ENDBRANCH  61  75
BRANCH  62  86
ATOM     86  C   UNL A   1      44.337  31.383  36.392  1.00  0.00     0.023 A 
ATOM     87  C   UNL A   1      43.599  31.040  37.541  1.00  0.00     0.012 A 
ATOM     88  C   UNL A   1      45.226  32.474  36.450  1.00  0.00     0.148 A 
ATOM     89  C   UNL A   1      43.728  31.783  38.716  1.00  0.00     0.002 A 
ATOM     90  C   UNL A   1      45.399  33.168  37.641  1.00  0.00     0.091 A 
ATOM     91  F   UNL A   1      45.896  32.807  35.337  1.00  0.00    -0.205 F 
ATOM     92  C   UNL A   1      44.636  32.837  38.771  1.00  0.00     0.022 A 
BRANCH  90  93
ATOM     93  S   UNL A   1      46.647  34.444  37.837  1.00  0.00     0.127 S 
ATOM     94  O   UNL A   1      47.866  33.733  37.462  1.00  0.00    -0.237 OA
ATOM     95  O   UNL A   1      46.200  35.450  36.874  1.00  0.00    -0.237 OA
ATOM     96  O   UNL A   1      46.564  34.866  39.229  1.00  0.00    -0.744 OA
ENDBRANCH  90  93
ENDBRANCH  62  86
BRANCH  74  97
ATOM     97  C   UNL A   1      40.083  31.958  30.873  1.00  0.00     0.023 A 
ATOM     98  C   UNL A   1      40.352  33.164  30.199  1.00  0.00     0.012 A 
ATOM     99  C   UNL A   1      38.747  31.606  31.153  1.00  0.00     0.148 A 
ATOM    100  C   UNL A   1      39.313  34.022  29.837  1.00  0.00     0.002 A 
ATOM    101  C   UNL A   1      37.713  32.441  30.746  1.00  0.00     0.091 A 
ATOM    102  F   UNL A   1      38.512  30.460  31.809  1.00  0.00    -0.205 F 
ATOM    103  C   UNL A   1      37.995  33.655  30.100  1.00  0.00     0.022 A 
BRANCH 101 104
ATOM    104  S   UNL A   1      35.982  32.006  30.955  1.00  0.00     0.127 S 
ATOM    105  O   UNL A   1      35.312  33.156  30.351  1.00  0.00    -0.237 OA
ATOM    106  O   UNL A   1      35.880  30.767  30.182  1.00  0.00    -0.237 OA
ATOM    107  O   UNL A   1      35.777  31.845  32.388  1.00  0.00    -0.744 OA
ENDBRANCH 101 104
ENDBRANCH  74  97
ENDBRANCH  48  49
ENDBRANCH  41  43
ENDBRANCH  40  41
ENDBRANCH  39  40
ENDBRANCH  38  39
ENDBRANCH  37  38
ENDBRANCH  36  37
ENDBRANCH   1  36
TORSDOF 27
ENDMDL
MODEL 3
REMARK VINA RESULT:      -7.1      6.345     12.649
REMARK SMILES COc1cccc([C@H](CC(=O)OCCOCCOCCOC(=O)c2ccc(-c3c4nc(c(-c5cccc(S(=O)(=O)[O-])c5F)c5ccc([nH]5)c(-c5cccc(S(=O)(=O)[O-])c5F)c5nc(c(-c6cccc(S(=O)(=O)[O-])c6F)c6ccc3[nH]6)C=C5)C=C4)cc2)NS(=O)(=O)c2ccc3c(c2)C[C@@H](C)N3C(C)=O)c1
REMARK SMILES IDX 16 1 15 2 14 3 13 4 12 5 10 6 11 7 9 8 8 9 7 10 3 11 4 12
REMARK SMILES IDX 104 13 5 14 6 15 2 16 1 17 87 18 88 20 89 21 90 22 91 23
REMARK SMILES IDX 92 24 96 25 93 26 95 27 94 28 97 29 100 30 98 31 99 32
REMARK SMILES IDX 101 33 102 34 103 35 17 36 18 37 19 38 20 39 21 40 22 41
REMARK SMILES IDX 23 42 24 43 25 44 86 45 26 46 85 47 27 48 28 49 29 50 79 51
REMARK SMILES IDX 30 52 84 53 78 54 80 55 31 56 83 57 77 58 76 59 32 61 64 62
REMARK SMILES IDX 44 63 63 64 45 65 48 66 62 67 81 68 46 69 47 70 61 72 82 73
REMARK SMILES IDX 49 74 33 75 34 76 42 77 35 78 37 79 43 80 36 81 38 82 39 83
REMARK SMILES IDX 40 84 41 85 65 86 66 87 74 88 67 89 69 90 75 91 68 92 70 93
REMARK SMILES IDX 71 94 72 95 73 96 50 97 51 98 59 99 52 100 54 101 60 102
REMARK SMILES IDX 53 103 55 104 56 105 57 106 58 107
REMARK H PARENT 87 19 80 60 48 71
REMARK Flexibility Score: inf
ROOT
ATOM      1  C   UNL A   1      44.248  37.065  27.647  1.00  0.00     0.188 C 
ENDROOT
BRANCH   1   2
ATOM      2  O   UNL A   1      43.509  35.881  27.915  1.00  0.00    -0.376 OA
BRANCH   2   3
ATOM      3  C   UNL A   1      43.016  35.735  29.241  1.00  0.00     0.202 C 
BRANCH   3   4
ATOM      4  C   UNL A   1      43.277  34.373  29.899  1.00  0.00     0.261 C 
BRANCH   4   5
ATOM      5  O   UNL A   1      43.211  33.261  28.969  1.00  0.00    -0.463 OA
BRANCH   5   6
ATOM      6  C   UNL A   1      43.413  32.037  29.520  1.00  0.00     0.307 C 
ATOM      7  O   UNL A   1      43.216  30.984  28.914  1.00  0.00    -0.252 OA
BRANCH   6   8
ATOM      8  C   UNL A   1      44.091  32.019  30.876  1.00  0.00     0.147 C 
BRANCH   8   9
ATOM      9  C   UNL A   1      44.056  30.874  31.920  1.00  0.00     0.111 C 
BRANCH   9  10
ATOM     10  C   UNL A   1      43.364  31.319  33.219  1.00  0.00    -0.026 A 
ATOM     11  C   UNL A   1      43.493  32.668  35.262  1.00  0.00     0.119 A 
ATOM     12  C   UNL A   1      42.500  31.894  35.840  1.00  0.00     0.046 A 
ATOM     13  C   UNL A   1      43.866  32.427  33.936  1.00  0.00     0.051 A 
ATOM     14  C   UNL A   1      41.863  30.918  35.086  1.00  0.00     0.004 A 
ATOM     15  C   UNL A   1      42.327  30.586  33.811  1.00  0.00     0.005 A 
BRANCH  11  16
ATOM     16  O   UNL A   1      44.085  33.560  36.111  1.00  0.00    -0.497 OA
ATOM     17  C   UNL A   1      45.220  33.097  36.821  1.00  0.00     0.278 C 
ENDBRANCH  11  16
ENDBRANCH   9  10
BRANCH   9  18
ATOM     18  N   UNL A   1      43.541  29.582  31.445  1.00  0.00    -0.203 NA
ATOM     19  H   UNL A   1      42.828  29.804  30.750  1.00  0.00     0.142 HD
BRANCH  18  20
ATOM     20  S   UNL A   1      44.514  28.385  30.742  1.00  0.00     0.241 S 
ATOM     21  O   UNL A   1      43.872  27.776  29.602  1.00  0.00    -0.207 OA
ATOM     22  O   UNL A   1      45.857  28.909  30.659  1.00  0.00    -0.207 OA
BRANCH  20  23
ATOM     23  C   UNL A   1      44.545  27.166  32.037  1.00  0.00     0.082 A 
ATOM     24  C   UNL A   1      44.732  25.794  31.751  1.00  0.00     0.024 A 
ATOM     25  C   UNL A   1      44.267  27.617  33.324  1.00  0.00     0.027 A 
ATOM     26  C   UNL A   1      44.462  24.830  32.725  1.00  0.00     0.028 A 
ATOM     27  C   UNL A   1      43.986  26.657  34.261  1.00  0.00    -0.021 A 
ATOM     28  C   UNL A   1      44.018  25.290  33.947  1.00  0.00     0.047 A 
ATOM     29  C   UNL A   1      43.586  26.862  35.689  1.00  0.00     0.063 C 
ATOM     30  N   UNL A   1      43.527  24.570  35.052  1.00  0.00    -0.309 N 
ATOM     31  C   UNL A   1      42.803  25.559  35.895  1.00  0.00     0.092 C 
ATOM     32  C   UNL A   1      41.357  25.740  35.379  1.00  0.00     0.032 C 
BRANCH  30  33
ATOM     33  C   UNL A   1      44.174  23.423  35.468  1.00  0.00     0.224 C 
ATOM     34  C   UNL A   1      45.279  23.685  36.467  1.00  0.00     0.115 C 
ATOM     35  O   UNL A   1      44.015  22.313  34.969  1.00  0.00    -0.275 OA
ENDBRANCH  30  33
ENDBRANCH  20  23
ENDBRANCH  18  20
ENDBRANCH   9  18
ENDBRANCH   8   9
ENDBRANCH   6   8
ENDBRANCH   5   6
ENDBRANCH   4   5
ENDBRANCH   3   4
ENDBRANCH   2   3
ENDBRANCH   1   2
BRANCH   1  36
ATOM     36  C   UNL A   1      43.414  38.270  27.215  1.00  0.00     0.188 C 
BRANCH  36  37
ATOM     37  O   UNL A   1      44.088  39.484  26.894  1.00  0.00    -0.376 OA
BRANCH  37  38
ATOM     38  C   UNL A   1      45.272  39.763  27.657  1.00  0.00     0.202 C 
BRANCH  38  39
ATOM     39  C   UNL A   1      45.345  40.909  28.697  1.00  0.00     0.261 C 
BRANCH  39  40
ATOM     40  O   UNL A   1      45.200  40.536  30.072  1.00  0.00    -0.460 OA
BRANCH  40  41
ATOM     41  C   UNL A   1      45.936  39.460  30.446  1.00  0.00     0.338 C 
ATOM     42  O   UNL A   1      47.121  39.279  30.230  1.00  0.00    -0.246 OA
BRANCH  41  43
ATOM     43  C   UNL A   1      45.147  38.639  31.390  1.00  0.00     0.060 A 
ATOM     44  C   UNL A   1      44.130  39.295  32.087  1.00  0.00     0.016 A 
ATOM     45  C   UNL A   1      45.367  37.278  31.601  1.00  0.00     0.016 A 
ATOM     46  C   UNL A   1      43.311  38.593  32.960  1.00  0.00     0.010 A 
ATOM     47  C   UNL A   1      44.588  36.593  32.550  1.00  0.00     0.010 A 
ATOM     48  C   UNL A   1      43.565  37.255  33.252  1.00  0.00    -0.014 A 
BRANCH  48  49
ATOM     49  C   UNL A   1      42.916  36.686  34.463  1.00  0.00     0.031 A 
ATOM     50  C   UNL A   1      41.826  35.668  34.269  1.00  0.00     0.074 A 
ATOM     51  C   UNL A   1      43.363  36.936  35.710  1.00  0.00     0.049 A 
ATOM     52  N   UNL A   1      41.028  35.126  35.150  1.00  0.00    -0.248 NA
ATOM     53  C   UNL A   1      41.616  35.189  32.891  1.00  0.00     0.031 C 
ATOM     54  C   UNL A   1      44.504  37.785  36.050  1.00  0.00     0.029 A 
ATOM     55  N   UNL A   1      42.900  36.494  36.927  1.00  0.00    -0.354 N 
ATOM     56  C   UNL A   1      40.168  34.310  34.425  1.00  0.00     0.074 A 
ATOM     57  C   UNL A   1      40.561  34.402  33.036  1.00  0.00     0.031 C 
ATOM     58  C   UNL A   1      44.635  37.824  37.387  1.00  0.00     0.029 A 
ATOM     59  C   UNL A   1      43.548  37.061  38.000  1.00  0.00     0.049 A 
ATOM     60  H   UNL A   1      42.174  35.835  37.022  1.00  0.00     0.167 HD
ATOM     61  C   UNL A   1      39.140  33.554  34.875  1.00  0.00     0.034 A 
ATOM     62  C   UNL A   1      43.263  37.022  39.319  1.00  0.00     0.034 A 
ATOM     63  C   UNL A   1      38.791  33.410  36.261  1.00  0.00     0.049 A 
ATOM     64  C   UNL A   1      42.077  36.223  39.796  1.00  0.00     0.074 A 
ATOM     65  C   UNL A   1      37.765  32.664  36.815  1.00  0.00     0.029 A 
ATOM     66  N   UNL A   1      39.460  34.013  37.314  1.00  0.00    -0.354 N 
ATOM     67  N   UNL A   1      41.252  35.473  39.104  1.00  0.00    -0.248 NA
ATOM     68  C   UNL A   1      41.786  36.254  41.238  1.00  0.00     0.031 C 
ATOM     69  C   UNL A   1      37.795  32.842  38.201  1.00  0.00     0.029 A 
ATOM     70  C   UNL A   1      38.865  33.664  38.514  1.00  0.00     0.049 A 
ATOM     71  H   UNL A   1      40.242  34.603  37.222  1.00  0.00     0.167 HD
ATOM     72  C   UNL A   1      40.365  34.926  40.026  1.00  0.00     0.074 A 
ATOM     73  C   UNL A   1      40.767  35.410  41.330  1.00  0.00     0.031 C 
ATOM     74  C   UNL A   1      39.303  34.110  39.811  1.00  0.00     0.034 A 
BRANCH  61  75
ATOM     75  C   UNL A   1      38.294  32.845  33.852  1.00  0.00     0.023 A 
ATOM     76  C   UNL A   1      38.672  31.580  33.365  1.00  0.00     0.012 A 
ATOM     77  C   UNL A   1      37.087  33.426  33.415  1.00  0.00     0.148 A 
ATOM     78  C   UNL A   1      37.873  30.914  32.435  1.00  0.00     0.002 A 
ATOM     79  C   UNL A   1      36.273  32.736  32.527  1.00  0.00     0.091 A 
ATOM     80  F   UNL A   1      36.761  34.644  33.873  1.00  0.00    -0.205 F 
ATOM     81  C   UNL A   1      36.670  31.486  32.027  1.00  0.00     0.022 A 
BRANCH  79  82
ATOM     82  S   UNL A   1      34.668  33.352  32.010  1.00  0.00     0.127 S 
ATOM     83  O   UNL A   1      34.987  34.727  31.630  1.00  0.00    -0.237 OA
ATOM     84  O   UNL A   1      34.348  32.468  30.888  1.00  0.00    -0.237 OA
ATOM     85  O   UNL A   1      33.790  33.213  33.164  1.00  0.00    -0.744 OA
ENDBRANCH  79  82
ENDBRANCH  61  75
BRANCH  62  86
ATOM     86  C   UNL A   1      44.087  37.806  40.284  1.00  0.00     0.023 A 
ATOM     87  C   UNL A   1      43.734  39.131  40.604  1.00  0.00     0.012 A 
ATOM     88  C   UNL A   1      45.223  37.235  40.891  1.00  0.00     0.148 A 
ATOM     89  C   UNL A   1      44.510  39.878  41.493  1.00  0.00     0.002 A 
ATOM     90  C   UNL A   1      45.952  37.960  41.824  1.00  0.00     0.091 A 
ATOM     91  F   UNL A   1      45.564  35.984  40.549  1.00  0.00    -0.205 F 
ATOM     92  C   UNL A   1      45.609  39.290  42.113  1.00  0.00     0.022 A 
BRANCH  90  93
ATOM     93  S   UNL A   1      47.294  37.234  42.771  1.00  0.00     0.127 S 
ATOM     94  O   UNL A   1      47.692  38.346  43.630  1.00  0.00    -0.237 OA
ATOM     95  O   UNL A   1      46.615  36.136  43.458  1.00  0.00    -0.237 OA
ATOM     96  O   UNL A   1      48.283  36.808  41.790  1.00  0.00    -0.744 OA
ENDBRANCH  90  93
ENDBRANCH  62  86
BRANCH  74  97
ATOM     97  C   UNL A   1      38.519  33.640  41.010  1.00  0.00     0.023 A 
ATOM     98  C   UNL A   1      37.411  34.383  41.463  1.00  0.00     0.012 A 
ATOM     99  C   UNL A   1      38.832  32.416  41.634  1.00  0.00     0.148 A 
ATOM    100  C   UNL A   1      36.648  33.931  42.540  1.00  0.00     0.002 A 
ATOM    101  C   UNL A   1      38.038  31.948  42.674  1.00  0.00     0.091 A 
ATOM    102  F   UNL A   1      39.899  31.730  41.197  1.00  0.00    -0.205 F 
ATOM    103  C   UNL A   1      36.953  32.711  43.137  1.00  0.00     0.022 A 
BRANCH 101 104
ATOM    104  S   UNL A   1      38.296  30.343  43.439  1.00  0.00     0.127 S 
ATOM    105  O   UNL A   1      39.581  30.536  44.108  1.00  0.00    -0.237 OA
ATOM    106  O   UNL A   1      37.148  30.241  44.341  1.00  0.00    -0.237 OA
ATOM    107  O   UNL A   1      38.299  29.374  42.351  1.00  0.00    -0.744 OA
ENDBRANCH 101 104
ENDBRANCH  74  97
ENDBRANCH  48  49
ENDBRANCH  41  43
ENDBRANCH  40  41
ENDBRANCH  39  40
ENDBRANCH  38  39
ENDBRANCH  37  38
ENDBRANCH  36  37
ENDBRANCH   1  36
TORSDOF 27
ENDMDL
