MODEL 1
REMARK VINA RESULT:      -9.7      0.000      0.000
REMARK SMILES O=C(CCc1cccnc1)Nc1ccsc1C(=O)OCCOCCOCCOC(=O)c1ccc(-c2c3nc(c(-c4cccc(S(=O)(=O)[O-])c4F)c4ccc([nH]4)c(-c4cccc(S(=O)(=O)[O-])c4F)c4nc(c(-c5cccc(S(=O)(=O)[O-])c5F)c5ccc2[nH]5)C=C4)C=C3)cc1
REMARK SMILES IDX 23 1 22 2 21 3 20 4 19 5 17 6 18 7 16 8 12 9 13 10 14 11
REMARK SMILES IDX 15 12 11 13 1 14 2 15 3 17 4 18 5 19 6 20 10 21 7 22 9 23
REMARK SMILES IDX 8 24 24 25 25 26 26 27 27 28 28 29 29 30 30 31 31 32 32 33
REMARK SMILES IDX 93 34 33 35 92 36 34 37 35 38 36 39 86 40 37 41 91 42 85 43
REMARK SMILES IDX 87 44 38 45 90 46 84 47 83 48 39 50 71 51 51 52 70 53 52 54
REMARK SMILES IDX 55 55 69 56 88 57 53 58 54 59 68 61 89 62 56 63 40 64 41 65
REMARK SMILES IDX 49 66 42 67 44 68 50 69 43 70 45 71 46 72 47 73 48 74 72 75
REMARK SMILES IDX 73 76 81 77 74 78 76 79 82 80 75 81 77 82 78 83 79 84 80 85
REMARK SMILES IDX 57 86 58 87 66 88 59 89 61 90 67 91 60 92 62 93 63 94 64 95
REMARK SMILES IDX 65 96
REMARK H PARENT 11 16 87 49 55 60
REMARK Flexibility Score: inf
ROOT
ATOM      1  C   UNL A   1      34.164  29.191  27.307  1.00  0.00     0.188 C 
ENDROOT
BRANCH   1   2
ATOM      2  O   UNL A   1      33.625  27.985  26.775  1.00  0.00    -0.376 OA
BRANCH   2   3
ATOM      3  C   UNL A   1      33.691  27.778  25.367  1.00  0.00     0.202 C 
BRANCH   3   4
ATOM      4  C   UNL A   1      33.829  26.320  24.930  1.00  0.00     0.261 C 
BRANCH   4   5
ATOM      5  O   UNL A   1      32.687  25.953  24.139  1.00  0.00    -0.459 OA
BRANCH   5   6
ATOM      6  C   UNL A   1      32.436  24.619  24.068  1.00  0.00     0.350 C 
ATOM      7  O   UNL A   1      32.926  23.857  23.245  1.00  0.00    -0.245 OA
BRANCH   6   8
ATOM      8  C   UNL A   1      31.613  24.260  25.199  1.00  0.00     0.136 A 
ATOM      9  C   UNL A   1      31.555  23.098  25.959  1.00  0.00     0.066 A 
ATOM     10  C   UNL A   1      30.423  23.136  26.840  1.00  0.00     0.039 A 
ATOM     11  C   UNL A   1      29.707  24.308  26.755  1.00  0.00     0.068 A 
ATOM     12  S   UNL A   1      30.398  25.390  25.639  1.00  0.00    -0.135 S 
BRANCH   9  13
ATOM     13  N   UNL A   1      32.493  22.064  25.867  1.00  0.00    -0.325 N 
ATOM     14  O   UNL A   1      34.334  23.116  26.833  1.00  0.00    -0.275 OA
ATOM     15  C   UNL A   1      33.823  22.171  26.236  1.00  0.00     0.224 C 
ATOM     16  H   UNL A   1      32.185  21.197  25.516  1.00  0.00     0.169 HD
BRANCH  15  17
ATOM     17  C   UNL A   1      34.685  20.988  25.832  1.00  0.00     0.105 C 
BRANCH  17  18
ATOM     18  C   UNL A   1      34.239  20.346  24.519  1.00  0.00     0.047 C 
BRANCH  18  19
ATOM     19  C   UNL A   1      33.950  18.881  24.694  1.00  0.00    -0.029 A 
ATOM     20  C   UNL A   1      32.728  18.430  25.197  1.00  0.00     0.007 A 
ATOM     21  C   UNL A   1      34.918  17.926  24.423  1.00  0.00     0.114 A 
ATOM     22  C   UNL A   1      32.539  17.072  25.439  1.00  0.00     0.020 A 
ATOM     23  N   UNL A   1      34.773  16.606  24.676  1.00  0.00    -0.264 NA
ATOM     24  C   UNL A   1      33.588  16.208  25.178  1.00  0.00     0.111 A 
ENDBRANCH  18  19
ENDBRANCH  17  18
ENDBRANCH  15  17
ENDBRANCH   9  13
ENDBRANCH   6   8
ENDBRANCH   5   6
ENDBRANCH   4   5
ENDBRANCH   3   4
ENDBRANCH   2   3
ENDBRANCH   1   2
BRANCH   1  25
ATOM     25  C   UNL A   1      33.543  30.524  26.854  1.00  0.00     0.188 C 
BRANCH  25  26
ATOM     26  O   UNL A   1      32.138  30.620  27.092  1.00  0.00    -0.376 OA
BRANCH  26  27
ATOM     27  C   UNL A   1      31.561  31.885  26.775  1.00  0.00     0.202 C 
BRANCH  27  28
ATOM     28  C   UNL A   1      32.515  33.040  27.088  1.00  0.00     0.261 C 
BRANCH  28  29
ATOM     29  O   UNL A   1      32.207  33.712  28.318  1.00  0.00    -0.460 OA
BRANCH  29  30
ATOM     30  C   UNL A   1      33.049  34.703  28.685  1.00  0.00     0.338 C 
ATOM     31  O   UNL A   1      32.845  35.902  28.609  1.00  0.00    -0.246 OA
BRANCH  30  32
ATOM     32  C   UNL A   1      34.204  34.088  29.368  1.00  0.00     0.060 A 
ATOM     33  C   UNL A   1      35.490  34.375  28.895  1.00  0.00     0.016 A 
ATOM     34  C   UNL A   1      34.021  33.256  30.477  1.00  0.00     0.016 A 
ATOM     35  C   UNL A   1      36.598  33.804  29.519  1.00  0.00     0.010 A 
ATOM     36  C   UNL A   1      35.129  32.678  31.093  1.00  0.00     0.010 A 
ATOM     37  C   UNL A   1      36.419  32.930  30.601  1.00  0.00    -0.014 A 
BRANCH  37  38
ATOM     38  C   UNL A   1      37.558  32.142  31.118  1.00  0.00     0.031 A 
ATOM     39  C   UNL A   1      38.087  32.464  32.486  1.00  0.00     0.074 A 
ATOM     40  C   UNL A   1      38.141  31.192  30.366  1.00  0.00     0.049 A 
ATOM     41  N   UNL A   1      39.053  31.892  33.153  1.00  0.00    -0.248 NA
ATOM     42  C   UNL A   1      37.440  33.581  33.196  1.00  0.00     0.031 C 
ATOM     43  C   UNL A   1      37.739  30.815  29.012  1.00  0.00     0.029 A 
ATOM     44  N   UNL A   1      39.222  30.391  30.633  1.00  0.00    -0.354 N 
ATOM     45  C   UNL A   1      39.126  32.571  34.362  1.00  0.00     0.074 A 
ATOM     46  C   UNL A   1      38.123  33.613  34.330  1.00  0.00     0.031 C 
ATOM     47  C   UNL A   1      38.582  29.872  28.555  1.00  0.00     0.029 A 
ATOM     48  C   UNL A   1      39.580  29.580  29.583  1.00  0.00     0.049 A 
ATOM     49  H   UNL A   1      39.695  30.395  31.497  1.00  0.00     0.167 HD
ATOM     50  C   UNL A   1      39.936  32.331  35.418  1.00  0.00     0.034 A 
ATOM     51  C   UNL A   1      40.600  28.706  29.471  1.00  0.00     0.034 A 
ATOM     52  C   UNL A   1      40.938  31.305  35.450  1.00  0.00     0.049 A 
ATOM     53  C   UNL A   1      41.519  28.491  30.644  1.00  0.00     0.074 A 
ATOM     54  C   UNL A   1      41.778  30.951  36.490  1.00  0.00     0.029 A 
ATOM     55  N   UNL A   1      41.250  30.478  34.382  1.00  0.00    -0.354 N 
ATOM     56  N   UNL A   1      41.463  29.016  31.845  1.00  0.00    -0.248 NA
ATOM     57  C   UNL A   1      42.624  27.538  30.458  1.00  0.00     0.031 C 
ATOM     58  C   UNL A   1      42.604  29.913  36.047  1.00  0.00     0.029 A 
ATOM     59  C   UNL A   1      42.280  29.625  34.730  1.00  0.00     0.049 A 
ATOM     60  H   UNL A   1      40.803  30.497  33.504  1.00  0.00     0.167 HD
ATOM     61  C   UNL A   1      42.503  28.437  32.564  1.00  0.00     0.074 A 
ATOM     62  C   UNL A   1      43.165  27.509  31.670  1.00  0.00     0.031 C 
ATOM     63  C   UNL A   1      42.888  28.666  33.845  1.00  0.00     0.034 A 
BRANCH  50  64
ATOM     64  C   UNL A   1      39.713  33.161  36.648  1.00  0.00     0.023 A 
ATOM     65  C   UNL A   1      40.352  34.413  36.743  1.00  0.00     0.012 A 
ATOM     66  C   UNL A   1      38.880  32.725  37.693  1.00  0.00     0.148 A 
ATOM     67  C   UNL A   1      40.179  35.214  37.870  1.00  0.00     0.002 A 
ATOM     68  C   UNL A   1      38.693  33.540  38.805  1.00  0.00     0.091 A 
ATOM     69  F   UNL A   1      38.315  31.512  37.603  1.00  0.00    -0.205 F 
ATOM     70  C   UNL A   1      39.344  34.782  38.896  1.00  0.00     0.022 A 
BRANCH  68  71
ATOM     71  S   UNL A   1      37.602  33.064  40.149  1.00  0.00     0.127 S 
ATOM     72  O   UNL A   1      38.277  31.879  40.675  1.00  0.00    -0.237 OA
ATOM     73  O   UNL A   1      37.650  34.232  41.029  1.00  0.00    -0.237 OA
ATOM     74  O   UNL A   1      36.304  32.837  39.529  1.00  0.00    -0.744 OA
ENDBRANCH  68  71
ENDBRANCH  50  64
BRANCH  51  75
ATOM     75  C   UNL A   1      40.764  27.914  28.222  1.00  0.00     0.023 A 
ATOM     76  C   UNL A   1      41.450  28.487  27.135  1.00  0.00     0.012 A 
ATOM     77  C   UNL A   1      40.264  26.603  28.106  1.00  0.00     0.148 A 
ATOM     78  C   UNL A   1      41.619  27.775  25.946  1.00  0.00     0.002 A 
ATOM     79  C   UNL A   1      40.469  25.885  26.933  1.00  0.00     0.091 A 
ATOM     80  F   UNL A   1      39.588  26.084  29.142  1.00  0.00    -0.205 F 
ATOM     81  C   UNL A   1      41.138  26.472  25.848  1.00  0.00     0.022 A 
BRANCH  79  82
ATOM     82  S   UNL A   1      39.966  24.167  26.771  1.00  0.00     0.127 S 
ATOM     83  O   UNL A   1      41.065  23.605  25.991  1.00  0.00    -0.237 OA
ATOM     84  O   UNL A   1      39.911  23.725  28.165  1.00  0.00    -0.237 OA
ATOM     85  O   UNL A   1      38.668  24.213  26.109  1.00  0.00    -0.744 OA
ENDBRANCH  79  82
ENDBRANCH  51  75
BRANCH  63  86
ATOM     86  C   UNL A   1      44.073  27.902  34.367  1.00  0.00     0.023 A 
ATOM     87  C   UNL A   1      45.357  28.473  34.268  1.00  0.00     0.012 A 
ATOM     88  C   UNL A   1      43.911  26.676  35.040  1.00  0.00     0.148 A 
ATOM     89  C   UNL A   1      46.463  27.829  34.820  1.00  0.00     0.002 A 
ATOM     90  C   UNL A   1      45.014  26.057  35.619  1.00  0.00     0.091 A 
ATOM     91  F   UNL A   1      42.686  26.133  35.103  1.00  0.00    -0.205 F 
ATOM     92  C   UNL A   1      46.291  26.629  35.506  1.00  0.00     0.022 A 
BRANCH  90  93
ATOM     93  S   UNL A   1      44.844  24.556  36.591  1.00  0.00     0.127 S 
ATOM     94  O   UNL A   1      44.032  25.014  37.716  1.00  0.00    -0.237 OA
ATOM     95  O   UNL A   1      44.155  23.651  35.671  1.00  0.00    -0.237 OA
ATOM     96  O   UNL A   1      46.208  24.149  36.913  1.00  0.00    -0.744 OA
ENDBRANCH  90  93
ENDBRANCH  63  86
ENDBRANCH  37  38
ENDBRANCH  30  32
ENDBRANCH  29  30
ENDBRANCH  28  29
ENDBRANCH  27  28
ENDBRANCH  26  27
ENDBRANCH  25  26
ENDBRANCH   1  25
TORSDOF 24
ENDMDL
MODEL 2
REMARK VINA RESULT:      -9.5      2.658      4.325
REMARK SMILES O=C(CCc1cccnc1)Nc1ccsc1C(=O)OCCOCCOCCOC(=O)c1ccc(-c2c3nc(c(-c4cccc(S(=O)(=O)[O-])c4F)c4ccc([nH]4)c(-c4cccc(S(=O)(=O)[O-])c4F)c4nc(c(-c5cccc(S(=O)(=O)[O-])c5F)c5ccc2[nH]5)C=C4)C=C3)cc1
REMARK SMILES IDX 23 1 22 2 21 3 20 4 19 5 17 6 18 7 16 8 12 9 13 10 14 11
REMARK SMILES IDX 15 12 11 13 1 14 2 15 3 17 4 18 5 19 6 20 10 21 7 22 9 23
REMARK SMILES IDX 8 24 24 25 25 26 26 27 27 28 28 29 29 30 30 31 31 32 32 33
REMARK SMILES IDX 93 34 33 35 92 36 34 37 35 38 36 39 86 40 37 41 91 42 85 43
REMARK SMILES IDX 87 44 38 45 90 46 84 47 83 48 39 50 71 51 51 52 70 53 52 54
REMARK SMILES IDX 55 55 69 56 88 57 53 58 54 59 68 61 89 62 56 63 40 64 41 65
REMARK SMILES IDX 49 66 42 67 44 68 50 69 43 70 45 71 46 72 47 73 48 74 72 75
REMARK SMILES IDX 73 76 81 77 74 78 76 79 82 80 75 81 77 82 78 83 79 84 80 85
REMARK SMILES IDX 57 86 58 87 66 88 59 89 61 90 67 91 60 92 62 93 63 94 64 95
REMARK SMILES IDX 65 96
REMARK H PARENT 11 16 87 49 55 60
REMARK Flexibility Score: inf
ROOT
ATOM      1  C   UNL A   1      34.330  29.459  27.273  1.00  0.00     0.188 C 
ENDROOT
BRANCH   1   2
ATOM      2  O   UNL A   1      33.731  28.170  27.351  1.00  0.00    -0.376 OA
BRANCH   2   3
ATOM      3  C   UNL A   1      33.277  27.561  26.145  1.00  0.00     0.202 C 
BRANCH   3   4
ATOM      4  C   UNL A   1      34.146  26.414  25.628  1.00  0.00     0.261 C 
BRANCH   4   5
ATOM      5  O   UNL A   1      33.655  25.990  24.346  1.00  0.00    -0.459 OA
BRANCH   5   6
ATOM      6  C   UNL A   1      33.897  24.690  24.035  1.00  0.00     0.350 C 
ATOM      7  O   UNL A   1      34.634  24.310  23.135  1.00  0.00    -0.245 OA
BRANCH   6   8
ATOM      8  C   UNL A   1      33.246  23.866  25.027  1.00  0.00     0.136 A 
ATOM      9  C   UNL A   1      32.017  23.992  25.662  1.00  0.00     0.066 A 
ATOM     10  C   UNL A   1      31.909  23.041  26.731  1.00  0.00     0.039 A 
ATOM     11  C   UNL A   1      33.007  22.219  26.840  1.00  0.00     0.068 A 
ATOM     12  S   UNL A   1      34.170  22.557  25.645  1.00  0.00    -0.135 S 
BRANCH   9  13
ATOM     13  N   UNL A   1      31.038  24.915  25.278  1.00  0.00    -0.325 N 
ATOM     14  O   UNL A   1      30.453  24.028  23.205  1.00  0.00    -0.275 OA
ATOM     15  C   UNL A   1      30.388  24.912  24.056  1.00  0.00     0.224 C 
ATOM     16  H   UNL A   1      30.793  25.617  25.924  1.00  0.00     0.169 HD
BRANCH  15  17
ATOM     17  C   UNL A   1      29.537  26.141  23.794  1.00  0.00     0.105 C 
BRANCH  17  18
ATOM     18  C   UNL A   1      30.367  27.403  23.564  1.00  0.00     0.047 C 
BRANCH  18  19
ATOM     19  C   UNL A   1      29.548  28.492  22.928  1.00  0.00    -0.029 A 
ATOM     20  C   UNL A   1      28.167  28.577  23.118  1.00  0.00     0.007 A 
ATOM     21  C   UNL A   1      30.130  29.414  22.071  1.00  0.00     0.114 A 
ATOM     22  C   UNL A   1      27.432  29.538  22.430  1.00  0.00     0.020 A 
ATOM     23  N   UNL A   1      29.438  30.337  21.367  1.00  0.00    -0.264 NA
ATOM     24  C   UNL A   1      28.105  30.380  21.562  1.00  0.00     0.111 A 
ENDBRANCH  18  19
ENDBRANCH  17  18
ENDBRANCH  15  17
ENDBRANCH   9  13
ENDBRANCH   6   8
ENDBRANCH   5   6
ENDBRANCH   4   5
ENDBRANCH   3   4
ENDBRANCH   2   3
ENDBRANCH   1   2
BRANCH   1  25
ATOM     25  C   UNL A   1      33.521  30.596  26.625  1.00  0.00     0.188 C 
BRANCH  25  26
ATOM     26  O   UNL A   1      32.332  30.942  27.338  1.00  0.00    -0.376 OA
BRANCH  26  27
ATOM     27  C   UNL A   1      31.719  32.161  26.926  1.00  0.00     0.202 C 
BRANCH  27  28
ATOM     28  C   UNL A   1      32.611  33.372  27.212  1.00  0.00     0.261 C 
BRANCH  28  29
ATOM     29  O   UNL A   1      32.475  33.872  28.550  1.00  0.00    -0.460 OA
BRANCH  29  30
ATOM     30  C   UNL A   1      33.312  34.874  28.902  1.00  0.00     0.338 C 
ATOM     31  O   UNL A   1      33.109  36.070  28.790  1.00  0.00    -0.246 OA
BRANCH  30  32
ATOM     32  C   UNL A   1      34.456  34.278  29.618  1.00  0.00     0.060 A 
ATOM     33  C   UNL A   1      35.736  34.420  29.068  1.00  0.00     0.016 A 
ATOM     34  C   UNL A   1      34.272  33.606  30.831  1.00  0.00     0.016 A 
ATOM     35  C   UNL A   1      36.834  33.864  29.723  1.00  0.00     0.010 A 
ATOM     36  C   UNL A   1      35.370  33.042  31.478  1.00  0.00     0.010 A 
ATOM     37  C   UNL A   1      36.650  33.146  30.914  1.00  0.00    -0.014 A 
BRANCH  37  38
ATOM     38  C   UNL A   1      37.761  32.359  31.489  1.00  0.00     0.031 A 
ATOM     39  C   UNL A   1      38.333  32.790  32.809  1.00  0.00     0.074 A 
ATOM     40  C   UNL A   1      38.284  31.312  30.827  1.00  0.00     0.049 A 
ATOM     41  N   UNL A   1      39.286  32.242  33.514  1.00  0.00    -0.248 NA
ATOM     42  C   UNL A   1      37.754  34.003  33.413  1.00  0.00     0.031 C 
ATOM     43  C   UNL A   1      37.835  30.822  29.524  1.00  0.00     0.029 A 
ATOM     44  N   UNL A   1      39.331  30.490  31.156  1.00  0.00    -0.354 N 
ATOM     45  C   UNL A   1      39.416  33.033  34.648  1.00  0.00     0.074 A 
ATOM     46  C   UNL A   1      38.462  34.115  34.527  1.00  0.00     0.031 C 
ATOM     47  C   UNL A   1      38.624  29.799  29.151  1.00  0.00     0.029 A 
ATOM     48  C   UNL A   1      39.629  29.563  30.186  1.00  0.00     0.049 A 
ATOM     49  H   UNL A   1      39.822  30.557  32.007  1.00  0.00     0.167 HD
ATOM     50  C   UNL A   1      40.235  32.860  35.709  1.00  0.00     0.034 A 
ATOM     51  C   UNL A   1      40.604  28.633  30.146  1.00  0.00     0.034 A 
ATOM     52  C   UNL A   1      41.189  31.795  35.828  1.00  0.00     0.049 A 
ATOM     53  C   UNL A   1      41.537  28.492  31.320  1.00  0.00     0.074 A 
ATOM     54  C   UNL A   1      42.033  31.507  36.884  1.00  0.00     0.029 A 
ATOM     55  N   UNL A   1      41.440  30.852  34.843  1.00  0.00    -0.354 N 
ATOM     56  N   UNL A   1      41.531  29.136  32.463  1.00  0.00    -0.248 NA
ATOM     57  C   UNL A   1      42.592  27.472  31.213  1.00  0.00     0.031 C 
ATOM     58  C   UNL A   1      42.801  30.390  36.534  1.00  0.00     0.029 A 
ATOM     59  C   UNL A   1      42.436  29.989  35.259  1.00  0.00     0.049 A 
ATOM     60  H   UNL A   1      40.976  30.805  33.975  1.00  0.00     0.167 HD
ATOM     61  C   UNL A   1      42.558  28.581  33.220  1.00  0.00     0.074 A 
ATOM     62  C   UNL A   1      43.156  27.539  32.413  1.00  0.00     0.031 C 
ATOM     63  C   UNL A   1      42.979  28.918  34.464  1.00  0.00     0.034 A 
BRANCH  50  64
ATOM     64  C   UNL A   1      40.077  33.819  36.853  1.00  0.00     0.023 A 
ATOM     65  C   UNL A   1      38.930  33.718  37.665  1.00  0.00     0.012 A 
ATOM     66  C   UNL A   1      41.045  34.799  37.135  1.00  0.00     0.148 A 
ATOM     67  C   UNL A   1      38.739  34.593  38.733  1.00  0.00     0.002 A 
ATOM     68  C   UNL A   1      40.859  35.653  38.217  1.00  0.00     0.091 A 
ATOM     69  F   UNL A   1      42.108  34.906  36.324  1.00  0.00    -0.205 F 
ATOM     70  C   UNL A   1      39.706  35.553  39.015  1.00  0.00     0.022 A 
BRANCH  68  71
ATOM     71  S   UNL A   1      42.081  36.891  38.662  1.00  0.00     0.127 S 
ATOM     72  O   UNL A   1      42.920  36.155  39.604  1.00  0.00    -0.237 OA
ATOM     73  O   UNL A   1      42.720  37.185  37.379  1.00  0.00    -0.237 OA
ATOM     74  O   UNL A   1      41.319  38.002  39.217  1.00  0.00    -0.744 OA
ENDBRANCH  68  71
ENDBRANCH  50  64
BRANCH  51  75
ATOM     75  C   UNL A   1      40.705  27.713  28.981  1.00  0.00     0.023 A 
ATOM     76  C   UNL A   1      39.825  26.618  28.898  1.00  0.00     0.012 A 
ATOM     77  C   UNL A   1      41.647  27.919  27.955  1.00  0.00     0.148 A 
ATOM     78  C   UNL A   1      39.894  25.732  27.822  1.00  0.00     0.002 A 
ATOM     79  C   UNL A   1      41.685  27.054  26.867  1.00  0.00     0.091 A 
ATOM     80  F   UNL A   1      42.496  28.951  28.066  1.00  0.00    -0.205 F 
ATOM     81  C   UNL A   1      40.816  25.954  26.802  1.00  0.00     0.022 A 
BRANCH  79  82
ATOM     82  S   UNL A   1      42.778  27.336  25.468  1.00  0.00     0.127 S 
ATOM     83  O   UNL A   1      42.132  28.465  24.806  1.00  0.00    -0.237 OA
ATOM     84  O   UNL A   1      44.048  27.651  26.122  1.00  0.00    -0.237 OA
ATOM     85  O   UNL A   1      42.784  26.078  24.732  1.00  0.00    -0.744 OA
ENDBRANCH  79  82
ENDBRANCH  51  75
BRANCH  63  86
ATOM     86  C   UNL A   1      44.139  28.153  35.041  1.00  0.00     0.023 A 
ATOM     87  C   UNL A   1      45.440  28.421  34.573  1.00  0.00     0.012 A 
ATOM     88  C   UNL A   1      43.958  27.251  36.106  1.00  0.00     0.148 A 
ATOM     89  C   UNL A   1      46.543  27.792  35.148  1.00  0.00     0.002 A 
ATOM     90  C   UNL A   1      45.066  26.654  36.699  1.00  0.00     0.091 A 
ATOM     91  F   UNL A   1      42.711  26.988  36.524  1.00  0.00    -0.205 F 
ATOM     92  C   UNL A   1      46.359  26.920  36.218  1.00  0.00     0.022 A 
BRANCH  90  93
ATOM     93  S   UNL A   1      44.903  25.590  38.137  1.00  0.00     0.127 S 
ATOM     94  O   UNL A   1      46.297  25.293  38.455  1.00  0.00    -0.237 OA
ATOM     95  O   UNL A   1      44.229  26.457  39.105  1.00  0.00    -0.237 OA
ATOM     96  O   UNL A   1      44.096  24.460  37.691  1.00  0.00    -0.744 OA
ENDBRANCH  90  93
ENDBRANCH  63  86
ENDBRANCH  37  38
ENDBRANCH  30  32
ENDBRANCH  29  30
ENDBRANCH  28  29
ENDBRANCH  27  28
ENDBRANCH  26  27
ENDBRANCH  25  26
ENDBRANCH   1  25
TORSDOF 24
ENDMDL
MODEL 3
REMARK VINA RESULT:      -9.4      6.598     11.811
REMARK SMILES O=C(CCc1cccnc1)Nc1ccsc1C(=O)OCCOCCOCCOC(=O)c1ccc(-c2c3nc(c(-c4cccc(S(=O)(=O)[O-])c4F)c4ccc([nH]4)c(-c4cccc(S(=O)(=O)[O-])c4F)c4nc(c(-c5cccc(S(=O)(=O)[O-])c5F)c5ccc2[nH]5)C=C4)C=C3)cc1
REMARK SMILES IDX 23 1 22 2 21 3 20 4 19 5 17 6 18 7 16 8 12 9 13 10 14 11
REMARK SMILES IDX 15 12 11 13 1 14 2 15 3 17 4 18 5 19 6 20 10 21 7 22 9 23
REMARK SMILES IDX 8 24 24 25 25 26 26 27 27 28 28 29 29 30 30 31 31 32 32 33
REMARK SMILES IDX 93 34 33 35 92 36 34 37 35 38 36 39 86 40 37 41 91 42 85 43
REMARK SMILES IDX 87 44 38 45 90 46 84 47 83 48 39 50 71 51 51 52 70 53 52 54
REMARK SMILES IDX 55 55 69 56 88 57 53 58 54 59 68 61 89 62 56 63 40 64 41 65
REMARK SMILES IDX 49 66 42 67 44 68 50 69 43 70 45 71 46 72 47 73 48 74 72 75
REMARK SMILES IDX 73 76 81 77 74 78 76 79 82 80 75 81 77 82 78 83 79 84 80 85
REMARK SMILES IDX 57 86 58 87 66 88 59 89 61 90 67 91 60 92 62 93 63 94 64 95
REMARK SMILES IDX 65 96
REMARK H PARENT 11 16 87 49 55 60
REMARK Flexibility Score: inf
ROOT
ATOM      1  C   UNL A   1      40.988  21.782  26.738  1.00  0.00     0.188 C 
ENDROOT
BRANCH   1   2
ATOM      2  O   UNL A   1      39.666  22.301  26.636  1.00  0.00    -0.376 OA
BRANCH   2   3
ATOM      3  C   UNL A   1      38.787  21.728  25.671  1.00  0.00     0.202 C 
BRANCH   3   4
ATOM      4  C   UNL A   1      37.556  22.569  25.332  1.00  0.00     0.261 C 
BRANCH   4   5
ATOM      5  O   UNL A   1      36.659  21.790  24.524  1.00  0.00    -0.459 OA
BRANCH   5   6
ATOM      6  C   UNL A   1      35.650  22.488  23.942  1.00  0.00     0.350 C 
ATOM      7  O   UNL A   1      35.796  23.343  23.079  1.00  0.00    -0.245 OA
BRANCH   6   8
ATOM      8  C   UNL A   1      34.399  21.949  24.423  1.00  0.00     0.136 A 
ATOM      9  C   UNL A   1      33.197  22.566  24.747  1.00  0.00     0.066 A 
ATOM     10  C   UNL A   1      32.316  21.633  25.388  1.00  0.00     0.039 A 
ATOM     11  C   UNL A   1      32.844  20.366  25.488  1.00  0.00     0.068 A 
ATOM     12  S   UNL A   1      34.391  20.271  24.788  1.00  0.00    -0.135 S 
BRANCH   9  13
ATOM     13  N   UNL A   1      32.911  23.905  24.457  1.00  0.00    -0.325 N 
ATOM     14  O   UNL A   1      30.719  23.684  23.700  1.00  0.00    -0.275 OA
ATOM     15  C   UNL A   1      31.732  24.353  23.887  1.00  0.00     0.224 C 
ATOM     16  H   UNL A   1      33.598  24.577  24.675  1.00  0.00     0.169 HD
BRANCH  15  17
ATOM     17  C   UNL A   1      31.752  25.812  23.467  1.00  0.00     0.105 C 
BRANCH  17  18
ATOM     18  C   UNL A   1      30.629  26.631  24.102  1.00  0.00     0.047 C 
BRANCH  18  19
ATOM     19  C   UNL A   1      31.155  27.553  25.167  1.00  0.00    -0.029 A 
ATOM     20  C   UNL A   1      31.363  27.116  26.478  1.00  0.00     0.007 A 
ATOM     21  C   UNL A   1      31.390  28.893  24.899  1.00  0.00     0.114 A 
ATOM     22  C   UNL A   1      31.754  28.026  27.455  1.00  0.00     0.020 A 
ATOM     23  N   UNL A   1      31.740  29.804  25.834  1.00  0.00    -0.264 NA
ATOM     24  C   UNL A   1      31.915  29.351  27.091  1.00  0.00     0.111 A 
ENDBRANCH  18  19
ENDBRANCH  17  18
ENDBRANCH  15  17
ENDBRANCH   9  13
ENDBRANCH   6   8
ENDBRANCH   5   6
ENDBRANCH   4   5
ENDBRANCH   3   4
ENDBRANCH   2   3
ENDBRANCH   1   2
BRANCH   1  25
ATOM     25  C   UNL A   1      41.284  20.771  27.860  1.00  0.00     0.188 C 
BRANCH  25  26
ATOM     26  O   UNL A   1      41.827  19.533  27.398  1.00  0.00    -0.376 OA
BRANCH  26  27
ATOM     27  C   UNL A   1      42.083  19.476  25.997  1.00  0.00     0.202 C 
BRANCH  27  28
ATOM     28  C   UNL A   1      43.252  18.544  25.669  1.00  0.00     0.261 C 
BRANCH  28  29
ATOM     29  O   UNL A   1      44.501  19.232  25.518  1.00  0.00    -0.460 OA
BRANCH  29  30
ATOM     30  C   UNL A   1      44.585  20.099  24.484  1.00  0.00     0.338 C 
ATOM     31  O   UNL A   1      44.554  19.828  23.296  1.00  0.00    -0.246 OA
BRANCH  30  32
ATOM     32  C   UNL A   1      44.544  21.468  25.036  1.00  0.00     0.060 A 
ATOM     33  C   UNL A   1      44.054  22.500  24.226  1.00  0.00     0.016 A 
ATOM     34  C   UNL A   1      44.962  21.726  26.345  1.00  0.00     0.016 A 
ATOM     35  C   UNL A   1      44.007  23.802  24.722  1.00  0.00     0.010 A 
ATOM     36  C   UNL A   1      44.925  23.030  26.835  1.00  0.00     0.010 A 
ATOM     37  C   UNL A   1      44.471  24.076  26.017  1.00  0.00    -0.014 A 
BRANCH  37  38
ATOM     38  C   UNL A   1      44.645  25.473  26.466  1.00  0.00     0.031 A 
ATOM     39  C   UNL A   1      46.018  26.078  26.407  1.00  0.00     0.074 A 
ATOM     40  C   UNL A   1      43.611  26.174  26.965  1.00  0.00     0.049 A 
ATOM     41  N   UNL A   1      46.402  27.286  26.720  1.00  0.00    -0.248 NA
ATOM     42  C   UNL A   1      47.103  25.202  25.931  1.00  0.00     0.031 C 
ATOM     43  C   UNL A   1      42.241  25.681  27.105  1.00  0.00     0.029 A 
ATOM     44  N   UNL A   1      43.567  27.447  27.473  1.00  0.00    -0.354 N 
ATOM     45  C   UNL A   1      47.768  27.321  26.472  1.00  0.00     0.074 A 
ATOM     46  C   UNL A   1      48.153  26.007  26.005  1.00  0.00     0.031 C 
ATOM     47  C   UNL A   1      41.495  26.635  27.690  1.00  0.00     0.029 A 
ATOM     48  C   UNL A   1      42.333  27.801  27.964  1.00  0.00     0.049 A 
ATOM     49  H   UNL A   1      44.345  28.050  27.484  1.00  0.00     0.167 HD
ATOM     50  C   UNL A   1      48.622  28.362  26.595  1.00  0.00     0.034 A 
ATOM     51  C   UNL A   1      41.934  28.940  28.566  1.00  0.00     0.034 A 
ATOM     52  C   UNL A   1      48.247  29.663  27.066  1.00  0.00     0.049 A 
ATOM     53  C   UNL A   1      42.918  30.068  28.736  1.00  0.00     0.074 A 
ATOM     54  C   UNL A   1      49.029  30.798  27.183  1.00  0.00     0.029 A 
ATOM     55  N   UNL A   1      46.981  29.999  27.522  1.00  0.00    -0.354 N 
ATOM     56  N   UNL A   1      44.163  30.146  28.333  1.00  0.00    -0.248 NA
ATOM     57  C   UNL A   1      42.430  31.279  29.414  1.00  0.00     0.031 C 
ATOM     58  C   UNL A   1      48.235  31.819  27.716  1.00  0.00     0.029 A 
ATOM     59  C   UNL A   1      46.962  31.318  27.934  1.00  0.00     0.049 A 
ATOM     60  H   UNL A   1      46.210  29.387  27.547  1.00  0.00     0.167 HD
ATOM     61  C   UNL A   1      44.599  31.420  28.682  1.00  0.00     0.074 A 
ATOM     62  C   UNL A   1      43.480  32.086  29.315  1.00  0.00     0.031 C 
ATOM     63  C   UNL A   1      45.821  31.983  28.509  1.00  0.00     0.034 A 
BRANCH  50  64
ATOM     64  C   UNL A   1      50.036  28.137  26.143  1.00  0.00     0.023 A 
ATOM     65  C   UNL A   1      50.326  28.220  24.766  1.00  0.00     0.012 A 
ATOM     66  C   UNL A   1      51.068  27.860  27.056  1.00  0.00     0.148 A 
ATOM     67  C   UNL A   1      51.623  28.011  24.302  1.00  0.00     0.002 A 
ATOM     68  C   UNL A   1      52.365  27.676  26.587  1.00  0.00     0.091 A 
ATOM     69  F   UNL A   1      50.763  27.743  28.357  1.00  0.00    -0.205 F 
ATOM     70  C   UNL A   1      52.643  27.748  25.212  1.00  0.00     0.022 A 
BRANCH  68  71
ATOM     71  S   UNL A   1      53.736  27.370  27.705  1.00  0.00     0.127 S 
ATOM     72  O   UNL A   1      54.103  28.727  28.103  1.00  0.00    -0.237 OA
ATOM     73  O   UNL A   1      53.115  26.572  28.763  1.00  0.00    -0.237 OA
ATOM     74  O   UNL A   1      54.723  26.647  26.914  1.00  0.00    -0.744 OA
ENDBRANCH  68  71
ENDBRANCH  50  64
BRANCH  51  75
ATOM     75  C   UNL A   1      40.517  29.097  28.990  1.00  0.00     0.023 A 
ATOM     76  C   UNL A   1      39.541  29.386  28.018  1.00  0.00     0.012 A 
ATOM     77  C   UNL A   1      40.126  28.951  30.335  1.00  0.00     0.148 A 
ATOM     78  C   UNL A   1      38.203  29.546  28.379  1.00  0.00     0.002 A 
ATOM     79  C   UNL A   1      38.785  29.074  30.683  1.00  0.00     0.091 A 
ATOM     80  F   UNL A   1      41.074  28.705  31.251  1.00  0.00    -0.205 F 
ATOM     81  C   UNL A   1      37.822  29.380  29.709  1.00  0.00     0.022 A 
BRANCH  79  82
ATOM     82  S   UNL A   1      38.208  28.775  32.358  1.00  0.00     0.127 S 
ATOM     83  O   UNL A   1      38.977  29.756  33.120  1.00  0.00    -0.237 OA
ATOM     84  O   UNL A   1      36.777  29.062  32.252  1.00  0.00    -0.237 OA
ATOM     85  O   UNL A   1      38.516  27.375  32.621  1.00  0.00    -0.744 OA
ENDBRANCH  79  82
ENDBRANCH  51  75
BRANCH  63  86
ATOM     86  C   UNL A   1      46.021  33.388  29.004  1.00  0.00     0.023 A 
ATOM     87  C   UNL A   1      46.569  33.595  30.285  1.00  0.00     0.012 A 
ATOM     88  C   UNL A   1      45.765  34.496  28.174  1.00  0.00     0.148 A 
ATOM     89  C   UNL A   1      46.846  34.884  30.738  1.00  0.00     0.002 A 
ATOM     90  C   UNL A   1      46.077  35.777  28.618  1.00  0.00     0.091 A 
ATOM     91  F   UNL A   1      45.220  34.284  26.967  1.00  0.00    -0.205 F 
ATOM     92  C   UNL A   1      46.614  35.973  29.901  1.00  0.00     0.022 A 
BRANCH  90  93
ATOM     93  S   UNL A   1      45.884  37.212  27.555  1.00  0.00     0.127 S 
ATOM     94  O   UNL A   1      44.442  37.226  27.324  1.00  0.00    -0.237 OA
ATOM     95  O   UNL A   1      46.377  38.305  28.395  1.00  0.00    -0.237 OA
ATOM     96  O   UNL A   1      46.714  36.941  26.387  1.00  0.00    -0.744 OA
ENDBRANCH  90  93
ENDBRANCH  63  86
ENDBRANCH  37  38
ENDBRANCH  30  32
ENDBRANCH  29  30
ENDBRANCH  28  29
ENDBRANCH  27  28
ENDBRANCH  26  27
ENDBRANCH  25  26
ENDBRANCH   1  25
TORSDOF 24
ENDMDL
