MODEL 1
REMARK VINA RESULT:     -11.1      0.000      0.000
REMARK SMILES Cc1ccc([N+](=O)[O-])c(N2CCC[C@H](CC(=O)OCCOCCOCCOC(=O)c3ccc(-c4c5nc(c(-c6cccc(S(=O)(=O)[O-])c6F)c6ccc([nH]6)c(-c6cccc(S(=O)(=O)[O-])c6F)c6nc(c(-c7cccc(S(=O)(=O)[O-])c7F)c7ccc4[nH]7)C=C6)C=C5)cc3)C2)c1
REMARK SMILES IDX 22 1 21 2 20 3 19 4 18 5 16 6 17 7 15 8 14 9 10 10 11 11
REMARK SMILES IDX 93 12 12 13 13 14 9 15 1 16 2 17 3 18 94 19 4 20 5 21 6 22
REMARK SMILES IDX 7 23 8 24 23 25 24 26 25 27 26 28 27 29 28 30 29 31 30 32
REMARK SMILES IDX 31 33 92 34 32 35 91 36 33 37 34 38 35 39 85 40 36 41 90 42
REMARK SMILES IDX 84 43 86 44 37 45 89 46 83 47 82 48 38 50 70 51 50 52 69 53
REMARK SMILES IDX 51 54 54 55 68 56 87 57 52 58 53 59 67 61 88 62 55 63 39 64
REMARK SMILES IDX 40 65 48 66 41 67 43 68 49 69 42 70 44 71 45 72 46 73 47 74
REMARK SMILES IDX 71 75 72 76 80 77 73 78 75 79 81 80 74 81 76 82 77 83 78 84
REMARK SMILES IDX 79 85 56 86 57 87 65 88 58 89 60 90 66 91 59 92 61 93 62 94
REMARK SMILES IDX 63 95 64 96
REMARK H PARENT 86 49 54 60
REMARK Flexibility Score: inf
ROOT
ATOM      1  C   UNL A   1      33.845  33.504  27.945  1.00  0.00     0.188 C 
ENDROOT
BRANCH   1   2
ATOM      2  O   UNL A   1      34.970  32.645  27.653  1.00  0.00    -0.376 OA
BRANCH   2   3
ATOM      3  C   UNL A   1      35.084  31.237  27.958  1.00  0.00     0.202 C 
BRANCH   3   4
ATOM      4  C   UNL A   1      34.160  29.955  27.293  1.00  0.00     0.261 C 
BRANCH   4   5
ATOM      5  O   UNL A   1      34.362  29.037  25.902  1.00  0.00    -0.463 OA
BRANCH   5   6
ATOM      6  C   UNL A   1      33.542  28.719  24.799  1.00  0.00     0.306 C 
ATOM      7  O   UNL A   1      33.267  29.430  23.829  1.00  0.00    -0.252 OA
BRANCH   6   8
ATOM      8  C   UNL A   1      32.934  27.417  24.478  1.00  0.00     0.128 C 
BRANCH   8   9
ATOM      9  C   UNL A   1      31.549  26.968  24.785  1.00  0.00     0.019 C 
ATOM     10  N   UNL A   1      32.149  24.601  24.366  1.00  0.00    -0.366 N 
ATOM     11  C   UNL A   1      31.267  24.482  23.202  1.00  0.00     0.117 C 
ATOM     12  C   UNL A   1      31.714  25.554  25.406  1.00  0.00     0.121 C 
ATOM     13  C   UNL A   1      31.070  25.853  22.547  1.00  0.00     0.022 C 
ATOM     14  C   UNL A   1      30.657  26.932  23.552  1.00  0.00     0.008 C 
BRANCH  10  15
ATOM     15  C   UNL A   1      33.120  23.643  24.647  1.00  0.00     0.116 A 
ATOM     16  C   UNL A   1      36.628  22.869  23.259  1.00  0.00     0.044 C 
ATOM     17  C   UNL A   1      35.367  22.756  24.063  1.00  0.00    -0.049 A 
ATOM     18  C   UNL A   1      35.209  21.697  24.953  1.00  0.00     0.010 A 
ATOM     19  C   UNL A   1      34.337  23.708  23.930  1.00  0.00     0.036 A 
ATOM     20  C   UNL A   1      34.035  21.592  25.691  1.00  0.00     0.088 A 
ATOM     21  C   UNL A   1      33.003  22.550  25.542  1.00  0.00     0.292 A 
BRANCH  21  22
ATOM     22  N   UNL A   1      31.800  22.276  26.332  1.00  0.00     0.064 N 
ATOM     23  O   UNL A   1      31.775  22.726  27.487  1.00  0.00    -0.258 OA
ATOM     24  O   UNL A   1      30.839  21.743  25.765  1.00  0.00    -0.258 OA
ENDBRANCH  21  22
ENDBRANCH  10  15
ENDBRANCH   8   9
ENDBRANCH   6   8
ENDBRANCH   5   6
ENDBRANCH   4   5
ENDBRANCH   3   4
ENDBRANCH   2   3
ENDBRANCH   1   2
BRANCH   1  25
ATOM     25  C   UNL A   1      33.542  34.110  29.327  1.00  0.00     0.188 C 
BRANCH  25  26
ATOM     26  O   UNL A   1      33.745  35.508  29.349  1.00  0.00    -0.376 OA
BRANCH  26  27
ATOM     27  C   UNL A   1      32.851  36.269  30.146  1.00  0.00     0.202 C 
BRANCH  27  28
ATOM     28  C   UNL A   1      33.237  36.386  31.641  1.00  0.00     0.261 C 
BRANCH  28  29
ATOM     29  O   UNL A   1      34.601  35.964  31.892  1.00  0.00    -0.460 OA
BRANCH  29  30
ATOM     30  C   UNL A   1      34.845  35.216  33.029  1.00  0.00     0.338 C 
ATOM     31  O   UNL A   1      34.741  35.668  34.161  1.00  0.00    -0.246 OA
BRANCH  30  32
ATOM     32  C   UNL A   1      35.468  33.893  32.653  1.00  0.00     0.060 A 
ATOM     33  C   UNL A   1      35.764  32.773  33.449  1.00  0.00     0.016 A 
ATOM     34  C   UNL A   1      36.116  33.920  31.475  1.00  0.00     0.016 A 
ATOM     35  C   UNL A   1      36.821  31.805  33.084  1.00  0.00     0.010 A 
ATOM     36  C   UNL A   1      37.292  33.187  31.409  1.00  0.00     0.010 A 
ATOM     37  C   UNL A   1      37.717  32.023  32.037  1.00  0.00    -0.014 A 
BRANCH  37  38
ATOM     38  C   UNL A   1      39.101  31.275  31.581  1.00  0.00     0.031 A 
ATOM     39  C   UNL A   1      39.463  29.816  30.774  1.00  0.00     0.074 A 
ATOM     40  C   UNL A   1      40.224  31.905  31.983  1.00  0.00     0.049 A 
ATOM     41  N   UNL A   1      40.562  29.112  30.988  1.00  0.00    -0.248 NA
ATOM     42  C   UNL A   1      38.651  28.983  29.801  1.00  0.00     0.031 C 
ATOM     43  C   UNL A   1      41.603  31.628  31.597  1.00  0.00     0.029 A 
ATOM     44  N   UNL A   1      40.341  32.838  33.015  1.00  0.00    -0.354 N 
ATOM     45  C   UNL A   1      40.512  27.962  30.177  1.00  0.00     0.074 A 
ATOM     46  C   UNL A   1      39.176  27.779  29.835  1.00  0.00     0.031 C 
ATOM     47  C   UNL A   1      42.408  32.081  32.568  1.00  0.00     0.029 A 
ATOM     48  C   UNL A   1      41.557  32.542  33.650  1.00  0.00     0.049 A 
ATOM     49  H   UNL A   1      39.705  33.554  33.248  1.00  0.00     0.167 HD
ATOM     50  C   UNL A   1      41.584  27.326  29.638  1.00  0.00     0.034 A 
ATOM     51  C   UNL A   1      41.568  32.113  34.945  1.00  0.00     0.034 A 
ATOM     52  C   UNL A   1      42.751  27.726  30.390  1.00  0.00     0.049 A 
ATOM     53  C   UNL A   1      42.265  30.775  35.145  1.00  0.00     0.074 A 
ATOM     54  C   UNL A   1      43.783  28.627  30.249  1.00  0.00     0.029 A 
ATOM     55  N   UNL A   1      42.717  27.377  31.717  1.00  0.00    -0.354 N 
ATOM     56  N   UNL A   1      42.895  30.098  34.217  1.00  0.00    -0.248 NA
ATOM     57  C   UNL A   1      42.258  30.065  36.423  1.00  0.00     0.031 C 
ATOM     58  C   UNL A   1      44.325  28.854  31.561  1.00  0.00     0.029 A 
ATOM     59  C   UNL A   1      43.650  28.048  32.464  1.00  0.00     0.049 A 
ATOM     60  H   UNL A   1      42.090  26.716  32.092  1.00  0.00     0.167 HD
ATOM     61  C   UNL A   1      43.179  28.836  34.686  1.00  0.00     0.074 A 
ATOM     62  C   UNL A   1      42.819  28.890  36.092  1.00  0.00     0.031 C 
ATOM     63  C   UNL A   1      43.604  27.799  33.896  1.00  0.00     0.034 A 
BRANCH  50  64
ATOM     64  C   UNL A   1      41.584  26.406  28.387  1.00  0.00     0.023 A 
ATOM     65  C   UNL A   1      41.136  27.003  27.189  1.00  0.00     0.012 A 
ATOM     66  C   UNL A   1      41.870  25.003  28.275  1.00  0.00     0.148 A 
ATOM     67  C   UNL A   1      40.936  26.278  26.000  1.00  0.00     0.002 A 
ATOM     68  C   UNL A   1      41.685  24.281  27.084  1.00  0.00     0.091 A 
ATOM     69  F   UNL A   1      42.292  24.291  29.313  1.00  0.00    -0.205 F 
ATOM     70  C   UNL A   1      41.203  24.917  25.947  1.00  0.00     0.022 A 
BRANCH  68  71
ATOM     71  S   UNL A   1      41.970  22.491  26.955  1.00  0.00     0.127 S 
ATOM     72  O   UNL A   1      41.770  22.254  25.523  1.00  0.00    -0.237 OA
ATOM     73  O   UNL A   1      43.357  22.355  27.398  1.00  0.00    -0.237 OA
ATOM     74  O   UNL A   1      40.986  21.837  27.808  1.00  0.00    -0.744 OA
ENDBRANCH  68  71
ENDBRANCH  50  64
BRANCH  51  75
ATOM     75  C   UNL A   1      40.460  32.718  35.771  1.00  0.00     0.023 A 
ATOM     76  C   UNL A   1      39.323  31.891  35.997  1.00  0.00     0.012 A 
ATOM     77  C   UNL A   1      40.587  33.878  36.559  1.00  0.00     0.148 A 
ATOM     78  C   UNL A   1      38.431  32.128  37.045  1.00  0.00     0.002 A 
ATOM     79  C   UNL A   1      39.664  34.133  37.585  1.00  0.00     0.091 A 
ATOM     80  F   UNL A   1      41.630  34.692  36.352  1.00  0.00    -0.205 F 
ATOM     81  C   UNL A   1      38.614  33.239  37.854  1.00  0.00     0.022 A 
BRANCH  79  82
ATOM     82  S   UNL A   1      39.858  35.524  38.721  1.00  0.00     0.127 S 
ATOM     83  O   UNL A   1      41.249  35.369  39.139  1.00  0.00    -0.237 OA
ATOM     84  O   UNL A   1      39.613  36.687  37.862  1.00  0.00    -0.237 OA
ATOM     85  O   UNL A   1      38.846  35.321  39.744  1.00  0.00    -0.744 OA
ENDBRANCH  79  82
ENDBRANCH  51  75
BRANCH  63  86
ATOM     86  C   UNL A   1      43.912  26.398  34.423  1.00  0.00     0.023 A 
ATOM     87  C   UNL A   1      42.859  25.568  34.849  1.00  0.00     0.012 A 
ATOM     88  C   UNL A   1      45.232  25.905  34.640  1.00  0.00     0.148 A 
ATOM     89  C   UNL A   1      43.095  24.299  35.395  1.00  0.00     0.002 A 
ATOM     90  C   UNL A   1      45.464  24.686  35.269  1.00  0.00     0.091 A 
ATOM     91  F   UNL A   1      46.291  26.595  34.210  1.00  0.00    -0.205 F 
ATOM     92  C   UNL A   1      44.395  23.864  35.617  1.00  0.00     0.022 A 
BRANCH  90  93
ATOM     93  S   UNL A   1      47.113  24.134  35.747  1.00  0.00     0.127 S 
ATOM     94  O   UNL A   1      47.671  25.356  36.329  1.00  0.00    -0.237 OA
ATOM     95  O   UNL A   1      46.811  23.083  36.718  1.00  0.00    -0.237 OA
ATOM     96  O   UNL A   1      47.771  23.685  34.529  1.00  0.00    -0.744 OA
ENDBRANCH  90  93
ENDBRANCH  63  86
ENDBRANCH  37  38
ENDBRANCH  30  32
ENDBRANCH  29  30
ENDBRANCH  28  29
ENDBRANCH  27  28
ENDBRANCH  26  27
ENDBRANCH  25  26
ENDBRANCH   1  25
TORSDOF 23
ENDMDL
MODEL 2
REMARK VINA RESULT:     -10.8      4.231     10.516
REMARK SMILES Cc1ccc([N+](=O)[O-])c(N2CCC[C@H](CC(=O)OCCOCCOCCOC(=O)c3ccc(-c4c5nc(c(-c6cccc(S(=O)(=O)[O-])c6F)c6ccc([nH]6)c(-c6cccc(S(=O)(=O)[O-])c6F)c6nc(c(-c7cccc(S(=O)(=O)[O-])c7F)c7ccc4[nH]7)C=C6)C=C5)cc3)C2)c1
REMARK SMILES IDX 22 1 21 2 20 3 19 4 18 5 16 6 17 7 15 8 14 9 10 10 11 11
REMARK SMILES IDX 93 12 12 13 13 14 9 15 1 16 2 17 3 18 94 19 4 20 5 21 6 22
REMARK SMILES IDX 7 23 8 24 23 25 24 26 25 27 26 28 27 29 28 30 29 31 30 32
REMARK SMILES IDX 31 33 92 34 32 35 91 36 33 37 34 38 35 39 85 40 36 41 90 42
REMARK SMILES IDX 84 43 86 44 37 45 89 46 83 47 82 48 38 50 70 51 50 52 69 53
REMARK SMILES IDX 51 54 54 55 68 56 87 57 52 58 53 59 67 61 88 62 55 63 39 64
REMARK SMILES IDX 40 65 48 66 41 67 43 68 49 69 42 70 44 71 45 72 46 73 47 74
REMARK SMILES IDX 71 75 72 76 80 77 73 78 75 79 81 80 74 81 76 82 77 83 78 84
REMARK SMILES IDX 79 85 56 86 57 87 65 88 58 89 60 90 66 91 59 92 61 93 62 94
REMARK SMILES IDX 63 95 64 96
REMARK H PARENT 86 49 54 60
REMARK Flexibility Score: inf
ROOT
ATOM      1  C   UNL A   1      39.180  24.060  26.898  1.00  0.00     0.188 C 
ENDROOT
BRANCH   1   2
ATOM      2  O   UNL A   1      37.995  23.900  26.086  1.00  0.00    -0.376 OA
BRANCH   2   3
ATOM      3  C   UNL A   1      37.381  22.653  25.690  1.00  0.00     0.202 C 
BRANCH   3   4
ATOM      4  C   UNL A   1      36.433  22.363  24.292  1.00  0.00     0.261 C 
BRANCH   4   5
ATOM      5  O   UNL A   1      34.788  22.529  24.005  1.00  0.00    -0.463 OA
BRANCH   5   6
ATOM      6  C   UNL A   1      34.015  23.232  23.056  1.00  0.00     0.306 C 
ATOM      7  O   UNL A   1      34.212  23.332  21.842  1.00  0.00    -0.252 OA
BRANCH   6   8
ATOM      8  C   UNL A   1      32.719  23.897  23.268  1.00  0.00     0.128 C 
BRANCH   8   9
ATOM      9  C   UNL A   1      31.419  23.253  23.603  1.00  0.00     0.019 C 
ATOM     10  N   UNL A   1      30.501  25.390  24.458  1.00  0.00    -0.366 N 
ATOM     11  C   UNL A   1      30.391  24.904  25.835  1.00  0.00     0.117 C 
ATOM     12  C   UNL A   1      30.356  24.367  23.403  1.00  0.00     0.121 C 
ATOM     13  C   UNL A   1      31.423  23.800  26.090  1.00  0.00     0.022 C 
ATOM     14  C   UNL A   1      31.385  22.703  25.022  1.00  0.00     0.008 C 
BRANCH  10  15
ATOM     15  C   UNL A   1      30.390  26.744  24.150  1.00  0.00     0.116 A 
ATOM     16  C   UNL A   1      27.554  28.984  22.820  1.00  0.00     0.044 C 
ATOM     17  C   UNL A   1      28.907  28.545  23.294  1.00  0.00    -0.049 A 
ATOM     18  C   UNL A   1      29.957  29.459  23.325  1.00  0.00     0.010 A 
ATOM     19  C   UNL A   1      29.132  27.219  23.711  1.00  0.00     0.036 A 
ATOM     20  C   UNL A   1      31.212  29.046  23.758  1.00  0.00     0.088 A 
ATOM     21  C   UNL A   1      31.429  27.708  24.165  1.00  0.00     0.292 A 
BRANCH  21  22
ATOM     22  N   UNL A   1      32.813  27.400  24.533  1.00  0.00     0.064 N 
ATOM     23  O   UNL A   1      33.668  27.516  23.643  1.00  0.00    -0.258 OA
ATOM     24  O   UNL A   1      33.065  27.183  25.724  1.00  0.00    -0.258 OA
ENDBRANCH  21  22
ENDBRANCH  10  15
ENDBRANCH   8   9
ENDBRANCH   6   8
ENDBRANCH   5   6
ENDBRANCH   4   5
ENDBRANCH   3   4
ENDBRANCH   2   3
ENDBRANCH   1   2
BRANCH   1  25
ATOM     25  C   UNL A   1      40.537  23.396  26.606  1.00  0.00     0.188 C 
BRANCH  25  26
ATOM     26  O   UNL A   1      40.652  22.131  27.226  1.00  0.00    -0.376 OA
BRANCH  26  27
ATOM     27  C   UNL A   1      41.117  21.064  26.413  1.00  0.00     0.202 C 
BRANCH  27  28
ATOM     28  C   UNL A   1      42.652  21.003  26.220  1.00  0.00     0.261 C 
BRANCH  28  29
ATOM     29  O   UNL A   1      43.099  21.816  25.105  1.00  0.00    -0.460 OA
BRANCH  29  30
ATOM     30  C   UNL A   1      44.419  22.228  25.096  1.00  0.00     0.338 C 
ATOM     31  O   UNL A   1      45.304  21.617  24.512  1.00  0.00    -0.246 OA
BRANCH  30  32
ATOM     32  C   UNL A   1      44.616  23.356  26.080  1.00  0.00     0.060 A 
ATOM     33  C   UNL A   1      45.004  23.322  27.430  1.00  0.00     0.016 A 
ATOM     34  C   UNL A   1      44.030  24.506  25.702  1.00  0.00     0.016 A 
ATOM     35  C   UNL A   1      44.643  24.397  28.380  1.00  0.00     0.010 A 
ATOM     36  C   UNL A   1      43.448  25.255  26.715  1.00  0.00     0.010 A 
ATOM     37  C   UNL A   1      43.748  25.419  28.061  1.00  0.00    -0.014 A 
BRANCH  37  38
ATOM     38  C   UNL A   1      42.991  26.558  28.962  1.00  0.00     0.031 A 
ATOM     39  C   UNL A   1      41.690  27.628  28.690  1.00  0.00     0.074 A 
ATOM     40  C   UNL A   1      43.549  26.762  30.172  1.00  0.00     0.049 A 
ATOM     41  N   UNL A   1      41.583  28.815  29.264  1.00  0.00    -0.248 NA
ATOM     42  C   UNL A   1      40.514  27.551  27.735  1.00  0.00     0.031 C 
ATOM     43  C   UNL A   1      43.030  27.549  31.285  1.00  0.00     0.029 A 
ATOM     44  N   UNL A   1      44.846  26.428  30.568  1.00  0.00    -0.354 N 
ATOM     45  C   UNL A   1      40.409  29.429  28.788  1.00  0.00     0.074 A 
ATOM     46  C   UNL A   1      40.080  28.784  27.600  1.00  0.00     0.031 C 
ATOM     47  C   UNL A   1      44.064  27.924  32.051  1.00  0.00     0.029 A 
ATOM     48  C   UNL A   1      45.275  27.492  31.376  1.00  0.00     0.049 A 
ATOM     49  H   UNL A   1      45.352  25.617  30.331  1.00  0.00     0.167 HD
ATOM     50  C   UNL A   1      39.629  30.294  29.485  1.00  0.00     0.034 A 
ATOM     51  C   UNL A   1      46.320  28.275  30.981  1.00  0.00     0.034 A 
ATOM     52  C   UNL A   1      40.425  30.821  30.571  1.00  0.00     0.049 A 
ATOM     53  C   UNL A   1      45.984  29.758  30.903  1.00  0.00     0.074 A 
ATOM     54  C   UNL A   1      40.582  30.579  31.917  1.00  0.00     0.029 A 
ATOM     55  N   UNL A   1      41.532  31.528  30.170  1.00  0.00    -0.354 N 
ATOM     56  N   UNL A   1      44.847  30.300  31.260  1.00  0.00    -0.248 NA
ATOM     57  C   UNL A   1      46.911  30.749  30.359  1.00  0.00     0.031 C 
ATOM     58  C   UNL A   1      41.861  31.116  32.294  1.00  0.00     0.029 A 
ATOM     59  C   UNL A   1      42.432  31.719  31.185  1.00  0.00     0.049 A 
ATOM     60  H   UNL A   1      41.663  31.862  29.253  1.00  0.00     0.167 HD
ATOM     61  C   UNL A   1      44.806  31.604  30.822  1.00  0.00     0.074 A 
ATOM     62  C   UNL A   1      46.148  31.854  30.324  1.00  0.00     0.031 C 
ATOM     63  C   UNL A   1      43.673  32.376  30.807  1.00  0.00     0.034 A 
BRANCH  50  64
ATOM     64  C   UNL A   1      38.128  30.603  29.232  1.00  0.00     0.023 A 
ATOM     65  C   UNL A   1      37.561  29.986  28.096  1.00  0.00     0.012 A 
ATOM     66  C   UNL A   1      37.246  31.508  29.913  1.00  0.00     0.148 A 
ATOM     67  C   UNL A   1      36.261  30.271  27.640  1.00  0.00     0.002 A 
ATOM     68  C   UNL A   1      35.942  31.782  29.467  1.00  0.00     0.091 A 
ATOM     69  F   UNL A   1      37.630  32.177  30.995  1.00  0.00    -0.205 F 
ATOM     70  C   UNL A   1      35.453  31.172  28.319  1.00  0.00     0.022 A 
BRANCH  68  71
ATOM     71  S   UNL A   1      34.848  32.983  30.279  1.00  0.00     0.127 S 
ATOM     72  O   UNL A   1      35.729  34.145  30.428  1.00  0.00    -0.237 OA
ATOM     73  O   UNL A   1      33.781  33.161  29.295  1.00  0.00    -0.237 OA
ATOM     74  O   UNL A   1      34.424  32.393  31.543  1.00  0.00    -0.744 OA
ENDBRANCH  68  71
ENDBRANCH  50  64
BRANCH  51  75
ATOM     75  C   UNL A   1      47.357  27.513  30.192  1.00  0.00     0.023 A 
ATOM     76  C   UNL A   1      48.240  26.692  30.949  1.00  0.00     0.012 A 
ATOM     77  C   UNL A   1      47.325  27.322  28.798  1.00  0.00     0.148 A 
ATOM     78  C   UNL A   1      48.953  25.640  30.368  1.00  0.00     0.002 A 
ATOM     79  C   UNL A   1      48.076  26.289  28.214  1.00  0.00     0.091 A 
ATOM     80  F   UNL A   1      46.525  28.098  28.054  1.00  0.00    -0.205 F 
ATOM     81  C   UNL A   1      48.854  25.425  29.002  1.00  0.00     0.022 A 
BRANCH  79  82
ATOM     82  S   UNL A   1      47.963  25.904  26.453  1.00  0.00     0.127 S 
ATOM     83  O   UNL A   1      48.007  24.445  26.469  1.00  0.00    -0.237 OA
ATOM     84  O   UNL A   1      46.662  26.464  26.077  1.00  0.00    -0.237 OA
ATOM     85  O   UNL A   1      49.096  26.582  25.845  1.00  0.00    -0.744 OA
ENDBRANCH  79  82
ENDBRANCH  51  75
BRANCH  63  86
ATOM     86  C   UNL A   1      43.634  33.822  30.314  1.00  0.00     0.023 A 
ATOM     87  C   UNL A   1      43.343  34.859  31.220  1.00  0.00     0.012 A 
ATOM     88  C   UNL A   1      43.748  34.196  28.942  1.00  0.00     0.148 A 
ATOM     89  C   UNL A   1      43.238  36.193  30.805  1.00  0.00     0.002 A 
ATOM     90  C   UNL A   1      43.549  35.507  28.522  1.00  0.00     0.091 A 
ATOM     91  F   UNL A   1      44.086  33.291  28.020  1.00  0.00    -0.205 F 
ATOM     92  C   UNL A   1      43.328  36.516  29.457  1.00  0.00     0.022 A 
BRANCH  90  93
ATOM     93  S   UNL A   1      43.477  35.972  26.781  1.00  0.00     0.127 S 
ATOM     94  O   UNL A   1      44.867  36.355  26.524  1.00  0.00    -0.237 OA
ATOM     95  O   UNL A   1      43.067  34.719  26.149  1.00  0.00    -0.237 OA
ATOM     96  O   UNL A   1      42.518  37.062  26.681  1.00  0.00    -0.744 OA
ENDBRANCH  90  93
ENDBRANCH  63  86
ENDBRANCH  37  38
ENDBRANCH  30  32
ENDBRANCH  29  30
ENDBRANCH  28  29
ENDBRANCH  27  28
ENDBRANCH  26  27
ENDBRANCH  25  26
ENDBRANCH   1  25
TORSDOF 23
ENDMDL
MODEL 3
REMARK VINA RESULT:     -10.0      6.539     11.344
REMARK SMILES Cc1ccc([N+](=O)[O-])c(N2CCC[C@H](CC(=O)OCCOCCOCCOC(=O)c3ccc(-c4c5nc(c(-c6cccc(S(=O)(=O)[O-])c6F)c6ccc([nH]6)c(-c6cccc(S(=O)(=O)[O-])c6F)c6nc(c(-c7cccc(S(=O)(=O)[O-])c7F)c7ccc4[nH]7)C=C6)C=C5)cc3)C2)c1
REMARK SMILES IDX 22 1 21 2 20 3 19 4 18 5 16 6 17 7 15 8 14 9 10 10 11 11
REMARK SMILES IDX 93 12 12 13 13 14 9 15 1 16 2 17 3 18 94 19 4 20 5 21 6 22
REMARK SMILES IDX 7 23 8 24 23 25 24 26 25 27 26 28 27 29 28 30 29 31 30 32
REMARK SMILES IDX 31 33 92 34 32 35 91 36 33 37 34 38 35 39 85 40 36 41 90 42
REMARK SMILES IDX 84 43 86 44 37 45 89 46 83 47 82 48 38 50 70 51 50 52 69 53
REMARK SMILES IDX 51 54 54 55 68 56 87 57 52 58 53 59 67 61 88 62 55 63 39 64
REMARK SMILES IDX 40 65 48 66 41 67 43 68 49 69 42 70 44 71 45 72 46 73 47 74
REMARK SMILES IDX 71 75 72 76 80 77 73 78 75 79 81 80 74 81 76 82 77 83 78 84
REMARK SMILES IDX 79 85 56 86 57 87 65 88 58 89 60 90 66 91 59 92 61 93 62 94
REMARK SMILES IDX 63 95 64 96
REMARK H PARENT 86 49 54 60
REMARK Flexibility Score: inf
ROOT
ATOM      1  C   UNL A   1      35.140  32.589  29.693  1.00  0.00     0.188 C 
ENDROOT
BRANCH   1   2
ATOM      2  O   UNL A   1      34.083  31.974  28.921  1.00  0.00    -0.376 OA
BRANCH   2   3
ATOM      3  C   UNL A   1      34.214  31.344  27.627  1.00  0.00     0.202 C 
BRANCH   3   4
ATOM      4  C   UNL A   1      34.619  29.709  27.306  1.00  0.00     0.261 C 
BRANCH   4   5
ATOM      5  O   UNL A   1      33.764  28.473  26.559  1.00  0.00    -0.463 OA
BRANCH   5   6
ATOM      6  C   UNL A   1      33.398  28.189  25.226  1.00  0.00     0.306 C 
ATOM      7  O   UNL A   1      33.253  28.983  24.293  1.00  0.00    -0.252 OA
BRANCH   6   8
ATOM      8  C   UNL A   1      33.237  26.865  24.602  1.00  0.00     0.128 C 
BRANCH   8   9
ATOM      9  C   UNL A   1      31.972  26.237  24.132  1.00  0.00     0.019 C 
ATOM     10  N   UNL A   1      33.100  24.058  23.787  1.00  0.00    -0.366 N 
ATOM     11  C   UNL A   1      32.906  24.077  22.335  1.00  0.00     0.117 C 
ATOM     12  C   UNL A   1      32.069  24.754  24.582  1.00  0.00     0.121 C 
ATOM     13  C   UNL A   1      32.805  25.522  21.835  1.00  0.00     0.022 C 
ATOM     14  C   UNL A   1      31.786  26.348  22.625  1.00  0.00     0.008 C 
BRANCH  10  15
ATOM     15  C   UNL A   1      33.975  23.161  24.394  1.00  0.00     0.116 A 
ATOM     16  C   UNL A   1      37.604  23.373  25.667  1.00  0.00     0.044 C 
ATOM     17  C   UNL A   1      36.258  22.814  25.314  1.00  0.00    -0.049 A 
ATOM     18  C   UNL A   1      35.993  21.463  25.530  1.00  0.00     0.010 A 
ATOM     19  C   UNL A   1      35.255  23.636  24.765  1.00  0.00     0.036 A 
ATOM     20  C   UNL A   1      34.747  20.948  25.193  1.00  0.00     0.088 A 
ATOM     21  C   UNL A   1      33.750  21.782  24.633  1.00  0.00     0.292 A 
BRANCH  21  22
ATOM     22  N   UNL A   1      32.512  21.090  24.267  1.00  0.00     0.064 N 
ATOM     23  O   UNL A   1      32.352  20.825  23.067  1.00  0.00    -0.258 OA
ATOM     24  O   UNL A   1      31.776  20.691  25.178  1.00  0.00    -0.258 OA
ENDBRANCH  21  22
ENDBRANCH  10  15
ENDBRANCH   8   9
ENDBRANCH   6   8
ENDBRANCH   5   6
ENDBRANCH   4   5
ENDBRANCH   3   4
ENDBRANCH   2   3
ENDBRANCH   1   2
BRANCH   1  25
ATOM     25  C   UNL A   1      34.947  33.788  30.639  1.00  0.00     0.188 C 
BRANCH  25  26
ATOM     26  O   UNL A   1      35.316  33.478  31.968  1.00  0.00    -0.376 OA
BRANCH  26  27
ATOM     27  C   UNL A   1      35.832  34.544  32.750  1.00  0.00     0.202 C 
BRANCH  27  28
ATOM     28  C   UNL A   1      36.119  34.197  34.231  1.00  0.00     0.261 C 
BRANCH  28  29
ATOM     29  O   UNL A   1      37.092  33.131  34.368  1.00  0.00    -0.460 OA
BRANCH  29  30
ATOM     30  C   UNL A   1      37.692  32.961  35.602  1.00  0.00     0.338 C 
ATOM     31  O   UNL A   1      37.062  32.718  36.622  1.00  0.00    -0.246 OA
BRANCH  30  32
ATOM     32  C   UNL A   1      39.149  33.349  35.527  1.00  0.00     0.060 A 
ATOM     33  C   UNL A   1      39.900  34.208  36.348  1.00  0.00     0.016 A 
ATOM     34  C   UNL A   1      39.712  33.094  34.332  1.00  0.00     0.016 A 
ATOM     35  C   UNL A   1      41.117  34.896  35.863  1.00  0.00     0.010 A 
ATOM     36  C   UNL A   1      40.623  34.036  33.874  1.00  0.00     0.010 A 
ATOM     37  C   UNL A   1      41.504  34.892  34.522  1.00  0.00    -0.014 A 
BRANCH  37  38
ATOM     38  C   UNL A   1      42.621  35.746  33.682  1.00  0.00     0.031 A 
ATOM     39  C   UNL A   1      43.078  37.389  33.628  1.00  0.00     0.074 A 
ATOM     40  C   UNL A   1      43.299  35.018  32.772  1.00  0.00     0.049 A 
ATOM     41  N   UNL A   1      43.557  37.983  32.547  1.00  0.00    -0.248 NA
ATOM     42  C   UNL A   1      42.952  38.497  34.657  1.00  0.00     0.031 C 
ATOM     43  C   UNL A   1      44.474  35.405  31.999  1.00  0.00     0.029 A 
ATOM     44  N   UNL A   1      42.913  33.797  32.215  1.00  0.00    -0.354 N 
ATOM     45  C   UNL A   1      43.795  39.335  32.858  1.00  0.00     0.074 A 
ATOM     46  C   UNL A   1      43.028  39.622  33.982  1.00  0.00     0.031 C 
ATOM     47  C   UNL A   1      44.508  34.657  30.887  1.00  0.00     0.029 A 
ATOM     48  C   UNL A   1      43.290  33.867  30.865  1.00  0.00     0.049 A 
ATOM     49  H   UNL A   1      42.470  33.045  32.673  1.00  0.00     0.167 HD
ATOM     50  C   UNL A   1      44.769  40.112  32.319  1.00  0.00     0.034 A 
ATOM     51  C   UNL A   1      42.342  33.846  29.886  1.00  0.00     0.034 A 
ATOM     52  C   UNL A   1      45.195  39.486  31.088  1.00  0.00     0.049 A 
ATOM     53  C   UNL A   1      42.398  35.043  28.947  1.00  0.00     0.074 A 
ATOM     54  C   UNL A   1      46.231  38.680  30.671  1.00  0.00     0.029 A 
ATOM     55  N   UNL A   1      44.210  39.379  30.137  1.00  0.00    -0.354 N 
ATOM     56  N   UNL A   1      43.306  35.987  28.971  1.00  0.00    -0.248 NA
ATOM     57  C   UNL A   1      41.383  35.293  27.926  1.00  0.00     0.031 C 
ATOM     58  C   UNL A   1      45.800  38.034  29.462  1.00  0.00     0.029 A 
ATOM     59  C   UNL A   1      44.535  38.499  29.138  1.00  0.00     0.049 A 
ATOM     60  H   UNL A   1      43.364  39.880  30.170  1.00  0.00     0.167 HD
ATOM     61  C   UNL A   1      42.907  37.024  28.159  1.00  0.00     0.074 A 
ATOM     62  C   UNL A   1      41.731  36.511  27.479  1.00  0.00     0.031 C 
ATOM     63  C   UNL A   1      43.495  38.263  28.149  1.00  0.00     0.034 A 
BRANCH  50  64
ATOM     64  C   UNL A   1      45.388  41.392  32.944  1.00  0.00     0.023 A 
ATOM     65  C   UNL A   1      45.725  42.416  32.034  1.00  0.00     0.012 A 
ATOM     66  C   UNL A   1      45.774  41.660  34.301  1.00  0.00     0.148 A 
ATOM     67  C   UNL A   1      46.424  43.577  32.411  1.00  0.00     0.002 A 
ATOM     68  C   UNL A   1      46.459  42.826  34.682  1.00  0.00     0.091 A 
ATOM     69  F   UNL A   1      45.539  40.793  35.279  1.00  0.00    -0.205 F 
ATOM     70  C   UNL A   1      46.798  43.781  33.732  1.00  0.00     0.022 A 
BRANCH  68  71
ATOM     71  S   UNL A   1      47.019  43.137  36.382  1.00  0.00     0.127 S 
ATOM     72  O   UNL A   1      48.016  44.193  36.185  1.00  0.00    -0.237 OA
ATOM     73  O   UNL A   1      45.796  43.584  37.046  1.00  0.00    -0.237 OA
ATOM     74  O   UNL A   1      47.571  41.887  36.888  1.00  0.00    -0.744 OA
ENDBRANCH  68  71
ENDBRANCH  50  64
BRANCH  51  75
ATOM     75  C   UNL A   1      41.143  33.004  30.250  1.00  0.00     0.023 A 
ATOM     76  C   UNL A   1      39.936  33.712  30.512  1.00  0.00     0.012 A 
ATOM     77  C   UNL A   1      41.052  31.612  30.061  1.00  0.00     0.148 A 
ATOM     78  C   UNL A   1      38.686  33.093  30.453  1.00  0.00     0.002 A 
ATOM     79  C   UNL A   1      39.795  30.988  30.043  1.00  0.00     0.091 A 
ATOM     80  F   UNL A   1      42.173  30.912  29.840  1.00  0.00    -0.205 F 
ATOM     81  C   UNL A   1      38.614  31.732  30.196  1.00  0.00     0.022 A 
BRANCH  79  82
ATOM     82  S   UNL A   1      39.607  29.232  29.660  1.00  0.00     0.127 S 
ATOM     83  O   UNL A   1      38.168  29.049  29.827  1.00  0.00    -0.237 OA
ATOM     84  O   UNL A   1      40.069  29.146  28.272  1.00  0.00    -0.237 OA
ATOM     85  O   UNL A   1      40.463  28.544  30.612  1.00  0.00    -0.744 OA
ENDBRANCH  79  82
ENDBRANCH  51  75
BRANCH  63  86
ATOM     86  C   UNL A   1      43.043  39.412  27.249  1.00  0.00     0.023 A 
ATOM     87  C   UNL A   1      41.672  39.595  26.989  1.00  0.00     0.012 A 
ATOM     88  C   UNL A   1      43.940  40.257  26.531  1.00  0.00     0.148 A 
ATOM     89  C   UNL A   1      41.213  40.597  26.124  1.00  0.00     0.002 A 
ATOM     90  C   UNL A   1      43.484  41.187  25.602  1.00  0.00     0.091 A 
ATOM     91  F   UNL A   1      45.254  40.199  26.761  1.00  0.00    -0.205 F 
ATOM     92  C   UNL A   1      42.117  41.383  25.422  1.00  0.00     0.022 A 
BRANCH  90  93
ATOM     93  S   UNL A   1      44.596  42.118  24.528  1.00  0.00     0.127 S 
ATOM     94  O   UNL A   1      43.769  42.288  23.332  1.00  0.00    -0.237 OA
ATOM     95  O   UNL A   1      44.806  43.342  25.299  1.00  0.00    -0.237 OA
ATOM     96  O   UNL A   1      45.778  41.291  24.338  1.00  0.00    -0.744 OA
ENDBRANCH  90  93
ENDBRANCH  63  86
ENDBRANCH  37  38
ENDBRANCH  30  32
ENDBRANCH  29  30
ENDBRANCH  28  29
ENDBRANCH  27  28
ENDBRANCH  26  27
ENDBRANCH  25  26
ENDBRANCH   1  25
TORSDOF 23
ENDMDL
