MODEL 1
REMARK VINA RESULT:     -10.5      0.000      0.000
REMARK SMILES C[C@H](C(=O)OCCOCCOCCOC(=O)c1ccc(-c2c3nc(c(-c4cccc(S(=O)(=O)[O-])c4F)c4ccc([nH]4)c(-c4cccc(S(=O)(=O)[O-])c4F)c4nc(c(-c5cccc(S(=O)(=O)[O-])c5F)c5ccc2[nH]5)C=C4)C=C3)cc1)c1ccc2c(c1)OCCO2
REMARK SMILES IDX 10 1 9 2 8 3 7 4 6 5 5 6 3 7 4 8 2 9 1 10 80 11 81 12 85 13
REMARK SMILES IDX 82 14 84 15 83 16 86 17 89 18 87 19 88 20 11 21 12 22 13 23
REMARK SMILES IDX 14 24 15 25 16 26 17 27 18 28 79 29 19 30 78 31 20 32 21 33
REMARK SMILES IDX 22 34 72 35 23 36 77 37 71 38 73 39 24 40 76 41 70 42 69 43
REMARK SMILES IDX 25 45 57 46 37 47 56 48 38 49 41 50 55 51 74 52 39 53 40 54
REMARK SMILES IDX 54 56 75 57 42 58 26 59 27 60 35 61 28 62 30 63 36 64 29 65
REMARK SMILES IDX 31 66 32 67 33 68 34 69 58 70 59 71 67 72 60 73 62 74 68 75
REMARK SMILES IDX 61 76 63 77 64 78 65 79 66 80 43 81 44 82 52 83 45 84 47 85
REMARK SMILES IDX 53 86 46 87 48 88 49 89 50 90 51 91
REMARK H PARENT 73 44 41 55
REMARK Flexibility Score: inf
ROOT
ATOM      1  C   UNL A   1      35.867  22.303  25.802  1.00  0.00     0.188 C 
ENDROOT
BRANCH   1   2
ATOM      2  C   UNL A   1      34.720  21.494  26.452  1.00  0.00     0.188 C 
BRANCH   2   3
ATOM      3  O   UNL A   1      33.467  22.135  26.343  1.00  0.00    -0.376 OA
BRANCH   3   4
ATOM      4  C   UNL A   1      33.438  23.529  26.106  1.00  0.00     0.202 C 
BRANCH   4   5
ATOM      5  C   UNL A   1      32.102  24.284  26.001  1.00  0.00     0.261 C 
BRANCH   5   6
ATOM      6  O   UNL A   1      32.123  25.670  26.375  1.00  0.00    -0.463 OA
BRANCH   6   7
ATOM      7  C   UNL A   1      30.944  26.330  26.424  1.00  0.00     0.313 C 
ATOM      8  O   UNL A   1      29.864  25.787  26.624  1.00  0.00    -0.252 OA
BRANCH   7   9
ATOM      9  C   UNL A   1      31.107  27.838  26.301  1.00  0.00     0.126 C 
ATOM     10  C   UNL A   1      31.809  28.428  27.531  1.00  0.00     0.025 C 
BRANCH   9  11
ATOM     11  C   UNL A   1      31.581  28.411  24.955  1.00  0.00    -0.030 A 
ATOM     12  C   UNL A   1      32.902  28.893  24.857  1.00  0.00     0.009 A 
ATOM     13  C   UNL A   1      30.897  28.069  23.777  1.00  0.00     0.055 A 
ATOM     14  C   UNL A   1      33.623  28.719  23.677  1.00  0.00     0.051 A 
ATOM     15  C   UNL A   1      31.640  27.787  22.646  1.00  0.00     0.161 A 
ATOM     16  C   UNL A   1      33.015  28.022  22.643  1.00  0.00     0.161 A 
ATOM     17  O   UNL A   1      31.020  27.041  21.678  1.00  0.00    -0.486 OA
ATOM     18  O   UNL A   1      33.819  27.304  21.782  1.00  0.00    -0.486 OA
ATOM     19  C   UNL A   1      31.870  25.991  21.185  1.00  0.00     0.271 C 
ATOM     20  C   UNL A   1      33.266  25.972  21.809  1.00  0.00     0.271 C 
ENDBRANCH   9  11
ENDBRANCH   7   9
ENDBRANCH   6   7
ENDBRANCH   5   6
ENDBRANCH   4   5
ENDBRANCH   3   4
ENDBRANCH   2   3
ENDBRANCH   1   2
BRANCH   1  21
ATOM     21  O   UNL A   1      37.147  21.701  25.646  1.00  0.00    -0.376 OA
BRANCH  21  22
ATOM     22  C   UNL A   1      37.273  20.559  24.815  1.00  0.00     0.202 C 
BRANCH  22  23
ATOM     23  C   UNL A   1      38.436  19.584  25.063  1.00  0.00     0.261 C 
BRANCH  23  24
ATOM     24  O   UNL A   1      39.098  19.699  26.335  1.00  0.00    -0.460 OA
BRANCH  24  25
ATOM     25  C   UNL A   1      40.437  19.909  26.291  1.00  0.00     0.338 C 
ATOM     26  O   UNL A   1      41.276  19.173  25.788  1.00  0.00    -0.246 OA
BRANCH  25  27
ATOM     27  C   UNL A   1      40.763  21.267  26.786  1.00  0.00     0.060 A 
ATOM     28  C   UNL A   1      40.369  22.374  26.019  1.00  0.00     0.016 A 
ATOM     29  C   UNL A   1      41.503  21.455  27.954  1.00  0.00     0.016 A 
ATOM     30  C   UNL A   1      40.737  23.668  26.401  1.00  0.00     0.010 A 
ATOM     31  C   UNL A   1      41.893  22.750  28.322  1.00  0.00     0.010 A 
ATOM     32  C   UNL A   1      41.539  23.862  27.532  1.00  0.00    -0.014 A 
BRANCH  32  33
ATOM     33  C   UNL A   1      42.154  25.191  27.795  1.00  0.00     0.031 A 
ATOM     34  C   UNL A   1      41.327  26.248  28.478  1.00  0.00     0.074 A 
ATOM     35  C   UNL A   1      43.416  25.471  27.422  1.00  0.00     0.049 A 
ATOM     36  N   UNL A   1      41.632  27.488  28.760  1.00  0.00    -0.248 NA
ATOM     37  C   UNL A   1      39.972  25.852  28.897  1.00  0.00     0.031 C 
ATOM     38  C   UNL A   1      44.334  24.539  26.771  1.00  0.00     0.029 A 
ATOM     39  N   UNL A   1      44.132  26.641  27.515  1.00  0.00    -0.354 N 
ATOM     40  C   UNL A   1      40.502  28.031  29.358  1.00  0.00     0.074 A 
ATOM     41  C   UNL A   1      39.502  26.985  29.398  1.00  0.00     0.031 C 
ATOM     42  C   UNL A   1      45.481  25.184  26.492  1.00  0.00     0.029 A 
ATOM     43  C   UNL A   1      45.369  26.579  26.917  1.00  0.00     0.049 A 
ATOM     44  H   UNL A   1      43.792  27.447  27.967  1.00  0.00     0.167 HD
ATOM     45  C   UNL A   1      40.309  29.283  29.838  1.00  0.00     0.034 A 
ATOM     46  C   UNL A   1      46.293  27.542  26.712  1.00  0.00     0.034 A 
ATOM     47  C   UNL A   1      41.299  30.327  29.806  1.00  0.00     0.049 A 
ATOM     48  C   UNL A   1      46.035  28.943  27.212  1.00  0.00     0.074 A 
ATOM     49  C   UNL A   1      41.207  31.612  30.310  1.00  0.00     0.029 A 
ATOM     50  N   UNL A   1      42.547  30.218  29.216  1.00  0.00    -0.354 N 
ATOM     51  N   UNL A   1      45.008  29.407  27.882  1.00  0.00    -0.248 NA
ATOM     52  C   UNL A   1      47.080  29.947  26.952  1.00  0.00     0.031 C 
ATOM     53  C   UNL A   1      42.384  32.294  29.987  1.00  0.00     0.029 A 
ATOM     54  C   UNL A   1      43.229  31.419  29.324  1.00  0.00     0.049 A 
ATOM     55  H   UNL A   1      42.898  29.405  28.784  1.00  0.00     0.167 HD
ATOM     56  C   UNL A   1      45.303  30.740  28.160  1.00  0.00     0.074 A 
ATOM     57  C   UNL A   1      46.611  31.004  27.600  1.00  0.00     0.031 C 
ATOM     58  C   UNL A   1      44.553  31.663  28.813  1.00  0.00     0.034 A 
BRANCH  45  59
ATOM     59  C   UNL A   1      38.967  29.600  30.446  1.00  0.00     0.023 A 
ATOM     60  C   UNL A   1      38.642  29.108  31.726  1.00  0.00     0.012 A 
ATOM     61  C   UNL A   1      38.052  30.431  29.770  1.00  0.00     0.148 A 
ATOM     62  C   UNL A   1      37.411  29.410  32.310  1.00  0.00     0.002 A 
ATOM     63  C   UNL A   1      36.848  30.766  30.378  1.00  0.00     0.091 A 
ATOM     64  F   UNL A   1      38.374  30.871  28.545  1.00  0.00    -0.205 F 
ATOM     65  C   UNL A   1      36.520  30.246  31.640  1.00  0.00     0.022 A 
BRANCH  63  66
ATOM     66  S   UNL A   1      35.671  31.900  29.633  1.00  0.00     0.127 S 
ATOM     67  O   UNL A   1      34.737  32.121  30.736  1.00  0.00    -0.237 OA
ATOM     68  O   UNL A   1      36.516  33.050  29.310  1.00  0.00    -0.237 OA
ATOM     69  O   UNL A   1      35.118  31.206  28.478  1.00  0.00    -0.744 OA
ENDBRANCH  63  66
ENDBRANCH  45  59
BRANCH  46  70
ATOM     70  C   UNL A   1      47.570  27.222  26.010  1.00  0.00     0.023 A 
ATOM     71  C   UNL A   1      48.661  26.718  26.745  1.00  0.00     0.012 A 
ATOM     72  C   UNL A   1      47.714  27.428  24.624  1.00  0.00     0.148 A 
ATOM     73  C   UNL A   1      49.883  26.462  26.122  1.00  0.00     0.002 A 
ATOM     74  C   UNL A   1      48.915  27.116  23.999  1.00  0.00     0.091 A 
ATOM     75  F   UNL A   1      46.671  27.924  23.944  1.00  0.00    -0.205 F 
ATOM     76  C   UNL A   1      50.007  26.651  24.748  1.00  0.00     0.022 A 
BRANCH  74  77
ATOM     77  S   UNL A   1      49.134  27.218  22.219  1.00  0.00     0.127 S 
ATOM     78  O   UNL A   1      48.411  28.445  21.898  1.00  0.00    -0.237 OA
ATOM     79  O   UNL A   1      50.590  27.312  22.103  1.00  0.00    -0.237 OA
ATOM     80  O   UNL A   1      48.564  25.991  21.681  1.00  0.00    -0.744 OA
ENDBRANCH  74  77
ENDBRANCH  46  70
BRANCH  58  81
ATOM     81  C   UNL A   1      45.138  33.039  29.018  1.00  0.00     0.023 A 
ATOM     82  C   UNL A   1      45.949  33.306  30.139  1.00  0.00     0.012 A 
ATOM     83  C   UNL A   1      44.946  34.048  28.051  1.00  0.00     0.148 A 
ATOM     84  C   UNL A   1      46.530  34.564  30.312  1.00  0.00     0.002 A 
ATOM     85  C   UNL A   1      45.571  35.281  28.203  1.00  0.00     0.091 A 
ATOM     86  F   UNL A   1      44.160  33.782  26.998  1.00  0.00    -0.205 F 
ATOM     87  C   UNL A   1      46.351  35.545  29.340  1.00  0.00     0.022 A 
BRANCH  85  88
ATOM     88  S   UNL A   1      45.480  36.570  26.955  1.00  0.00     0.127 S 
ATOM     89  O   UNL A   1      46.036  35.891  25.785  1.00  0.00    -0.237 OA
ATOM     90  O   UNL A   1      44.042  36.831  26.883  1.00  0.00    -0.237 OA
ATOM     91  O   UNL A   1      46.273  37.681  27.465  1.00  0.00    -0.744 OA
ENDBRANCH  85  88
ENDBRANCH  58  81
ENDBRANCH  32  33
ENDBRANCH  25  27
ENDBRANCH  24  25
ENDBRANCH  23  24
ENDBRANCH  22  23
ENDBRANCH  21  22
ENDBRANCH   1  21
TORSDOF 21
ENDMDL
MODEL 2
REMARK VINA RESULT:     -10.4      1.771      3.547
REMARK SMILES C[C@H](C(=O)OCCOCCOCCOC(=O)c1ccc(-c2c3nc(c(-c4cccc(S(=O)(=O)[O-])c4F)c4ccc([nH]4)c(-c4cccc(S(=O)(=O)[O-])c4F)c4nc(c(-c5cccc(S(=O)(=O)[O-])c5F)c5ccc2[nH]5)C=C4)C=C3)cc1)c1ccc2c(c1)OCCO2
REMARK SMILES IDX 10 1 9 2 8 3 7 4 6 5 5 6 3 7 4 8 2 9 1 10 80 11 81 12 85 13
REMARK SMILES IDX 82 14 84 15 83 16 86 17 89 18 87 19 88 20 11 21 12 22 13 23
REMARK SMILES IDX 14 24 15 25 16 26 17 27 18 28 79 29 19 30 78 31 20 32 21 33
REMARK SMILES IDX 22 34 72 35 23 36 77 37 71 38 73 39 24 40 76 41 70 42 69 43
REMARK SMILES IDX 25 45 57 46 37 47 56 48 38 49 41 50 55 51 74 52 39 53 40 54
REMARK SMILES IDX 54 56 75 57 42 58 26 59 27 60 35 61 28 62 30 63 36 64 29 65
REMARK SMILES IDX 31 66 32 67 33 68 34 69 58 70 59 71 67 72 60 73 62 74 68 75
REMARK SMILES IDX 61 76 63 77 64 78 65 79 66 80 43 81 44 82 52 83 45 84 47 85
REMARK SMILES IDX 53 86 46 87 48 88 49 89 50 90 51 91
REMARK H PARENT 73 44 41 55
REMARK Flexibility Score: inf
ROOT
ATOM      1  C   UNL A   1      37.405  22.848  25.135  1.00  0.00     0.188 C 
ENDROOT
BRANCH   1   2
ATOM      2  C   UNL A   1      36.169  23.502  24.474  1.00  0.00     0.188 C 
BRANCH   2   3
ATOM      3  O   UNL A   1      35.733  24.661  25.153  1.00  0.00    -0.376 OA
BRANCH   3   4
ATOM      4  C   UNL A   1      34.428  25.145  24.899  1.00  0.00     0.202 C 
BRANCH   4   5
ATOM      5  C   UNL A   1      33.255  24.772  25.821  1.00  0.00     0.261 C 
BRANCH   5   6
ATOM      6  O   UNL A   1      32.285  23.863  25.281  1.00  0.00    -0.463 OA
BRANCH   6   7
ATOM      7  C   UNL A   1      32.061  22.707  25.946  1.00  0.00     0.313 C 
ATOM      8  O   UNL A   1      31.184  22.563  26.789  1.00  0.00    -0.252 OA
BRANCH   7   9
ATOM      9  C   UNL A   1      32.952  21.570  25.469  1.00  0.00     0.126 C 
ATOM     10  C   UNL A   1      33.961  21.157  26.550  1.00  0.00     0.025 C 
BRANCH   9  11
ATOM     11  C   UNL A   1      32.297  20.397  24.721  1.00  0.00    -0.030 A 
ATOM     12  C   UNL A   1      32.204  20.464  23.315  1.00  0.00     0.009 A 
ATOM     13  C   UNL A   1      32.203  19.144  25.345  1.00  0.00     0.055 A 
ATOM     14  C   UNL A   1      32.354  19.309  22.550  1.00  0.00     0.051 A 
ATOM     15  C   UNL A   1      32.469  18.015  24.593  1.00  0.00     0.161 A 
ATOM     16  C   UNL A   1      32.641  18.125  23.213  1.00  0.00     0.161 A 
ATOM     17  O   UNL A   1      32.812  16.885  25.287  1.00  0.00    -0.486 OA
ATOM     18  O   UNL A   1      33.385  17.172  22.549  1.00  0.00    -0.486 OA
ATOM     19  C   UNL A   1      33.950  16.224  24.707  1.00  0.00     0.271 C 
ATOM     20  C   UNL A   1      34.484  16.894  23.441  1.00  0.00     0.271 C 
ENDBRANCH   9  11
ENDBRANCH   7   9
ENDBRANCH   6   7
ENDBRANCH   5   6
ENDBRANCH   4   5
ENDBRANCH   3   4
ENDBRANCH   2   3
ENDBRANCH   1   2
BRANCH   1  21
ATOM     21  O   UNL A   1      37.287  21.552  25.712  1.00  0.00    -0.376 OA
BRANCH  21  22
ATOM     22  C   UNL A   1      37.453  20.413  24.882  1.00  0.00     0.202 C 
BRANCH  22  23
ATOM     23  C   UNL A   1      38.692  19.524  25.078  1.00  0.00     0.261 C 
BRANCH  23  24
ATOM     24  O   UNL A   1      39.331  19.606  26.365  1.00  0.00    -0.460 OA
BRANCH  24  25
ATOM     25  C   UNL A   1      40.666  19.843  26.351  1.00  0.00     0.338 C 
ATOM     26  O   UNL A   1      41.535  19.101  25.911  1.00  0.00    -0.246 OA
BRANCH  25  27
ATOM     27  C   UNL A   1      40.949  21.230  26.787  1.00  0.00     0.060 A 
ATOM     28  C   UNL A   1      40.773  22.273  25.865  1.00  0.00     0.016 A 
ATOM     29  C   UNL A   1      41.444  21.503  28.063  1.00  0.00     0.016 A 
ATOM     30  C   UNL A   1      41.117  23.585  26.205  1.00  0.00     0.010 A 
ATOM     31  C   UNL A   1      41.811  22.815  28.394  1.00  0.00     0.010 A 
ATOM     32  C   UNL A   1      41.680  23.859  27.457  1.00  0.00    -0.014 A 
BRANCH  32  33
ATOM     33  C   UNL A   1      42.291  25.187  27.728  1.00  0.00     0.031 A 
ATOM     34  C   UNL A   1      41.452  26.247  28.394  1.00  0.00     0.074 A 
ATOM     35  C   UNL A   1      43.560  25.466  27.379  1.00  0.00     0.049 A 
ATOM     36  N   UNL A   1      41.753  27.487  28.679  1.00  0.00    -0.248 NA
ATOM     37  C   UNL A   1      40.089  25.853  28.789  1.00  0.00     0.031 C 
ATOM     38  C   UNL A   1      44.489  24.532  26.747  1.00  0.00     0.029 A 
ATOM     39  N   UNL A   1      44.276  26.636  27.483  1.00  0.00    -0.354 N 
ATOM     40  C   UNL A   1      40.612  28.033  29.256  1.00  0.00     0.074 A 
ATOM     41  C   UNL A   1      39.611  26.988  29.278  1.00  0.00     0.031 C 
ATOM     42  C   UNL A   1      45.642  25.175  26.488  1.00  0.00     0.029 A 
ATOM     43  C   UNL A   1      45.523  26.570  26.909  1.00  0.00     0.049 A 
ATOM     44  H   UNL A   1      43.928  27.442  27.927  1.00  0.00     0.167 HD
ATOM     45  C   UNL A   1      40.412  29.285  29.729  1.00  0.00     0.034 A 
ATOM     46  C   UNL A   1      46.452  27.533  26.719  1.00  0.00     0.034 A 
ATOM     47  C   UNL A   1      41.403  30.328  29.714  1.00  0.00     0.049 A 
ATOM     48  C   UNL A   1      46.186  28.935  27.211  1.00  0.00     0.074 A 
ATOM     49  C   UNL A   1      41.304  31.614  30.214  1.00  0.00     0.029 A 
ATOM     50  N   UNL A   1      42.662  30.217  29.148  1.00  0.00    -0.354 N 
ATOM     51  N   UNL A   1      45.147  29.401  27.862  1.00  0.00    -0.248 NA
ATOM     52  C   UNL A   1      47.236  29.937  26.969  1.00  0.00     0.031 C 
ATOM     53  C   UNL A   1      42.487  32.294  29.912  1.00  0.00     0.029 A 
ATOM     54  C   UNL A   1      43.343  31.417  29.267  1.00  0.00     0.049 A 
ATOM     55  H   UNL A   1      43.021  29.403  28.724  1.00  0.00     0.167 HD
ATOM     56  C   UNL A   1      45.438  30.734  28.143  1.00  0.00     0.074 A 
ATOM     57  C   UNL A   1      46.756  30.996  27.607  1.00  0.00     0.031 C 
ATOM     58  C   UNL A   1      44.677  31.659  28.780  1.00  0.00     0.034 A 
BRANCH  45  59
ATOM     59  C   UNL A   1      39.059  29.604  30.312  1.00  0.00     0.023 A 
ATOM     60  C   UNL A   1      38.764  29.246  31.642  1.00  0.00     0.012 A 
ATOM     61  C   UNL A   1      38.101  30.309  29.556  1.00  0.00     0.148 A 
ATOM     62  C   UNL A   1      37.523  29.553  32.201  1.00  0.00     0.002 A 
ATOM     63  C   UNL A   1      36.886  30.653  30.134  1.00  0.00     0.091 A 
ATOM     64  F   UNL A   1      38.396  30.623  28.286  1.00  0.00    -0.205 F 
ATOM     65  C   UNL A   1      36.590  30.264  31.450  1.00  0.00     0.022 A 
BRANCH  63  66
ATOM     66  S   UNL A   1      35.652  31.638  29.279  1.00  0.00     0.127 S 
ATOM     67  O   UNL A   1      34.757  32.005  30.375  1.00  0.00    -0.237 OA
ATOM     68  O   UNL A   1      36.454  32.742  28.751  1.00  0.00    -0.237 OA
ATOM     69  O   UNL A   1      35.072  30.768  28.266  1.00  0.00    -0.744 OA
ENDBRANCH  63  66
ENDBRANCH  45  59
BRANCH  46  70
ATOM     70  C   UNL A   1      47.741  27.210  26.041  1.00  0.00     0.023 A 
ATOM     71  C   UNL A   1      48.818  26.708  26.798  1.00  0.00     0.012 A 
ATOM     72  C   UNL A   1      47.911  27.412  24.658  1.00  0.00     0.148 A 
ATOM     73  C   UNL A   1      50.051  26.449  26.198  1.00  0.00     0.002 A 
ATOM     74  C   UNL A   1      49.123  27.099  24.056  1.00  0.00     0.091 A 
ATOM     75  F   UNL A   1      46.881  27.908  23.958  1.00  0.00    -0.205 F 
ATOM     76  C   UNL A   1      50.201  26.634  24.827  1.00  0.00     0.022 A 
BRANCH  74  77
ATOM     77  S   UNL A   1      49.375  27.196  22.280  1.00  0.00     0.127 S 
ATOM     78  O   UNL A   1      48.826  28.513  21.971  1.00  0.00    -0.237 OA
ATOM     79  O   UNL A   1      50.832  27.096  22.180  1.00  0.00    -0.237 OA
ATOM     80  O   UNL A   1      48.653  26.063  21.717  1.00  0.00    -0.744 OA
ENDBRANCH  74  77
ENDBRANCH  46  70
BRANCH  58  81
ATOM     81  C   UNL A   1      45.260  33.035  28.993  1.00  0.00     0.023 A 
ATOM     82  C   UNL A   1      46.096  33.289  30.098  1.00  0.00     0.012 A 
ATOM     83  C   UNL A   1      45.038  34.059  28.048  1.00  0.00     0.148 A 
ATOM     84  C   UNL A   1      46.674  34.546  30.278  1.00  0.00     0.002 A 
ATOM     85  C   UNL A   1      45.660  35.292  28.205  1.00  0.00     0.091 A 
ATOM     86  F   UNL A   1      44.228  33.805  27.011  1.00  0.00    -0.205 F 
ATOM     87  C   UNL A   1      46.466  35.542  29.327  1.00  0.00     0.022 A 
BRANCH  85  88
ATOM     88  S   UNL A   1      45.531  36.601  26.981  1.00  0.00     0.127 S 
ATOM     89  O   UNL A   1      44.084  36.698  26.799  1.00  0.00    -0.237 OA
ATOM     90  O   UNL A   1      46.136  37.738  27.679  1.00  0.00    -0.237 OA
ATOM     91  O   UNL A   1      46.276  36.140  25.818  1.00  0.00    -0.744 OA
ENDBRANCH  85  88
ENDBRANCH  58  81
ENDBRANCH  32  33
ENDBRANCH  25  27
ENDBRANCH  24  25
ENDBRANCH  23  24
ENDBRANCH  22  23
ENDBRANCH  21  22
ENDBRANCH   1  21
TORSDOF 21
ENDMDL
MODEL 3
REMARK VINA RESULT:     -10.4      5.312      8.964
REMARK SMILES C[C@H](C(=O)OCCOCCOCCOC(=O)c1ccc(-c2c3nc(c(-c4cccc(S(=O)(=O)[O-])c4F)c4ccc([nH]4)c(-c4cccc(S(=O)(=O)[O-])c4F)c4nc(c(-c5cccc(S(=O)(=O)[O-])c5F)c5ccc2[nH]5)C=C4)C=C3)cc1)c1ccc2c(c1)OCCO2
REMARK SMILES IDX 10 1 9 2 8 3 7 4 6 5 5 6 3 7 4 8 2 9 1 10 80 11 81 12 85 13
REMARK SMILES IDX 82 14 84 15 83 16 86 17 89 18 87 19 88 20 11 21 12 22 13 23
REMARK SMILES IDX 14 24 15 25 16 26 17 27 18 28 79 29 19 30 78 31 20 32 21 33
REMARK SMILES IDX 22 34 72 35 23 36 77 37 71 38 73 39 24 40 76 41 70 42 69 43
REMARK SMILES IDX 25 45 57 46 37 47 56 48 38 49 41 50 55 51 74 52 39 53 40 54
REMARK SMILES IDX 54 56 75 57 42 58 26 59 27 60 35 61 28 62 30 63 36 64 29 65
REMARK SMILES IDX 31 66 32 67 33 68 34 69 58 70 59 71 67 72 60 73 62 74 68 75
REMARK SMILES IDX 61 76 63 77 64 78 65 79 66 80 43 81 44 82 52 83 45 84 47 85
REMARK SMILES IDX 53 86 46 87 48 88 49 89 50 90 51 91
REMARK H PARENT 73 44 41 55
REMARK Flexibility Score: inf
ROOT
ATOM      1  C   UNL A   1      31.785  29.587  24.707  1.00  0.00     0.188 C 
ENDROOT
BRANCH   1   2
ATOM      2  C   UNL A   1      33.111  28.917  25.139  1.00  0.00     0.188 C 
BRANCH   2   3
ATOM      3  O   UNL A   1      32.919  27.643  25.714  1.00  0.00    -0.376 OA
BRANCH   3   4
ATOM      4  C   UNL A   1      33.158  26.497  24.918  1.00  0.00     0.202 C 
BRANCH   4   5
ATOM      5  C   UNL A   1      33.958  25.306  25.470  1.00  0.00     0.261 C 
BRANCH   5   6
ATOM      6  O   UNL A   1      34.763  24.586  24.525  1.00  0.00    -0.463 OA
BRANCH   6   7
ATOM      7  C   UNL A   1      35.638  23.673  25.004  1.00  0.00     0.313 C 
ATOM      8  O   UNL A   1      36.445  23.902  25.896  1.00  0.00    -0.252 OA
BRANCH   7   9
ATOM      9  C   UNL A   1      35.451  22.296  24.385  1.00  0.00     0.126 C 
ATOM     10  C   UNL A   1      36.640  21.376  24.694  1.00  0.00     0.025 C 
BRANCH   9  11
ATOM     11  C   UNL A   1      34.072  21.625  24.505  1.00  0.00    -0.030 A 
ATOM     12  C   UNL A   1      33.112  21.877  23.504  1.00  0.00     0.009 A 
ATOM     13  C   UNL A   1      33.925  20.485  25.311  1.00  0.00     0.055 A 
ATOM     14  C   UNL A   1      32.242  20.866  23.100  1.00  0.00     0.051 A 
ATOM     15  C   UNL A   1      33.148  19.444  24.839  1.00  0.00     0.161 A 
ATOM     16  C   UNL A   1      32.391  19.614  23.680  1.00  0.00     0.161 A 
ATOM     17  O   UNL A   1      33.373  18.212  25.394  1.00  0.00    -0.486 OA
ATOM     18  O   UNL A   1      32.046  18.507  22.932  1.00  0.00    -0.486 OA
ATOM     19  C   UNL A   1      33.452  17.181  24.396  1.00  0.00     0.271 C 
ATOM     20  C   UNL A   1      33.224  17.675  22.966  1.00  0.00     0.271 C 
ENDBRANCH   9  11
ENDBRANCH   7   9
ENDBRANCH   6   7
ENDBRANCH   5   6
ENDBRANCH   4   5
ENDBRANCH   3   4
ENDBRANCH   2   3
ENDBRANCH   1   2
BRANCH   1  21
ATOM     21  O   UNL A   1      31.186  30.563  25.553  1.00  0.00    -0.376 OA
BRANCH  21  22
ATOM     22  C   UNL A   1      31.926  31.065  26.654  1.00  0.00     0.202 C 
BRANCH  22  23
ATOM     23  C   UNL A   1      32.089  32.586  26.810  1.00  0.00     0.261 C 
BRANCH  23  24
ATOM     24  O   UNL A   1      32.664  33.036  28.049  1.00  0.00    -0.460 OA
BRANCH  24  25
ATOM     25  C   UNL A   1      33.807  33.758  27.946  1.00  0.00     0.338 C 
ATOM     26  O   UNL A   1      33.894  34.962  27.737  1.00  0.00    -0.246 OA
BRANCH  25  27
ATOM     27  C   UNL A   1      34.978  32.925  28.303  1.00  0.00     0.060 A 
ATOM     28  C   UNL A   1      34.756  31.622  28.778  1.00  0.00     0.016 A 
ATOM     29  C   UNL A   1      36.277  33.431  28.237  1.00  0.00     0.016 A 
ATOM     30  C   UNL A   1      35.827  30.836  29.213  1.00  0.00     0.010 A 
ATOM     31  C   UNL A   1      37.346  32.650  28.697  1.00  0.00     0.010 A 
ATOM     32  C   UNL A   1      37.125  31.360  29.217  1.00  0.00    -0.014 A 
BRANCH  32  33
ATOM     33  C   UNL A   1      38.221  30.640  29.919  1.00  0.00     0.031 A 
ATOM     34  C   UNL A   1      38.509  30.986  31.356  1.00  0.00     0.074 A 
ATOM     35  C   UNL A   1      38.964  29.706  29.297  1.00  0.00     0.049 A 
ATOM     36  N   UNL A   1      39.445  30.530  32.149  1.00  0.00    -0.248 NA
ATOM     37  C   UNL A   1      37.624  31.983  31.981  1.00  0.00     0.031 C 
ATOM     38  C   UNL A   1      38.784  29.259  27.918  1.00  0.00     0.029 A 
ATOM     39  N   UNL A   1      40.046  28.985  29.747  1.00  0.00    -0.354 N 
ATOM     40  C   UNL A   1      39.284  31.204  33.354  1.00  0.00     0.074 A 
ATOM     41  C   UNL A   1      38.161  32.102  33.187  1.00  0.00     0.031 C 
ATOM     42  C   UNL A   1      39.744  28.365  27.622  1.00  0.00     0.029 A 
ATOM     43  C   UNL A   1      40.623  28.197  28.779  1.00  0.00     0.049 A 
ATOM     44  H   UNL A   1      40.375  29.029  30.673  1.00  0.00     0.167 HD
ATOM     45  C   UNL A   1      39.998  31.087  34.498  1.00  0.00     0.034 A 
ATOM     46  C   UNL A   1      41.747  27.449  28.813  1.00  0.00     0.034 A 
ATOM     47  C   UNL A   1      41.112  30.194  34.672  1.00  0.00     0.049 A 
ATOM     48  C   UNL A   1      42.555  27.373  30.086  1.00  0.00     0.074 A 
ATOM     49  C   UNL A   1      41.866  29.975  35.812  1.00  0.00     0.029 A 
ATOM     50  N   UNL A   1      41.651  29.394  33.679  1.00  0.00    -0.354 N 
ATOM     51  N   UNL A   1      42.319  27.925  31.251  1.00  0.00    -0.248 NA
ATOM     52  C   UNL A   1      43.771  26.544  30.055  1.00  0.00     0.031 C 
ATOM     53  C   UNL A   1      42.888  29.075  35.494  1.00  0.00     0.029 A 
ATOM     54  C   UNL A   1      42.740  28.695  34.171  1.00  0.00     0.049 A 
ATOM     55  H   UNL A   1      41.308  29.331  32.757  1.00  0.00     0.167 HD
ATOM     56  C   UNL A   1      43.328  27.477  32.100  1.00  0.00     0.074 A 
ATOM     57  C   UNL A   1      44.169  26.595  31.319  1.00  0.00     0.031 C 
ATOM     58  C   UNL A   1      43.543  27.776  33.405  1.00  0.00     0.034 A 
BRANCH  45  59
ATOM     59  C   UNL A   1      39.594  31.951  35.665  1.00  0.00     0.023 A 
ATOM     60  C   UNL A   1      40.062  33.277  35.754  1.00  0.00     0.012 A 
ATOM     61  C   UNL A   1      38.706  31.463  36.645  1.00  0.00     0.148 A 
ATOM     62  C   UNL A   1      39.680  34.094  36.819  1.00  0.00     0.002 A 
ATOM     63  C   UNL A   1      38.294  32.297  37.676  1.00  0.00     0.091 A 
ATOM     64  F   UNL A   1      38.290  30.192  36.552  1.00  0.00    -0.205 F 
ATOM     65  C   UNL A   1      38.789  33.607  37.772  1.00  0.00     0.022 A 
BRANCH  63  66
ATOM     66  S   UNL A   1      37.087  31.790  38.906  1.00  0.00     0.127 S 
ATOM     67  O   UNL A   1      36.793  30.422  38.485  1.00  0.00    -0.237 OA
ATOM     68  O   UNL A   1      37.855  31.894  40.148  1.00  0.00    -0.237 OA
ATOM     69  O   UNL A   1      35.980  32.729  38.795  1.00  0.00    -0.744 OA
ENDBRANCH  63  66
ENDBRANCH  45  59
BRANCH  46  70
ATOM     70  C   UNL A   1      42.181  26.688  27.605  1.00  0.00     0.023 A 
ATOM     71  C   UNL A   1      42.857  27.358  26.567  1.00  0.00     0.012 A 
ATOM     72  C   UNL A   1      41.913  25.312  27.473  1.00  0.00     0.148 A 
ATOM     73  C   UNL A   1      43.226  26.681  25.404  1.00  0.00     0.002 A 
ATOM     74  C   UNL A   1      42.333  24.631  26.337  1.00  0.00     0.091 A 
ATOM     75  F   UNL A   1      41.253  24.696  28.463  1.00  0.00    -0.205 F 
ATOM     76  C   UNL A   1      42.973  25.317  25.293  1.00  0.00     0.022 A 
BRANCH  74  77
ATOM     77  S   UNL A   1      42.156  22.853  26.155  1.00  0.00     0.127 S 
ATOM     78  O   UNL A   1      42.852  22.359  27.340  1.00  0.00    -0.237 OA
ATOM     79  O   UNL A   1      40.701  22.695  26.184  1.00  0.00    -0.237 OA
ATOM     80  O   UNL A   1      42.772  22.524  24.878  1.00  0.00    -0.744 OA
ENDBRANCH  74  77
ENDBRANCH  46  70
BRANCH  58  81
ATOM     81  C   UNL A   1      44.700  27.107  34.108  1.00  0.00     0.023 A 
ATOM     82  C   UNL A   1      45.971  27.717  34.121  1.00  0.00     0.012 A 
ATOM     83  C   UNL A   1      44.504  25.908  34.823  1.00  0.00     0.148 A 
ATOM     84  C   UNL A   1      47.034  27.126  34.806  1.00  0.00     0.002 A 
ATOM     85  C   UNL A   1      45.554  25.353  35.546  1.00  0.00     0.091 A 
ATOM     86  F   UNL A   1      43.293  25.333  34.787  1.00  0.00    -0.205 F 
ATOM     87  C   UNL A   1      46.823  25.953  35.527  1.00  0.00     0.022 A 
BRANCH  85  88
ATOM     88  S   UNL A   1      45.351  23.901  36.585  1.00  0.00     0.127 S 
ATOM     89  O   UNL A   1      44.511  23.049  35.744  1.00  0.00    -0.237 OA
ATOM     90  O   UNL A   1      46.730  23.436  36.740  1.00  0.00    -0.237 OA
ATOM     91  O   UNL A   1      44.727  24.369  37.815  1.00  0.00    -0.744 OA
ENDBRANCH  85  88
ENDBRANCH  58  81
ENDBRANCH  32  33
ENDBRANCH  25  27
ENDBRANCH  24  25
ENDBRANCH  23  24
ENDBRANCH  22  23
ENDBRANCH  21  22
ENDBRANCH   1  21
TORSDOF 21
ENDMDL
