MODEL 1
REMARK VINA RESULT:      -8.5      0.000      0.000
REMARK SMILES CC1(C)Cc2c(-c3ccccc3)c(-c3ccc(Cl)cc3)c(CC(=O)OCCOCCOCCOC(=O)c3ccc(-c4c5nc(c(-c6cccc(S(=O)(=O)[O-])c6F)c6ccc([nH]6)c(-c6cccc(S(=O)(=O)[O-])c6F)c6nc(c(-c7cccc(S(=O)(=O)[O-])c7F)c7ccc4[nH]7)C=C6)C=C5)cc3)n2C1
REMARK SMILES IDX 30 1 29 2 28 3 27 4 26 5 25 6 23 7 24 8 22 9 21 10 1 11 2 12
REMARK SMILES IDX 3 13 4 14 101 15 5 16 100 17 6 18 13 19 7 20 8 21 12 22 9 23
REMARK SMILES IDX 11 24 10 25 14 26 15 27 20 28 16 29 19 30 17 31 18 32 31 33
REMARK SMILES IDX 32 34 33 35 34 36 35 37 36 38 37 39 38 40 99 41 39 42 98 43
REMARK SMILES IDX 40 44 41 45 42 46 92 47 43 48 97 49 91 50 93 51 44 52 96 53
REMARK SMILES IDX 90 54 89 55 45 57 77 58 57 59 76 60 58 61 61 62 75 63 94 64
REMARK SMILES IDX 59 65 60 66 74 68 95 69 62 70 46 71 47 72 55 73 48 74 50 75
REMARK SMILES IDX 56 76 49 77 51 78 52 79 53 80 54 81 78 82 79 83 87 84 80 85
REMARK SMILES IDX 82 86 88 87 81 88 83 89 84 90 85 91 86 92 63 93 64 94 72 95
REMARK SMILES IDX 65 96 67 97 73 98 66 99 68 100 69 101 70 102 71 103
REMARK H PARENT 93 56 61 67
REMARK Flexibility Score: inf
ROOT
ATOM      1  C   UNL A   1      43.391  35.497  37.221  1.00  0.00     0.188 C 
ENDROOT
BRANCH   1   2
ATOM      2  C   UNL A   1      42.113  36.097  37.874  1.00  0.00     0.188 C 
BRANCH   2   3
ATOM      3  O   UNL A   1      40.890  35.452  37.619  1.00  0.00    -0.376 OA
BRANCH   3   4
ATOM      4  C   UNL A   1      40.108  36.114  36.650  1.00  0.00     0.202 C 
BRANCH   4   5
ATOM      5  C   UNL A   1      40.045  35.511  35.190  1.00  0.00     0.261 C 
BRANCH   5   6
ATOM      6  O   UNL A   1      38.756  34.979  34.645  1.00  0.00    -0.463 OA
BRANCH   6   7
ATOM      7  C   UNL A   1      38.692  34.075  33.620  1.00  0.00     0.311 C 
ATOM      8  O   UNL A   1      38.006  34.335  32.628  1.00  0.00    -0.252 OA
BRANCH   7   9
ATOM      9  C   UNL A   1      39.604  32.735  33.602  1.00  0.00     0.177 C 
BRANCH   9  10
ATOM     10  C   UNL A   1      39.613  31.506  32.582  1.00  0.00     0.037 A 
ATOM     11  C   UNL A   1      43.207  28.309  34.073  1.00  0.00     0.013 C 
ATOM     12  C   UNL A   1      42.669  29.346  33.071  1.00  0.00    -0.012 C 
ATOM     13  C   UNL A   1      43.872  29.999  32.366  1.00  0.00     0.013 C 
ATOM     14  C   UNL A   1      41.754  28.644  32.028  1.00  0.00     0.063 C 
ATOM     15  C   UNL A   1      41.750  30.437  33.726  1.00  0.00     0.129 C 
ATOM     16  C   UNL A   1      40.614  29.576  31.887  1.00  0.00     0.027 A 
ATOM     17  N   UNL A   1      40.624  30.577  32.792  1.00  0.00    -0.346 N 
ATOM     18  C   UNL A   1      39.559  29.740  31.042  1.00  0.00     0.011 A 
ATOM     19  C   UNL A   1      38.780  30.916  31.482  1.00  0.00     0.011 A 
BRANCH  18  20
ATOM     20  C   UNL A   1      39.504  28.915  29.850  1.00  0.00    -0.016 A 
ATOM     21  C   UNL A   1      39.889  29.387  28.598  1.00  0.00     0.009 A 
ATOM     22  C   UNL A   1      39.067  27.598  29.975  1.00  0.00     0.009 A 
ATOM     23  C   UNL A   1      40.003  28.488  27.534  1.00  0.00     0.001 A 
ATOM     24  C   UNL A   1      39.282  26.678  28.954  1.00  0.00     0.001 A 
ATOM     25  C   UNL A   1      39.765  27.124  27.732  1.00  0.00     0.000 A 
ENDBRANCH  18  20
BRANCH  19  26
ATOM     26  C   UNL A   1      37.492  31.436  30.649  1.00  0.00    -0.016 A 
ATOM     27  C   UNL A   1      37.648  32.105  28.993  1.00  0.00     0.010 A 
ATOM     28  C   UNL A   1      36.038  31.725  31.552  1.00  0.00     0.010 A 
ATOM     29  C   UNL A   1      36.370  33.230  28.297  1.00  0.00     0.021 A 
ATOM     30  C   UNL A   1      34.699  32.748  31.060  1.00  0.00     0.021 A 
ATOM     31  C   UNL A   1      34.742  33.583  29.459  1.00  0.00     0.041 A 
ATOM     32  Cl  UNL A   1      33.263  34.626  29.557  1.00  0.00    -0.084 Cl
ENDBRANCH  19  26
ENDBRANCH   9  10
ENDBRANCH   7   9
ENDBRANCH   6   7
ENDBRANCH   5   6
ENDBRANCH   4   5
ENDBRANCH   3   4
ENDBRANCH   2   3
ENDBRANCH   1   2
BRANCH   1  33
ATOM     33  O   UNL A   1      43.750  35.888  35.920  1.00  0.00    -0.376 OA
BRANCH  33  34
ATOM     34  C   UNL A   1      43.610  34.987  34.846  1.00  0.00     0.202 C 
BRANCH  34  35
ATOM     35  C   UNL A   1      43.764  35.449  33.406  1.00  0.00     0.261 C 
BRANCH  35  36
ATOM     36  O   UNL A   1      44.122  34.420  32.493  1.00  0.00    -0.460 OA
BRANCH  36  37
ATOM     37  C   UNL A   1      45.360  34.629  31.962  1.00  0.00     0.338 C 
ATOM     38  O   UNL A   1      46.093  35.541  32.285  1.00  0.00    -0.246 OA
BRANCH  37  39
ATOM     39  C   UNL A   1      45.344  33.992  30.641  1.00  0.00     0.060 A 
ATOM     40  C   UNL A   1      44.462  33.657  28.854  1.00  0.00     0.016 A 
ATOM     41  C   UNL A   1      46.405  32.704  31.321  1.00  0.00     0.016 A 
ATOM     42  C   UNL A   1      44.847  32.030  28.095  1.00  0.00     0.010 A 
ATOM     43  C   UNL A   1      46.635  31.294  30.527  1.00  0.00     0.010 A 
ATOM     44  C   UNL A   1      45.909  30.897  29.012  1.00  0.00    -0.014 A 
BRANCH  44  45
ATOM     45  C   UNL A   1      46.480  29.595  28.543  1.00  0.00     0.031 A 
ATOM     46  C   UNL A   1      45.407  28.589  28.737  1.00  0.00     0.074 A 
ATOM     47  C   UNL A   1      47.713  29.395  27.936  1.00  0.00     0.049 A 
ATOM     48  N   UNL A   1      45.231  27.944  29.850  1.00  0.00    -0.248 NA
ATOM     49  C   UNL A   1      44.198  28.559  27.887  1.00  0.00     0.031 C 
ATOM     50  C   UNL A   1      48.819  30.347  27.641  1.00  0.00     0.029 A 
ATOM     51  N   UNL A   1      48.279  28.249  27.393  1.00  0.00    -0.354 N 
ATOM     52  C   UNL A   1      44.161  27.104  29.579  1.00  0.00     0.074 A 
ATOM     53  C   UNL A   1      43.371  27.794  28.610  1.00  0.00     0.031 C 
ATOM     54  C   UNL A   1      49.702  29.847  26.740  1.00  0.00     0.029 A 
ATOM     55  C   UNL A   1      49.399  28.450  26.522  1.00  0.00     0.049 A 
ATOM     56  H   UNL A   1      47.930  27.350  27.594  1.00  0.00     0.167 HD
ATOM     57  C   UNL A   1      44.349  25.764  29.733  1.00  0.00     0.034 A 
ATOM     58  C   UNL A   1      50.153  27.525  25.825  1.00  0.00     0.034 A 
ATOM     59  C   UNL A   1      45.535  25.534  30.537  1.00  0.00     0.049 A 
ATOM     60  C   UNL A   1      49.932  26.225  26.487  1.00  0.00     0.074 A 
ATOM     61  C   UNL A   1      45.977  25.943  31.781  1.00  0.00     0.029 A 
ATOM     62  N   UNL A   1      46.652  25.248  29.797  1.00  0.00    -0.354 N 
ATOM     63  N   UNL A   1      50.369  25.984  27.689  1.00  0.00    -0.248 NA
ATOM     64  C   UNL A   1      48.755  25.498  26.054  1.00  0.00     0.031 C 
ATOM     65  C   UNL A   1      47.373  26.202  31.627  1.00  0.00     0.029 A 
ATOM     66  C   UNL A   1      47.775  25.780  30.362  1.00  0.00     0.049 A 
ATOM     67  H   UNL A   1      46.646  24.725  28.964  1.00  0.00     0.167 HD
ATOM     68  C   UNL A   1      49.231  25.544  28.345  1.00  0.00     0.074 A 
ATOM     69  C   UNL A   1      48.276  25.222  27.271  1.00  0.00     0.031 C 
ATOM     70  C   UNL A   1      49.038  25.857  29.661  1.00  0.00     0.034 A 
BRANCH  57  71
ATOM     71  C   UNL A   1      43.849  24.708  28.754  1.00  0.00     0.023 A 
ATOM     72  C   UNL A   1      43.078  23.668  29.311  1.00  0.00     0.012 A 
ATOM     73  C   UNL A   1      44.286  24.523  27.415  1.00  0.00     0.148 A 
ATOM     74  C   UNL A   1      42.778  22.506  28.593  1.00  0.00     0.002 A 
ATOM     75  C   UNL A   1      43.932  23.396  26.680  1.00  0.00     0.091 A 
ATOM     76  F   UNL A   1      45.150  25.371  26.858  1.00  0.00    -0.205 F 
ATOM     77  C   UNL A   1      43.195  22.373  27.274  1.00  0.00     0.022 A 
BRANCH  75  78
ATOM     78  S   UNL A   1      44.415  23.170  24.959  1.00  0.00     0.127 S 
ATOM     79  O   UNL A   1      43.392  22.244  24.483  1.00  0.00    -0.237 OA
ATOM     80  O   UNL A   1      44.300  24.536  24.445  1.00  0.00    -0.237 OA
ATOM     81  O   UNL A   1      45.776  22.650  24.987  1.00  0.00    -0.744 OA
ENDBRANCH  75  78
ENDBRANCH  57  71
BRANCH  58  82
ATOM     82  C   UNL A   1      50.695  27.524  24.414  1.00  0.00     0.023 A 
ATOM     83  C   UNL A   1      52.050  27.183  24.125  1.00  0.00     0.012 A 
ATOM     84  C   UNL A   1      49.801  27.516  23.331  1.00  0.00     0.148 A 
ATOM     85  C   UNL A   1      52.464  26.795  22.832  1.00  0.00     0.002 A 
ATOM     86  C   UNL A   1      50.206  27.106  22.059  1.00  0.00     0.091 A 
ATOM     87  F   UNL A   1      48.525  27.835  23.569  1.00  0.00    -0.205 F 
ATOM     88  C   UNL A   1      51.532  26.733  21.802  1.00  0.00     0.022 A 
BRANCH  86  89
ATOM     89  S   UNL A   1      49.029  26.947  20.709  1.00  0.00     0.127 S 
ATOM     90  O   UNL A   1      48.796  25.504  20.680  1.00  0.00    -0.237 OA
ATOM     91  O   UNL A   1      47.903  27.742  21.194  1.00  0.00    -0.237 OA
ATOM     92  O   UNL A   1      49.708  27.470  19.531  1.00  0.00    -0.744 OA
ENDBRANCH  86  89
ENDBRANCH  58  82
BRANCH  70  93
ATOM     93  C   UNL A   1      50.214  26.389  30.448  1.00  0.00     0.023 A 
ATOM     94  C   UNL A   1      50.615  27.743  30.511  1.00  0.00     0.012 A 
ATOM     95  C   UNL A   1      50.853  25.455  31.274  1.00  0.00     0.148 A 
ATOM     96  C   UNL A   1      51.654  28.138  31.370  1.00  0.00     0.002 A 
ATOM     97  C   UNL A   1      51.852  25.854  32.145  1.00  0.00     0.091 A 
ATOM     98  F   UNL A   1      50.438  24.182  31.213  1.00  0.00    -0.205 F 
ATOM     99  C   UNL A   1      52.269  27.193  32.191  1.00  0.00     0.022 A 
BRANCH  97 100
ATOM    100  S   UNL A   1      52.593  24.689  33.285  1.00  0.00     0.127 S 
ATOM    101  O   UNL A   1      53.724  25.455  33.805  1.00  0.00    -0.237 OA
ATOM    102  O   UNL A   1      51.511  24.462  34.243  1.00  0.00    -0.237 OA
ATOM    103  O   UNL A   1      52.947  23.516  32.496  1.00  0.00    -0.744 OA
ENDBRANCH  97 100
ENDBRANCH  70  93
ENDBRANCH  44  45
ENDBRANCH  37  39
ENDBRANCH  36  37
ENDBRANCH  35  36
ENDBRANCH  34  35
ENDBRANCH  33  34
ENDBRANCH   1  33
TORSDOF 23
ENDMDL
MODEL 2
REMARK VINA RESULT:      -8.2      7.257     12.039
REMARK SMILES CC1(C)Cc2c(-c3ccccc3)c(-c3ccc(Cl)cc3)c(CC(=O)OCCOCCOCCOC(=O)c3ccc(-c4c5nc(c(-c6cccc(S(=O)(=O)[O-])c6F)c6ccc([nH]6)c(-c6cccc(S(=O)(=O)[O-])c6F)c6nc(c(-c7cccc(S(=O)(=O)[O-])c7F)c7ccc4[nH]7)C=C6)C=C5)cc3)n2C1
REMARK SMILES IDX 30 1 29 2 28 3 27 4 26 5 25 6 23 7 24 8 22 9 21 10 1 11 2 12
REMARK SMILES IDX 3 13 4 14 101 15 5 16 100 17 6 18 13 19 7 20 8 21 12 22 9 23
REMARK SMILES IDX 11 24 10 25 14 26 15 27 20 28 16 29 19 30 17 31 18 32 31 33
REMARK SMILES IDX 32 34 33 35 34 36 35 37 36 38 37 39 38 40 99 41 39 42 98 43
REMARK SMILES IDX 40 44 41 45 42 46 92 47 43 48 97 49 91 50 93 51 44 52 96 53
REMARK SMILES IDX 90 54 89 55 45 57 77 58 57 59 76 60 58 61 61 62 75 63 94 64
REMARK SMILES IDX 59 65 60 66 74 68 95 69 62 70 46 71 47 72 55 73 48 74 50 75
REMARK SMILES IDX 56 76 49 77 51 78 52 79 53 80 54 81 78 82 79 83 87 84 80 85
REMARK SMILES IDX 82 86 88 87 81 88 83 89 84 90 85 91 86 92 63 93 64 94 72 95
REMARK SMILES IDX 65 96 67 97 73 98 66 99 68 100 69 101 70 102 71 103
REMARK H PARENT 93 56 61 67
REMARK Flexibility Score: inf
ROOT
ATOM      1  C   UNL A   1      48.032  27.736  39.708  1.00  0.00     0.188 C 
ENDROOT
BRANCH   1   2
ATOM      2  C   UNL A   1      49.078  27.151  40.699  1.00  0.00     0.188 C 
BRANCH   2   3
ATOM      3  O   UNL A   1      49.386  25.784  40.586  1.00  0.00    -0.376 OA
BRANCH   3   4
ATOM      4  C   UNL A   1      48.865  25.195  39.415  1.00  0.00     0.202 C 
BRANCH   4   5
ATOM      5  C   UNL A   1      48.144  23.793  39.532  1.00  0.00     0.261 C 
BRANCH   5   6
ATOM      6  O   UNL A   1      48.808  22.657  40.247  1.00  0.00    -0.463 OA
BRANCH   6   7
ATOM      7  C   UNL A   1      49.778  21.878  39.678  1.00  0.00     0.311 C 
ATOM      8  O   UNL A   1      50.844  22.396  39.333  1.00  0.00    -0.252 OA
BRANCH   7   9
ATOM      9  C   UNL A   1      49.631  20.267  39.574  1.00  0.00     0.177 C 
BRANCH   9  10
ATOM     10  C   UNL A   1      48.324  19.354  39.471  1.00  0.00     0.037 A 
ATOM     11  C   UNL A   1      46.417  19.938  34.845  1.00  0.00     0.013 C 
ATOM     12  C   UNL A   1      46.336  20.164  36.367  1.00  0.00    -0.012 C 
ATOM     13  C   UNL A   1      45.491  21.425  36.618  1.00  0.00     0.013 C 
ATOM     14  C   UNL A   1      45.673  18.932  37.046  1.00  0.00     0.063 C 
ATOM     15  C   UNL A   1      47.738  20.286  37.061  1.00  0.00     0.129 C 
ATOM     16  C   UNL A   1      46.500  18.719  38.254  1.00  0.00     0.027 A 
ATOM     17  N   UNL A   1      47.613  19.481  38.284  1.00  0.00    -0.346 N 
ATOM     18  C   UNL A   1      46.420  17.988  39.400  1.00  0.00     0.011 A 
ATOM     19  C   UNL A   1      47.626  18.253  40.213  1.00  0.00     0.011 A 
BRANCH  18  20
ATOM     20  C   UNL A   1      45.181  17.289  39.680  1.00  0.00    -0.016 A 
ATOM     21  C   UNL A   1      44.378  17.603  40.772  1.00  0.00     0.009 A 
ATOM     22  C   UNL A   1      44.777  16.281  38.807  1.00  0.00     0.009 A 
ATOM     23  C   UNL A   1      43.105  17.033  40.872  1.00  0.00     0.001 A 
ATOM     24  C   UNL A   1      43.474  15.795  38.837  1.00  0.00     0.001 A 
ATOM     25  C   UNL A   1      42.630  16.183  39.868  1.00  0.00     0.000 A 
ENDBRANCH  18  20
BRANCH  19  26
ATOM     26  C   UNL A   1      47.816  17.595  41.682  1.00  0.00    -0.016 A 
ATOM     27  C   UNL A   1      47.132  15.989  42.090  1.00  0.00     0.010 A 
ATOM     28  C   UNL A   1      48.320  18.658  42.957  1.00  0.00     0.010 A 
ATOM     29  C   UNL A   1      46.799  15.514  43.835  1.00  0.00     0.021 A 
ATOM     30  C   UNL A   1      48.108  18.383  44.679  1.00  0.00     0.021 A 
ATOM     31  C   UNL A   1      47.339  16.856  45.260  1.00  0.00     0.041 A 
ATOM     32  Cl  UNL A   1      47.191  17.181  47.038  1.00  0.00    -0.084 Cl
ENDBRANCH  19  26
ENDBRANCH   9  10
ENDBRANCH   7   9
ENDBRANCH   6   7
ENDBRANCH   5   6
ENDBRANCH   4   5
ENDBRANCH   3   4
ENDBRANCH   2   3
ENDBRANCH   1   2
BRANCH   1  33
ATOM     33  O   UNL A   1      46.726  27.994  40.156  1.00  0.00    -0.376 OA
BRANCH  33  34
ATOM     34  C   UNL A   1      45.765  28.523  39.272  1.00  0.00     0.202 C 
BRANCH  34  35
ATOM     35  C   UNL A   1      44.895  27.615  38.419  1.00  0.00     0.261 C 
BRANCH  35  36
ATOM     36  O   UNL A   1      44.861  27.958  37.041  1.00  0.00    -0.460 OA
BRANCH  36  37
ATOM     37  C   UNL A   1      43.799  27.385  36.408  1.00  0.00     0.338 C 
ATOM     38  O   UNL A   1      42.679  27.330  36.873  1.00  0.00    -0.246 OA
BRANCH  37  39
ATOM     39  C   UNL A   1      44.367  26.411  35.470  1.00  0.00     0.060 A 
ATOM     40  C   UNL A   1      45.675  24.933  35.037  1.00  0.00     0.016 A 
ATOM     41  C   UNL A   1      43.820  27.482  34.127  1.00  0.00     0.016 A 
ATOM     42  C   UNL A   1      46.179  24.839  33.274  1.00  0.00     0.010 A 
ATOM     43  C   UNL A   1      44.377  27.280  32.605  1.00  0.00     0.010 A 
ATOM     44  C   UNL A   1      45.514  26.069  32.135  1.00  0.00    -0.014 A 
BRANCH  44  45
ATOM     45  C   UNL A   1      45.656  26.108  30.645  1.00  0.00     0.031 A 
ATOM     46  C   UNL A   1      46.860  26.931  30.374  1.00  0.00     0.074 A 
ATOM     47  C   UNL A   1      44.892  25.414  29.716  1.00  0.00     0.049 A 
ATOM     48  N   UNL A   1      46.825  28.224  30.259  1.00  0.00    -0.248 NA
ATOM     49  C   UNL A   1      48.225  26.442  30.661  1.00  0.00     0.031 C 
ATOM     50  C   UNL A   1      43.716  24.519  29.895  1.00  0.00     0.029 A 
ATOM     51  N   UNL A   1      45.010  25.322  28.335  1.00  0.00    -0.354 N 
ATOM     52  C   UNL A   1      48.140  28.568  29.984  1.00  0.00     0.074 A 
ATOM     53  C   UNL A   1      48.936  27.576  30.634  1.00  0.00     0.031 C 
ATOM     54  C   UNL A   1      43.468  23.767  28.793  1.00  0.00     0.029 A 
ATOM     55  C   UNL A   1      44.300  24.245  27.711  1.00  0.00     0.049 A 
ATOM     56  H   UNL A   1      45.551  25.959  27.815  1.00  0.00     0.167 HD
ATOM     57  C   UNL A   1      48.392  29.247  28.831  1.00  0.00     0.034 A 
ATOM     58  C   UNL A   1      44.237  23.883  26.379  1.00  0.00     0.034 A 
ATOM     59  C   UNL A   1      47.155  29.814  28.327  1.00  0.00     0.049 A 
ATOM     60  C   UNL A   1      44.638  25.074  25.605  1.00  0.00     0.074 A 
ATOM     61  C   UNL A   1      46.170  30.639  28.835  1.00  0.00     0.029 A 
ATOM     62  N   UNL A   1      46.571  29.064  27.340  1.00  0.00    -0.354 N 
ATOM     63  N   UNL A   1      43.901  26.145  25.565  1.00  0.00    -0.248 NA
ATOM     64  C   UNL A   1      46.066  25.247  25.425  1.00  0.00     0.031 C 
ATOM     65  C   UNL A   1      44.937  30.111  28.347  1.00  0.00     0.029 A 
ATOM     66  C   UNL A   1      45.210  29.102  27.425  1.00  0.00     0.049 A 
ATOM     67  H   UNL A   1      47.070  28.561  26.657  1.00  0.00     0.167 HD
ATOM     68  C   UNL A   1      44.790  27.142  25.934  1.00  0.00     0.074 A 
ATOM     69  C   UNL A   1      46.122  26.531  25.790  1.00  0.00     0.031 C 
ATOM     70  C   UNL A   1      44.357  28.200  26.683  1.00  0.00     0.034 A 
BRANCH  57  71
ATOM     71  C   UNL A   1      49.557  28.948  27.895  1.00  0.00     0.023 A 
ATOM     72  C   UNL A   1      50.423  30.027  27.625  1.00  0.00     0.012 A 
ATOM     73  C   UNL A   1      49.709  27.796  27.077  1.00  0.00     0.148 A 
ATOM     74  C   UNL A   1      51.367  29.975  26.593  1.00  0.00     0.002 A 
ATOM     75  C   UNL A   1      50.692  27.721  26.096  1.00  0.00     0.091 A 
ATOM     76  F   UNL A   1      48.836  26.792  27.148  1.00  0.00    -0.205 F 
ATOM     77  C   UNL A   1      51.510  28.820  25.835  1.00  0.00     0.022 A 
BRANCH  75  78
ATOM     78  S   UNL A   1      50.950  26.246  25.094  1.00  0.00     0.127 S 
ATOM     79  O   UNL A   1      49.599  25.976  24.611  1.00  0.00    -0.237 OA
ATOM     80  O   UNL A   1      51.881  26.744  24.080  1.00  0.00    -0.237 OA
ATOM     81  O   UNL A   1      51.514  25.244  25.988  1.00  0.00    -0.744 OA
ENDBRANCH  75  78
ENDBRANCH  57  71
BRANCH  58  82
ATOM     82  C   UNL A   1      44.295  22.535  25.696  1.00  0.00     0.023 A 
ATOM     83  C   UNL A   1      45.491  22.045  25.092  1.00  0.00     0.012 A 
ATOM     84  C   UNL A   1      43.284  21.593  25.944  1.00  0.00     0.148 A 
ATOM     85  C   UNL A   1      45.679  20.674  24.812  1.00  0.00     0.002 A 
ATOM     86  C   UNL A   1      43.483  20.233  25.692  1.00  0.00     0.091 A 
ATOM     87  F   UNL A   1      42.150  22.022  26.506  1.00  0.00    -0.205 F 
ATOM     88  C   UNL A   1      44.681  19.763  25.137  1.00  0.00     0.022 A 
BRANCH  86  89
ATOM     89  S   UNL A   1      42.251  19.007  26.151  1.00  0.00     0.127 S 
ATOM     90  O   UNL A   1      42.811  17.785  25.576  1.00  0.00    -0.237 OA
ATOM     91  O   UNL A   1      42.287  19.073  27.610  1.00  0.00    -0.237 OA
ATOM     92  O   UNL A   1      41.007  19.447  25.532  1.00  0.00    -0.744 OA
ENDBRANCH  86  89
ENDBRANCH  58  82
BRANCH  70  93
ATOM     93  C   UNL A   1      42.868  28.423  26.808  1.00  0.00     0.023 A 
ATOM     94  C   UNL A   1      42.016  28.880  25.777  1.00  0.00     0.012 A 
ATOM     95  C   UNL A   1      42.299  28.006  28.019  1.00  0.00     0.148 A 
ATOM     96  C   UNL A   1      40.627  28.938  25.974  1.00  0.00     0.002 A 
ATOM     97  C   UNL A   1      40.927  28.030  28.197  1.00  0.00     0.091 A 
ATOM     98  F   UNL A   1      43.126  27.553  28.972  1.00  0.00    -0.205 F 
ATOM     99  C   UNL A   1      40.082  28.508  27.184  1.00  0.00     0.022 A 
BRANCH  97 100
ATOM    100  S   UNL A   1      40.186  27.391  29.697  1.00  0.00     0.127 S 
ATOM    101  O   UNL A   1      40.242  25.949  29.469  1.00  0.00    -0.237 OA
ATOM    102  O   UNL A   1      41.098  27.887  30.727  1.00  0.00    -0.237 OA
ATOM    103  O   UNL A   1      38.845  27.959  29.763  1.00  0.00    -0.744 OA
ENDBRANCH  97 100
ENDBRANCH  70  93
ENDBRANCH  44  45
ENDBRANCH  37  39
ENDBRANCH  36  37
ENDBRANCH  35  36
ENDBRANCH  34  35
ENDBRANCH  33  34
ENDBRANCH   1  33
TORSDOF 23
ENDMDL
MODEL 3
REMARK VINA RESULT:      -8.2      2.474      3.657
REMARK SMILES CC1(C)Cc2c(-c3ccccc3)c(-c3ccc(Cl)cc3)c(CC(=O)OCCOCCOCCOC(=O)c3ccc(-c4c5nc(c(-c6cccc(S(=O)(=O)[O-])c6F)c6ccc([nH]6)c(-c6cccc(S(=O)(=O)[O-])c6F)c6nc(c(-c7cccc(S(=O)(=O)[O-])c7F)c7ccc4[nH]7)C=C6)C=C5)cc3)n2C1
REMARK SMILES IDX 30 1 29 2 28 3 27 4 26 5 25 6 23 7 24 8 22 9 21 10 1 11 2 12
REMARK SMILES IDX 3 13 4 14 101 15 5 16 100 17 6 18 13 19 7 20 8 21 12 22 9 23
REMARK SMILES IDX 11 24 10 25 14 26 15 27 20 28 16 29 19 30 17 31 18 32 31 33
REMARK SMILES IDX 32 34 33 35 34 36 35 37 36 38 37 39 38 40 99 41 39 42 98 43
REMARK SMILES IDX 40 44 41 45 42 46 92 47 43 48 97 49 91 50 93 51 44 52 96 53
REMARK SMILES IDX 90 54 89 55 45 57 77 58 57 59 76 60 58 61 61 62 75 63 94 64
REMARK SMILES IDX 59 65 60 66 74 68 95 69 62 70 46 71 47 72 55 73 48 74 50 75
REMARK SMILES IDX 56 76 49 77 51 78 52 79 53 80 54 81 78 82 79 83 87 84 80 85
REMARK SMILES IDX 82 86 88 87 81 88 83 89 84 90 85 91 86 92 63 93 64 94 72 95
REMARK SMILES IDX 65 96 67 97 73 98 66 99 68 100 69 101 70 102 71 103
REMARK H PARENT 93 56 61 67
REMARK Flexibility Score: inf
ROOT
ATOM      1  C   UNL A   1      44.846  39.595  31.290  1.00  0.00     0.188 C 
ENDROOT
BRANCH   1   2
ATOM      2  C   UNL A   1      43.518  39.082  31.919  1.00  0.00     0.188 C 
BRANCH   2   3
ATOM      3  O   UNL A   1      43.587  37.947  32.745  1.00  0.00    -0.376 OA
BRANCH   3   4
ATOM      4  C   UNL A   1      43.120  38.187  34.054  1.00  0.00     0.202 C 
BRANCH   4   5
ATOM      5  C   UNL A   1      43.133  36.993  35.090  1.00  0.00     0.261 C 
BRANCH   5   6
ATOM      6  O   UNL A   1      41.849  36.469  35.657  1.00  0.00    -0.463 OA
BRANCH   6   7
ATOM      7  C   UNL A   1      40.932  35.773  34.918  1.00  0.00     0.311 C 
ATOM      8  O   UNL A   1      39.729  35.932  35.143  1.00  0.00    -0.252 OA
BRANCH   7   9
ATOM      9  C   UNL A   1      41.369  34.855  33.655  1.00  0.00     0.177 C 
BRANCH   9  10
ATOM     10  C   UNL A   1      40.948  33.364  33.269  1.00  0.00     0.037 A 
ATOM     11  C   UNL A   1      44.368  30.246  35.256  1.00  0.00     0.013 C 
ATOM     12  C   UNL A   1      43.720  30.919  34.032  1.00  0.00    -0.012 C 
ATOM     13  C   UNL A   1      44.764  30.965  32.903  1.00  0.00     0.013 C 
ATOM     14  C   UNL A   1      42.478  30.100  33.579  1.00  0.00     0.063 C 
ATOM     15  C   UNL A   1      43.156  32.354  34.327  1.00  0.00     0.129 C 
ATOM     16  C   UNL A   1      41.471  31.142  33.278  1.00  0.00     0.027 A 
ATOM     17  N   UNL A   1      41.850  32.380  33.655  1.00  0.00    -0.346 N 
ATOM     18  C   UNL A   1      40.259  31.207  32.661  1.00  0.00     0.011 A 
ATOM     19  C   UNL A   1      39.783  32.606  32.703  1.00  0.00     0.011 A 
BRANCH  18  20
ATOM     20  C   UNL A   1      39.783  30.028  31.963  1.00  0.00    -0.016 A 
ATOM     21  C   UNL A   1      39.305  28.907  32.635  1.00  0.00     0.009 A 
ATOM     22  C   UNL A   1      39.789  30.034  30.569  1.00  0.00     0.009 A 
ATOM     23  C   UNL A   1      38.678  27.890  31.908  1.00  0.00     0.001 A 
ATOM     24  C   UNL A   1      39.070  29.084  29.851  1.00  0.00     0.001 A 
ATOM     25  C   UNL A   1      38.501  28.013  30.527  1.00  0.00     0.000 A 
ENDBRANCH  18  20
BRANCH  19  26
ATOM     26  C   UNL A   1      38.397  33.048  31.990  1.00  0.00    -0.016 A 
ATOM     27  C   UNL A   1      36.802  32.553  32.642  1.00  0.00     0.010 A 
ATOM     28  C   UNL A   1      38.508  33.641  30.363  1.00  0.00     0.010 A 
ATOM     29  C   UNL A   1      35.310  32.504  31.567  1.00  0.00     0.021 A 
ATOM     30  C   UNL A   1      37.203  33.693  29.188  1.00  0.00     0.021 A 
ATOM     31  C   UNL A   1      35.550  33.132  29.651  1.00  0.00     0.041 A 
ATOM     32  Cl  UNL A   1      34.684  33.208  28.059  1.00  0.00    -0.084 Cl
ENDBRANCH  19  26
ENDBRANCH   9  10
ENDBRANCH   7   9
ENDBRANCH   6   7
ENDBRANCH   5   6
ENDBRANCH   4   5
ENDBRANCH   3   4
ENDBRANCH   2   3
ENDBRANCH   1   2
BRANCH   1  33
ATOM     33  O   UNL A   1      45.206  39.172  29.999  1.00  0.00    -0.376 OA
BRANCH  33  34
ATOM     34  C   UNL A   1      44.738  37.940  29.501  1.00  0.00     0.202 C 
BRANCH  34  35
ATOM     35  C   UNL A   1      44.228  37.810  28.075  1.00  0.00     0.261 C 
BRANCH  35  36
ATOM     36  O   UNL A   1      44.596  36.601  27.426  1.00  0.00    -0.460 OA
BRANCH  36  37
ATOM     37  C   UNL A   1      43.514  35.970  26.891  1.00  0.00     0.338 C 
ATOM     38  O   UNL A   1      42.695  36.512  26.176  1.00  0.00    -0.246 OA
BRANCH  37  39
ATOM     39  C   UNL A   1      43.235  34.831  27.772  1.00  0.00     0.060 A 
ATOM     40  C   UNL A   1      42.745  34.079  29.583  1.00  0.00     0.016 A 
ATOM     41  C   UNL A   1      44.248  33.819  26.678  1.00  0.00     0.016 A 
ATOM     42  C   UNL A   1      43.402  32.399  29.926  1.00  0.00     0.010 A 
ATOM     43  C   UNL A   1      44.773  32.342  27.138  1.00  0.00     0.010 A 
ATOM     44  C   UNL A   1      44.434  31.620  28.669  1.00  0.00    -0.014 A 
BRANCH  44  45
ATOM     45  C   UNL A   1      44.954  30.216  28.653  1.00  0.00     0.031 A 
ATOM     46  C   UNL A   1      43.778  29.351  28.386  1.00  0.00     0.074 A 
ATOM     47  C   UNL A   1      46.281  29.816  28.745  1.00  0.00     0.049 A 
ATOM     48  N   UNL A   1      43.002  28.899  29.324  1.00  0.00    -0.248 NA
ATOM     49  C   UNL A   1      43.125  29.304  27.062  1.00  0.00     0.031 C 
ATOM     50  C   UNL A   1      47.526  30.609  28.944  1.00  0.00     0.029 A 
ATOM     51  N   UNL A   1      46.855  28.555  28.649  1.00  0.00    -0.354 N 
ATOM     52  C   UNL A   1      42.073  28.128  28.641  1.00  0.00     0.074 A 
ATOM     53  C   UNL A   1      41.949  28.734  27.354  1.00  0.00     0.031 C 
ATOM     54  C   UNL A   1      48.642  29.901  28.635  1.00  0.00     0.029 A 
ATOM     55  C   UNL A   1      48.270  28.521  28.421  1.00  0.00     0.049 A 
ATOM     56  H   UNL A   1      46.321  27.732  28.732  1.00  0.00     0.167 HD
ATOM     57  C   UNL A   1      41.961  26.815  28.983  1.00  0.00     0.034 A 
ATOM     58  C   UNL A   1      49.113  27.438  28.264  1.00  0.00     0.034 A 
ATOM     59  C   UNL A   1      42.576  26.602  30.280  1.00  0.00     0.049 A 
ATOM     60  C   UNL A   1      48.411  26.277  28.845  1.00  0.00     0.074 A 
ATOM     61  C   UNL A   1      42.435  27.151  31.540  1.00  0.00     0.029 A 
ATOM     62  N   UNL A   1      43.853  26.108  30.207  1.00  0.00    -0.354 N 
ATOM     63  N   UNL A   1      48.187  26.181  30.123  1.00  0.00    -0.248 NA
ATOM     64  C   UNL A   1      47.483  25.603  27.959  1.00  0.00     0.031 C 
ATOM     65  C   UNL A   1      43.759  27.257  32.065  1.00  0.00     0.029 A 
ATOM     66  C   UNL A   1      44.641  26.615  31.198  1.00  0.00     0.049 A 
ATOM     67  H   UNL A   1      44.161  25.469  29.525  1.00  0.00     0.167 HD
ATOM     68  C   UNL A   1      46.822  25.949  30.176  1.00  0.00     0.074 A 
ATOM     69  C   UNL A   1      46.451  25.557  28.806  1.00  0.00     0.031 C 
ATOM     70  C   UNL A   1      46.080  26.472  31.198  1.00  0.00     0.034 A 
BRANCH  57  71
ATOM     71  C   UNL A   1      41.828  25.675  27.982  1.00  0.00     0.023 A 
ATOM     72  C   UNL A   1      40.682  24.865  28.117  1.00  0.00     0.012 A 
ATOM     73  C   UNL A   1      42.843  25.191  27.112  1.00  0.00     0.148 A 
ATOM     74  C   UNL A   1      40.559  23.641  27.451  1.00  0.00     0.002 A 
ATOM     75  C   UNL A   1      42.691  24.006  26.399  1.00  0.00     0.091 A 
ATOM     76  F   UNL A   1      44.026  25.801  27.042  1.00  0.00    -0.205 F 
ATOM     77  C   UNL A   1      41.557  23.216  26.583  1.00  0.00     0.022 A 
BRANCH  75  78
ATOM     78  S   UNL A   1      43.932  23.408  25.239  1.00  0.00     0.127 S 
ATOM     79  O   UNL A   1      44.218  24.612  24.464  1.00  0.00    -0.237 OA
ATOM     80  O   UNL A   1      45.000  22.990  26.148  1.00  0.00    -0.237 OA
ATOM     81  O   UNL A   1      43.306  22.317  24.504  1.00  0.00    -0.744 OA
ENDBRANCH  75  78
ENDBRANCH  57  71
BRANCH  58  82
ATOM     82  C   UNL A   1      50.250  27.176  27.302  1.00  0.00     0.023 A 
ATOM     83  C   UNL A   1      51.189  26.122  27.510  1.00  0.00     0.012 A 
ATOM     84  C   UNL A   1      50.204  27.731  26.013  1.00  0.00     0.148 A 
ATOM     85  C   UNL A   1      51.989  25.616  26.462  1.00  0.00     0.002 A 
ATOM     86  C   UNL A   1      50.977  27.212  24.972  1.00  0.00     0.091 A 
ATOM     87  F   UNL A   1      49.337  28.724  25.788  1.00  0.00    -0.205 F 
ATOM     88  C   UNL A   1      51.863  26.148  25.184  1.00  0.00     0.022 A 
BRANCH  86  89
ATOM     89  S   UNL A   1      50.807  27.820  23.289  1.00  0.00     0.127 S 
ATOM     90  O   UNL A   1      51.328  29.182  23.405  1.00  0.00    -0.237 OA
ATOM     91  O   UNL A   1      51.662  26.897  22.546  1.00  0.00    -0.237 OA
ATOM     92  O   UNL A   1      49.385  27.744  22.984  1.00  0.00    -0.744 OA
ENDBRANCH  86  89
ENDBRANCH  58  82
BRANCH  70  93
ATOM     93  C   UNL A   1      46.811  27.006  32.409  1.00  0.00     0.023 A 
ATOM     94  C   UNL A   1      47.248  28.340  32.582  1.00  0.00     0.012 A 
ATOM     95  C   UNL A   1      46.928  26.113  33.481  1.00  0.00     0.148 A 
ATOM     96  C   UNL A   1      47.813  28.751  33.800  1.00  0.00     0.002 A 
ATOM     97  C   UNL A   1      47.453  26.531  34.692  1.00  0.00     0.091 A 
ATOM     98  F   UNL A   1      46.485  24.861  33.300  1.00  0.00    -0.205 F 
ATOM     99  C   UNL A   1      47.910  27.847  34.856  1.00  0.00     0.022 A 
BRANCH  97 100
ATOM    100  S   UNL A   1      47.500  25.427  36.101  1.00  0.00     0.127 S 
ATOM    101  O   UNL A   1      48.366  24.356  35.614  1.00  0.00    -0.237 OA
ATOM    102  O   UNL A   1      48.091  26.273  37.137  1.00  0.00    -0.237 OA
ATOM    103  O   UNL A   1      46.119  25.040  36.362  1.00  0.00    -0.744 OA
ENDBRANCH  97 100
ENDBRANCH  70  93
ENDBRANCH  44  45
ENDBRANCH  37  39
ENDBRANCH  36  37
ENDBRANCH  35  36
ENDBRANCH  34  35
ENDBRANCH  33  34
ENDBRANCH   1  33
TORSDOF 23
ENDMDL
