MODEL 1
REMARK VINA RESULT:      -8.0      0.000      0.000
REMARK SMILES O=C(OCCOCCOCCOC(=O)[C@]1([NH2+]C2CC2)CCC[C@@H](n2cc(Br)cn2)C1)c1ccc(-c2c3nc(c(-c4cccc(S(=O)(=O)[O-])c4F)c4ccc([nH]4)c(-c4cccc(S(=O)(=O)[O-])c4F)c4nc(c(-c5cccc(S(=O)(=O)[O-])c5F)c5ccc2[nH]5)C=C4)C=C3)cc1
REMARK SMILES IDX 7 1 6 2 5 3 4 4 3 5 2 6 1 7 31 8 32 9 93 10 33 11 92 12
REMARK SMILES IDX 34 13 35 14 36 15 86 16 37 17 91 18 85 19 87 20 38 21 90 22
REMARK SMILES IDX 84 23 83 24 39 26 71 27 51 28 70 29 52 30 55 31 69 32 88 33
REMARK SMILES IDX 53 34 54 35 68 37 89 38 56 39 40 40 41 41 49 42 42 43 44 44
REMARK SMILES IDX 50 45 43 46 45 47 46 48 47 49 48 50 72 51 73 52 81 53 74 54
REMARK SMILES IDX 76 55 82 56 75 57 77 58 78 59 79 60 80 61 57 62 58 63 66 64
REMARK SMILES IDX 59 65 61 66 67 67 60 68 62 69 63 70 64 71 65 72 8 73 9 74
REMARK SMILES IDX 10 75 11 76 12 77 13 78 14 79 15 80 20 81 30 82 21 83 23 84
REMARK SMILES IDX 22 85 16 86 17 89 18 90 19 91 24 92 25 93 29 94 26 95 28 96
REMARK SMILES IDX 27 97
REMARK H PARENT 87 25 55 36 16 87 16 88
REMARK Flexibility Score: inf
ROOT
ATOM      1  C   UNL A   1      45.024  22.122  23.654  1.00  0.00     0.188 C 
ENDROOT
BRANCH   1   2
ATOM      2  O   UNL A   1      44.445  20.922  24.128  1.00  0.00    -0.376 OA
BRANCH   2   3
ATOM      3  C   UNL A   1      43.996  20.736  25.456  1.00  0.00     0.202 C 
BRANCH   3   4
ATOM      4  C   UNL A   1      42.711  21.335  26.032  1.00  0.00     0.261 C 
BRANCH   4   5
ATOM      5  O   UNL A   1      42.847  22.615  26.642  1.00  0.00    -0.460 OA
BRANCH   5   6
ATOM      6  C   UNL A   1      42.517  23.846  26.198  1.00  0.00     0.338 C 
ATOM      7  O   UNL A   1      42.761  24.103  25.019  1.00  0.00    -0.246 OA
BRANCH   6   8
ATOM      8  C   UNL A   1      41.992  24.946  27.062  1.00  0.00     0.060 A 
ATOM      9  C   UNL A   1      40.992  25.868  26.730  1.00  0.00     0.016 A 
ATOM     10  C   UNL A   1      42.575  25.029  28.339  1.00  0.00     0.016 A 
ATOM     11  C   UNL A   1      40.760  26.976  27.529  1.00  0.00     0.010 A 
ATOM     12  C   UNL A   1      42.305  26.101  29.170  1.00  0.00     0.010 A 
ATOM     13  C   UNL A   1      41.494  27.127  28.695  1.00  0.00    -0.014 A 
BRANCH  13  14
ATOM     14  C   UNL A   1      41.532  28.447  29.300  1.00  0.00     0.031 A 
ATOM     15  C   UNL A   1      42.554  29.407  28.814  1.00  0.00     0.074 A 
ATOM     16  C   UNL A   1      40.599  28.768  30.220  1.00  0.00     0.049 A 
ATOM     17  N   UNL A   1      43.449  30.038  29.505  1.00  0.00    -0.248 NA
ATOM     18  C   UNL A   1      42.627  29.647  27.367  1.00  0.00     0.031 C 
ATOM     19  C   UNL A   1      39.407  27.991  30.592  1.00  0.00     0.029 A 
ATOM     20  N   UNL A   1      40.422  29.942  30.885  1.00  0.00    -0.354 N 
ATOM     21  C   UNL A   1      44.056  30.923  28.615  1.00  0.00     0.074 A 
ATOM     22  C   UNL A   1      43.610  30.546  27.296  1.00  0.00     0.031 C 
ATOM     23  C   UNL A   1      38.502  28.818  31.149  1.00  0.00     0.029 A 
ATOM     24  C   UNL A   1      39.114  30.122  31.313  1.00  0.00     0.049 A 
ATOM     25  H   UNL A   1      41.143  30.593  31.044  1.00  0.00     0.167 HD
ATOM     26  C   UNL A   1      44.714  32.041  29.030  1.00  0.00     0.034 A 
ATOM     27  C   UNL A   1      38.537  31.293  31.663  1.00  0.00     0.034 A 
ATOM     28  C   UNL A   1      45.072  31.989  30.420  1.00  0.00     0.049 A 
ATOM     29  C   UNL A   1      39.621  32.233  32.021  1.00  0.00     0.074 A 
ATOM     30  C   UNL A   1      45.855  31.168  31.206  1.00  0.00     0.029 A 
ATOM     31  N   UNL A   1      44.335  32.747  31.295  1.00  0.00    -0.354 N 
ATOM     32  N   UNL A   1      40.410  32.066  33.046  1.00  0.00    -0.248 NA
ATOM     33  C   UNL A   1      40.103  33.154  31.005  1.00  0.00     0.031 C 
ATOM     34  C   UNL A   1      45.198  31.136  32.472  1.00  0.00     0.029 A 
ATOM     35  C   UNL A   1      44.071  31.954  32.380  1.00  0.00     0.049 A 
ATOM     36  H   UNL A   1      44.050  33.680  31.167  1.00  0.00     0.167 HD
ATOM     37  C   UNL A   1      41.653  32.501  32.607  1.00  0.00     0.074 A 
ATOM     38  C   UNL A   1      41.374  33.275  31.399  1.00  0.00     0.031 C 
ATOM     39  C   UNL A   1      42.810  31.954  33.092  1.00  0.00     0.034 A 
BRANCH  26  40
ATOM     40  C   UNL A   1      44.762  33.338  28.257  1.00  0.00     0.023 A 
ATOM     41  C   UNL A   1      43.537  33.926  27.873  1.00  0.00     0.012 A 
ATOM     42  C   UNL A   1      45.936  33.853  27.664  1.00  0.00     0.148 A 
ATOM     43  C   UNL A   1      43.481  34.950  26.920  1.00  0.00     0.002 A 
ATOM     44  C   UNL A   1      45.881  34.926  26.780  1.00  0.00     0.091 A 
ATOM     45  F   UNL A   1      47.104  33.226  27.840  1.00  0.00    -0.205 F 
ATOM     46  C   UNL A   1      44.655  35.460  26.382  1.00  0.00     0.022 A 
BRANCH  44  47
ATOM     47  S   UNL A   1      47.383  35.650  26.111  1.00  0.00     0.127 S 
ATOM     48  O   UNL A   1      47.748  34.679  25.088  1.00  0.00    -0.237 OA
ATOM     49  O   UNL A   1      46.904  36.936  25.606  1.00  0.00    -0.237 OA
ATOM     50  O   UNL A   1      48.282  35.764  27.256  1.00  0.00    -0.744 OA
ENDBRANCH  44  47
ENDBRANCH  26  40
BRANCH  27  51
ATOM     51  C   UNL A   1      37.143  31.705  31.395  1.00  0.00     0.023 A 
ATOM     52  C   UNL A   1      36.301  32.071  32.457  1.00  0.00     0.012 A 
ATOM     53  C   UNL A   1      36.701  31.947  30.071  1.00  0.00     0.148 A 
ATOM     54  C   UNL A   1      35.056  32.661  32.210  1.00  0.00     0.002 A 
ATOM     55  C   UNL A   1      35.456  32.515  29.831  1.00  0.00     0.091 A 
ATOM     56  F   UNL A   1      37.537  31.700  29.053  1.00  0.00    -0.205 F 
ATOM     57  C   UNL A   1      34.633  32.883  30.900  1.00  0.00     0.022 A 
BRANCH  55  58
ATOM     58  S   UNL A   1      34.850  32.818  28.166  1.00  0.00     0.127 S 
ATOM     59  O   UNL A   1      34.768  31.461  27.621  1.00  0.00    -0.237 OA
ATOM     60  O   UNL A   1      33.560  33.452  28.423  1.00  0.00    -0.237 OA
ATOM     61  O   UNL A   1      35.854  33.658  27.524  1.00  0.00    -0.744 OA
ENDBRANCH  55  58
ENDBRANCH  27  51
BRANCH  39  62
ATOM     62  C   UNL A   1      42.712  31.000  34.261  1.00  0.00     0.023 A 
ATOM     63  C   UNL A   1      42.681  31.478  35.589  1.00  0.00     0.012 A 
ATOM     64  C   UNL A   1      42.445  29.640  34.029  1.00  0.00     0.148 A 
ATOM     65  C   UNL A   1      42.418  30.622  36.661  1.00  0.00     0.002 A 
ATOM     66  C   UNL A   1      42.142  28.798  35.095  1.00  0.00     0.091 A 
ATOM     67  F   UNL A   1      42.453  29.199  32.761  1.00  0.00    -0.205 F 
ATOM     68  C   UNL A   1      42.138  29.283  36.413  1.00  0.00     0.022 A 
BRANCH  66  69
ATOM     69  S   UNL A   1      41.636  27.094  34.844  1.00  0.00     0.127 S 
ATOM     70  O   UNL A   1      40.515  27.239  33.919  1.00  0.00    -0.237 OA
ATOM     71  O   UNL A   1      42.836  26.491  34.260  1.00  0.00    -0.237 OA
ATOM     72  O   UNL A   1      41.299  26.579  36.166  1.00  0.00    -0.744 OA
ENDBRANCH  66  69
ENDBRANCH  39  62
ENDBRANCH  13  14
ENDBRANCH   6   8
ENDBRANCH   5   6
ENDBRANCH   4   5
ENDBRANCH   3   4
ENDBRANCH   2   3
ENDBRANCH   1   2
BRANCH   1  73
ATOM     73  C   UNL A   1      45.936  23.011  24.517  1.00  0.00     0.188 C 
BRANCH  73  74
ATOM     74  O   UNL A   1      46.039  24.392  24.188  1.00  0.00    -0.376 OA
BRANCH  74  75
ATOM     75  C   UNL A   1      46.166  25.291  25.267  1.00  0.00     0.202 C 
BRANCH  75  76
ATOM     76  C   UNL A   1      46.369  24.552  26.593  1.00  0.00     0.261 C 
BRANCH  76  77
ATOM     77  O   UNL A   1      45.871  25.221  27.773  1.00  0.00    -0.459 OA
BRANCH  77  78
ATOM     78  C   UNL A   1      45.836  26.588  27.718  1.00  0.00     0.368 C 
ATOM     79  O   UNL A   1      45.006  27.224  27.071  1.00  0.00    -0.245 OA
BRANCH  78  80
ATOM     80  C   UNL A   1      47.046  27.275  28.446  1.00  0.00     0.196 C 
ATOM     81  C   UNL A   1      46.998  28.818  28.591  1.00  0.00     0.081 C 
ATOM     82  C   UNL A   1      48.379  26.816  27.767  1.00  0.00     0.108 C 
ATOM     83  C   UNL A   1      47.510  29.647  27.420  1.00  0.00     0.009 C 
ATOM     84  C   UNL A   1      48.785  27.644  26.530  1.00  0.00     0.114 C 
ATOM     85  C   UNL A   1      48.831  29.140  26.874  1.00  0.00     0.028 C 
BRANCH  80  86
ATOM     86  N   UNL A   1      47.031  26.679  29.833  1.00  0.00    -0.330 N 
ATOM     87  H   UNL A   1      47.824  26.041  29.911  1.00  0.00     0.347 HD
ATOM     88  H   UNL A   1      46.128  26.216  29.934  1.00  0.00     0.347 HD
BRANCH  86  89
ATOM     89  C   UNL A   1      47.119  27.655  30.931  1.00  0.00     0.183 C 
ATOM     90  C   UNL A   1      46.800  27.261  32.347  1.00  0.00     0.071 C 
ATOM     91  C   UNL A   1      48.221  27.504  31.941  1.00  0.00     0.071 C 
ENDBRANCH  86  89
ENDBRANCH  80  86
BRANCH  84  92
ATOM     92  N   UNL A   1      50.032  27.177  25.912  1.00  0.00    -0.268 N 
ATOM     93  C   UNL A   1      50.895  26.254  26.441  1.00  0.00     0.124 A 
ATOM     94  N   UNL A   1      50.329  27.503  24.636  1.00  0.00    -0.180 NA
ATOM     95  C   UNL A   1      51.771  25.952  25.430  1.00  0.00     0.055 A 
ATOM     96  C   UNL A   1      51.387  26.737  24.338  1.00  0.00     0.150 A 
ATOM     97  Br  UNL A   1      53.170  24.721  25.446  1.00  0.00    -0.047 Br
ENDBRANCH  84  92
ENDBRANCH  78  80
ENDBRANCH  77  78
ENDBRANCH  76  77
ENDBRANCH  75  76
ENDBRANCH  74  75
ENDBRANCH  73  74
ENDBRANCH   1  73
TORSDOF 23
ENDMDL
MODEL 2
REMARK VINA RESULT:      -7.8      5.594     10.732
REMARK SMILES O=C(OCCOCCOCCOC(=O)[C@]1([NH2+]C2CC2)CCC[C@@H](n2cc(Br)cn2)C1)c1ccc(-c2c3nc(c(-c4cccc(S(=O)(=O)[O-])c4F)c4ccc([nH]4)c(-c4cccc(S(=O)(=O)[O-])c4F)c4nc(c(-c5cccc(S(=O)(=O)[O-])c5F)c5ccc2[nH]5)C=C4)C=C3)cc1
REMARK SMILES IDX 7 1 6 2 5 3 4 4 3 5 2 6 1 7 31 8 32 9 93 10 33 11 92 12
REMARK SMILES IDX 34 13 35 14 36 15 86 16 37 17 91 18 85 19 87 20 38 21 90 22
REMARK SMILES IDX 84 23 83 24 39 26 71 27 51 28 70 29 52 30 55 31 69 32 88 33
REMARK SMILES IDX 53 34 54 35 68 37 89 38 56 39 40 40 41 41 49 42 42 43 44 44
REMARK SMILES IDX 50 45 43 46 45 47 46 48 47 49 48 50 72 51 73 52 81 53 74 54
REMARK SMILES IDX 76 55 82 56 75 57 77 58 78 59 79 60 80 61 57 62 58 63 66 64
REMARK SMILES IDX 59 65 61 66 67 67 60 68 62 69 63 70 64 71 65 72 8 73 9 74
REMARK SMILES IDX 10 75 11 76 12 77 13 78 14 79 15 80 20 81 30 82 21 83 23 84
REMARK SMILES IDX 22 85 16 86 17 89 18 90 19 91 24 92 25 93 29 94 26 95 28 96
REMARK SMILES IDX 27 97
REMARK H PARENT 87 25 55 36 16 87 16 88
REMARK Flexibility Score: inf
ROOT
ATOM      1  C   UNL A   1      40.194  21.987  27.543  1.00  0.00     0.188 C 
ENDROOT
BRANCH   1   2
ATOM      2  O   UNL A   1      40.630  20.670  27.271  1.00  0.00    -0.376 OA
BRANCH   2   3
ATOM      3  C   UNL A   1      41.324  20.298  26.096  1.00  0.00     0.202 C 
BRANCH   3   4
ATOM      4  C   UNL A   1      42.820  19.979  26.033  1.00  0.00     0.261 C 
BRANCH   4   5
ATOM      5  O   UNL A   1      43.674  21.084  25.752  1.00  0.00    -0.460 OA
BRANCH   5   6
ATOM      6  C   UNL A   1      43.414  22.405  25.674  1.00  0.00     0.338 C 
ATOM      7  O   UNL A   1      43.081  22.849  24.575  1.00  0.00    -0.246 OA
BRANCH   6   8
ATOM      8  C   UNL A   1      43.618  23.377  26.791  1.00  0.00     0.060 A 
ATOM      9  C   UNL A   1      42.928  23.413  28.008  1.00  0.00     0.016 A 
ATOM     10  C   UNL A   1      44.624  24.335  26.569  1.00  0.00     0.016 A 
ATOM     11  C   UNL A   1      43.051  24.499  28.858  1.00  0.00     0.010 A 
ATOM     12  C   UNL A   1      44.796  25.392  27.443  1.00  0.00     0.010 A 
ATOM     13  C   UNL A   1      43.917  25.525  28.513  1.00  0.00    -0.014 A 
BRANCH  13  14
ATOM     14  C   UNL A   1      43.747  26.802  29.184  1.00  0.00     0.031 A 
ATOM     15  C   UNL A   1      43.925  26.845  30.656  1.00  0.00     0.074 A 
ATOM     16  C   UNL A   1      43.506  27.901  28.439  1.00  0.00     0.049 A 
ATOM     17  N   UNL A   1      43.090  27.271  31.550  1.00  0.00    -0.248 NA
ATOM     18  C   UNL A   1      45.167  26.287  31.207  1.00  0.00     0.031 C 
ATOM     19  C   UNL A   1      43.552  28.014  26.973  1.00  0.00     0.029 A 
ATOM     20  N   UNL A   1      43.348  29.190  28.843  1.00  0.00    -0.354 N 
ATOM     21  C   UNL A   1      43.785  27.240  32.758  1.00  0.00     0.074 A 
ATOM     22  C   UNL A   1      45.000  26.504  32.512  1.00  0.00     0.031 C 
ATOM     23  C   UNL A   1      43.738  29.307  26.641  1.00  0.00     0.029 A 
ATOM     24  C   UNL A   1      43.660  30.106  27.848  1.00  0.00     0.049 A 
ATOM     25  H   UNL A   1      43.046  29.446  29.745  1.00  0.00     0.167 HD
ATOM     26  C   UNL A   1      43.424  28.001  33.829  1.00  0.00     0.034 A 
ATOM     27  C   UNL A   1      43.955  31.413  28.021  1.00  0.00     0.034 A 
ATOM     28  C   UNL A   1      42.075  28.486  33.734  1.00  0.00     0.049 A 
ATOM     29  C   UNL A   1      43.391  31.827  29.324  1.00  0.00     0.074 A 
ATOM     30  C   UNL A   1      40.823  27.909  33.651  1.00  0.00     0.029 A 
ATOM     31  N   UNL A   1      41.895  29.808  33.411  1.00  0.00    -0.354 N 
ATOM     32  N   UNL A   1      42.113  31.859  29.579  1.00  0.00    -0.248 NA
ATOM     33  C   UNL A   1      44.260  31.816  30.489  1.00  0.00     0.031 C 
ATOM     34  C   UNL A   1      40.067  28.790  32.823  1.00  0.00     0.029 A 
ATOM     35  C   UNL A   1      40.900  29.855  32.472  1.00  0.00     0.049 A 
ATOM     36  H   UNL A   1      42.388  30.574  33.782  1.00  0.00     0.167 HD
ATOM     37  C   UNL A   1      42.006  31.431  30.895  1.00  0.00     0.074 A 
ATOM     38  C   UNL A   1      43.358  31.547  31.437  1.00  0.00     0.031 C 
ATOM     39  C   UNL A   1      40.903  30.751  31.335  1.00  0.00     0.034 A 
BRANCH  26  40
ATOM     40  C   UNL A   1      44.395  28.583  34.827  1.00  0.00     0.023 A 
ATOM     41  C   UNL A   1      45.220  29.650  34.406  1.00  0.00     0.012 A 
ATOM     42  C   UNL A   1      44.726  27.961  36.053  1.00  0.00     0.148 A 
ATOM     43  C   UNL A   1      46.336  30.053  35.149  1.00  0.00     0.002 A 
ATOM     44  C   UNL A   1      45.786  28.420  36.827  1.00  0.00     0.091 A 
ATOM     45  F   UNL A   1      44.105  26.834  36.418  1.00  0.00    -0.205 F 
ATOM     46  C   UNL A   1      46.613  29.446  36.367  1.00  0.00     0.022 A 
BRANCH  44  47
ATOM     47  S   UNL A   1      46.136  27.701  38.435  1.00  0.00     0.127 S 
ATOM     48  O   UNL A   1      46.538  26.348  38.071  1.00  0.00    -0.237 OA
ATOM     49  O   UNL A   1      47.213  28.559  38.927  1.00  0.00    -0.237 OA
ATOM     50  O   UNL A   1      44.887  27.833  39.181  1.00  0.00    -0.744 OA
ENDBRANCH  44  47
ENDBRANCH  26  40
BRANCH  27  51
ATOM     51  C   UNL A   1      44.952  32.200  27.267  1.00  0.00     0.023 A 
ATOM     52  C   UNL A   1      44.555  33.344  26.555  1.00  0.00     0.012 A 
ATOM     53  C   UNL A   1      46.339  31.951  27.421  1.00  0.00     0.148 A 
ATOM     54  C   UNL A   1      45.509  34.214  26.014  1.00  0.00     0.002 A 
ATOM     55  C   UNL A   1      47.280  32.808  26.865  1.00  0.00     0.091 A 
ATOM     56  F   UNL A   1      46.731  30.923  28.185  1.00  0.00    -0.205 F 
ATOM     57  C   UNL A   1      46.868  33.949  26.167  1.00  0.00     0.022 A 
BRANCH  55  58
ATOM     58  S   UNL A   1      49.048  32.515  27.020  1.00  0.00     0.127 S 
ATOM     59  O   UNL A   1      49.603  33.530  26.123  1.00  0.00    -0.237 OA
ATOM     60  O   UNL A   1      49.273  32.767  28.441  1.00  0.00    -0.237 OA
ATOM     61  O   UNL A   1      49.264  31.144  26.575  1.00  0.00    -0.744 OA
ENDBRANCH  55  58
ENDBRANCH  27  51
BRANCH  39  62
ATOM     62  C   UNL A   1      39.714  30.645  30.407  1.00  0.00     0.023 A 
ATOM     63  C   UNL A   1      39.627  29.610  29.451  1.00  0.00     0.012 A 
ATOM     64  C   UNL A   1      38.586  31.454  30.626  1.00  0.00     0.148 A 
ATOM     65  C   UNL A   1      38.461  29.403  28.712  1.00  0.00     0.002 A 
ATOM     66  C   UNL A   1      37.411  31.219  29.918  1.00  0.00     0.091 A 
ATOM     67  F   UNL A   1      38.669  32.421  31.554  1.00  0.00    -0.205 F 
ATOM     68  C   UNL A   1      37.348  30.200  28.953  1.00  0.00     0.022 A 
BRANCH  66  69
ATOM     69  S   UNL A   1      35.895  32.114  30.269  1.00  0.00     0.127 S 
ATOM     70  O   UNL A   1      36.320  33.505  30.128  1.00  0.00    -0.237 OA
ATOM     71  O   UNL A   1      34.996  31.640  29.215  1.00  0.00    -0.237 OA
ATOM     72  O   UNL A   1      35.496  31.712  31.613  1.00  0.00    -0.744 OA
ENDBRANCH  66  69
ENDBRANCH  39  62
ENDBRANCH  13  14
ENDBRANCH   6   8
ENDBRANCH   5   6
ENDBRANCH   4   5
ENDBRANCH   3   4
ENDBRANCH   2   3
ENDBRANCH   1   2
BRANCH   1  73
ATOM     73  C   UNL A   1      39.458  22.858  26.511  1.00  0.00     0.188 C 
BRANCH  73  74
ATOM     74  O   UNL A   1      38.107  22.538  26.198  1.00  0.00    -0.376 OA
BRANCH  74  75
ATOM     75  C   UNL A   1      37.902  21.606  25.160  1.00  0.00     0.202 C 
BRANCH  75  76
ATOM     76  C   UNL A   1      36.916  22.138  24.115  1.00  0.00     0.261 C 
BRANCH  76  77
ATOM     77  O   UNL A   1      36.110  23.267  24.522  1.00  0.00    -0.459 OA
BRANCH  77  78
ATOM     78  C   UNL A   1      35.000  23.517  23.761  1.00  0.00     0.368 C 
ATOM     79  O   UNL A   1      35.038  24.041  22.650  1.00  0.00    -0.245 OA
BRANCH  78  80
ATOM     80  C   UNL A   1      33.650  23.203  24.502  1.00  0.00     0.196 C 
ATOM     81  C   UNL A   1      33.610  23.457  26.031  1.00  0.00     0.081 C 
ATOM     82  C   UNL A   1      33.211  21.740  24.163  1.00  0.00     0.108 C 
ATOM     83  C   UNL A   1      34.118  22.344  26.938  1.00  0.00     0.009 C 
ATOM     84  C   UNL A   1      33.839  20.658  25.065  1.00  0.00     0.114 C 
ATOM     85  C   UNL A   1      33.588  20.977  26.546  1.00  0.00     0.028 C 
BRANCH  80  86
ATOM     86  N   UNL A   1      32.648  24.125  23.851  1.00  0.00    -0.330 N 
ATOM     87  H   UNL A   1      32.638  23.927  22.851  1.00  0.00     0.347 HD
ATOM     88  H   UNL A   1      32.949  25.074  24.073  1.00  0.00     0.347 HD
BRANCH  86  89
ATOM     89  C   UNL A   1      31.270  24.002  24.356  1.00  0.00     0.183 C 
ATOM     90  C   UNL A   1      30.567  25.173  24.984  1.00  0.00     0.071 C 
ATOM     91  C   UNL A   1      30.168  24.707  23.617  1.00  0.00     0.071 C 
ENDBRANCH  86  89
ENDBRANCH  80  86
BRANCH  84  92
ATOM     92  N   UNL A   1      33.413  19.298  24.710  1.00  0.00    -0.268 N 
ATOM     93  C   UNL A   1      33.669  18.162  25.430  1.00  0.00     0.124 A 
ATOM     94  N   UNL A   1      32.542  19.094  23.699  1.00  0.00    -0.180 NA
ATOM     95  C   UNL A   1      32.888  17.187  24.864  1.00  0.00     0.055 A 
ATOM     96  C   UNL A   1      32.209  17.802  23.807  1.00  0.00     0.150 A 
ATOM     97  Br  UNL A   1      32.701  15.409  25.390  1.00  0.00    -0.047 Br
ENDBRANCH  84  92
ENDBRANCH  78  80
ENDBRANCH  77  78
ENDBRANCH  76  77
ENDBRANCH  75  76
ENDBRANCH  74  75
ENDBRANCH  73  74
ENDBRANCH   1  73
TORSDOF 23
ENDMDL
MODEL 3
REMARK VINA RESULT:      -7.8      5.772     10.291
REMARK SMILES O=C(OCCOCCOCCOC(=O)[C@]1([NH2+]C2CC2)CCC[C@@H](n2cc(Br)cn2)C1)c1ccc(-c2c3nc(c(-c4cccc(S(=O)(=O)[O-])c4F)c4ccc([nH]4)c(-c4cccc(S(=O)(=O)[O-])c4F)c4nc(c(-c5cccc(S(=O)(=O)[O-])c5F)c5ccc2[nH]5)C=C4)C=C3)cc1
REMARK SMILES IDX 7 1 6 2 5 3 4 4 3 5 2 6 1 7 31 8 32 9 93 10 33 11 92 12
REMARK SMILES IDX 34 13 35 14 36 15 86 16 37 17 91 18 85 19 87 20 38 21 90 22
REMARK SMILES IDX 84 23 83 24 39 26 71 27 51 28 70 29 52 30 55 31 69 32 88 33
REMARK SMILES IDX 53 34 54 35 68 37 89 38 56 39 40 40 41 41 49 42 42 43 44 44
REMARK SMILES IDX 50 45 43 46 45 47 46 48 47 49 48 50 72 51 73 52 81 53 74 54
REMARK SMILES IDX 76 55 82 56 75 57 77 58 78 59 79 60 80 61 57 62 58 63 66 64
REMARK SMILES IDX 59 65 61 66 67 67 60 68 62 69 63 70 64 71 65 72 8 73 9 74
REMARK SMILES IDX 10 75 11 76 12 77 13 78 14 79 15 80 20 81 30 82 21 83 23 84
REMARK SMILES IDX 22 85 16 86 17 89 18 90 19 91 24 92 25 93 29 94 26 95 28 96
REMARK SMILES IDX 27 97
REMARK H PARENT 87 25 55 36 16 87 16 88
REMARK Flexibility Score: inf
ROOT
ATOM      1  C   UNL A   1      39.942  22.161  27.245  1.00  0.00     0.188 C 
ENDROOT
BRANCH   1   2
ATOM      2  O   UNL A   1      40.278  20.787  27.262  1.00  0.00    -0.376 OA
BRANCH   2   3
ATOM      3  C   UNL A   1      40.928  20.123  26.196  1.00  0.00     0.202 C 
BRANCH   3   4
ATOM      4  C   UNL A   1      42.360  19.584  26.251  1.00  0.00     0.261 C 
BRANCH   4   5
ATOM      5  O   UNL A   1      43.385  20.532  25.970  1.00  0.00    -0.460 OA
BRANCH   5   6
ATOM      6  C   UNL A   1      43.386  21.880  26.033  1.00  0.00     0.338 C 
ATOM      7  O   UNL A   1      43.192  22.493  24.984  1.00  0.00    -0.246 OA
BRANCH   6   8
ATOM      8  C   UNL A   1      43.721  22.671  27.256  1.00  0.00     0.060 A 
ATOM      9  C   UNL A   1      43.053  22.638  28.486  1.00  0.00     0.016 A 
ATOM     10  C   UNL A   1      44.836  23.519  27.129  1.00  0.00     0.016 A 
ATOM     11  C   UNL A   1      43.320  23.584  29.461  1.00  0.00     0.010 A 
ATOM     12  C   UNL A   1      45.149  24.428  28.122  1.00  0.00     0.010 A 
ATOM     13  C   UNL A   1      44.304  24.532  29.223  1.00  0.00    -0.014 A 
BRANCH  13  14
ATOM     14  C   UNL A   1      44.302  25.726  30.050  1.00  0.00     0.031 A 
ATOM     15  C   UNL A   1      44.728  25.593  31.466  1.00  0.00     0.074 A 
ATOM     16  C   UNL A   1      43.984  26.908  29.485  1.00  0.00     0.049 A 
ATOM     17  N   UNL A   1      44.074  25.930  32.532  1.00  0.00    -0.248 NA
ATOM     18  C   UNL A   1      46.021  24.948  31.729  1.00  0.00     0.031 C 
ATOM     19  C   UNL A   1      43.787  27.191  28.055  1.00  0.00     0.029 A 
ATOM     20  N   UNL A   1      43.950  28.145  30.051  1.00  0.00    -0.354 N 
ATOM     21  C   UNL A   1      44.960  25.743  33.591  1.00  0.00     0.074 A 
ATOM     22  C   UNL A   1      46.086  25.015  33.059  1.00  0.00     0.031 C 
ATOM     23  C   UNL A   1      43.967  28.509  27.841  1.00  0.00     0.029 A 
ATOM     24  C   UNL A   1      44.127  29.163  29.124  1.00  0.00     0.049 A 
ATOM     25  H   UNL A   1      43.815  28.301  31.014  1.00  0.00     0.167 HD
ATOM     26  C   UNL A   1      44.817  26.382  34.785  1.00  0.00     0.034 A 
ATOM     27  C   UNL A   1      44.500  30.435  29.389  1.00  0.00     0.034 A 
ATOM     28  C   UNL A   1      43.492  26.903  34.979  1.00  0.00     0.049 A 
ATOM     29  C   UNL A   1      44.182  30.707  30.807  1.00  0.00     0.074 A 
ATOM     30  C   UNL A   1      42.222  26.367  35.049  1.00  0.00     0.029 A 
ATOM     31  N   UNL A   1      43.315  28.258  34.840  1.00  0.00    -0.354 N 
ATOM     32  N   UNL A   1      42.967  30.735  31.280  1.00  0.00    -0.248 NA
ATOM     33  C   UNL A   1      45.234  30.541  31.797  1.00  0.00     0.031 C 
ATOM     34  C   UNL A   1      41.374  27.355  34.467  1.00  0.00     0.029 A 
ATOM     35  C   UNL A   1      42.178  28.435  34.099  1.00  0.00     0.049 A 
ATOM     36  H   UNL A   1      43.895  28.965  35.204  1.00  0.00     0.167 HD
ATOM     37  C   UNL A   1      43.066  30.160  32.540  1.00  0.00     0.074 A 
ATOM     38  C   UNL A   1      44.494  30.183  32.850  1.00  0.00     0.031 C 
ATOM     39  C   UNL A   1      42.026  29.457  33.085  1.00  0.00     0.034 A 
BRANCH  26  40
ATOM     40  C   UNL A   1      45.966  26.823  35.660  1.00  0.00     0.023 A 
ATOM     41  C   UNL A   1      45.937  26.462  37.026  1.00  0.00     0.012 A 
ATOM     42  C   UNL A   1      46.919  27.791  35.272  1.00  0.00     0.148 A 
ATOM     43  C   UNL A   1      46.788  27.061  37.962  1.00  0.00     0.002 A 
ATOM     44  C   UNL A   1      47.818  28.322  36.192  1.00  0.00     0.091 A 
ATOM     45  F   UNL A   1      46.879  28.311  34.040  1.00  0.00    -0.205 F 
ATOM     46  C   UNL A   1      47.738  27.983  37.543  1.00  0.00     0.022 A 
BRANCH  44  47
ATOM     47  S   UNL A   1      49.099  29.470  35.675  1.00  0.00     0.127 S 
ATOM     48  O   UNL A   1      49.758  28.718  34.614  1.00  0.00    -0.237 OA
ATOM     49  O   UNL A   1      48.317  30.622  35.228  1.00  0.00    -0.237 OA
ATOM     50  O   UNL A   1      49.882  29.720  36.883  1.00  0.00    -0.744 OA
ENDBRANCH  44  47
ENDBRANCH  26  40
BRANCH  27  51
ATOM     51  C   UNL A   1      45.387  31.283  28.566  1.00  0.00     0.023 A 
ATOM     52  C   UNL A   1      46.775  31.069  28.577  1.00  0.00     0.012 A 
ATOM     53  C   UNL A   1      44.851  32.168  27.598  1.00  0.00     0.148 A 
ATOM     54  C   UNL A   1      47.605  31.714  27.652  1.00  0.00     0.002 A 
ATOM     55  C   UNL A   1      45.681  32.822  26.697  1.00  0.00     0.091 A 
ATOM     56  F   UNL A   1      43.521  32.301  27.508  1.00  0.00    -0.205 F 
ATOM     57  C   UNL A   1      47.061  32.590  26.714  1.00  0.00     0.022 A 
BRANCH  55  58
ATOM     58  S   UNL A   1      45.042  33.969  25.468  1.00  0.00     0.127 S 
ATOM     59  O   UNL A   1      44.263  34.894  26.294  1.00  0.00    -0.237 OA
ATOM     60  O   UNL A   1      46.269  34.532  24.911  1.00  0.00    -0.237 OA
ATOM     61  O   UNL A   1      44.239  33.165  24.554  1.00  0.00    -0.744 OA
ENDBRANCH  55  58
ENDBRANCH  27  51
BRANCH  39  62
ATOM     62  C   UNL A   1      40.694  29.485  32.370  1.00  0.00     0.023 A 
ATOM     63  C   UNL A   1      40.280  28.405  31.560  1.00  0.00     0.012 A 
ATOM     64  C   UNL A   1      39.766  30.497  32.668  1.00  0.00     0.148 A 
ATOM     65  C   UNL A   1      38.986  28.346  31.038  1.00  0.00     0.002 A 
ATOM     66  C   UNL A   1      38.464  30.414  32.181  1.00  0.00     0.091 A 
ATOM     67  F   UNL A   1      40.160  31.508  33.459  1.00  0.00    -0.205 F 
ATOM     68  C   UNL A   1      38.074  29.345  31.358  1.00  0.00     0.022 A 
BRANCH  66  69
ATOM     69  S   UNL A   1      37.194  31.589  32.660  1.00  0.00     0.127 S 
ATOM     70  O   UNL A   1      37.621  32.802  31.967  1.00  0.00    -0.237 OA
ATOM     71  O   UNL A   1      35.978  30.975  32.125  1.00  0.00    -0.237 OA
ATOM     72  O   UNL A   1      37.235  31.649  34.117  1.00  0.00    -0.744 OA
ENDBRANCH  66  69
ENDBRANCH  39  62
ENDBRANCH  13  14
ENDBRANCH   6   8
ENDBRANCH   5   6
ENDBRANCH   4   5
ENDBRANCH   3   4
ENDBRANCH   2   3
ENDBRANCH   1   2
BRANCH   1  73
ATOM     73  C   UNL A   1      39.184  22.825  26.083  1.00  0.00     0.188 C 
BRANCH  73  74
ATOM     74  O   UNL A   1      37.792  22.564  25.948  1.00  0.00    -0.376 OA
BRANCH  74  75
ATOM     75  C   UNL A   1      37.389  21.861  24.794  1.00  0.00     0.202 C 
BRANCH  75  76
ATOM     76  C   UNL A   1      36.730  22.792  23.772  1.00  0.00     0.261 C 
BRANCH  76  77
ATOM     77  O   UNL A   1      35.834  23.790  24.310  1.00  0.00    -0.459 OA
BRANCH  77  78
ATOM     78  C   UNL A   1      34.616  23.899  23.692  1.00  0.00     0.368 C 
ATOM     79  O   UNL A   1      34.460  24.385  22.574  1.00  0.00    -0.245 OA
BRANCH  78  80
ATOM     80  C   UNL A   1      33.411  23.475  24.606  1.00  0.00     0.196 C 
ATOM     81  C   UNL A   1      33.587  23.661  26.135  1.00  0.00     0.081 C 
ATOM     82  C   UNL A   1      33.001  22.005  24.262  1.00  0.00     0.108 C 
ATOM     83  C   UNL A   1      34.281  22.542  26.900  1.00  0.00     0.009 C 
ATOM     84  C   UNL A   1      33.812  20.924  25.006  1.00  0.00     0.114 C 
ATOM     85  C   UNL A   1      33.770  21.164  26.522  1.00  0.00     0.028 C 
BRANCH  80  86
ATOM     86  N   UNL A   1      32.276  24.364  24.158  1.00  0.00    -0.330 N 
ATOM     87  H   UNL A   1      31.399  23.919  24.429  1.00  0.00     0.347 HD
ATOM     88  H   UNL A   1      32.381  24.472  23.149  1.00  0.00     0.347 HD
BRANCH  86  89
ATOM     89  C   UNL A   1      32.292  25.724  24.722  1.00  0.00     0.183 C 
ATOM     90  C   UNL A   1      31.543  26.847  24.059  1.00  0.00     0.071 C 
ATOM     91  C   UNL A   1      31.031  26.261  25.339  1.00  0.00     0.071 C 
ENDBRANCH  86  89
ENDBRANCH  80  86
BRANCH  84  92
ATOM     92  N   UNL A   1      33.409  19.558  24.648  1.00  0.00    -0.268 N 
ATOM     93  C   UNL A   1      33.635  18.432  25.394  1.00  0.00     0.124 A 
ATOM     94  N   UNL A   1      32.587  19.337  23.600  1.00  0.00    -0.180 NA
ATOM     95  C   UNL A   1      32.884  17.447  24.804  1.00  0.00     0.055 A 
ATOM     96  C   UNL A   1      32.254  18.045  23.708  1.00  0.00     0.150 A 
ATOM     97  Br  UNL A   1      32.679  15.675  25.344  1.00  0.00    -0.047 Br
ENDBRANCH  84  92
ENDBRANCH  78  80
ENDBRANCH  77  78
ENDBRANCH  76  77
ENDBRANCH  75  76
ENDBRANCH  74  75
ENDBRANCH  73  74
ENDBRANCH   1  73
TORSDOF 23
ENDMDL
