MODEL 1
REMARK VINA RESULT:      -9.8      0.000      0.000
REMARK SMILES Cc1cc(N(C)[C@H](C)C(=O)OCCOCCOCCOC(=O)c2ccc(-c3c4nc(c(-c5cccc(S(=O)(=O)[O-])c5F)c5ccc([nH]5)c(-c5cccc(S(=O)(=O)[O-])c5F)c5nc(c(-c6cccc(S(=O)(=O)[O-])c6F)c6ccc3[nH]6)C=C5)C=C4)cc2)ncc1[N+](=O)[O-]
REMARK SMILES IDX 15 1 14 2 13 3 12 4 11 5 9 6 10 7 7 8 8 9 5 10 6 11 4 12
REMARK SMILES IDX 1 13 2 14 3 15 88 16 87 17 86 18 89 19 90 20 91 21 16 22
REMARK SMILES IDX 17 23 18 24 19 25 20 26 21 27 22 28 23 29 24 30 85 31 25 32
REMARK SMILES IDX 84 33 26 34 27 35 28 36 78 37 29 38 83 39 77 40 79 41 30 42
REMARK SMILES IDX 82 43 76 44 75 45 31 47 63 48 43 49 62 50 44 51 47 52 61 53
REMARK SMILES IDX 80 54 45 55 46 56 60 58 81 59 48 60 32 61 33 62 41 63 34 64
REMARK SMILES IDX 36 65 42 66 35 67 37 68 38 69 39 70 40 71 64 72 65 73 73 74
REMARK SMILES IDX 66 75 68 76 74 77 67 78 69 79 70 80 71 81 72 82 49 83 50 84
REMARK SMILES IDX 58 85 51 86 53 87 59 88 52 89 54 90 55 91 56 92 57 93
REMARK H PARENT 79 46 47 57
REMARK Flexibility Score: inf
ROOT
ATOM      1  C   UNL A   1      39.844  21.722  26.630  1.00  0.00     0.188 C 
ENDROOT
BRANCH   1   2
ATOM      2  O   UNL A   1      38.560  22.026  26.107  1.00  0.00    -0.376 OA
BRANCH   2   3
ATOM      3  C   UNL A   1      37.889  21.077  25.287  1.00  0.00     0.202 C 
BRANCH   3   4
ATOM      4  C   UNL A   1      36.385  21.234  25.001  1.00  0.00     0.261 C 
BRANCH   4   5
ATOM      5  O   UNL A   1      35.562  21.639  26.118  1.00  0.00    -0.462 OA
BRANCH   5   6
ATOM      6  C   UNL A   1      34.477  22.403  25.808  1.00  0.00     0.328 C 
ATOM      7  O   UNL A   1      34.565  23.549  25.374  1.00  0.00    -0.250 OA
BRANCH   6   8
ATOM      8  C   UNL A   1      33.107  21.746  26.128  1.00  0.00     0.190 C 
ATOM      9  C   UNL A   1      31.902  22.568  26.598  1.00  0.00     0.044 C 
BRANCH   8  10
ATOM     10  N   UNL A   1      32.668  20.970  24.952  1.00  0.00    -0.346 N 
ATOM     11  C   UNL A   1      32.212  21.714  23.791  1.00  0.00     0.146 C 
BRANCH  10  12
ATOM     12  C   UNL A   1      32.885  19.613  24.982  1.00  0.00     0.129 A 
ATOM     13  C   UNL A   1      34.102  16.913  22.657  1.00  0.00     0.052 C 
ATOM     14  C   UNL A   1      33.567  17.514  23.922  1.00  0.00     0.032 A 
ATOM     15  C   UNL A   1      33.410  18.916  23.901  1.00  0.00     0.057 A 
ATOM     16  C   UNL A   1      33.182  16.840  25.089  1.00  0.00     0.290 A 
ATOM     17  C   UNL A   1      32.694  17.592  26.145  1.00  0.00     0.199 A 
ATOM     18  N   UNL A   1      32.532  18.935  26.093  1.00  0.00    -0.232 NA
BRANCH  16  19
ATOM     19  N   UNL A   1      33.221  15.392  25.272  1.00  0.00     0.064 N 
ATOM     20  O   UNL A   1      32.140  14.785  25.279  1.00  0.00    -0.258 OA
ATOM     21  O   UNL A   1      34.322  14.837  25.373  1.00  0.00    -0.258 OA
ENDBRANCH  16  19
ENDBRANCH  10  12
ENDBRANCH   8  10
ENDBRANCH   6   8
ENDBRANCH   5   6
ENDBRANCH   4   5
ENDBRANCH   3   4
ENDBRANCH   2   3
ENDBRANCH   1   2
BRANCH   1  22
ATOM     22  C   UNL A   1      40.389  20.297  26.465  1.00  0.00     0.188 C 
BRANCH  22  23
ATOM     23  O   UNL A   1      41.741  20.207  26.090  1.00  0.00    -0.376 OA
BRANCH  23  24
ATOM     24  C   UNL A   1      42.470  19.058  26.476  1.00  0.00     0.202 C 
BRANCH  24  25
ATOM     25  C   UNL A   1      43.400  18.332  25.484  1.00  0.00     0.261 C 
BRANCH  25  26
ATOM     26  O   UNL A   1      44.752  18.800  25.369  1.00  0.00    -0.460 OA
BRANCH  26  27
ATOM     27  C   UNL A   1      45.057  19.600  24.321  1.00  0.00     0.338 C 
ATOM     28  O   UNL A   1      45.201  19.250  23.158  1.00  0.00    -0.246 OA
BRANCH  27  29
ATOM     29  C   UNL A   1      44.941  21.006  24.776  1.00  0.00     0.060 A 
ATOM     30  C   UNL A   1      44.558  21.995  23.856  1.00  0.00     0.016 A 
ATOM     31  C   UNL A   1      45.180  21.345  26.108  1.00  0.00     0.016 A 
ATOM     32  C   UNL A   1      44.439  23.328  24.261  1.00  0.00     0.010 A 
ATOM     33  C   UNL A   1      45.084  22.684  26.506  1.00  0.00     0.010 A 
ATOM     34  C   UNL A   1      44.743  23.687  25.579  1.00  0.00    -0.014 A 
BRANCH  34  35
ATOM     35  C   UNL A   1      44.893  25.117  25.953  1.00  0.00     0.031 A 
ATOM     36  C   UNL A   1      46.268  25.728  25.899  1.00  0.00     0.074 A 
ATOM     37  C   UNL A   1      43.845  25.859  26.353  1.00  0.00     0.049 A 
ATOM     38  N   UNL A   1      46.662  26.922  26.256  1.00  0.00    -0.248 NA
ATOM     39  C   UNL A   1      47.345  24.869  25.376  1.00  0.00     0.031 C 
ATOM     40  C   UNL A   1      42.460  25.400  26.432  1.00  0.00     0.029 A 
ATOM     41  N   UNL A   1      43.795  27.158  26.800  1.00  0.00    -0.354 N 
ATOM     42  C   UNL A   1      48.035  26.948  26.038  1.00  0.00     0.074 A 
ATOM     43  C   UNL A   1      48.406  25.647  25.525  1.00  0.00     0.031 C 
ATOM     44  C   UNL A   1      41.701  26.390  26.936  1.00  0.00     0.029 A 
ATOM     45  C   UNL A   1      42.550  27.540  27.243  1.00  0.00     0.049 A 
ATOM     46  H   UNL A   1      44.576  27.757  26.804  1.00  0.00     0.167 HD
ATOM     47  C   UNL A   1      48.909  27.963  26.237  1.00  0.00     0.034 A 
ATOM     48  C   UNL A   1      42.149  28.674  27.853  1.00  0.00     0.034 A 
ATOM     49  C   UNL A   1      48.540  29.259  26.737  1.00  0.00     0.049 A 
ATOM     50  C   UNL A   1      43.150  29.776  28.105  1.00  0.00     0.074 A 
ATOM     51  C   UNL A   1      49.347  30.366  26.930  1.00  0.00     0.029 A 
ATOM     52  N   UNL A   1      47.264  29.619  27.140  1.00  0.00    -0.354 N 
ATOM     53  N   UNL A   1      44.423  29.826  27.794  1.00  0.00    -0.248 NA
ATOM     54  C   UNL A   1      42.650  30.992  28.765  1.00  0.00     0.031 C 
ATOM     55  C   UNL A   1      48.567  31.383  27.490  1.00  0.00     0.029 A 
ATOM     56  C   UNL A   1      47.264  30.926  27.600  1.00  0.00     0.049 A 
ATOM     57  H   UNL A   1      46.474  29.033  27.105  1.00  0.00     0.167 HD
ATOM     58  C   UNL A   1      44.864  31.088  28.183  1.00  0.00     0.074 A 
ATOM     59  C   UNL A   1      43.718  31.778  28.735  1.00  0.00     0.031 C 
ATOM     60  C   UNL A   1      46.108  31.624  28.100  1.00  0.00     0.034 A 
BRANCH  47  61
ATOM     61  C   UNL A   1      50.356  27.714  25.903  1.00  0.00     0.023 A 
ATOM     62  C   UNL A   1      50.838  28.000  24.609  1.00  0.00     0.012 A 
ATOM     63  C   UNL A   1      51.250  27.246  26.887  1.00  0.00     0.148 A 
ATOM     64  C   UNL A   1      52.179  27.791  24.289  1.00  0.00     0.002 A 
ATOM     65  C   UNL A   1      52.594  27.087  26.574  1.00  0.00     0.091 A 
ATOM     66  F   UNL A   1      50.769  26.960  28.104  1.00  0.00    -0.205 F 
ATOM     67  C   UNL A   1      53.058  27.345  25.274  1.00  0.00     0.022 A 
BRANCH  65  68
ATOM     68  S   UNL A   1      53.821  26.596  27.790  1.00  0.00     0.127 S 
ATOM     69  O   UNL A   1      53.010  26.497  29.002  1.00  0.00    -0.237 OA
ATOM     70  O   UNL A   1      54.282  25.313  27.259  1.00  0.00    -0.237 OA
ATOM     71  O   UNL A   1      54.827  27.650  27.796  1.00  0.00    -0.744 OA
ENDBRANCH  65  68
ENDBRANCH  47  61
BRANCH  48  72
ATOM     72  C   UNL A   1      40.725  28.843  28.265  1.00  0.00     0.023 A 
ATOM     73  C   UNL A   1      39.757  29.184  27.300  1.00  0.00     0.012 A 
ATOM     74  C   UNL A   1      40.328  28.681  29.607  1.00  0.00     0.148 A 
ATOM     75  C   UNL A   1      38.427  29.394  27.669  1.00  0.00     0.002 A 
ATOM     76  C   UNL A   1      38.992  28.839  29.958  1.00  0.00     0.091 A 
ATOM     77  F   UNL A   1      41.267  28.377  30.514  1.00  0.00    -0.205 F 
ATOM     78  C   UNL A   1      38.043  29.213  28.994  1.00  0.00     0.022 A 
BRANCH  76  79
ATOM     79  S   UNL A   1      38.385  28.516  31.618  1.00  0.00     0.127 S 
ATOM     80  O   UNL A   1      39.262  29.361  32.426  1.00  0.00    -0.237 OA
ATOM     81  O   UNL A   1      37.000  28.980  31.525  1.00  0.00    -0.237 OA
ATOM     82  O   UNL A   1      38.529  27.082  31.820  1.00  0.00    -0.744 OA
ENDBRANCH  76  79
ENDBRANCH  48  72
BRANCH  60  83
ATOM     83  C   UNL A   1      46.298  33.045  28.569  1.00  0.00     0.023 A 
ATOM     84  C   UNL A   1      46.843  33.305  29.842  1.00  0.00     0.012 A 
ATOM     85  C   UNL A   1      46.008  34.126  27.710  1.00  0.00     0.148 A 
ATOM     86  C   UNL A   1      47.059  34.616  30.267  1.00  0.00     0.002 A 
ATOM     87  C   UNL A   1      46.277  35.427  28.120  1.00  0.00     0.091 A 
ATOM     88  F   UNL A   1      45.478  33.862  26.507  1.00  0.00    -0.205 F 
ATOM     89  C   UNL A   1      46.788  35.674  29.403  1.00  0.00     0.022 A 
BRANCH  87  90
ATOM     90  S   UNL A   1      46.054  36.845  27.041  1.00  0.00     0.127 S 
ATOM     91  O   UNL A   1      46.817  36.446  25.860  1.00  0.00    -0.237 OA
ATOM     92  O   UNL A   1      44.603  36.864  26.852  1.00  0.00    -0.237 OA
ATOM     93  O   UNL A   1      46.585  37.992  27.766  1.00  0.00    -0.744 OA
ENDBRANCH  87  90
ENDBRANCH  60  83
ENDBRANCH  34  35
ENDBRANCH  27  29
ENDBRANCH  26  27
ENDBRANCH  25  26
ENDBRANCH  24  25
ENDBRANCH  23  24
ENDBRANCH  22  23
ENDBRANCH   1  22
TORSDOF 23
ENDMDL
MODEL 2
REMARK VINA RESULT:      -9.7      3.730      5.474
REMARK SMILES Cc1cc(N(C)[C@H](C)C(=O)OCCOCCOCCOC(=O)c2ccc(-c3c4nc(c(-c5cccc(S(=O)(=O)[O-])c5F)c5ccc([nH]5)c(-c5cccc(S(=O)(=O)[O-])c5F)c5nc(c(-c6cccc(S(=O)(=O)[O-])c6F)c6ccc3[nH]6)C=C5)C=C4)cc2)ncc1[N+](=O)[O-]
REMARK SMILES IDX 15 1 14 2 13 3 12 4 11 5 9 6 10 7 7 8 8 9 5 10 6 11 4 12
REMARK SMILES IDX 1 13 2 14 3 15 88 16 87 17 86 18 89 19 90 20 91 21 16 22
REMARK SMILES IDX 17 23 18 24 19 25 20 26 21 27 22 28 23 29 24 30 85 31 25 32
REMARK SMILES IDX 84 33 26 34 27 35 28 36 78 37 29 38 83 39 77 40 79 41 30 42
REMARK SMILES IDX 82 43 76 44 75 45 31 47 63 48 43 49 62 50 44 51 47 52 61 53
REMARK SMILES IDX 80 54 45 55 46 56 60 58 81 59 48 60 32 61 33 62 41 63 34 64
REMARK SMILES IDX 36 65 42 66 35 67 37 68 38 69 39 70 40 71 64 72 65 73 73 74
REMARK SMILES IDX 66 75 68 76 74 77 67 78 69 79 70 80 71 81 72 82 49 83 50 84
REMARK SMILES IDX 58 85 51 86 53 87 59 88 52 89 54 90 55 91 56 92 57 93
REMARK H PARENT 79 46 47 57
REMARK Flexibility Score: inf
ROOT
ATOM      1  C   UNL A   1      35.541  20.983  25.250  1.00  0.00     0.188 C 
ENDROOT
BRANCH   1   2
ATOM      2  O   UNL A   1      34.554  21.853  24.716  1.00  0.00    -0.376 OA
BRANCH   2   3
ATOM      3  C   UNL A   1      34.894  22.743  23.661  1.00  0.00     0.202 C 
BRANCH   3   4
ATOM      4  C   UNL A   1      34.625  24.251  23.810  1.00  0.00     0.261 C 
BRANCH   4   5
ATOM      5  O   UNL A   1      33.407  24.745  23.209  1.00  0.00    -0.462 OA
BRANCH   5   6
ATOM      6  C   UNL A   1      33.493  25.966  22.611  1.00  0.00     0.328 C 
ATOM      7  O   UNL A   1      33.446  26.123  21.394  1.00  0.00    -0.250 OA
BRANCH   6   8
ATOM      8  C   UNL A   1      33.744  27.149  23.586  1.00  0.00     0.190 C 
ATOM      9  C   UNL A   1      34.066  28.561  23.083  1.00  0.00     0.044 C 
BRANCH   8  10
ATOM     10  N   UNL A   1      32.586  27.268  24.494  1.00  0.00    -0.346 N 
ATOM     11  C   UNL A   1      32.776  26.869  25.877  1.00  0.00     0.146 C 
BRANCH  10  12
ATOM     12  C   UNL A   1      31.472  27.906  24.003  1.00  0.00     0.129 A 
ATOM     13  C   UNL A   1      29.824  31.282  24.272  1.00  0.00     0.052 C 
ATOM     14  C   UNL A   1      30.004  29.859  23.834  1.00  0.00     0.032 A 
ATOM     15  C   UNL A   1      31.185  29.235  24.290  1.00  0.00     0.057 A 
ATOM     16  C   UNL A   1      29.125  29.088  23.063  1.00  0.00     0.290 A 
ATOM     17  C   UNL A   1      29.480  27.778  22.784  1.00  0.00     0.199 A 
ATOM     18  N   UNL A   1      30.608  27.195  23.252  1.00  0.00    -0.232 NA
BRANCH  16  19
ATOM     19  N   UNL A   1      27.836  29.546  22.552  1.00  0.00     0.064 N 
ATOM     20  O   UNL A   1      26.825  29.275  23.217  1.00  0.00    -0.258 OA
ATOM     21  O   UNL A   1      27.815  30.210  21.508  1.00  0.00    -0.258 OA
ENDBRANCH  16  19
ENDBRANCH  10  12
ENDBRANCH   8  10
ENDBRANCH   6   8
ENDBRANCH   5   6
ENDBRANCH   4   5
ENDBRANCH   3   4
ENDBRANCH   2   3
ENDBRANCH   1   2
BRANCH   1  22
ATOM     22  C   UNL A   1      37.002  21.172  24.817  1.00  0.00     0.188 C 
BRANCH  22  23
ATOM     23  O   UNL A   1      37.756  22.054  25.611  1.00  0.00    -0.376 OA
BRANCH  23  24
ATOM     24  C   UNL A   1      39.023  21.626  26.073  1.00  0.00     0.202 C 
BRANCH  24  25
ATOM     25  C   UNL A   1      39.545  20.208  25.771  1.00  0.00     0.261 C 
BRANCH  25  26
ATOM     26  O   UNL A   1      40.649  19.721  26.549  1.00  0.00    -0.460 OA
BRANCH  26  27
ATOM     27  C   UNL A   1      41.894  19.879  26.046  1.00  0.00     0.338 C 
ATOM     28  O   UNL A   1      42.475  19.114  25.289  1.00  0.00    -0.246 OA
BRANCH  27  29
ATOM     29  C   UNL A   1      42.341  21.256  26.366  1.00  0.00     0.060 A 
ATOM     30  C   UNL A   1      42.498  21.631  27.710  1.00  0.00     0.016 A 
ATOM     31  C   UNL A   1      42.633  22.165  25.348  1.00  0.00     0.016 A 
ATOM     32  C   UNL A   1      42.922  22.922  28.038  1.00  0.00     0.010 A 
ATOM     33  C   UNL A   1      43.032  23.465  25.679  1.00  0.00     0.010 A 
ATOM     34  C   UNL A   1      43.150  23.860  27.024  1.00  0.00    -0.014 A 
BRANCH  34  35
ATOM     35  C   UNL A   1      43.325  25.297  27.358  1.00  0.00     0.031 A 
ATOM     36  C   UNL A   1      44.696  25.903  27.207  1.00  0.00     0.074 A 
ATOM     37  C   UNL A   1      42.306  26.051  27.806  1.00  0.00     0.049 A 
ATOM     38  N   UNL A   1      45.114  27.102  27.513  1.00  0.00    -0.248 NA
ATOM     39  C   UNL A   1      45.736  25.030  26.636  1.00  0.00     0.031 C 
ATOM     40  C   UNL A   1      40.928  25.599  27.980  1.00  0.00     0.029 A 
ATOM     41  N   UNL A   1      42.286  27.360  28.228  1.00  0.00    -0.354 N 
ATOM     42  C   UNL A   1      46.470  27.120  27.210  1.00  0.00     0.074 A 
ATOM     43  C   UNL A   1      46.807  25.807  26.702  1.00  0.00     0.031 C 
ATOM     44  C   UNL A   1      40.203  26.601  28.509  1.00  0.00     0.029 A 
ATOM     45  C   UNL A   1      41.072  27.755  28.738  1.00  0.00     0.049 A 
ATOM     46  H   UNL A   1      43.067  27.956  28.171  1.00  0.00     0.167 HD
ATOM     47  C   UNL A   1      47.357  28.136  27.333  1.00  0.00     0.034 A 
ATOM     48  C   UNL A   1      40.712  28.902  29.349  1.00  0.00     0.034 A 
ATOM     49  C   UNL A   1      47.023  29.443  27.828  1.00  0.00     0.049 A 
ATOM     50  C   UNL A   1      41.728  30.006  29.515  1.00  0.00     0.074 A 
ATOM     51  C   UNL A   1      47.842  30.551  27.948  1.00  0.00     0.029 A 
ATOM     52  N   UNL A   1      45.775  29.816  28.301  1.00  0.00    -0.354 N 
ATOM     53  N   UNL A   1      42.980  30.046  29.125  1.00  0.00    -0.248 NA
ATOM     54  C   UNL A   1      41.273  31.238  30.179  1.00  0.00     0.031 C 
ATOM     55  C   UNL A   1      47.100  31.582  28.532  1.00  0.00     0.029 A 
ATOM     56  C   UNL A   1      45.806  31.131  28.732  1.00  0.00     0.049 A 
ATOM     57  H   UNL A   1      44.982  29.231  28.327  1.00  0.00     0.167 HD
ATOM     58  C   UNL A   1      43.446  31.314  29.459  1.00  0.00     0.074 A 
ATOM     59  C   UNL A   1      42.338  32.020  30.067  1.00  0.00     0.031 C 
ATOM     60  C   UNL A   1      44.684  31.844  29.289  1.00  0.00     0.034 A 
BRANCH  47  61
ATOM     61  C   UNL A   1      48.781  27.875  26.916  1.00  0.00     0.023 A 
ATOM     62  C   UNL A   1      49.745  27.533  27.887  1.00  0.00     0.012 A 
ATOM     63  C   UNL A   1      49.151  27.916  25.558  1.00  0.00     0.148 A 
ATOM     64  C   UNL A   1      51.063  27.272  27.516  1.00  0.00     0.002 A 
ATOM     65  C   UNL A   1      50.455  27.607  25.191  1.00  0.00     0.091 A 
ATOM     66  F   UNL A   1      48.225  28.263  24.653  1.00  0.00    -0.205 F 
ATOM     67  C   UNL A   1      51.415  27.298  26.168  1.00  0.00     0.022 A 
BRANCH  65  68
ATOM     68  S   UNL A   1      50.989  27.533  23.478  1.00  0.00     0.127 S 
ATOM     69  O   UNL A   1      51.218  28.945  23.179  1.00  0.00    -0.237 OA
ATOM     70  O   UNL A   1      52.204  26.724  23.572  1.00  0.00    -0.237 OA
ATOM     71  O   UNL A   1      49.897  26.909  22.742  1.00  0.00    -0.744 OA
ENDBRANCH  65  68
ENDBRANCH  47  61
BRANCH  48  72
ATOM     72  C   UNL A   1      39.316  29.085  29.844  1.00  0.00     0.023 A 
ATOM     73  C   UNL A   1      38.998  28.734  31.171  1.00  0.00     0.012 A 
ATOM     74  C   UNL A   1      38.303  29.591  29.007  1.00  0.00     0.148 A 
ATOM     75  C   UNL A   1      37.688  28.850  31.643  1.00  0.00     0.002 A 
ATOM     76  C   UNL A   1      37.014  29.756  29.500  1.00  0.00     0.091 A 
ATOM     77  F   UNL A   1      38.622  29.901  27.742  1.00  0.00    -0.205 F 
ATOM     78  C   UNL A   1      36.701  29.370  30.812  1.00  0.00     0.022 A 
BRANCH  76  79
ATOM     79  S   UNL A   1      35.702  30.522  28.540  1.00  0.00     0.127 S 
ATOM     80  O   UNL A   1      35.129  31.454  29.508  1.00  0.00    -0.237 OA
ATOM     81  O   UNL A   1      36.454  31.149  27.453  1.00  0.00    -0.237 OA
ATOM     82  O   UNL A   1      34.832  29.432  28.122  1.00  0.00    -0.744 OA
ENDBRANCH  76  79
ENDBRANCH  48  72
BRANCH  60  83
ATOM     83  C   UNL A   1      44.906  33.274  29.715  1.00  0.00     0.023 A 
ATOM     84  C   UNL A   1      45.396  33.562  31.004  1.00  0.00     0.012 A 
ATOM     85  C   UNL A   1      44.702  34.331  28.803  1.00  0.00     0.148 A 
ATOM     86  C   UNL A   1      45.642  34.879  31.392  1.00  0.00     0.002 A 
ATOM     87  C   UNL A   1      45.000  35.636  29.179  1.00  0.00     0.091 A 
ATOM     88  F   UNL A   1      44.223  34.041  27.585  1.00  0.00    -0.205 F 
ATOM     89  C   UNL A   1      45.455  35.913  30.477  1.00  0.00     0.022 A 
BRANCH  87  90
ATOM     90  S   UNL A   1      44.887  37.019  28.039  1.00  0.00     0.127 S 
ATOM     91  O   UNL A   1      43.441  37.192  27.920  1.00  0.00    -0.237 OA
ATOM     92  O   UNL A   1      45.570  38.083  28.776  1.00  0.00    -0.237 OA
ATOM     93  O   UNL A   1      45.565  36.596  26.821  1.00  0.00    -0.744 OA
ENDBRANCH  87  90
ENDBRANCH  60  83
ENDBRANCH  34  35
ENDBRANCH  27  29
ENDBRANCH  26  27
ENDBRANCH  25  26
ENDBRANCH  24  25
ENDBRANCH  23  24
ENDBRANCH  22  23
ENDBRANCH   1  22
TORSDOF 23
ENDMDL
MODEL 3
REMARK VINA RESULT:      -9.3      1.896      2.211
REMARK SMILES Cc1cc(N(C)[C@H](C)C(=O)OCCOCCOCCOC(=O)c2ccc(-c3c4nc(c(-c5cccc(S(=O)(=O)[O-])c5F)c5ccc([nH]5)c(-c5cccc(S(=O)(=O)[O-])c5F)c5nc(c(-c6cccc(S(=O)(=O)[O-])c6F)c6ccc3[nH]6)C=C5)C=C4)cc2)ncc1[N+](=O)[O-]
REMARK SMILES IDX 15 1 14 2 13 3 12 4 11 5 9 6 10 7 7 8 8 9 5 10 6 11 4 12
REMARK SMILES IDX 1 13 2 14 3 15 88 16 87 17 86 18 89 19 90 20 91 21 16 22
REMARK SMILES IDX 17 23 18 24 19 25 20 26 21 27 22 28 23 29 24 30 85 31 25 32
REMARK SMILES IDX 84 33 26 34 27 35 28 36 78 37 29 38 83 39 77 40 79 41 30 42
REMARK SMILES IDX 82 43 76 44 75 45 31 47 63 48 43 49 62 50 44 51 47 52 61 53
REMARK SMILES IDX 80 54 45 55 46 56 60 58 81 59 48 60 32 61 33 62 41 63 34 64
REMARK SMILES IDX 36 65 42 66 35 67 37 68 38 69 39 70 40 71 64 72 65 73 73 74
REMARK SMILES IDX 66 75 68 76 74 77 67 78 69 79 70 80 71 81 72 82 49 83 50 84
REMARK SMILES IDX 58 85 51 86 53 87 59 88 52 89 54 90 55 91 56 92 57 93
REMARK H PARENT 79 46 47 57
REMARK Flexibility Score: inf
ROOT
ATOM      1  C   UNL A   1      40.015  21.857  26.926  1.00  0.00     0.188 C 
ENDROOT
BRANCH   1   2
ATOM      2  O   UNL A   1      38.851  22.451  26.370  1.00  0.00    -0.376 OA
BRANCH   2   3
ATOM      3  C   UNL A   1      38.058  21.718  25.445  1.00  0.00     0.202 C 
BRANCH   3   4
ATOM      4  C   UNL A   1      36.607  22.148  25.164  1.00  0.00     0.261 C 
BRANCH   4   5
ATOM      5  O   UNL A   1      35.647  21.876  26.209  1.00  0.00    -0.462 OA
BRANCH   5   6
ATOM      6  C   UNL A   1      34.625  22.770  26.323  1.00  0.00     0.328 C 
ATOM      7  O   UNL A   1      34.797  23.986  26.359  1.00  0.00    -0.250 OA
BRANCH   6   8
ATOM      8  C   UNL A   1      33.221  22.131  26.493  1.00  0.00     0.190 C 
ATOM      9  C   UNL A   1      32.087  22.847  27.236  1.00  0.00     0.044 C 
BRANCH   8  10
ATOM     10  N   UNL A   1      32.701  21.769  25.160  1.00  0.00    -0.346 N 
ATOM     11  C   UNL A   1      32.155  22.836  24.341  1.00  0.00     0.146 C 
BRANCH  10  12
ATOM     12  C   UNL A   1      32.929  20.483  24.729  1.00  0.00     0.129 A 
ATOM     13  C   UNL A   1      32.158  18.351  21.723  1.00  0.00     0.052 C 
ATOM     14  C   UNL A   1      32.702  18.689  23.079  1.00  0.00     0.032 A 
ATOM     15  C   UNL A   1      32.518  20.028  23.482  1.00  0.00     0.057 A 
ATOM     16  C   UNL A   1      33.329  17.823  23.984  1.00  0.00     0.290 A 
ATOM     17  C   UNL A   1      33.744  18.342  25.200  1.00  0.00     0.199 A 
ATOM     18  N   UNL A   1      33.537  19.626  25.574  1.00  0.00    -0.232 NA
BRANCH  16  19
ATOM     19  N   UNL A   1      33.553  16.397  23.763  1.00  0.00     0.064 N 
ATOM     20  O   UNL A   1      33.143  15.610  24.627  1.00  0.00    -0.258 OA
ATOM     21  O   UNL A   1      34.105  16.041  22.714  1.00  0.00    -0.258 OA
ENDBRANCH  16  19
ENDBRANCH  10  12
ENDBRANCH   8  10
ENDBRANCH   6   8
ENDBRANCH   5   6
ENDBRANCH   4   5
ENDBRANCH   3   4
ENDBRANCH   2   3
ENDBRANCH   1   2
BRANCH   1  22
ATOM     22  C   UNL A   1      40.416  20.449  26.465  1.00  0.00     0.188 C 
BRANCH  22  23
ATOM     23  O   UNL A   1      41.761  20.299  26.085  1.00  0.00    -0.376 OA
BRANCH  23  24
ATOM     24  C   UNL A   1      42.429  19.102  26.437  1.00  0.00     0.202 C 
BRANCH  24  25
ATOM     25  C   UNL A   1      43.382  18.400  25.452  1.00  0.00     0.261 C 
BRANCH  25  26
ATOM     26  O   UNL A   1      44.743  18.856  25.396  1.00  0.00    -0.460 OA
BRANCH  26  27
ATOM     27  C   UNL A   1      45.097  19.662  24.368  1.00  0.00     0.338 C 
ATOM     28  O   UNL A   1      45.272  19.323  23.206  1.00  0.00    -0.246 OA
BRANCH  27  29
ATOM     29  C   UNL A   1      44.996  21.065  24.836  1.00  0.00     0.060 A 
ATOM     30  C   UNL A   1      44.625  22.067  23.925  1.00  0.00     0.016 A 
ATOM     31  C   UNL A   1      45.236  21.389  26.172  1.00  0.00     0.016 A 
ATOM     32  C   UNL A   1      44.519  23.396  24.343  1.00  0.00     0.010 A 
ATOM     33  C   UNL A   1      45.155  22.724  26.582  1.00  0.00     0.010 A 
ATOM     34  C   UNL A   1      44.825  23.739  25.665  1.00  0.00    -0.014 A 
BRANCH  34  35
ATOM     35  C   UNL A   1      44.990  25.164  26.052  1.00  0.00     0.031 A 
ATOM     36  C   UNL A   1      46.375  25.754  26.030  1.00  0.00     0.074 A 
ATOM     37  C   UNL A   1      43.946  25.920  26.438  1.00  0.00     0.049 A 
ATOM     38  N   UNL A   1      46.781  26.939  26.404  1.00  0.00    -0.248 NA
ATOM     39  C   UNL A   1      47.448  24.883  25.522  1.00  0.00     0.031 C 
ATOM     40  C   UNL A   1      42.553  25.482  26.487  1.00  0.00     0.029 A 
ATOM     41  N   UNL A   1      43.907  27.216  26.894  1.00  0.00    -0.354 N 
ATOM     42  C   UNL A   1      48.157  26.946  26.213  1.00  0.00     0.074 A 
ATOM     43  C   UNL A   1      48.519  25.643  25.696  1.00  0.00     0.031 C 
ATOM     44  C   UNL A   1      41.800  26.479  26.983  1.00  0.00     0.029 A 
ATOM     45  C   UNL A   1      42.660  27.614  27.315  1.00  0.00     0.049 A 
ATOM     46  H   UNL A   1      44.697  27.803  26.918  1.00  0.00     0.167 HD
ATOM     47  C   UNL A   1      49.043  27.945  26.436  1.00  0.00     0.034 A 
ATOM     48  C   UNL A   1      42.265  28.749  27.927  1.00  0.00     0.034 A 
ATOM     49  C   UNL A   1      48.685  29.243  26.939  1.00  0.00     0.049 A 
ATOM     50  C   UNL A   1      43.277  29.834  28.206  1.00  0.00     0.074 A 
ATOM     51  C   UNL A   1      49.505  30.336  27.156  1.00  0.00     0.029 A 
ATOM     52  N   UNL A   1      47.407  29.620  27.320  1.00  0.00    -0.354 N 
ATOM     53  N   UNL A   1      44.557  29.866  27.921  1.00  0.00    -0.248 NA
ATOM     54  C   UNL A   1      42.784  31.053  28.866  1.00  0.00     0.031 C 
ATOM     55  C   UNL A   1      48.730  31.361  27.708  1.00  0.00     0.029 A 
ATOM     56  C   UNL A   1      47.418  30.923  27.790  1.00  0.00     0.049 A 
ATOM     57  H   UNL A   1      46.608  29.047  27.265  1.00  0.00     0.167 HD
ATOM     58  C   UNL A   1      45.010  31.118  28.327  1.00  0.00     0.074 A 
ATOM     59  C   UNL A   1      43.864  31.823  28.863  1.00  0.00     0.031 C 
ATOM     60  C   UNL A   1      46.263  31.635  28.273  1.00  0.00     0.034 A 
BRANCH  47  61
ATOM     61  C   UNL A   1      50.493  27.676  26.129  1.00  0.00     0.023 A 
ATOM     62  C   UNL A   1      51.378  27.326  27.169  1.00  0.00     0.012 A 
ATOM     63  C   UNL A   1      50.967  27.718  24.803  1.00  0.00     0.148 A 
ATOM     64  C   UNL A   1      52.719  27.057  26.900  1.00  0.00     0.002 A 
ATOM     65  C   UNL A   1      52.293  27.402  24.536  1.00  0.00     0.091 A 
ATOM     66  F   UNL A   1      50.115  28.074  23.831  1.00  0.00    -0.205 F 
ATOM     67  C   UNL A   1      53.173  27.084  25.583  1.00  0.00     0.022 A 
BRANCH  65  68
ATOM     68  S   UNL A   1      52.956  27.329  22.869  1.00  0.00     0.127 S 
ATOM     69  O   UNL A   1      53.313  28.727  22.632  1.00  0.00    -0.237 OA
ATOM     70  O   UNL A   1      54.097  26.428  23.033  1.00  0.00    -0.237 OA
ATOM     71  O   UNL A   1      51.884  26.808  22.031  1.00  0.00    -0.744 OA
ENDBRANCH  65  68
ENDBRANCH  47  61
BRANCH  48  72
ATOM     72  C   UNL A   1      40.836  28.938  28.312  1.00  0.00     0.023 A 
ATOM     73  C   UNL A   1      39.892  29.300  27.331  1.00  0.00     0.012 A 
ATOM     74  C   UNL A   1      40.410  28.773  29.645  1.00  0.00     0.148 A 
ATOM     75  C   UNL A   1      38.559  29.529  27.676  1.00  0.00     0.002 A 
ATOM     76  C   UNL A   1      39.071  28.949  29.971  1.00  0.00     0.091 A 
ATOM     77  F   UNL A   1      41.327  28.448  30.568  1.00  0.00    -0.205 F 
ATOM     78  C   UNL A   1      38.147  29.344  28.992  1.00  0.00     0.022 A 
BRANCH  76  79
ATOM     79  S   UNL A   1      38.426  28.625  31.617  1.00  0.00     0.127 S 
ATOM     80  O   UNL A   1      38.663  27.189  31.753  1.00  0.00    -0.237 OA
ATOM     81  O   UNL A   1      39.285  29.471  32.447  1.00  0.00    -0.237 OA
ATOM     82  O   UNL A   1      37.029  29.032  31.582  1.00  0.00    -0.744 OA
ENDBRANCH  76  79
ENDBRANCH  48  72
BRANCH  60  83
ATOM     83  C   UNL A   1      46.467  33.050  28.756  1.00  0.00     0.023 A 
ATOM     84  C   UNL A   1      46.277  34.134  27.877  1.00  0.00     0.012 A 
ATOM     85  C   UNL A   1      46.771  33.306  30.110  1.00  0.00     0.148 A 
ATOM     86  C   UNL A   1      46.424  35.447  28.326  1.00  0.00     0.002 A 
ATOM     87  C   UNL A   1      46.863  34.617  30.562  1.00  0.00     0.091 A 
ATOM     88  F   UNL A   1      46.962  32.263  30.930  1.00  0.00    -0.205 F 
ATOM     89  C   UNL A   1      46.705  35.688  29.669  1.00  0.00     0.022 A 
BRANCH  87  90
ATOM     90  S   UNL A   1      47.123  35.027  32.292  1.00  0.00     0.127 S 
ATOM     91  O   UNL A   1      48.232  34.143  32.645  1.00  0.00    -0.237 OA
ATOM     92  O   UNL A   1      47.471  36.446  32.223  1.00  0.00    -0.237 OA
ATOM     93  O   UNL A   1      45.863  34.745  32.968  1.00  0.00    -0.744 OA
ENDBRANCH  87  90
ENDBRANCH  60  83
ENDBRANCH  34  35
ENDBRANCH  27  29
ENDBRANCH  26  27
ENDBRANCH  25  26
ENDBRANCH  24  25
ENDBRANCH  23  24
ENDBRANCH  22  23
ENDBRANCH   1  22
TORSDOF 23
ENDMDL
