MODEL 1
REMARK VINA RESULT:      -9.8      0.000      0.000
REMARK SMILES CC(C)CN(C)c1cc2c(cc1Cl)C=C(C(=O)OCCOCCOCCOC(=O)c1ccc(-c3c4nc(c(-c5cccc(S(=O)(=O)[O-])c5F)c5ccc([nH]5)c(-c5cccc(S(=O)(=O)[O-])c5F)c5nc(c(-c6cccc(S(=O)(=O)[O-])c6F)c6ccc3[nH]6)C=C5)C=C4)cc1)[C@H](C(F)(F)F)O2
REMARK SMILES IDX 22 1 21 2 20 3 19 4 18 5 16 6 17 7 15 8 7 9 8 10 12 11 9 12
REMARK SMILES IDX 11 13 13 14 10 15 98 16 14 17 93 18 5 19 6 20 4 21 2 22 1 23
REMARK SMILES IDX 3 24 94 25 95 26 96 27 97 28 23 29 24 30 25 31 26 32 27 33
REMARK SMILES IDX 28 34 29 35 30 36 31 37 92 38 32 39 91 40 33 41 34 42 35 43
REMARK SMILES IDX 85 44 36 45 90 46 84 47 86 48 37 49 89 50 83 51 82 52 38 54
REMARK SMILES IDX 70 55 50 56 69 57 51 58 54 59 68 60 87 61 52 62 53 63 67 65
REMARK SMILES IDX 88 66 55 67 39 68 40 69 48 70 41 71 43 72 49 73 42 74 44 75
REMARK SMILES IDX 45 76 46 77 47 78 71 79 72 80 80 81 73 82 75 83 81 84 74 85
REMARK SMILES IDX 76 86 77 87 78 88 79 89 56 90 57 91 65 92 58 93 60 94 66 95
REMARK SMILES IDX 59 96 61 97 62 98 63 99 64 100
REMARK H PARENT 86 53 54 64
REMARK Flexibility Score: inf
ROOT
ATOM      1  C   UNL A   1      32.845  29.216  27.402  1.00  0.00     0.188 C 
ENDROOT
BRANCH   1   2
ATOM      2  O   UNL A   1      33.073  27.897  26.960  1.00  0.00    -0.376 OA
BRANCH   2   3
ATOM      3  C   UNL A   1      32.393  27.389  25.825  1.00  0.00     0.202 C 
BRANCH   3   4
ATOM      4  C   UNL A   1      32.948  27.389  24.388  1.00  0.00     0.261 C 
BRANCH   4   5
ATOM      5  O   UNL A   1      34.003  26.462  24.118  1.00  0.00    -0.460 OA
BRANCH   5   6
ATOM      6  C   UNL A   1      33.822  25.661  23.049  1.00  0.00     0.338 C 
ATOM      7  O   UNL A   1      34.097  25.923  21.889  1.00  0.00    -0.246 OA
BRANCH   6   8
ATOM      8  C   UNL A   1      33.347  24.330  23.466  1.00  0.00     0.087 C 
ATOM      9  C   UNL A   1      33.677  19.369  24.304  1.00  0.00     0.059 A 
ATOM     10  C   UNL A   1      32.645  20.239  23.895  1.00  0.00     0.074 A 
ATOM     11  C   UNL A   1      34.916  19.964  24.629  1.00  0.00     0.065 A 
ATOM     12  C   UNL A   1      32.842  21.624  23.811  1.00  0.00     0.130 A 
ATOM     13  C   UNL A   1      35.070  21.354  24.667  1.00  0.00     0.034 A 
ATOM     14  Cl  UNL A   1      36.365  19.046  24.843  1.00  0.00    -0.082 Cl
ATOM     15  C   UNL A   1      34.037  22.186  24.245  1.00  0.00     0.019 A 
ATOM     16  O   UNL A   1      31.827  22.356  23.263  1.00  0.00    -0.475 OA
ATOM     17  C   UNL A   1      34.260  23.615  24.136  1.00  0.00     0.027 C 
ATOM     18  C   UNL A   1      32.074  23.753  22.906  1.00  0.00     0.316 C 
BRANCH   9  19
ATOM     19  N   UNL A   1      33.477  17.981  24.320  1.00  0.00    -0.373 N 
ATOM     20  C   UNL A   1      33.186  17.363  23.030  1.00  0.00     0.143 C 
BRANCH  19  21
ATOM     21  C   UNL A   1      32.835  17.370  25.505  1.00  0.00     0.119 C 
BRANCH  21  22
ATOM     22  C   UNL A   1      33.462  16.024  25.920  1.00  0.00     0.002 C 
ATOM     23  C   UNL A   1      32.609  14.839  25.458  1.00  0.00     0.009 C 
ATOM     24  C   UNL A   1      34.882  15.857  25.371  1.00  0.00     0.009 C 
ENDBRANCH  21  22
ENDBRANCH  19  21
ENDBRANCH   9  19
BRANCH  18  25
ATOM     25  C   UNL A   1      30.780  24.516  23.239  1.00  0.00     0.430 C 
ATOM     26  F   UNL A   1      30.736  25.732  22.656  1.00  0.00    -0.167 F 
ATOM     27  F   UNL A   1      29.669  23.831  22.894  1.00  0.00    -0.167 F 
ATOM     28  F   UNL A   1      30.689  24.719  24.581  1.00  0.00    -0.167 F 
ENDBRANCH  18  25
ENDBRANCH   6   8
ENDBRANCH   5   6
ENDBRANCH   4   5
ENDBRANCH   3   4
ENDBRANCH   2   3
ENDBRANCH   1   2
BRANCH   1  29
ATOM     29  C   UNL A   1      31.642  29.925  26.747  1.00  0.00     0.188 C 
BRANCH  29  30
ATOM     30  O   UNL A   1      31.682  31.325  26.509  1.00  0.00    -0.376 OA
BRANCH  30  31
ATOM     31  C   UNL A   1      32.783  32.077  27.005  1.00  0.00     0.202 C 
BRANCH  31  32
ATOM     32  C   UNL A   1      32.584  33.547  27.398  1.00  0.00     0.261 C 
BRANCH  32  33
ATOM     33  O   UNL A   1      32.756  33.810  28.798  1.00  0.00    -0.460 OA
BRANCH  33  34
ATOM     34  C   UNL A   1      33.615  34.824  29.097  1.00  0.00     0.338 C 
ATOM     35  O   UNL A   1      33.407  36.014  29.009  1.00  0.00    -0.246 OA
BRANCH  34  36
ATOM     36  C   UNL A   1      34.804  34.244  29.757  1.00  0.00     0.060 A 
ATOM     37  C   UNL A   1      34.668  33.248  30.722  1.00  0.00     0.016 A 
ATOM     38  C   UNL A   1      36.073  34.717  29.392  1.00  0.00     0.016 A 
ATOM     39  C   UNL A   1      35.813  32.705  31.308  1.00  0.00     0.010 A 
ATOM     40  C   UNL A   1      37.216  34.187  29.994  1.00  0.00     0.010 A 
ATOM     41  C   UNL A   1      37.092  33.162  30.940  1.00  0.00    -0.014 A 
BRANCH  41  42
ATOM     42  C   UNL A   1      38.290  32.425  31.407  1.00  0.00     0.031 A 
ATOM     43  C   UNL A   1      38.966  32.740  32.706  1.00  0.00     0.074 A 
ATOM     44  C   UNL A   1      38.767  31.448  30.612  1.00  0.00     0.049 A 
ATOM     45  N   UNL A   1      39.947  32.098  33.287  1.00  0.00    -0.248 NA
ATOM     46  C   UNL A   1      38.495  33.920  33.447  1.00  0.00     0.031 C 
ATOM     47  C   UNL A   1      38.234  31.109  29.290  1.00  0.00     0.029 A 
ATOM     48  N   UNL A   1      39.803  30.569  30.791  1.00  0.00    -0.354 N 
ATOM     49  C   UNL A   1      40.208  32.784  34.464  1.00  0.00     0.074 A 
ATOM     50  C   UNL A   1      39.298  33.910  34.507  1.00  0.00     0.031 C 
ATOM     51  C   UNL A   1      38.948  30.095  28.778  1.00  0.00     0.029 A 
ATOM     52  C   UNL A   1      39.984  29.713  29.732  1.00  0.00     0.049 A 
ATOM     53  H   UNL A   1      40.364  30.554  31.599  1.00  0.00     0.167 HD
ATOM     54  C   UNL A   1      41.107  32.478  35.430  1.00  0.00     0.034 A 
ATOM     55  C   UNL A   1      40.876  28.721  29.550  1.00  0.00     0.034 A 
ATOM     56  C   UNL A   1      41.998  31.348  35.384  1.00  0.00     0.049 A 
ATOM     57  C   UNL A   1      41.837  28.385  30.652  1.00  0.00     0.074 A 
ATOM     58  C   UNL A   1      42.895  30.926  36.351  1.00  0.00     0.029 A 
ATOM     59  N   UNL A   1      42.116  30.468  34.320  1.00  0.00    -0.354 N 
ATOM     60  N   UNL A   1      41.957  28.945  31.831  1.00  0.00    -0.248 NA
ATOM     61  C   UNL A   1      42.756  27.262  30.421  1.00  0.00     0.031 C 
ATOM     62  C   UNL A   1      43.561  29.797  35.871  1.00  0.00     0.029 A 
ATOM     63  C   UNL A   1      43.073  29.509  34.607  1.00  0.00     0.049 A 
ATOM     64  H   UNL A   1      41.598  30.517  33.485  1.00  0.00     0.167 HD
ATOM     65  C   UNL A   1      42.954  28.235  32.488  1.00  0.00     0.074 A 
ATOM     66  C   UNL A   1      43.390  27.189  31.585  1.00  0.00     0.031 C 
ATOM     67  C   UNL A   1      43.468  28.446  33.722  1.00  0.00     0.034 A 
BRANCH  54  68
ATOM     68  C   UNL A   1      41.135  33.311  36.681  1.00  0.00     0.023 A 
ATOM     69  C   UNL A   1      41.996  34.425  36.725  1.00  0.00     0.012 A 
ATOM     70  C   UNL A   1      40.200  33.112  37.714  1.00  0.00     0.148 A 
ATOM     71  C   UNL A   1      41.922  35.336  37.777  1.00  0.00     0.002 A 
ATOM     72  C   UNL A   1      40.115  34.038  38.747  1.00  0.00     0.091 A 
ATOM     73  F   UNL A   1      39.391  32.045  37.645  1.00  0.00    -0.205 F 
ATOM     74  C   UNL A   1      40.975  35.150  38.780  1.00  0.00     0.022 A 
BRANCH  72  75
ATOM     75  S   UNL A   1      38.892  33.933  40.059  1.00  0.00     0.127 S 
ATOM     76  O   UNL A   1      38.957  35.278  40.631  1.00  0.00    -0.237 OA
ATOM     77  O   UNL A   1      37.667  33.646  39.313  1.00  0.00    -0.237 OA
ATOM     78  O   UNL A   1      39.338  32.867  40.944  1.00  0.00    -0.744 OA
ENDBRANCH  72  75
ENDBRANCH  54  68
BRANCH  55  79
ATOM     79  C   UNL A   1      40.843  27.940  28.287  1.00  0.00     0.023 A 
ATOM     80  C   UNL A   1      41.503  28.435  27.147  1.00  0.00     0.012 A 
ATOM     81  C   UNL A   1      40.224  26.678  28.237  1.00  0.00     0.148 A 
ATOM     82  C   UNL A   1      41.533  27.689  25.968  1.00  0.00     0.002 A 
ATOM     83  C   UNL A   1      40.293  25.922  27.074  1.00  0.00     0.091 A 
ATOM     84  F   UNL A   1      39.601  26.234  29.338  1.00  0.00    -0.205 F 
ATOM     85  C   UNL A   1      40.939  26.431  25.936  1.00  0.00     0.022 A 
BRANCH  83  86
ATOM     86  S   UNL A   1      39.652  24.247  26.972  1.00  0.00     0.127 S 
ATOM     87  O   UNL A   1      40.441  23.694  25.874  1.00  0.00    -0.237 OA
ATOM     88  O   UNL A   1      39.982  23.718  28.296  1.00  0.00    -0.237 OA
ATOM     89  O   UNL A   1      38.225  24.385  26.716  1.00  0.00    -0.744 OA
ENDBRANCH  83  86
ENDBRANCH  55  79
BRANCH  67  90
ATOM     90  C   UNL A   1      44.569  27.537  34.193  1.00  0.00     0.023 A 
ATOM     91  C   UNL A   1      45.908  27.898  33.952  1.00  0.00     0.012 A 
ATOM     92  C   UNL A   1      44.282  26.402  34.978  1.00  0.00     0.148 A 
ATOM     93  C   UNL A   1      46.950  27.138  34.483  1.00  0.00     0.002 A 
ATOM     94  C   UNL A   1      45.326  25.669  35.531  1.00  0.00     0.091 A 
ATOM     95  F   UNL A   1      42.998  26.079  35.185  1.00  0.00    -0.205 F 
ATOM     96  C   UNL A   1      46.659  26.034  35.281  1.00  0.00     0.022 A 
BRANCH  94  97
ATOM     97  S   UNL A   1      45.056  24.275  36.629  1.00  0.00     0.127 S 
ATOM     98  O   UNL A   1      44.266  23.380  35.784  1.00  0.00    -0.237 OA
ATOM     99  O   UNL A   1      46.422  23.819  36.890  1.00  0.00    -0.237 OA
ATOM    100  O   UNL A   1      44.357  24.803  37.793  1.00  0.00    -0.744 OA
ENDBRANCH  94  97
ENDBRANCH  67  90
ENDBRANCH  41  42
ENDBRANCH  34  36
ENDBRANCH  33  34
ENDBRANCH  32  33
ENDBRANCH  31  32
ENDBRANCH  30  31
ENDBRANCH  29  30
ENDBRANCH   1  29
TORSDOF 24
ENDMDL
MODEL 2
REMARK VINA RESULT:      -9.5      3.141      8.247
REMARK SMILES CC(C)CN(C)c1cc2c(cc1Cl)C=C(C(=O)OCCOCCOCCOC(=O)c1ccc(-c3c4nc(c(-c5cccc(S(=O)(=O)[O-])c5F)c5ccc([nH]5)c(-c5cccc(S(=O)(=O)[O-])c5F)c5nc(c(-c6cccc(S(=O)(=O)[O-])c6F)c6ccc3[nH]6)C=C5)C=C4)cc1)[C@H](C(F)(F)F)O2
REMARK SMILES IDX 22 1 21 2 20 3 19 4 18 5 16 6 17 7 15 8 7 9 8 10 12 11 9 12
REMARK SMILES IDX 11 13 13 14 10 15 98 16 14 17 93 18 5 19 6 20 4 21 2 22 1 23
REMARK SMILES IDX 3 24 94 25 95 26 96 27 97 28 23 29 24 30 25 31 26 32 27 33
REMARK SMILES IDX 28 34 29 35 30 36 31 37 92 38 32 39 91 40 33 41 34 42 35 43
REMARK SMILES IDX 85 44 36 45 90 46 84 47 86 48 37 49 89 50 83 51 82 52 38 54
REMARK SMILES IDX 70 55 50 56 69 57 51 58 54 59 68 60 87 61 52 62 53 63 67 65
REMARK SMILES IDX 88 66 55 67 39 68 40 69 48 70 41 71 43 72 49 73 42 74 44 75
REMARK SMILES IDX 45 76 46 77 47 78 71 79 72 80 80 81 73 82 75 83 81 84 74 85
REMARK SMILES IDX 76 86 77 87 78 88 79 89 56 90 57 91 65 92 58 93 60 94 66 95
REMARK SMILES IDX 59 96 61 97 62 98 63 99 64 100
REMARK H PARENT 86 53 54 64
REMARK Flexibility Score: inf
ROOT
ATOM      1  C   UNL A   1      31.059  27.105  26.015  1.00  0.00     0.188 C 
ENDROOT
BRANCH   1   2
ATOM      2  O   UNL A   1      30.547  25.856  26.419  1.00  0.00    -0.376 OA
BRANCH   2   3
ATOM      3  C   UNL A   1      30.466  24.778  25.502  1.00  0.00     0.202 C 
BRANCH   3   4
ATOM      4  C   UNL A   1      31.591  24.347  24.542  1.00  0.00     0.261 C 
BRANCH   4   5
ATOM      5  O   UNL A   1      32.859  24.068  25.140  1.00  0.00    -0.460 OA
BRANCH   5   6
ATOM      6  C   UNL A   1      33.911  24.033  24.298  1.00  0.00     0.338 C 
ATOM      7  O   UNL A   1      34.012  24.624  23.235  1.00  0.00    -0.246 OA
BRANCH   6   8
ATOM      8  C   UNL A   1      35.025  23.266  24.882  1.00  0.00     0.087 C 
ATOM      9  C   UNL A   1      39.780  22.410  26.325  1.00  0.00     0.059 A 
ATOM     10  C   UNL A   1      38.736  21.605  25.823  1.00  0.00     0.074 A 
ATOM     11  C   UNL A   1      39.476  23.769  26.559  1.00  0.00     0.065 A 
ATOM     12  C   UNL A   1      37.463  22.131  25.566  1.00  0.00     0.130 A 
ATOM     13  C   UNL A   1      38.173  24.260  26.422  1.00  0.00     0.034 A 
ATOM     14  Cl  UNL A   1      40.692  24.959  26.868  1.00  0.00    -0.082 Cl
ATOM     15  C   UNL A   1      37.167  23.444  25.913  1.00  0.00     0.019 A 
ATOM     16  O   UNL A   1      36.571  21.302  24.944  1.00  0.00    -0.475 OA
ATOM     17  C   UNL A   1      35.860  24.004  25.625  1.00  0.00     0.027 C 
ATOM     18  C   UNL A   1      35.331  21.868  24.414  1.00  0.00     0.316 C 
BRANCH   9  19
ATOM     19  N   UNL A   1      41.064  21.878  26.515  1.00  0.00    -0.373 N 
ATOM     20  C   UNL A   1      41.410  21.520  27.887  1.00  0.00     0.143 C 
BRANCH  19  21
ATOM     21  C   UNL A   1      42.168  22.370  25.660  1.00  0.00     0.119 C 
BRANCH  21  22
ATOM     22  C   UNL A   1      43.517  21.677  25.939  1.00  0.00     0.002 C 
ATOM     23  C   UNL A   1      43.422  20.161  25.743  1.00  0.00     0.009 C 
ATOM     24  C   UNL A   1      44.639  22.222  25.049  1.00  0.00     0.009 C 
ENDBRANCH  21  22
ENDBRANCH  19  21
ENDBRANCH   9  19
BRANCH  18  25
ATOM     25  C   UNL A   1      34.238  20.815  24.665  1.00  0.00     0.430 C 
ATOM     26  F   UNL A   1      34.701  19.553  24.539  1.00  0.00    -0.167 F 
ATOM     27  F   UNL A   1      33.661  20.944  25.879  1.00  0.00    -0.167 F 
ATOM     28  F   UNL A   1      33.233  20.958  23.759  1.00  0.00    -0.167 F 
ENDBRANCH  18  25
ENDBRANCH   6   8
ENDBRANCH   5   6
ENDBRANCH   4   5
ENDBRANCH   3   4
ENDBRANCH   2   3
ENDBRANCH   1   2
BRANCH   1  29
ATOM     29  C   UNL A   1      31.720  27.933  27.136  1.00  0.00     0.188 C 
BRANCH  29  30
ATOM     30  O   UNL A   1      31.529  29.340  27.190  1.00  0.00    -0.376 OA
BRANCH  30  31
ATOM     31  C   UNL A   1      32.525  30.192  26.638  1.00  0.00     0.202 C 
BRANCH  31  32
ATOM     32  C   UNL A   1      33.011  31.411  27.435  1.00  0.00     0.261 C 
BRANCH  32  33
ATOM     33  O   UNL A   1      34.317  31.874  27.063  1.00  0.00    -0.460 OA
BRANCH  33  34
ATOM     34  C   UNL A   1      34.845  32.833  27.873  1.00  0.00     0.338 C 
ATOM     35  O   UNL A   1      34.381  33.924  28.121  1.00  0.00    -0.246 OA
BRANCH  34  36
ATOM     36  C   UNL A   1      36.001  32.250  28.587  1.00  0.00     0.060 A 
ATOM     37  C   UNL A   1      37.220  32.926  28.640  1.00  0.00     0.016 A 
ATOM     38  C   UNL A   1      35.848  31.004  29.211  1.00  0.00     0.016 A 
ATOM     39  C   UNL A   1      38.284  32.358  29.343  1.00  0.00     0.010 A 
ATOM     40  C   UNL A   1      36.919  30.429  29.897  1.00  0.00     0.010 A 
ATOM     41  C   UNL A   1      38.137  31.114  29.985  1.00  0.00    -0.014 A 
BRANCH  41  42
ATOM     42  C   UNL A   1      39.198  30.639  30.903  1.00  0.00     0.031 A 
ATOM     43  C   UNL A   1      40.233  29.642  30.480  1.00  0.00     0.074 A 
ATOM     44  C   UNL A   1      39.206  31.136  32.155  1.00  0.00     0.049 A 
ATOM     45  N   UNL A   1      41.283  29.230  31.143  1.00  0.00    -0.248 NA
ATOM     46  C   UNL A   1      40.074  29.019  29.157  1.00  0.00     0.031 C 
ATOM     47  C   UNL A   1      38.200  32.053  32.697  1.00  0.00     0.029 A 
ATOM     48  N   UNL A   1      40.075  30.938  33.195  1.00  0.00    -0.354 N 
ATOM     49  C   UNL A   1      41.919  28.311  30.321  1.00  0.00     0.074 A 
ATOM     50  C   UNL A   1      41.124  28.203  29.116  1.00  0.00     0.031 C 
ATOM     51  C   UNL A   1      38.510  32.339  33.970  1.00  0.00     0.029 A 
ATOM     52  C   UNL A   1      39.733  31.628  34.334  1.00  0.00     0.049 A 
ATOM     53  H   UNL A   1      40.867  30.357  33.134  1.00  0.00     0.167 HD
ATOM     54  C   UNL A   1      43.076  27.645  30.548  1.00  0.00     0.034 A 
ATOM     55  C   UNL A   1      40.339  31.694  35.534  1.00  0.00     0.034 A 
ATOM     56  C   UNL A   1      43.867  27.770  31.744  1.00  0.00     0.049 A 
ATOM     57  C   UNL A   1      41.637  30.971  35.742  1.00  0.00     0.074 A 
ATOM     58  C   UNL A   1      45.087  27.182  32.028  1.00  0.00     0.029 A 
ATOM     59  N   UNL A   1      43.519  28.521  32.855  1.00  0.00    -0.354 N 
ATOM     60  N   UNL A   1      42.309  30.235  34.891  1.00  0.00    -0.248 NA
ATOM     61  C   UNL A   1      42.282  31.115  37.054  1.00  0.00     0.031 C 
ATOM     62  C   UNL A   1      45.475  27.570  33.313  1.00  0.00     0.029 A 
ATOM     63  C   UNL A   1      44.499  28.409  33.826  1.00  0.00     0.049 A 
ATOM     64  H   UNL A   1      42.697  29.056  32.942  1.00  0.00     0.167 HD
ATOM     65  C   UNL A   1      43.461  29.840  35.558  1.00  0.00     0.074 A 
ATOM     66  C   UNL A   1      43.409  30.436  36.877  1.00  0.00     0.031 C 
ATOM     67  C   UNL A   1      44.461  29.041  35.118  1.00  0.00     0.034 A 
BRANCH  54  68
ATOM     68  C   UNL A   1      43.635  26.776  29.456  1.00  0.00     0.023 A 
ATOM     69  C   UNL A   1      43.375  25.392  29.500  1.00  0.00     0.012 A 
ATOM     70  C   UNL A   1      44.242  27.335  28.314  1.00  0.00     0.148 A 
ATOM     71  C   UNL A   1      43.702  24.574  28.420  1.00  0.00     0.002 A 
ATOM     72  C   UNL A   1      44.543  26.517  27.231  1.00  0.00     0.091 A 
ATOM     73  F   UNL A   1      44.475  28.654  28.298  1.00  0.00    -0.205 F 
ATOM     74  C   UNL A   1      44.274  25.138  27.283  1.00  0.00     0.022 A 
BRANCH  72  75
ATOM     75  S   UNL A   1      45.225  27.143  25.691  1.00  0.00     0.127 S 
ATOM     76  O   UNL A   1      46.451  27.794  26.156  1.00  0.00    -0.237 OA
ATOM     77  O   UNL A   1      45.440  25.913  24.931  1.00  0.00    -0.237 OA
ATOM     78  O   UNL A   1      44.222  28.043  25.141  1.00  0.00    -0.744 OA
ENDBRANCH  72  75
ENDBRANCH  54  68
BRANCH  55  79
ATOM     79  C   UNL A   1      39.741  32.534  36.602  1.00  0.00     0.023 A 
ATOM     80  C   UNL A   1      38.852  31.954  37.526  1.00  0.00     0.012 A 
ATOM     81  C   UNL A   1      40.109  33.884  36.747  1.00  0.00     0.148 A 
ATOM     82  C   UNL A   1      38.325  32.713  38.571  1.00  0.00     0.002 A 
ATOM     83  C   UNL A   1      39.614  34.623  37.814  1.00  0.00     0.091 A 
ATOM     84  F   UNL A   1      40.956  34.410  35.850  1.00  0.00    -0.205 F 
ATOM     85  C   UNL A   1      38.714  34.042  38.721  1.00  0.00     0.022 A 
BRANCH  83  86
ATOM     86  S   UNL A   1      40.143  36.306  38.149  1.00  0.00     0.127 S 
ATOM     87  O   UNL A   1      39.077  36.782  39.028  1.00  0.00    -0.237 OA
ATOM     88  O   UNL A   1      41.433  36.091  38.805  1.00  0.00    -0.237 OA
ATOM     89  O   UNL A   1      40.228  36.961  36.851  1.00  0.00    -0.744 OA
ENDBRANCH  83  86
ENDBRANCH  55  79
BRANCH  67  90
ATOM     90  C   UNL A   1      45.597  28.748  36.058  1.00  0.00     0.023 A 
ATOM     91  C   UNL A   1      46.663  29.662  36.153  1.00  0.00     0.012 A 
ATOM     92  C   UNL A   1      45.545  27.644  36.932  1.00  0.00     0.148 A 
ATOM     93  C   UNL A   1      47.667  29.479  37.102  1.00  0.00     0.002 A 
ATOM     94  C   UNL A   1      46.532  27.486  37.897  1.00  0.00     0.091 A 
ATOM     95  F   UNL A   1      44.521  26.787  36.814  1.00  0.00    -0.205 F 
ATOM     96  C   UNL A   1      47.595  28.400  37.981  1.00  0.00     0.022 A 
BRANCH  94  97
ATOM     97  S   UNL A   1      46.491  26.172  39.120  1.00  0.00     0.127 S 
ATOM     98  O   UNL A   1      47.905  25.813  39.218  1.00  0.00    -0.237 OA
ATOM     99  O   UNL A   1      45.953  26.860  40.295  1.00  0.00    -0.237 OA
ATOM    100  O   UNL A   1      45.627  25.134  38.573  1.00  0.00    -0.744 OA
ENDBRANCH  94  97
ENDBRANCH  67  90
ENDBRANCH  41  42
ENDBRANCH  34  36
ENDBRANCH  33  34
ENDBRANCH  32  33
ENDBRANCH  31  32
ENDBRANCH  30  31
ENDBRANCH  29  30
ENDBRANCH   1  29
TORSDOF 24
ENDMDL
MODEL 3
REMARK VINA RESULT:      -8.7      4.616      6.556
REMARK SMILES CC(C)CN(C)c1cc2c(cc1Cl)C=C(C(=O)OCCOCCOCCOC(=O)c1ccc(-c3c4nc(c(-c5cccc(S(=O)(=O)[O-])c5F)c5ccc([nH]5)c(-c5cccc(S(=O)(=O)[O-])c5F)c5nc(c(-c6cccc(S(=O)(=O)[O-])c6F)c6ccc3[nH]6)C=C5)C=C4)cc1)[C@H](C(F)(F)F)O2
REMARK SMILES IDX 22 1 21 2 20 3 19 4 18 5 16 6 17 7 15 8 7 9 8 10 12 11 9 12
REMARK SMILES IDX 11 13 13 14 10 15 98 16 14 17 93 18 5 19 6 20 4 21 2 22 1 23
REMARK SMILES IDX 3 24 94 25 95 26 96 27 97 28 23 29 24 30 25 31 26 32 27 33
REMARK SMILES IDX 28 34 29 35 30 36 31 37 92 38 32 39 91 40 33 41 34 42 35 43
REMARK SMILES IDX 85 44 36 45 90 46 84 47 86 48 37 49 89 50 83 51 82 52 38 54
REMARK SMILES IDX 70 55 50 56 69 57 51 58 54 59 68 60 87 61 52 62 53 63 67 65
REMARK SMILES IDX 88 66 55 67 39 68 40 69 48 70 41 71 43 72 49 73 42 74 44 75
REMARK SMILES IDX 45 76 46 77 47 78 71 79 72 80 80 81 73 82 75 83 81 84 74 85
REMARK SMILES IDX 76 86 77 87 78 88 79 89 56 90 57 91 65 92 58 93 60 94 66 95
REMARK SMILES IDX 59 96 61 97 62 98 63 99 64 100
REMARK H PARENT 86 53 54 64
REMARK Flexibility Score: inf
ROOT
ATOM      1  C   UNL A   1      31.326  26.830  26.127  1.00  0.00     0.188 C 
ENDROOT
BRANCH   1   2
ATOM      2  O   UNL A   1      30.853  25.554  26.491  1.00  0.00    -0.376 OA
BRANCH   2   3
ATOM      3  C   UNL A   1      30.951  24.464  25.590  1.00  0.00     0.202 C 
BRANCH   3   4
ATOM      4  C   UNL A   1      32.093  24.253  24.578  1.00  0.00     0.261 C 
BRANCH   4   5
ATOM      5  O   UNL A   1      33.407  24.125  25.127  1.00  0.00    -0.460 OA
BRANCH   5   6
ATOM      6  C   UNL A   1      34.386  23.835  24.246  1.00  0.00     0.338 C 
ATOM      7  O   UNL A   1      34.429  24.165  23.071  1.00  0.00    -0.246 OA
BRANCH   6   8
ATOM      8  C   UNL A   1      35.506  23.150  24.914  1.00  0.00     0.087 C 
ATOM      9  C   UNL A   1      40.248  22.548  26.518  1.00  0.00     0.059 A 
ATOM     10  C   UNL A   1      39.237  21.676  26.063  1.00  0.00     0.074 A 
ATOM     11  C   UNL A   1      39.904  23.912  26.633  1.00  0.00     0.065 A 
ATOM     12  C   UNL A   1      37.957  22.143  25.738  1.00  0.00     0.130 A 
ATOM     13  C   UNL A   1      38.592  24.354  26.430  1.00  0.00     0.034 A 
ATOM     14  Cl  UNL A   1      41.081  25.157  26.867  1.00  0.00    -0.082 Cl
ATOM     15  C   UNL A   1      37.619  23.471  25.970  1.00  0.00     0.019 A 
ATOM     16  O   UNL A   1      37.101  21.242  25.169  1.00  0.00    -0.475 OA
ATOM     17  C   UNL A   1      36.305  23.970  25.610  1.00  0.00     0.027 C 
ATOM     18  C   UNL A   1      35.859  21.727  24.569  1.00  0.00     0.316 C 
BRANCH   9  19
ATOM     19  N   UNL A   1      41.541  22.069  26.777  1.00  0.00    -0.373 N 
ATOM     20  C   UNL A   1      42.025  22.243  28.143  1.00  0.00     0.143 C 
BRANCH  19  21
ATOM     21  C   UNL A   1      42.555  22.148  25.701  1.00  0.00     0.119 C 
BRANCH  21  22
ATOM     22  C   UNL A   1      43.993  22.334  26.223  1.00  0.00     0.002 C 
ATOM     23  C   UNL A   1      44.983  21.430  25.482  1.00  0.00     0.009 C 
ATOM     24  C   UNL A   1      44.466  23.787  26.106  1.00  0.00     0.009 C 
ENDBRANCH  21  22
ENDBRANCH  19  21
ENDBRANCH   9  19
BRANCH  18  25
ATOM     25  C   UNL A   1      34.789  20.668  24.884  1.00  0.00     0.430 C 
ATOM     26  F   UNL A   1      35.240  19.409  24.698  1.00  0.00    -0.167 F 
ATOM     27  F   UNL A   1      34.308  20.773  26.142  1.00  0.00    -0.167 F 
ATOM     28  F   UNL A   1      33.716  20.828  24.062  1.00  0.00    -0.167 F 
ENDBRANCH  18  25
ENDBRANCH   6   8
ENDBRANCH   5   6
ENDBRANCH   4   5
ENDBRANCH   3   4
ENDBRANCH   2   3
ENDBRANCH   1   2
BRANCH   1  29
ATOM     29  C   UNL A   1      31.563  27.799  27.305  1.00  0.00     0.188 C 
BRANCH  29  30
ATOM     30  O   UNL A   1      32.683  28.673  27.294  1.00  0.00    -0.376 OA
BRANCH  30  31
ATOM     31  C   UNL A   1      32.677  29.789  26.411  1.00  0.00     0.202 C 
BRANCH  31  32
ATOM     32  C   UNL A   1      32.611  31.211  26.984  1.00  0.00     0.261 C 
BRANCH  32  33
ATOM     33  O   UNL A   1      33.624  31.502  27.957  1.00  0.00    -0.460 OA
BRANCH  33  34
ATOM     34  C   UNL A   1      33.750  32.817  28.289  1.00  0.00     0.338 C 
ATOM     35  O   UNL A   1      33.039  33.734  27.944  1.00  0.00    -0.246 OA
BRANCH  34  36
ATOM     36  C   UNL A   1      34.796  32.933  29.327  1.00  0.00     0.060 A 
ATOM     37  C   UNL A   1      35.510  31.812  29.749  1.00  0.00     0.016 A 
ATOM     38  C   UNL A   1      35.057  34.196  29.880  1.00  0.00     0.016 A 
ATOM     39  C   UNL A   1      36.508  31.962  30.714  1.00  0.00     0.010 A 
ATOM     40  C   UNL A   1      36.042  34.340  30.859  1.00  0.00     0.010 A 
ATOM     41  C   UNL A   1      36.788  33.226  31.266  1.00  0.00    -0.014 A 
BRANCH  41  42
ATOM     42  C   UNL A   1      37.988  33.399  32.116  1.00  0.00     0.031 A 
ATOM     43  C   UNL A   1      37.937  33.267  33.608  1.00  0.00     0.074 A 
ATOM     44  C   UNL A   1      39.150  33.689  31.500  1.00  0.00     0.049 A 
ATOM     45  N   UNL A   1      38.930  33.278  34.459  1.00  0.00    -0.248 NA
ATOM     46  C   UNL A   1      36.613  33.111  34.229  1.00  0.00     0.031 C 
ATOM     47  C   UNL A   1      39.300  33.917  30.061  1.00  0.00     0.029 A 
ATOM     48  N   UNL A   1      40.417  33.848  31.998  1.00  0.00    -0.354 N 
ATOM     49  C   UNL A   1      38.361  33.120  35.714  1.00  0.00     0.074 A 
ATOM     50  C   UNL A   1      36.928  33.040  35.520  1.00  0.00     0.031 C 
ATOM     51  C   UNL A   1      40.586  34.186  29.792  1.00  0.00     0.029 A 
ATOM     52  C   UNL A   1      41.350  34.149  31.036  1.00  0.00     0.049 A 
ATOM     53  H   UNL A   1      40.636  33.756  32.953  1.00  0.00     0.167 HD
ATOM     54  C   UNL A   1      38.987  33.022  36.911  1.00  0.00     0.034 A 
ATOM     55  C   UNL A   1      42.675  34.361  31.137  1.00  0.00     0.034 A 
ATOM     56  C   UNL A   1      40.413  33.089  37.092  1.00  0.00     0.049 A 
ATOM     57  C   UNL A   1      43.344  34.212  32.472  1.00  0.00     0.074 A 
ATOM     58  C   UNL A   1      41.135  32.932  38.263  1.00  0.00     0.029 A 
ATOM     59  N   UNL A   1      41.333  33.340  36.087  1.00  0.00    -0.354 N 
ATOM     60  N   UNL A   1      42.807  33.899  33.625  1.00  0.00    -0.248 NA
ATOM     61  C   UNL A   1      44.800  34.406  32.518  1.00  0.00     0.031 C 
ATOM     62  C   UNL A   1      42.491  33.095  37.969  1.00  0.00     0.029 A 
ATOM     63  C   UNL A   1      42.614  33.345  36.612  1.00  0.00     0.049 A 
ATOM     64  H   UNL A   1      41.110  33.492  35.140  1.00  0.00     0.167 HD
ATOM     65  C   UNL A   1      43.858  33.843  34.531  1.00  0.00     0.074 A 
ATOM     66  C   UNL A   1      45.067  34.134  33.789  1.00  0.00     0.031 C 
ATOM     67  C   UNL A   1      43.816  33.590  35.860  1.00  0.00     0.034 A 
BRANCH  54  68
ATOM     68  C   UNL A   1      38.162  32.739  38.136  1.00  0.00     0.023 A 
ATOM     69  C   UNL A   1      37.638  31.443  38.307  1.00  0.00     0.012 A 
ATOM     70  C   UNL A   1      38.064  33.674  39.185  1.00  0.00     0.148 A 
ATOM     71  C   UNL A   1      37.034  31.075  39.507  1.00  0.00     0.002 A 
ATOM     72  C   UNL A   1      37.483  33.292  40.388  1.00  0.00     0.091 A 
ATOM     73  F   UNL A   1      38.574  34.898  38.996  1.00  0.00    -0.205 F 
ATOM     74  C   UNL A   1      36.967  31.994  40.550  1.00  0.00     0.022 A 
BRANCH  72  75
ATOM     75  S   UNL A   1      37.397  34.373  41.821  1.00  0.00     0.127 S 
ATOM     76  O   UNL A   1      35.953  34.447  42.048  1.00  0.00    -0.237 OA
ATOM     77  O   UNL A   1      38.133  33.607  42.825  1.00  0.00    -0.237 OA
ATOM     78  O   UNL A   1      38.020  35.626  41.420  1.00  0.00    -0.744 OA
ENDBRANCH  72  75
ENDBRANCH  54  68
BRANCH  55  79
ATOM     79  C   UNL A   1      43.455  34.673  29.911  1.00  0.00     0.023 A 
ATOM     80  C   UNL A   1      43.920  33.623  29.099  1.00  0.00     0.012 A 
ATOM     81  C   UNL A   1      43.670  36.006  29.515  1.00  0.00     0.148 A 
ATOM     82  C   UNL A   1      44.603  33.896  27.914  1.00  0.00     0.002 A 
ATOM     83  C   UNL A   1      44.314  36.271  28.313  1.00  0.00     0.091 A 
ATOM     84  F   UNL A   1      43.218  36.985  30.311  1.00  0.00    -0.205 F 
ATOM     85  C   UNL A   1      44.790  35.218  27.516  1.00  0.00     0.022 A 
BRANCH  83  86
ATOM     86  S   UNL A   1      44.503  37.937  27.668  1.00  0.00     0.127 S 
ATOM     87  O   UNL A   1      44.987  38.657  28.845  1.00  0.00    -0.237 OA
ATOM     88  O   UNL A   1      45.499  37.740  26.614  1.00  0.00    -0.237 OA
ATOM     89  O   UNL A   1      43.185  38.327  27.188  1.00  0.00    -0.744 OA
ENDBRANCH  83  86
ENDBRANCH  55  79
BRANCH  67  90
ATOM     90  C   UNL A   1      45.110  33.612  36.624  1.00  0.00     0.023 A 
ATOM     91  C   UNL A   1      45.630  34.845  37.060  1.00  0.00     0.012 A 
ATOM     92  C   UNL A   1      45.737  32.413  37.018  1.00  0.00     0.148 A 
ATOM     93  C   UNL A   1      46.761  34.887  37.873  1.00  0.00     0.002 A 
ATOM     94  C   UNL A   1      46.844  32.461  37.856  1.00  0.00     0.091 A 
ATOM     95  F   UNL A   1      45.224  31.254  36.582  1.00  0.00    -0.205 F 
ATOM     96  C   UNL A   1      47.359  33.696  38.281  1.00  0.00     0.022 A 
BRANCH  94  97
ATOM     97  S   UNL A   1      47.643  30.984  38.493  1.00  0.00     0.127 S 
ATOM     98  O   UNL A   1      47.298  29.995  37.471  1.00  0.00    -0.237 OA
ATOM     99  O   UNL A   1      49.052  31.377  38.509  1.00  0.00    -0.237 OA
ATOM    100  O   UNL A   1      47.062  30.742  39.807  1.00  0.00    -0.744 OA
ENDBRANCH  94  97
ENDBRANCH  67  90
ENDBRANCH  41  42
ENDBRANCH  34  36
ENDBRANCH  33  34
ENDBRANCH  32  33
ENDBRANCH  31  32
ENDBRANCH  30  31
ENDBRANCH  29  30
ENDBRANCH   1  29
TORSDOF 24
ENDMDL
