MODEL 1
REMARK VINA RESULT:     -11.9      0.000      0.000
REMARK SMILES Cc1ccc([C@H](C)NC(=O)[C@H]2[C@@H]3CC[C@@H](C3)[C@@H]2C(=O)OCCOCCOCCOC(=O)c2ccc(-c3c4nc(c(-c5cccc(S(=O)(=O)[O-])c5F)c5ccc([nH]5)c(-c5cccc(S(=O)(=O)[O-])c5F)c5nc(c(-c6cccc(S(=O)(=O)[O-])c6F)c6ccc3[nH]6)C=C5)C=C4)cc2)cc1
REMARK SMILES IDX 24 1 23 2 22 3 21 4 20 5 18 6 19 7 17 8 11 9 12 10 13 11
REMARK SMILES IDX 16 12 15 13 14 14 9 15 8 16 10 18 6 19 7 20 5 21 1 22 2 23
REMARK SMILES IDX 3 24 96 25 4 26 95 27 25 28 26 29 27 30 28 31 29 32 30 33
REMARK SMILES IDX 31 34 32 35 33 36 94 37 34 38 93 39 35 40 36 41 37 42 87 43
REMARK SMILES IDX 38 44 92 45 86 46 88 47 39 48 91 49 85 50 84 51 40 53 72 54
REMARK SMILES IDX 52 55 71 56 53 57 56 58 70 59 89 60 54 61 55 62 69 64 90 65
REMARK SMILES IDX 57 66 41 67 42 68 50 69 43 70 45 71 51 72 44 73 46 74 47 75
REMARK SMILES IDX 48 76 49 77 73 78 74 79 82 80 75 81 77 82 83 83 76 84 78 85
REMARK SMILES IDX 79 86 80 87 81 88 58 89 59 90 67 91 60 92 62 93 68 94 61 95
REMARK SMILES IDX 63 96 64 97 65 98 66 99
REMARK H PARENT 8 17 88 52 56 63
REMARK Flexibility Score: inf
ROOT
ATOM      1  C   UNL A   1      42.390  19.368  27.207  1.00  0.00     0.188 C 
ENDROOT
BRANCH   1   2
ATOM      2  O   UNL A   1      40.971  19.640  27.145  1.00  0.00    -0.376 OA
BRANCH   2   3
ATOM      3  C   UNL A   1      40.175  20.215  26.065  1.00  0.00     0.202 C 
BRANCH   3   4
ATOM      4  C   UNL A   1      39.077  21.645  25.924  1.00  0.00     0.261 C 
BRANCH   4   5
ATOM      5  O   UNL A   1      37.546  21.917  25.039  1.00  0.00    -0.463 OA
BRANCH   5   6
ATOM      6  C   UNL A   1      36.503  22.945  24.912  1.00  0.00     0.310 C 
ATOM      7  O   UNL A   1      36.517  24.107  25.352  1.00  0.00    -0.252 OA
BRANCH   6   8
ATOM      8  C   UNL A   1      35.080  22.698  24.577  1.00  0.00     0.115 C 
ATOM      9  C   UNL A   1      33.973  23.677  24.515  1.00  0.00     0.096 C 
ATOM     10  C   UNL A   1      32.873  22.970  25.356  1.00  0.00     0.002 C 
ATOM     11  C   UNL A   1      33.354  22.774  26.824  1.00  0.00     0.005 C 
ATOM     12  C   UNL A   1      32.948  21.532  24.869  1.00  0.00     0.009 C 
ATOM     13  C   UNL A   1      34.436  21.413  25.223  1.00  0.00     0.004 C 
ATOM     14  C   UNL A   1      34.319  21.583  26.730  1.00  0.00     0.005 C 
BRANCH   9  15
ATOM     15  C   UNL A   1      33.595  23.944  23.032  1.00  0.00     0.224 C 
ATOM     16  N   UNL A   1      32.588  24.751  22.564  1.00  0.00    -0.349 N 
ATOM     17  H   UNL A   1      32.510  24.683  21.585  1.00  0.00     0.164 HD
ATOM     18  O   UNL A   1      34.284  23.385  22.167  1.00  0.00    -0.275 OA
BRANCH  16  19
ATOM     19  C   UNL A   1      31.575  25.702  23.116  1.00  0.00     0.109 C 
ATOM     20  C   UNL A   1      30.318  24.945  23.569  1.00  0.00     0.036 C 
BRANCH  19  21
ATOM     21  C   UNL A   1      32.047  26.537  24.294  1.00  0.00    -0.026 A 
ATOM     22  C   UNL A   1      32.283  29.672  27.191  1.00  0.00     0.044 C 
ATOM     23  C   UNL A   1      32.325  28.543  26.220  1.00  0.00    -0.051 A 
ATOM     24  C   UNL A   1      33.033  28.641  25.022  1.00  0.00     0.004 A 
ATOM     25  C   UNL A   1      31.634  27.369  26.525  1.00  0.00     0.004 A 
ATOM     26  C   UNL A   1      32.890  27.643  24.060  1.00  0.00     0.006 A 
ATOM     27  C   UNL A   1      31.489  26.373  25.566  1.00  0.00     0.006 A 
ENDBRANCH  19  21
ENDBRANCH  16  19
ENDBRANCH   9  15
ENDBRANCH   6   8
ENDBRANCH   5   6
ENDBRANCH   4   5
ENDBRANCH   3   4
ENDBRANCH   2   3
ENDBRANCH   1   2
BRANCH   1  28
ATOM     28  C   UNL A   1      43.024  18.027  26.867  1.00  0.00     0.188 C 
BRANCH  28  29
ATOM     29  O   UNL A   1      43.537  18.081  25.563  1.00  0.00    -0.376 OA
BRANCH  29  30
ATOM     30  C   UNL A   1      44.873  18.486  25.413  1.00  0.00     0.202 C 
BRANCH  30  31
ATOM     31  C   UNL A   1      45.095  19.626  24.406  1.00  0.00     0.261 C 
BRANCH  31  32
ATOM     32  O   UNL A   1      43.997  20.571  24.309  1.00  0.00    -0.460 OA
BRANCH  32  33
ATOM     33  C   UNL A   1      44.300  21.910  24.101  1.00  0.00     0.338 C 
ATOM     34  O   UNL A   1      44.744  22.332  23.065  1.00  0.00    -0.246 OA
BRANCH  33  35
ATOM     35  C   UNL A   1      43.913  22.737  25.290  1.00  0.00     0.060 A 
ATOM     36  C   UNL A   1      42.689  22.809  25.985  1.00  0.00     0.016 A 
ATOM     37  C   UNL A   1      44.847  23.638  25.642  1.00  0.00     0.016 A 
ATOM     38  C   UNL A   1      42.351  23.933  26.873  1.00  0.00     0.010 A 
ATOM     39  C   UNL A   1      44.396  24.771  26.293  1.00  0.00     0.010 A 
ATOM     40  C   UNL A   1      43.174  25.064  27.008  1.00  0.00    -0.014 A 
BRANCH  40  41
ATOM     41  C   UNL A   1      42.832  26.536  27.951  1.00  0.00     0.031 A 
ATOM     42  C   UNL A   1      41.654  27.889  27.769  1.00  0.00     0.074 A 
ATOM     43  C   UNL A   1      43.617  26.760  29.024  1.00  0.00     0.049 A 
ATOM     44  N   UNL A   1      41.569  28.912  28.603  1.00  0.00    -0.248 NA
ATOM     45  C   UNL A   1      40.512  28.133  26.772  1.00  0.00     0.031 C 
ATOM     46  C   UNL A   1      43.272  27.513  30.230  1.00  0.00     0.029 A 
ATOM     47  N   UNL A   1      44.912  26.313  29.280  1.00  0.00    -0.354 N 
ATOM     48  C   UNL A   1      40.373  29.625  28.373  1.00  0.00     0.074 A 
ATOM     49  C   UNL A   1      39.877  29.233  27.127  1.00  0.00     0.031 C 
ATOM     50  C   UNL A   1      44.388  27.708  30.948  1.00  0.00     0.029 A 
ATOM     51  C   UNL A   1      45.484  27.295  30.097  1.00  0.00     0.049 A 
ATOM     52  H   UNL A   1      45.334  25.486  28.954  1.00  0.00     0.167 HD
ATOM     53  C   UNL A   1      39.738  30.369  29.316  1.00  0.00     0.034 A 
ATOM     54  C   UNL A   1      46.505  28.070  29.641  1.00  0.00     0.034 A 
ATOM     55  C   UNL A   1      40.711  30.724  30.326  1.00  0.00     0.049 A 
ATOM     56  C   UNL A   1      46.244  29.543  29.843  1.00  0.00     0.074 A 
ATOM     57  C   UNL A   1      41.013  30.237  31.578  1.00  0.00     0.029 A 
ATOM     58  N   UNL A   1      41.784  31.504  29.923  1.00  0.00    -0.354 N 
ATOM     59  N   UNL A   1      45.093  30.045  30.204  1.00  0.00    -0.248 NA
ATOM     60  C   UNL A   1      47.270  30.567  29.730  1.00  0.00     0.031 C 
ATOM     61  C   UNL A   1      42.346  30.650  31.877  1.00  0.00     0.029 A 
ATOM     62  C   UNL A   1      42.817  31.442  30.838  1.00  0.00     0.049 A 
ATOM     63  H   UNL A   1      41.805  32.034  29.092  1.00  0.00     0.167 HD
ATOM     64  C   UNL A   1      45.170  31.404  30.318  1.00  0.00     0.074 A 
ATOM     65  C   UNL A   1      46.581  31.668  30.078  1.00  0.00     0.031 C 
ATOM     66  C   UNL A   1      44.058  32.174  30.559  1.00  0.00     0.034 A 
BRANCH  53  67
ATOM     67  C   UNL A   1      38.217  30.682  29.402  1.00  0.00     0.023 A 
ATOM     68  C   UNL A   1      37.353  29.604  29.102  1.00  0.00     0.012 A 
ATOM     69  C   UNL A   1      37.551  31.939  29.601  1.00  0.00     0.148 A 
ATOM     70  C   UNL A   1      35.961  29.746  28.969  1.00  0.00     0.002 A 
ATOM     71  C   UNL A   1      36.146  32.066  29.534  1.00  0.00     0.091 A 
ATOM     72  F   UNL A   1      38.251  33.064  29.765  1.00  0.00    -0.205 F 
ATOM     73  C   UNL A   1      35.353  30.971  29.195  1.00  0.00     0.022 A 
BRANCH  71  74
ATOM     74  S   UNL A   1      35.251  33.615  29.837  1.00  0.00     0.127 S 
ATOM     75  O   UNL A   1      33.856  33.207  29.663  1.00  0.00    -0.237 OA
ATOM     76  O   UNL A   1      35.615  33.929  31.219  1.00  0.00    -0.237 OA
ATOM     77  O   UNL A   1      35.735  34.573  28.852  1.00  0.00    -0.744 OA
ENDBRANCH  71  74
ENDBRANCH  53  67
BRANCH  54  78
ATOM     78  C   UNL A   1      47.336  27.374  28.598  1.00  0.00     0.023 A 
ATOM     79  C   UNL A   1      47.987  26.176  29.016  1.00  0.00     0.012 A 
ATOM     80  C   UNL A   1      47.190  27.598  27.217  1.00  0.00     0.148 A 
ATOM     81  C   UNL A   1      48.327  25.168  28.111  1.00  0.00     0.002 A 
ATOM     82  C   UNL A   1      47.578  26.601  26.311  1.00  0.00     0.091 A 
ATOM     83  F   UNL A   1      46.602  28.729  26.807  1.00  0.00    -0.205 F 
ATOM     84  C   UNL A   1      48.104  25.375  26.759  1.00  0.00     0.022 A 
BRANCH  82  85
ATOM     85  S   UNL A   1      47.392  26.768  24.528  1.00  0.00     0.127 S 
ATOM     86  O   UNL A   1      47.559  25.385  24.074  1.00  0.00    -0.237 OA
ATOM     87  O   UNL A   1      46.030  27.274  24.399  1.00  0.00    -0.237 OA
ATOM     88  O   UNL A   1      48.464  27.660  24.114  1.00  0.00    -0.744 OA
ENDBRANCH  82  85
ENDBRANCH  54  78
BRANCH  66  89
ATOM     89  C   UNL A   1      43.984  33.700  30.439  1.00  0.00     0.023 A 
ATOM     90  C   UNL A   1      44.191  34.558  31.535  1.00  0.00     0.012 A 
ATOM     91  C   UNL A   1      43.951  34.328  29.163  1.00  0.00     0.148 A 
ATOM     92  C   UNL A   1      44.379  35.938  31.391  1.00  0.00     0.002 A 
ATOM     93  C   UNL A   1      44.308  35.668  29.013  1.00  0.00     0.091 A 
ATOM     94  F   UNL A   1      43.624  33.627  28.067  1.00  0.00    -0.205 F 
ATOM     95  C   UNL A   1      44.486  36.488  30.126  1.00  0.00     0.022 A 
BRANCH  93  96
ATOM     96  S   UNL A   1      44.942  36.263  27.427  1.00  0.00     0.127 S 
ATOM     97  O   UNL A   1      44.682  37.697  27.511  1.00  0.00    -0.237 OA
ATOM     98  O   UNL A   1      46.356  35.891  27.499  1.00  0.00    -0.237 OA
ATOM     99  O   UNL A   1      44.187  35.518  26.429  1.00  0.00    -0.744 OA
ENDBRANCH  93  96
ENDBRANCH  66  89
ENDBRANCH  40  41
ENDBRANCH  33  35
ENDBRANCH  32  33
ENDBRANCH  31  32
ENDBRANCH  30  31
ENDBRANCH  29  30
ENDBRANCH  28  29
ENDBRANCH   1  28
TORSDOF 23
ENDMDL
MODEL 2
REMARK VINA RESULT:     -11.5      1.595      2.097
REMARK SMILES Cc1ccc([C@H](C)NC(=O)[C@H]2[C@@H]3CC[C@@H](C3)[C@@H]2C(=O)OCCOCCOCCOC(=O)c2ccc(-c3c4nc(c(-c5cccc(S(=O)(=O)[O-])c5F)c5ccc([nH]5)c(-c5cccc(S(=O)(=O)[O-])c5F)c5nc(c(-c6cccc(S(=O)(=O)[O-])c6F)c6ccc3[nH]6)C=C5)C=C4)cc2)cc1
REMARK SMILES IDX 24 1 23 2 22 3 21 4 20 5 18 6 19 7 17 8 11 9 12 10 13 11
REMARK SMILES IDX 16 12 15 13 14 14 9 15 8 16 10 18 6 19 7 20 5 21 1 22 2 23
REMARK SMILES IDX 3 24 96 25 4 26 95 27 25 28 26 29 27 30 28 31 29 32 30 33
REMARK SMILES IDX 31 34 32 35 33 36 94 37 34 38 93 39 35 40 36 41 37 42 87 43
REMARK SMILES IDX 38 44 92 45 86 46 88 47 39 48 91 49 85 50 84 51 40 53 72 54
REMARK SMILES IDX 52 55 71 56 53 57 56 58 70 59 89 60 54 61 55 62 69 64 90 65
REMARK SMILES IDX 57 66 41 67 42 68 50 69 43 70 45 71 51 72 44 73 46 74 47 75
REMARK SMILES IDX 48 76 49 77 73 78 74 79 82 80 75 81 77 82 83 83 76 84 78 85
REMARK SMILES IDX 79 86 80 87 81 88 58 89 59 90 67 91 60 92 62 93 68 94 61 95
REMARK SMILES IDX 63 96 64 97 65 98 66 99
REMARK H PARENT 8 17 88 52 56 63
REMARK Flexibility Score: inf
ROOT
ATOM      1  C   UNL A   1      40.894  21.365  26.684  1.00  0.00     0.188 C 
ENDROOT
BRANCH   1   2
ATOM      2  O   UNL A   1      39.572  21.905  26.917  1.00  0.00    -0.376 OA
BRANCH   2   3
ATOM      3  C   UNL A   1      38.540  22.297  25.962  1.00  0.00     0.202 C 
BRANCH   3   4
ATOM      4  C   UNL A   1      37.440  23.723  25.800  1.00  0.00     0.261 C 
BRANCH   4   5
ATOM      5  O   UNL A   1      35.971  24.017  24.823  1.00  0.00    -0.463 OA
BRANCH   5   6
ATOM      6  C   UNL A   1      35.083  23.292  23.904  1.00  0.00     0.310 C 
ATOM      7  O   UNL A   1      35.085  23.313  22.661  1.00  0.00    -0.252 OA
BRANCH   6   8
ATOM      8  C   UNL A   1      33.772  22.695  24.256  1.00  0.00     0.115 C 
ATOM      9  C   UNL A   1      32.957  22.928  25.469  1.00  0.00     0.096 C 
ATOM     10  C   UNL A   1      32.626  21.476  25.915  1.00  0.00     0.002 C 
ATOM     11  C   UNL A   1      33.932  20.705  26.268  1.00  0.00     0.005 C 
ATOM     12  C   UNL A   1      32.272  20.793  24.604  1.00  0.00     0.009 C 
ATOM     13  C   UNL A   1      33.620  21.154  23.968  1.00  0.00     0.004 C 
ATOM     14  C   UNL A   1      34.523  20.354  24.894  1.00  0.00     0.005 C 
BRANCH   9  15
ATOM     15  C   UNL A   1      31.725  23.802  25.110  1.00  0.00     0.224 C 
ATOM     16  N   UNL A   1      31.690  25.166  24.959  1.00  0.00    -0.349 N 
ATOM     17  H   UNL A   1      30.769  25.479  24.810  1.00  0.00     0.164 HD
ATOM     18  O   UNL A   1      30.653  23.211  24.920  1.00  0.00    -0.275 OA
BRANCH  16  19
ATOM     19  C   UNL A   1      32.650  26.312  24.958  1.00  0.00     0.109 C 
ATOM     20  C   UNL A   1      33.193  26.558  23.541  1.00  0.00     0.036 C 
BRANCH  19  21
ATOM     21  C   UNL A   1      32.084  27.630  25.457  1.00  0.00    -0.026 A 
ATOM     22  C   UNL A   1      31.836  31.716  26.691  1.00  0.00     0.044 C 
ATOM     23  C   UNL A   1      31.801  30.274  26.317  1.00  0.00    -0.051 A 
ATOM     24  C   UNL A   1      32.058  29.274  27.254  1.00  0.00     0.004 A 
ATOM     25  C   UNL A   1      31.505  29.930  24.996  1.00  0.00     0.004 A 
ATOM     26  C   UNL A   1      32.205  27.956  26.825  1.00  0.00     0.006 A 
ATOM     27  C   UNL A   1      31.652  28.616  24.565  1.00  0.00     0.006 A 
ENDBRANCH  19  21
ENDBRANCH  16  19
ENDBRANCH   9  15
ENDBRANCH   6   8
ENDBRANCH   5   6
ENDBRANCH   4   5
ENDBRANCH   3   4
ENDBRANCH   2   3
ENDBRANCH   1   2
BRANCH   1  28
ATOM     28  C   UNL A   1      41.291  19.920  26.948  1.00  0.00     0.188 C 
BRANCH  28  29
ATOM     29  O   UNL A   1      41.671  19.321  25.738  1.00  0.00    -0.376 OA
BRANCH  29  30
ATOM     30  C   UNL A   1      42.768  18.446  25.769  1.00  0.00     0.202 C 
BRANCH  30  31
ATOM     31  C   UNL A   1      44.113  19.079  25.376  1.00  0.00     0.261 C 
BRANCH  31  32
ATOM     32  O   UNL A   1      44.012  20.177  24.431  1.00  0.00    -0.460 OA
BRANCH  32  33
ATOM     33  C   UNL A   1      44.844  21.274  24.610  1.00  0.00     0.338 C 
ATOM     34  O   UNL A   1      45.988  21.302  24.237  1.00  0.00    -0.246 OA
BRANCH  33  35
ATOM     35  C   UNL A   1      44.097  22.416  25.231  1.00  0.00     0.060 A 
ATOM     36  C   UNL A   1      43.450  23.513  24.627  1.00  0.00     0.016 A 
ATOM     37  C   UNL A   1      44.190  22.450  26.572  1.00  0.00     0.016 A 
ATOM     38  C   UNL A   1      43.102  24.732  25.373  1.00  0.00     0.010 A 
ATOM     39  C   UNL A   1      44.056  23.690  27.168  1.00  0.00     0.010 A 
ATOM     40  C   UNL A   1      43.484  24.936  26.710  1.00  0.00    -0.014 A 
BRANCH  40  41
ATOM     41  C   UNL A   1      43.230  26.402  27.689  1.00  0.00     0.031 A 
ATOM     42  C   UNL A   1      41.979  27.700  27.692  1.00  0.00     0.074 A 
ATOM     43  C   UNL A   1      44.164  26.672  28.623  1.00  0.00     0.049 A 
ATOM     44  N   UNL A   1      41.981  28.727  28.524  1.00  0.00    -0.248 NA
ATOM     45  C   UNL A   1      40.683  27.882  26.888  1.00  0.00     0.031 C 
ATOM     46  C   UNL A   1      43.982  27.423  29.865  1.00  0.00     0.029 A 
ATOM     47  N   UNL A   1      45.502  26.285  28.671  1.00  0.00    -0.354 N 
ATOM     48  C   UNL A   1      40.733  29.385  28.484  1.00  0.00     0.074 A 
ATOM     49  C   UNL A   1      40.063  28.957  27.335  1.00  0.00     0.031 C 
ATOM     50  C   UNL A   1      45.189  27.675  30.396  1.00  0.00     0.029 A 
ATOM     51  C   UNL A   1      46.153  27.301  29.382  1.00  0.00     0.049 A 
ATOM     52  H   UNL A   1      45.904  25.474  28.286  1.00  0.00     0.167 HD
ATOM     53  C   UNL A   1      40.223  30.112  29.513  1.00  0.00     0.034 A 
ATOM     54  C   UNL A   1      47.052  28.114  28.767  1.00  0.00     0.034 A 
ATOM     55  C   UNL A   1      41.327  30.520  30.354  1.00  0.00     0.049 A 
ATOM     56  C   UNL A   1      46.761  29.577  29.001  1.00  0.00     0.074 A 
ATOM     57  C   UNL A   1      41.845  30.061  31.544  1.00  0.00     0.029 A 
ATOM     58  N   UNL A   1      42.286  31.342  29.781  1.00  0.00    -0.354 N 
ATOM     59  N   UNL A   1      45.660  30.032  29.538  1.00  0.00    -0.248 NA
ATOM     60  C   UNL A   1      47.708  30.643  28.722  1.00  0.00     0.031 C 
ATOM     61  C   UNL A   1      43.190  30.536  31.625  1.00  0.00     0.029 A 
ATOM     62  C   UNL A   1      43.453  31.335  30.521  1.00  0.00     0.049 A 
ATOM     63  H   UNL A   1      42.151  31.862  28.956  1.00  0.00     0.167 HD
ATOM     64  C   UNL A   1      45.693  31.395  29.633  1.00  0.00     0.074 A 
ATOM     65  C   UNL A   1      47.035  31.717  29.171  1.00  0.00     0.031 C 
ATOM     66  C   UNL A   1      44.600  32.118  30.044  1.00  0.00     0.034 A 
BRANCH  53  67
ATOM     67  C   UNL A   1      38.722  30.359  29.839  1.00  0.00     0.023 A 
ATOM     68  C   UNL A   1      38.050  29.289  30.473  1.00  0.00     0.012 A 
ATOM     69  C   UNL A   1      37.873  31.455  29.466  1.00  0.00     0.148 A 
ATOM     70  C   UNL A   1      36.661  29.272  30.692  1.00  0.00     0.002 A 
ATOM     71  C   UNL A   1      36.489  31.466  29.746  1.00  0.00     0.091 A 
ATOM     72  F   UNL A   1      38.351  32.474  28.747  1.00  0.00    -0.205 F 
ATOM     73  C   UNL A   1      35.880  30.362  30.340  1.00  0.00     0.022 A 
BRANCH  71  74
ATOM     74  S   UNL A   1      35.384  32.850  29.352  1.00  0.00     0.127 S 
ATOM     75  O   UNL A   1      34.129  32.434  29.981  1.00  0.00    -0.237 OA
ATOM     76  O   UNL A   1      36.039  33.980  30.011  1.00  0.00    -0.237 OA
ATOM     77  O   UNL A   1      35.337  32.941  27.899  1.00  0.00    -0.744 OA
ENDBRANCH  71  74
ENDBRANCH  53  67
BRANCH  54  78
ATOM     78  C   UNL A   1      47.738  27.444  27.607  1.00  0.00     0.023 A 
ATOM     79  C   UNL A   1      47.196  27.719  26.318  1.00  0.00     0.012 A 
ATOM     80  C   UNL A   1      49.043  26.924  27.677  1.00  0.00     0.148 A 
ATOM     81  C   UNL A   1      47.972  27.640  25.160  1.00  0.00     0.002 A 
ATOM     82  C   UNL A   1      49.801  26.802  26.503  1.00  0.00     0.091 A 
ATOM     83  F   UNL A   1      49.560  26.639  28.879  1.00  0.00    -0.205 F 
ATOM     84  C   UNL A   1      49.282  27.199  25.257  1.00  0.00     0.022 A 
BRANCH  82  85
ATOM     85  S   UNL A   1      51.495  26.192  26.488  1.00  0.00     0.127 S 
ATOM     86  O   UNL A   1      51.329  24.822  26.981  1.00  0.00    -0.237 OA
ATOM     87  O   UNL A   1      51.847  26.274  25.074  1.00  0.00    -0.237 OA
ATOM     88  O   UNL A   1      52.223  27.065  27.396  1.00  0.00    -0.744 OA
ENDBRANCH  82  85
ENDBRANCH  54  78
BRANCH  66  89
ATOM     89  C   UNL A   1      44.439  33.637  29.931  1.00  0.00     0.023 A 
ATOM     90  C   UNL A   1      44.951  34.528  30.893  1.00  0.00     0.012 A 
ATOM     91  C   UNL A   1      43.983  34.232  28.722  1.00  0.00     0.148 A 
ATOM     92  C   UNL A   1      45.036  35.909  30.676  1.00  0.00     0.002 A 
ATOM     93  C   UNL A   1      44.229  35.577  28.446  1.00  0.00     0.091 A 
ATOM     94  F   UNL A   1      43.352  33.495  27.796  1.00  0.00    -0.205 F 
ATOM     95  C   UNL A   1      44.720  36.429  29.434  1.00  0.00     0.022 A 
BRANCH  93  96
ATOM     96  S   UNL A   1      44.309  36.150  26.733  1.00  0.00     0.127 S 
ATOM     97  O   UNL A   1      45.015  35.056  26.075  1.00  0.00    -0.237 OA
ATOM     98  O   UNL A   1      42.892  36.267  26.379  1.00  0.00    -0.237 OA
ATOM     99  O   UNL A   1      45.004  37.429  26.807  1.00  0.00    -0.744 OA
ENDBRANCH  93  96
ENDBRANCH  66  89
ENDBRANCH  40  41
ENDBRANCH  33  35
ENDBRANCH  32  33
ENDBRANCH  31  32
ENDBRANCH  30  31
ENDBRANCH  29  30
ENDBRANCH  28  29
ENDBRANCH   1  28
TORSDOF 23
ENDMDL
MODEL 3
REMARK VINA RESULT:     -11.3      3.263     10.177
REMARK SMILES Cc1ccc([C@H](C)NC(=O)[C@H]2[C@@H]3CC[C@@H](C3)[C@@H]2C(=O)OCCOCCOCCOC(=O)c2ccc(-c3c4nc(c(-c5cccc(S(=O)(=O)[O-])c5F)c5ccc([nH]5)c(-c5cccc(S(=O)(=O)[O-])c5F)c5nc(c(-c6cccc(S(=O)(=O)[O-])c6F)c6ccc3[nH]6)C=C5)C=C4)cc2)cc1
REMARK SMILES IDX 24 1 23 2 22 3 21 4 20 5 18 6 19 7 17 8 11 9 12 10 13 11
REMARK SMILES IDX 16 12 15 13 14 14 9 15 8 16 10 18 6 19 7 20 5 21 1 22 2 23
REMARK SMILES IDX 3 24 96 25 4 26 95 27 25 28 26 29 27 30 28 31 29 32 30 33
REMARK SMILES IDX 31 34 32 35 33 36 94 37 34 38 93 39 35 40 36 41 37 42 87 43
REMARK SMILES IDX 38 44 92 45 86 46 88 47 39 48 91 49 85 50 84 51 40 53 72 54
REMARK SMILES IDX 52 55 71 56 53 57 56 58 70 59 89 60 54 61 55 62 69 64 90 65
REMARK SMILES IDX 57 66 41 67 42 68 50 69 43 70 45 71 51 72 44 73 46 74 47 75
REMARK SMILES IDX 48 76 49 77 73 78 74 79 82 80 75 81 77 82 83 83 76 84 78 85
REMARK SMILES IDX 79 86 80 87 81 88 58 89 59 90 67 91 60 92 62 93 68 94 61 95
REMARK SMILES IDX 63 96 64 97 65 98 66 99
REMARK H PARENT 8 17 88 52 56 63
REMARK Flexibility Score: inf
ROOT
ATOM      1  C   UNL A   1      34.610  32.748  28.096  1.00  0.00     0.188 C 
ENDROOT
BRANCH   1   2
ATOM      2  O   UNL A   1      34.221  31.364  27.936  1.00  0.00    -0.376 OA
BRANCH   2   3
ATOM      3  C   UNL A   1      33.124  30.783  27.168  1.00  0.00     0.202 C 
BRANCH   3   4
ATOM      4  C   UNL A   1      32.120  29.287  27.327  1.00  0.00     0.261 C 
BRANCH   4   5
ATOM      5  O   UNL A   1      32.482  27.552  27.086  1.00  0.00    -0.463 OA
BRANCH   5   6
ATOM      6  C   UNL A   1      32.739  26.612  25.986  1.00  0.00     0.310 C 
ATOM      7  O   UNL A   1      33.831  26.148  25.615  1.00  0.00    -0.252 OA
BRANCH   6   8
ATOM      8  C   UNL A   1      31.819  26.323  24.860  1.00  0.00     0.115 C 
ATOM      9  C   UNL A   1      32.091  25.540  23.635  1.00  0.00     0.096 C 
ATOM     10  C   UNL A   1      31.569  26.493  22.523  1.00  0.00     0.002 C 
ATOM     11  C   UNL A   1      32.381  27.821  22.521  1.00  0.00     0.005 C 
ATOM     12  C   UNL A   1      30.256  26.998  23.101  1.00  0.00     0.009 C 
ATOM     13  C   UNL A   1      30.936  27.532  24.368  1.00  0.00     0.004 C 
ATOM     14  C   UNL A   1      31.811  28.594  23.720  1.00  0.00     0.005 C 
BRANCH   9  15
ATOM     15  C   UNL A   1      31.365  24.170  23.719  1.00  0.00     0.224 C 
ATOM     16  N   UNL A   1      31.797  23.040  24.369  1.00  0.00    -0.349 N 
ATOM     17  H   UNL A   1      31.189  22.285  24.201  1.00  0.00     0.164 HD
ATOM     18  O   UNL A   1      30.265  24.081  23.156  1.00  0.00    -0.275 OA
BRANCH  16  19
ATOM     19  C   UNL A   1      32.927  22.629  25.257  1.00  0.00     0.109 C 
ATOM     20  C   UNL A   1      32.614  22.975  26.721  1.00  0.00     0.036 C 
BRANCH  19  21
ATOM     21  C   UNL A   1      33.282  21.153  25.210  1.00  0.00    -0.026 A 
ATOM     22  C   UNL A   1      34.303  17.285  23.700  1.00  0.00     0.044 C 
ATOM     23  C   UNL A   1      33.919  18.573  24.344  1.00  0.00    -0.051 A 
ATOM     24  C   UNL A   1      32.582  18.920  24.535  1.00  0.00     0.004 A 
ATOM     25  C   UNL A   1      34.929  19.443  24.758  1.00  0.00     0.004 A 
ATOM     26  C   UNL A   1      32.264  20.207  24.962  1.00  0.00     0.006 A 
ATOM     27  C   UNL A   1      34.614  20.729  25.183  1.00  0.00     0.006 A 
ENDBRANCH  19  21
ENDBRANCH  16  19
ENDBRANCH   9  15
ENDBRANCH   6   8
ENDBRANCH   5   6
ENDBRANCH   4   5
ENDBRANCH   3   4
ENDBRANCH   2   3
ENDBRANCH   1   2
BRANCH   1  28
ATOM     28  C   UNL A   1      33.799  33.786  28.858  1.00  0.00     0.188 C 
BRANCH  28  29
ATOM     29  O   UNL A   1      34.122  33.710  30.220  1.00  0.00    -0.376 OA
BRANCH  29  30
ATOM     30  C   UNL A   1      35.470  33.498  30.551  1.00  0.00     0.202 C 
BRANCH  30  31
ATOM     31  C   UNL A   1      35.703  32.614  31.788  1.00  0.00     0.261 C 
BRANCH  31  32
ATOM     32  O   UNL A   1      36.949  31.869  31.773  1.00  0.00    -0.460 OA
BRANCH  32  33
ATOM     33  C   UNL A   1      36.894  30.505  31.518  1.00  0.00     0.338 C 
ATOM     34  O   UNL A   1      36.101  29.768  32.044  1.00  0.00    -0.246 OA
BRANCH  33  35
ATOM     35  C   UNL A   1      37.876  30.120  30.452  1.00  0.00     0.060 A 
ATOM     36  C   UNL A   1      37.715  29.282  29.332  1.00  0.00     0.016 A 
ATOM     37  C   UNL A   1      39.128  30.541  30.702  1.00  0.00     0.016 A 
ATOM     38  C   UNL A   1      38.859  28.704  28.608  1.00  0.00     0.010 A 
ATOM     39  C   UNL A   1      40.151  29.798  30.142  1.00  0.00     0.010 A 
ATOM     40  C   UNL A   1      40.185  28.857  29.046  1.00  0.00    -0.014 A 
BRANCH  40  41
ATOM     41  C   UNL A   1      41.644  28.120  28.336  1.00  0.00     0.031 A 
ATOM     42  C   UNL A   1      42.328  26.452  28.344  1.00  0.00     0.074 A 
ATOM     43  C   UNL A   1      42.472  28.947  27.667  1.00  0.00     0.049 A 
ATOM     44  N   UNL A   1      43.455  26.113  27.740  1.00  0.00    -0.248 NA
ATOM     45  C   UNL A   1      41.799  25.125  28.906  1.00  0.00     0.031 C 
ATOM     46  C   UNL A   1      43.386  28.594  26.580  1.00  0.00     0.029 A 
ATOM     47  N   UNL A   1      42.644  30.323  27.801  1.00  0.00    -0.354 N 
ATOM     48  C   UNL A   1      43.560  24.707  27.667  1.00  0.00     0.074 A 
ATOM     49  C   UNL A   1      42.637  24.165  28.564  1.00  0.00     0.031 C 
ATOM     50  C   UNL A   1      44.199  29.635  26.347  1.00  0.00     0.029 A 
ATOM     51  C   UNL A   1      43.974  30.564  27.435  1.00  0.00     0.049 A 
ATOM     52  H   UNL A   1      41.976  30.983  28.092  1.00  0.00     0.167 HD
ATOM     53  C   UNL A   1      44.275  24.047  26.718  1.00  0.00     0.034 A 
ATOM     54  C   UNL A   1      44.883  30.985  28.355  1.00  0.00     0.034 A 
ATOM     55  C   UNL A   1      45.267  24.962  26.197  1.00  0.00     0.049 A 
ATOM     56  C   UNL A   1      46.135  30.142  28.354  1.00  0.00     0.074 A 
ATOM     57  C   UNL A   1      45.354  25.736  25.063  1.00  0.00     0.029 A 
ATOM     58  N   UNL A   1      46.217  25.437  27.089  1.00  0.00    -0.354 N 
ATOM     59  N   UNL A   1      46.261  29.010  27.715  1.00  0.00    -0.248 NA
ATOM     60  C   UNL A   1      47.372  30.536  29.008  1.00  0.00     0.031 C 
ATOM     61  C   UNL A   1      46.305  26.767  25.332  1.00  0.00     0.029 A 
ATOM     62  C   UNL A   1      46.838  26.570  26.599  1.00  0.00     0.049 A 
ATOM     63  H   UNL A   1      46.422  25.021  27.958  1.00  0.00     0.167 HD
ATOM     64  C   UNL A   1      47.512  28.488  27.891  1.00  0.00     0.074 A 
ATOM     65  C   UNL A   1      48.188  29.527  28.654  1.00  0.00     0.031 C 
ATOM     66  C   UNL A   1      47.848  27.241  27.426  1.00  0.00     0.034 A 
BRANCH  53  67
ATOM     67  C   UNL A   1      44.011  22.617  26.166  1.00  0.00     0.023 A 
ATOM     68  C   UNL A   1      42.692  22.135  26.322  1.00  0.00     0.012 A 
ATOM     69  C   UNL A   1      44.938  21.650  25.649  1.00  0.00     0.148 A 
ATOM     70  C   UNL A   1      42.315  20.812  26.034  1.00  0.00     0.002 A 
ATOM     71  C   UNL A   1      44.544  20.341  25.296  1.00  0.00     0.091 A 
ATOM     72  F   UNL A   1      46.242  21.929  25.570  1.00  0.00    -0.205 F 
ATOM     73  C   UNL A   1      43.234  19.916  25.511  1.00  0.00     0.022 A 
BRANCH  71  74
ATOM     74  S   UNL A   1      45.660  19.101  24.582  1.00  0.00     0.127 S 
ATOM     75  O   UNL A   1      46.966  19.753  24.703  1.00  0.00    -0.237 OA
ATOM     76  O   UNL A   1      45.477  17.955  25.474  1.00  0.00    -0.237 OA
ATOM     77  O   UNL A   1      45.212  18.880  23.213  1.00  0.00    -0.744 OA
ENDBRANCH  71  74
ENDBRANCH  53  67
BRANCH  54  78
ATOM     78  C   UNL A   1      44.251  31.769  29.473  1.00  0.00     0.023 A 
ATOM     79  C   UNL A   1      43.560  32.956  29.090  1.00  0.00     0.012 A 
ATOM     80  C   UNL A   1      43.971  31.223  30.739  1.00  0.00     0.148 A 
ATOM     81  C   UNL A   1      42.519  33.483  29.856  1.00  0.00     0.002 A 
ATOM     82  C   UNL A   1      42.957  31.786  31.525  1.00  0.00     0.091 A 
ATOM     83  F   UNL A   1      44.628  30.121  31.124  1.00  0.00    -0.205 F 
ATOM     84  C   UNL A   1      42.205  32.884  31.067  1.00  0.00     0.022 A 
BRANCH  82  85
ATOM     85  S   UNL A   1      42.489  31.137  33.138  1.00  0.00     0.127 S 
ATOM     86  O   UNL A   1      43.677  31.435  33.941  1.00  0.00    -0.237 OA
ATOM     87  O   UNL A   1      41.324  31.946  33.479  1.00  0.00    -0.237 OA
ATOM     88  O   UNL A   1      42.260  29.716  32.925  1.00  0.00    -0.744 OA
ENDBRANCH  82  85
ENDBRANCH  54  78
BRANCH  66  89
ATOM     89  C   UNL A   1      49.112  26.460  27.796  1.00  0.00     0.023 A 
ATOM     90  C   UNL A   1      50.273  26.472  26.999  1.00  0.00     0.012 A 
ATOM     91  C   UNL A   1      49.260  25.885  29.089  1.00  0.00     0.148 A 
ATOM     92  C   UNL A   1      51.504  25.979  27.447  1.00  0.00     0.002 A 
ATOM     93  C   UNL A   1      50.520  25.556  29.589  1.00  0.00     0.091 A 
ATOM     94  F   UNL A   1      48.191  25.697  29.877  1.00  0.00    -0.205 F 
ATOM     95  C   UNL A   1      51.641  25.565  28.759  1.00  0.00     0.022 A 
BRANCH  93  96
ATOM     96  S   UNL A   1      50.803  25.512  31.374  1.00  0.00     0.127 S 
ATOM     97  O   UNL A   1      50.364  24.165  31.723  1.00  0.00    -0.237 OA
ATOM     98  O   UNL A   1      52.248  25.729  31.464  1.00  0.00    -0.237 OA
ATOM     99  O   UNL A   1      50.008  26.616  31.897  1.00  0.00    -0.744 OA
ENDBRANCH  93  96
ENDBRANCH  66  89
ENDBRANCH  40  41
ENDBRANCH  33  35
ENDBRANCH  32  33
ENDBRANCH  31  32
ENDBRANCH  30  31
ENDBRANCH  29  30
ENDBRANCH  28  29
ENDBRANCH   1  28
TORSDOF 23
ENDMDL
