MODEL 1
REMARK VINA RESULT:     -10.6      0.000      0.000
REMARK SMILES COc1ccc([C@H](C(=O)OCCOCCOCCOC(=O)c2ccc(-c3c4nc(c(-c5cccc(S(=O)(=O)[O-])c5F)c5ccc([nH]5)c(-c5cccc(S(=O)(=O)[O-])c5F)c5nc(c(-c6cccc(S(=O)(=O)[O-])c6F)c6ccc3[nH]6)C=C5)C=C4)cc2)c2ccc(O)nn2)cc1
REMARK SMILES IDX 15 1 14 2 13 3 12 4 11 5 10 6 8 7 9 8 7 9 6 10 3 11 4 12
REMARK SMILES IDX 93 13 5 14 92 15 2 16 1 17 85 18 86 19 91 20 87 21 90 22
REMARK SMILES IDX 88 23 89 24 16 26 17 27 18 28 19 29 20 30 21 31 22 32 23 33
REMARK SMILES IDX 84 34 24 35 83 36 25 37 26 38 27 39 77 40 28 41 82 42 76 43
REMARK SMILES IDX 78 44 29 45 81 46 75 47 74 48 30 50 62 51 42 52 61 53 43 54
REMARK SMILES IDX 46 55 60 56 79 57 44 58 45 59 59 61 80 62 47 63 31 64 32 65
REMARK SMILES IDX 40 66 33 67 35 68 41 69 34 70 36 71 37 72 38 73 39 74 63 75
REMARK SMILES IDX 64 76 72 77 65 78 67 79 73 80 66 81 68 82 69 83 70 84 71 85
REMARK SMILES IDX 48 86 49 87 57 88 50 89 52 90 58 91 51 92 53 93 54 94 55 95
REMARK SMILES IDX 56 96
REMARK H PARENT 89 25 78 49 46 60
REMARK Flexibility Score: inf
ROOT
ATOM      1  C   UNL A   1      33.681  26.352  24.667  1.00  0.00     0.188 C 
ENDROOT
BRANCH   1   2
ATOM      2  C   UNL A   1      33.369  25.149  23.767  1.00  0.00     0.188 C 
BRANCH   2   3
ATOM      3  O   UNL A   1      34.457  24.484  23.138  1.00  0.00    -0.376 OA
BRANCH   3   4
ATOM      4  C   UNL A   1      35.503  23.929  23.927  1.00  0.00     0.202 C 
BRANCH   4   5
ATOM      5  C   UNL A   1      36.249  22.682  23.431  1.00  0.00     0.261 C 
BRANCH   5   6
ATOM      6  O   UNL A   1      36.299  21.567  24.351  1.00  0.00    -0.462 OA
BRANCH   6   7
ATOM      7  C   UNL A   1      35.291  21.479  25.263  1.00  0.00     0.319 C 
ATOM      8  O   UNL A   1      35.413  21.858  26.425  1.00  0.00    -0.251 OA
BRANCH   7   9
ATOM      9  C   UNL A   1      34.018  20.776  24.770  1.00  0.00     0.180 C 
BRANCH   9  10
ATOM     10  C   UNL A   1      33.839  19.257  24.932  1.00  0.00    -0.027 A 
ATOM     11  C   UNL A   1      33.541  16.429  25.013  1.00  0.00     0.118 A 
ATOM     12  C   UNL A   1      34.647  17.007  24.394  1.00  0.00     0.047 A 
ATOM     13  C   UNL A   1      32.598  17.260  25.609  1.00  0.00     0.047 A 
ATOM     14  C   UNL A   1      34.799  18.400  24.356  1.00  0.00     0.009 A 
ATOM     15  C   UNL A   1      32.731  18.654  25.542  1.00  0.00     0.009 A 
BRANCH  11  16
ATOM     16  O   UNL A   1      33.484  15.063  24.966  1.00  0.00    -0.497 OA
ATOM     17  C   UNL A   1      32.471  14.447  25.755  1.00  0.00     0.278 C 
ENDBRANCH  11  16
ENDBRANCH   9  10
BRANCH   9  18
ATOM     18  C   UNL A   1      32.846  21.604  25.258  1.00  0.00     0.082 A 
ATOM     19  C   UNL A   1      32.731  22.067  26.564  1.00  0.00     0.032 A 
ATOM     20  N   UNL A   1      31.972  22.003  24.298  1.00  0.00    -0.151 NA
ATOM     21  C   UNL A   1      31.756  23.010  26.853  1.00  0.00     0.072 A 
ATOM     22  N   UNL A   1      31.034  22.942  24.572  1.00  0.00    -0.112 NA
ATOM     23  C   UNL A   1      30.963  23.435  25.816  1.00  0.00     0.230 A 
BRANCH  23  24
ATOM     24  O   UNL A   1      30.090  24.460  25.980  1.00  0.00    -0.492 OA
ATOM     25  H   UNL A   1      29.970  25.088  25.296  1.00  0.00     0.295 HD
ENDBRANCH  23  24
ENDBRANCH   9  18
ENDBRANCH   7   9
ENDBRANCH   6   7
ENDBRANCH   5   6
ENDBRANCH   4   5
ENDBRANCH   3   4
ENDBRANCH   2   3
ENDBRANCH   1   2
BRANCH   1  26
ATOM     26  O   UNL A   1      33.497  27.599  24.027  1.00  0.00    -0.376 OA
BRANCH  26  27
ATOM     27  C   UNL A   1      32.207  28.184  24.052  1.00  0.00     0.202 C 
BRANCH  27  28
ATOM     28  C   UNL A   1      31.931  29.377  24.981  1.00  0.00     0.261 C 
BRANCH  28  29
ATOM     29  O   UNL A   1      33.074  30.107  25.446  1.00  0.00    -0.460 OA
BRANCH  29  30
ATOM     30  C   UNL A   1      32.902  30.920  26.515  1.00  0.00     0.338 C 
ATOM     31  O   UNL A   1      31.900  31.557  26.795  1.00  0.00    -0.246 OA
BRANCH  30  32
ATOM     32  C   UNL A   1      34.062  30.707  27.410  1.00  0.00     0.060 A 
ATOM     33  C   UNL A   1      34.841  31.808  27.789  1.00  0.00     0.016 A 
ATOM     34  C   UNL A   1      34.342  29.436  27.921  1.00  0.00     0.016 A 
ATOM     35  C   UNL A   1      35.914  31.637  28.665  1.00  0.00     0.010 A 
ATOM     36  C   UNL A   1      35.426  29.264  28.786  1.00  0.00     0.010 A 
ATOM     37  C   UNL A   1      36.234  30.358  29.140  1.00  0.00    -0.014 A 
BRANCH  37  38
ATOM     38  C   UNL A   1      37.500  30.141  29.882  1.00  0.00     0.031 A 
ATOM     39  C   UNL A   1      38.551  29.255  29.270  1.00  0.00     0.074 A 
ATOM     40  C   UNL A   1      37.712  30.709  31.081  1.00  0.00     0.049 A 
ATOM     41  N   UNL A   1      39.724  28.917  29.736  1.00  0.00    -0.248 NA
ATOM     42  C   UNL A   1      38.233  28.670  27.957  1.00  0.00     0.031 C 
ATOM     43  C   UNL A   1      36.769  31.574  31.788  1.00  0.00     0.029 A 
ATOM     44  N   UNL A   1      38.788  30.617  31.931  1.00  0.00    -0.354 N 
ATOM     45  C   UNL A   1      40.272  28.057  28.792  1.00  0.00     0.074 A 
ATOM     46  C   UNL A   1      39.298  27.916  27.732  1.00  0.00     0.031 C 
ATOM     47  C   UNL A   1      37.297  31.912  32.978  1.00  0.00     0.029 A 
ATOM     48  C   UNL A   1      38.602  31.271  33.126  1.00  0.00     0.049 A 
ATOM     49  H   UNL A   1      39.613  30.131  31.705  1.00  0.00     0.167 HD
ATOM     50  C   UNL A   1      41.482  27.449  28.798  1.00  0.00     0.034 A 
ATOM     51  C   UNL A   1      39.386  31.326  34.221  1.00  0.00     0.034 A 
ATOM     52  C   UNL A   1      42.454  27.596  29.848  1.00  0.00     0.049 A 
ATOM     53  C   UNL A   1      40.724  30.632  34.208  1.00  0.00     0.074 A 
ATOM     54  C   UNL A   1      43.732  27.070  29.915  1.00  0.00     0.029 A 
ATOM     55  N   UNL A   1      42.251  28.302  31.023  1.00  0.00    -0.354 N 
ATOM     56  N   UNL A   1      41.288  29.936  33.250  1.00  0.00    -0.248 NA
ATOM     57  C   UNL A   1      41.551  30.764  35.417  1.00  0.00     0.031 C 
ATOM     58  C   UNL A   1      44.287  27.423  31.151  1.00  0.00     0.029 A 
ATOM     59  C   UNL A   1      43.371  28.207  31.834  1.00  0.00     0.049 A 
ATOM     60  H   UNL A   1      41.431  28.797  31.249  1.00  0.00     0.167 HD
ATOM     61  C   UNL A   1      42.543  29.572  33.727  1.00  0.00     0.074 A 
ATOM     62  C   UNL A   1      42.669  30.152  35.048  1.00  0.00     0.031 C 
ATOM     63  C   UNL A   1      43.500  28.816  33.133  1.00  0.00     0.034 A 
BRANCH  50  64
ATOM     64  C   UNL A   1      41.825  26.571  27.623  1.00  0.00     0.023 A 
ATOM     65  C   UNL A   1      42.427  27.131  26.478  1.00  0.00     0.012 A 
ATOM     66  C   UNL A   1      41.591  25.183  27.671  1.00  0.00     0.148 A 
ATOM     67  C   UNL A   1      42.758  26.331  25.385  1.00  0.00     0.002 A 
ATOM     68  C   UNL A   1      41.968  24.384  26.598  1.00  0.00     0.091 A 
ATOM     69  F   UNL A   1      40.995  24.673  28.758  1.00  0.00    -0.205 F 
ATOM     70  C   UNL A   1      42.538  24.957  25.450  1.00  0.00     0.022 A 
BRANCH  68  71
ATOM     71  S   UNL A   1      41.802  22.596  26.618  1.00  0.00     0.127 S 
ATOM     72  O   UNL A   1      42.639  22.235  27.761  1.00  0.00    -0.237 OA
ATOM     73  O   UNL A   1      40.366  22.424  26.836  1.00  0.00    -0.237 OA
ATOM     74  O   UNL A   1      42.281  22.133  25.323  1.00  0.00    -0.744 OA
ENDBRANCH  68  71
ENDBRANCH  50  64
BRANCH  51  75
ATOM     75  C   UNL A   1      38.938  32.089  35.420  1.00  0.00     0.023 A 
ATOM     76  C   UNL A   1      39.159  33.478  35.490  1.00  0.00     0.012 A 
ATOM     77  C   UNL A   1      38.286  31.443  36.489  1.00  0.00     0.148 A 
ATOM     78  C   UNL A   1      38.767  34.205  36.615  1.00  0.00     0.002 A 
ATOM     79  C   UNL A   1      37.848  32.182  37.582  1.00  0.00     0.091 A 
ATOM     80  F   UNL A   1      38.101  30.118  36.411  1.00  0.00    -0.205 F 
ATOM     81  C   UNL A   1      38.103  33.560  37.655  1.00  0.00     0.022 A 
BRANCH  79  82
ATOM     82  S   UNL A   1      36.883  31.458  38.912  1.00  0.00     0.127 S 
ATOM     83  O   UNL A   1      37.779  31.618  40.054  1.00  0.00    -0.237 OA
ATOM     84  O   UNL A   1      35.702  32.322  38.931  1.00  0.00    -0.237 OA
ATOM     85  O   UNL A   1      36.619  30.084  38.507  1.00  0.00    -0.744 OA
ENDBRANCH  79  82
ENDBRANCH  51  75
BRANCH  63  86
ATOM     86  C   UNL A   1      44.785  28.591  33.895  1.00  0.00     0.023 A 
ATOM     87  C   UNL A   1      45.856  29.496  33.754  1.00  0.00     0.012 A 
ATOM     88  C   UNL A   1      44.915  27.505  34.783  1.00  0.00     0.148 A 
ATOM     89  C   UNL A   1      47.051  29.296  34.444  1.00  0.00     0.002 A 
ATOM     90  C   UNL A   1      46.089  27.342  35.509  1.00  0.00     0.091 A 
ATOM     91  F   UNL A   1      43.893  26.643  34.896  1.00  0.00    -0.205 F 
ATOM     92  C   UNL A   1      47.164  28.226  35.328  1.00  0.00     0.022 A 
BRANCH  90  93
ATOM     93  S   UNL A   1      46.286  26.050  36.742  1.00  0.00     0.127 S 
ATOM     94  O   UNL A   1      45.384  26.505  37.798  1.00  0.00    -0.237 OA
ATOM     95  O   UNL A   1      45.829  24.860  36.022  1.00  0.00    -0.237 OA
ATOM     96  O   UNL A   1      47.701  26.039  37.088  1.00  0.00    -0.744 OA
ENDBRANCH  90  93
ENDBRANCH  63  86
ENDBRANCH  37  38
ENDBRANCH  30  32
ENDBRANCH  29  30
ENDBRANCH  28  29
ENDBRANCH  27  28
ENDBRANCH  26  27
ENDBRANCH   1  26
TORSDOF 24
ENDMDL
MODEL 2
REMARK VINA RESULT:     -10.5      1.568      7.743
REMARK SMILES COc1ccc([C@H](C(=O)OCCOCCOCCOC(=O)c2ccc(-c3c4nc(c(-c5cccc(S(=O)(=O)[O-])c5F)c5ccc([nH]5)c(-c5cccc(S(=O)(=O)[O-])c5F)c5nc(c(-c6cccc(S(=O)(=O)[O-])c6F)c6ccc3[nH]6)C=C5)C=C4)cc2)c2ccc(O)nn2)cc1
REMARK SMILES IDX 15 1 14 2 13 3 12 4 11 5 10 6 8 7 9 8 7 9 6 10 3 11 4 12
REMARK SMILES IDX 93 13 5 14 92 15 2 16 1 17 85 18 86 19 91 20 87 21 90 22
REMARK SMILES IDX 88 23 89 24 16 26 17 27 18 28 19 29 20 30 21 31 22 32 23 33
REMARK SMILES IDX 84 34 24 35 83 36 25 37 26 38 27 39 77 40 28 41 82 42 76 43
REMARK SMILES IDX 78 44 29 45 81 46 75 47 74 48 30 50 62 51 42 52 61 53 43 54
REMARK SMILES IDX 46 55 60 56 79 57 44 58 45 59 59 61 80 62 47 63 31 64 32 65
REMARK SMILES IDX 40 66 33 67 35 68 41 69 34 70 36 71 37 72 38 73 39 74 63 75
REMARK SMILES IDX 64 76 72 77 65 78 67 79 73 80 66 81 68 82 69 83 70 84 71 85
REMARK SMILES IDX 48 86 49 87 57 88 50 89 52 90 58 91 51 92 53 93 54 94 55 95
REMARK SMILES IDX 56 96
REMARK H PARENT 89 25 78 49 46 60
REMARK Flexibility Score: inf
ROOT
ATOM      1  C   UNL A   1      31.779  29.094  25.796  1.00  0.00     0.188 C 
ENDROOT
BRANCH   1   2
ATOM      2  C   UNL A   1      32.041  27.679  26.328  1.00  0.00     0.188 C 
BRANCH   2   3
ATOM      3  O   UNL A   1      32.034  26.603  25.398  1.00  0.00    -0.376 OA
BRANCH   3   4
ATOM      4  C   UNL A   1      32.556  25.334  25.774  1.00  0.00     0.202 C 
BRANCH   4   5
ATOM      5  C   UNL A   1      32.718  24.234  24.715  1.00  0.00     0.261 C 
BRANCH   5   6
ATOM      6  O   UNL A   1      32.147  22.948  25.047  1.00  0.00    -0.462 OA
BRANCH   6   7
ATOM      7  C   UNL A   1      32.622  21.870  24.363  1.00  0.00     0.319 C 
ATOM      8  O   UNL A   1      32.242  21.582  23.231  1.00  0.00    -0.251 OA
BRANCH   7   9
ATOM      9  C   UNL A   1      33.596  20.974  25.143  1.00  0.00     0.180 C 
BRANCH   9  10
ATOM     10  C   UNL A   1      33.616  19.452  24.927  1.00  0.00    -0.027 A 
ATOM     11  C   UNL A   1      33.603  16.612  24.744  1.00  0.00     0.118 A 
ATOM     12  C   UNL A   1      32.529  17.290  25.317  1.00  0.00     0.047 A 
ATOM     13  C   UNL A   1      34.670  17.352  24.244  1.00  0.00     0.047 A 
ATOM     14  C   UNL A   1      32.531  18.689  25.405  1.00  0.00     0.009 A 
ATOM     15  C   UNL A   1      34.688  18.748  24.362  1.00  0.00     0.009 A 
BRANCH  11  16
ATOM     16  O   UNL A   1      33.505  15.248  24.737  1.00  0.00    -0.497 OA
ATOM     17  C   UNL A   1      32.604  14.675  25.678  1.00  0.00     0.278 C 
ENDBRANCH  11  16
ENDBRANCH   9  10
BRANCH   9  18
ATOM     18  C   UNL A   1      34.956  21.638  25.067  1.00  0.00     0.082 A 
ATOM     19  C   UNL A   1      35.481  22.169  23.893  1.00  0.00     0.032 A 
ATOM     20  N   UNL A   1      35.584  21.824  26.256  1.00  0.00    -0.151 NA
ATOM     21  C   UNL A   1      36.615  22.964  23.971  1.00  0.00     0.072 A 
ATOM     22  N   UNL A   1      36.677  22.620  26.338  1.00  0.00    -0.112 NA
ATOM     23  C   UNL A   1      37.147  23.183  25.217  1.00  0.00     0.230 A 
BRANCH  23  24
ATOM     24  O   UNL A   1      38.161  24.066  25.397  1.00  0.00    -0.492 OA
ATOM     25  H   UNL A   1      37.978  24.937  25.687  1.00  0.00     0.295 HD
ENDBRANCH  23  24
ENDBRANCH   9  18
ENDBRANCH   7   9
ENDBRANCH   6   7
ENDBRANCH   5   6
ENDBRANCH   4   5
ENDBRANCH   3   4
ENDBRANCH   2   3
ENDBRANCH   1   2
BRANCH   1  26
ATOM     26  O   UNL A   1      31.652  30.066  26.814  1.00  0.00    -0.376 OA
BRANCH  26  27
ATOM     27  C   UNL A   1      32.083  31.387  26.540  1.00  0.00     0.202 C 
BRANCH  27  28
ATOM     28  C   UNL A   1      33.278  31.973  27.309  1.00  0.00     0.261 C 
BRANCH  28  29
ATOM     29  O   UNL A   1      33.343  33.403  27.405  1.00  0.00    -0.460 OA
BRANCH  29  30
ATOM     30  C   UNL A   1      33.768  33.931  28.576  1.00  0.00     0.338 C 
ATOM     31  O   UNL A   1      33.193  34.769  29.251  1.00  0.00    -0.246 OA
BRANCH  30  32
ATOM     32  C   UNL A   1      34.937  33.132  29.011  1.00  0.00     0.060 A 
ATOM     33  C   UNL A   1      34.725  31.970  29.764  1.00  0.00     0.016 A 
ATOM     34  C   UNL A   1      36.230  33.497  28.624  1.00  0.00     0.016 A 
ATOM     35  C   UNL A   1      35.809  31.180  30.150  1.00  0.00     0.010 A 
ATOM     36  C   UNL A   1      37.316  32.713  29.025  1.00  0.00     0.010 A 
ATOM     37  C   UNL A   1      37.113  31.567  29.813  1.00  0.00    -0.014 A 
BRANCH  37  38
ATOM     38  C   UNL A   1      38.272  30.859  30.410  1.00  0.00     0.031 A 
ATOM     39  C   UNL A   1      38.698  31.224  31.806  1.00  0.00     0.074 A 
ATOM     40  C   UNL A   1      38.943  29.917  29.725  1.00  0.00     0.049 A 
ATOM     41  N   UNL A   1      39.681  30.748  32.524  1.00  0.00    -0.248 NA
ATOM     42  C   UNL A   1      37.911  32.271  32.479  1.00  0.00     0.031 C 
ATOM     43  C   UNL A   1      38.640  29.483  28.363  1.00  0.00     0.029 A 
ATOM     44  N   UNL A   1      40.041  29.171  30.081  1.00  0.00    -0.354 N 
ATOM     45  C   UNL A   1      39.651  31.456  33.720  1.00  0.00     0.074 A 
ATOM     46  C   UNL A   1      38.561  32.401  33.626  1.00  0.00     0.031 C 
ATOM     47  C   UNL A   1      39.549  28.566  27.986  1.00  0.00     0.029 A 
ATOM     48  C   UNL A   1      40.508  28.365  29.071  1.00  0.00     0.049 A 
ATOM     49  H   UNL A   1      40.452  29.210  30.974  1.00  0.00     0.167 HD
ATOM     50  C   UNL A   1      40.450  31.322  34.806  1.00  0.00     0.034 A 
ATOM     51  C   UNL A   1      41.598  27.574  29.020  1.00  0.00     0.034 A 
ATOM     52  C   UNL A   1      41.528  30.376  34.902  1.00  0.00     0.049 A 
ATOM     53  C   UNL A   1      42.479  27.450  30.238  1.00  0.00     0.074 A 
ATOM     54  C   UNL A   1      42.355  30.122  35.983  1.00  0.00     0.029 A 
ATOM     55  N   UNL A   1      41.947  29.542  33.877  1.00  0.00    -0.354 N 
ATOM     56  N   UNL A   1      42.356  28.022  31.412  1.00  0.00    -0.248 NA
ATOM     57  C   UNL A   1      43.629  26.539  30.134  1.00  0.00     0.031 C 
ATOM     58  C   UNL A   1      43.300  29.165  35.597  1.00  0.00     0.029 A 
ATOM     59  C   UNL A   1      43.034  28.789  34.290  1.00  0.00     0.049 A 
ATOM     60  H   UNL A   1      41.532  29.493  32.985  1.00  0.00     0.167 HD
ATOM     61  C   UNL A   1      43.392  27.521  32.193  1.00  0.00     0.074 A 
ATOM     62  C   UNL A   1      44.114  26.574  31.368  1.00  0.00     0.031 C 
ATOM     63  C   UNL A   1      43.725  27.825  33.473  1.00  0.00     0.034 A 
BRANCH  50  64
ATOM     64  C   UNL A   1      40.179  32.221  35.983  1.00  0.00     0.023 A 
ATOM     65  C   UNL A   1      40.958  33.380  36.178  1.00  0.00     0.012 A 
ATOM     66  C   UNL A   1      39.124  31.941  36.873  1.00  0.00     0.148 A 
ATOM     67  C   UNL A   1      40.714  34.227  37.258  1.00  0.00     0.002 A 
ATOM     68  C   UNL A   1      38.856  32.814  37.920  1.00  0.00     0.091 A 
ATOM     69  F   UNL A   1      38.411  30.821  36.686  1.00  0.00    -0.205 F 
ATOM     70  C   UNL A   1      39.658  33.950  38.122  1.00  0.00     0.022 A 
BRANCH  68  71
ATOM     71  S   UNL A   1      37.468  32.590  39.037  1.00  0.00     0.127 S 
ATOM     72  O   UNL A   1      36.333  32.706  38.124  1.00  0.00    -0.237 OA
ATOM     73  O   UNL A   1      37.703  31.240  39.550  1.00  0.00    -0.237 OA
ATOM     74  O   UNL A   1      37.578  33.647  40.033  1.00  0.00    -0.744 OA
ENDBRANCH  68  71
ENDBRANCH  50  64
BRANCH  51  75
ATOM     75  C   UNL A   1      41.910  26.813  27.777  1.00  0.00     0.023 A 
ATOM     76  C   UNL A   1      42.475  27.477  26.672  1.00  0.00     0.012 A 
ATOM     77  C   UNL A   1      41.654  25.431  27.690  1.00  0.00     0.148 A 
ATOM     78  C   UNL A   1      42.752  26.786  25.492  1.00  0.00     0.002 A 
ATOM     79  C   UNL A   1      41.983  24.736  26.531  1.00  0.00     0.091 A 
ATOM     80  F   UNL A   1      41.098  24.820  28.746  1.00  0.00    -0.205 F 
ATOM     81  C   UNL A   1      42.516  25.415  25.424  1.00  0.00     0.022 A 
BRANCH  79  82
ATOM     82  S   UNL A   1      41.823  22.953  26.396  1.00  0.00     0.127 S 
ATOM     83  O   UNL A   1      42.613  22.494  27.537  1.00  0.00    -0.237 OA
ATOM     84  O   UNL A   1      40.377  22.770  26.535  1.00  0.00    -0.237 OA
ATOM     85  O   UNL A   1      42.352  22.606  25.085  1.00  0.00    -0.744 OA
ENDBRANCH  79  82
ENDBRANCH  51  75
BRANCH  63  86
ATOM     86  C   UNL A   1      44.910  27.107  34.075  1.00  0.00     0.023 A 
ATOM     87  C   UNL A   1      46.200  27.664  33.969  1.00  0.00     0.012 A 
ATOM     88  C   UNL A   1      44.738  25.901  34.783  1.00  0.00     0.148 A 
ATOM     89  C   UNL A   1      47.304  27.008  34.512  1.00  0.00     0.002 A 
ATOM     90  C   UNL A   1      45.836  25.280  35.369  1.00  0.00     0.091 A 
ATOM     91  F   UNL A   1      43.507  25.374  34.864  1.00  0.00    -0.205 F 
ATOM     92  C   UNL A   1      47.122  25.823  35.220  1.00  0.00     0.022 A 
BRANCH  90  93
ATOM     93  S   UNL A   1      45.679  23.804  36.380  1.00  0.00     0.127 S 
ATOM     94  O   UNL A   1      45.214  22.821  35.404  1.00  0.00    -0.237 OA
ATOM     95  O   UNL A   1      47.052  23.598  36.845  1.00  0.00    -0.237 OA
ATOM     96  O   UNL A   1      44.731  24.139  37.434  1.00  0.00    -0.744 OA
ENDBRANCH  90  93
ENDBRANCH  63  86
ENDBRANCH  37  38
ENDBRANCH  30  32
ENDBRANCH  29  30
ENDBRANCH  28  29
ENDBRANCH  27  28
ENDBRANCH  26  27
ENDBRANCH   1  26
TORSDOF 24
ENDMDL
MODEL 3
REMARK VINA RESULT:     -10.1      1.739      3.278
REMARK SMILES COc1ccc([C@H](C(=O)OCCOCCOCCOC(=O)c2ccc(-c3c4nc(c(-c5cccc(S(=O)(=O)[O-])c5F)c5ccc([nH]5)c(-c5cccc(S(=O)(=O)[O-])c5F)c5nc(c(-c6cccc(S(=O)(=O)[O-])c6F)c6ccc3[nH]6)C=C5)C=C4)cc2)c2ccc(O)nn2)cc1
REMARK SMILES IDX 15 1 14 2 13 3 12 4 11 5 10 6 8 7 9 8 7 9 6 10 3 11 4 12
REMARK SMILES IDX 93 13 5 14 92 15 2 16 1 17 85 18 86 19 91 20 87 21 90 22
REMARK SMILES IDX 88 23 89 24 16 26 17 27 18 28 19 29 20 30 21 31 22 32 23 33
REMARK SMILES IDX 84 34 24 35 83 36 25 37 26 38 27 39 77 40 28 41 82 42 76 43
REMARK SMILES IDX 78 44 29 45 81 46 75 47 74 48 30 50 62 51 42 52 61 53 43 54
REMARK SMILES IDX 46 55 60 56 79 57 44 58 45 59 59 61 80 62 47 63 31 64 32 65
REMARK SMILES IDX 40 66 33 67 35 68 41 69 34 70 36 71 37 72 38 73 39 74 63 75
REMARK SMILES IDX 64 76 72 77 65 78 67 79 73 80 66 81 68 82 69 83 70 84 71 85
REMARK SMILES IDX 48 86 49 87 57 88 50 89 52 90 58 91 51 92 53 93 54 94 55 95
REMARK SMILES IDX 56 96
REMARK H PARENT 89 25 78 49 46 60
REMARK Flexibility Score: inf
ROOT
ATOM      1  C   UNL A   1      34.130  25.802  25.755  1.00  0.00     0.188 C 
ENDROOT
BRANCH   1   2
ATOM      2  C   UNL A   1      34.704  24.668  24.897  1.00  0.00     0.188 C 
BRANCH   2   3
ATOM      3  O   UNL A   1      36.094  24.387  25.004  1.00  0.00    -0.376 OA
BRANCH   3   4
ATOM      4  C   UNL A   1      36.570  23.539  26.043  1.00  0.00     0.202 C 
BRANCH   4   5
ATOM      5  C   UNL A   1      37.267  22.218  25.686  1.00  0.00     0.261 C 
BRANCH   5   6
ATOM      6  O   UNL A   1      36.446  21.030  25.765  1.00  0.00    -0.462 OA
BRANCH   6   7
ATOM      7  C   UNL A   1      35.326  21.006  24.991  1.00  0.00     0.319 C 
ATOM      8  O   UNL A   1      35.344  21.254  23.788  1.00  0.00    -0.251 OA
BRANCH   7   9
ATOM      9  C   UNL A   1      34.012  20.747  25.744  1.00  0.00     0.180 C 
BRANCH   9  10
ATOM     10  C   UNL A   1      32.946  21.846  25.878  1.00  0.00    -0.027 A 
ATOM     11  C   UNL A   1      30.896  23.772  26.303  1.00  0.00     0.118 A 
ATOM     12  C   UNL A   1      31.734  23.389  27.346  1.00  0.00     0.047 A 
ATOM     13  C   UNL A   1      31.094  23.212  25.045  1.00  0.00     0.047 A 
ATOM     14  C   UNL A   1      32.748  22.444  27.139  1.00  0.00     0.009 A 
ATOM     15  C   UNL A   1      32.085  22.241  24.845  1.00  0.00     0.009 A 
BRANCH  11  16
ATOM     16  O   UNL A   1      29.925  24.680  26.626  1.00  0.00    -0.497 OA
ATOM     17  C   UNL A   1      29.605  25.643  25.628  1.00  0.00     0.278 C 
ENDBRANCH  11  16
ENDBRANCH   9  10
BRANCH   9  18
ATOM     18  C   UNL A   1      33.484  19.414  25.253  1.00  0.00     0.082 A 
ATOM     19  C   UNL A   1      33.992  18.756  24.138  1.00  0.00     0.032 A 
ATOM     20  N   UNL A   1      32.572  18.812  26.060  1.00  0.00    -0.151 NA
ATOM     21  C   UNL A   1      33.612  17.442  23.909  1.00  0.00     0.072 A 
ATOM     22  N   UNL A   1      32.219  17.521  25.853  1.00  0.00    -0.112 NA
ATOM     23  C   UNL A   1      32.756  16.867  24.815  1.00  0.00     0.230 A 
BRANCH  23  24
ATOM     24  O   UNL A   1      32.456  15.546  24.749  1.00  0.00    -0.492 OA
ATOM     25  H   UNL A   1      31.701  15.260  24.275  1.00  0.00     0.295 HD
ENDBRANCH  23  24
ENDBRANCH   9  18
ENDBRANCH   7   9
ENDBRANCH   6   7
ENDBRANCH   5   6
ENDBRANCH   4   5
ENDBRANCH   3   4
ENDBRANCH   2   3
ENDBRANCH   1   2
BRANCH   1  26
ATOM     26  O   UNL A   1      34.035  27.035  25.071  1.00  0.00    -0.376 OA
BRANCH  26  27
ATOM     27  C   UNL A   1      32.745  27.563  24.811  1.00  0.00     0.202 C 
BRANCH  27  28
ATOM     28  C   UNL A   1      32.285  28.839  25.535  1.00  0.00     0.261 C 
BRANCH  28  29
ATOM     29  O   UNL A   1      33.217  29.928  25.572  1.00  0.00    -0.460 OA
BRANCH  29  30
ATOM     30  C   UNL A   1      33.096  30.818  26.584  1.00  0.00     0.338 C 
ATOM     31  O   UNL A   1      32.105  31.473  26.867  1.00  0.00    -0.246 OA
BRANCH  30  32
ATOM     32  C   UNL A   1      34.301  30.675  27.433  1.00  0.00     0.060 A 
ATOM     33  C   UNL A   1      35.129  31.787  27.631  1.00  0.00     0.016 A 
ATOM     34  C   UNL A   1      34.576  29.465  28.077  1.00  0.00     0.016 A 
ATOM     35  C   UNL A   1      36.248  31.686  28.460  1.00  0.00     0.010 A 
ATOM     36  C   UNL A   1      35.705  29.362  28.895  1.00  0.00     0.010 A 
ATOM     37  C   UNL A   1      36.561  30.463  29.068  1.00  0.00    -0.014 A 
BRANCH  37  38
ATOM     38  C   UNL A   1      37.863  30.292  29.759  1.00  0.00     0.031 A 
ATOM     39  C   UNL A   1      38.915  29.433  29.114  1.00  0.00     0.074 A 
ATOM     40  C   UNL A   1      38.106  30.881  30.943  1.00  0.00     0.049 A 
ATOM     41  N   UNL A   1      40.116  29.136  29.534  1.00  0.00    -0.248 NA
ATOM     42  C   UNL A   1      38.562  28.823  27.821  1.00  0.00     0.031 C 
ATOM     43  C   UNL A   1      37.166  31.724  31.679  1.00  0.00     0.029 A 
ATOM     44  N   UNL A   1      39.218  30.832  31.748  1.00  0.00    -0.354 N 
ATOM     45  C   UNL A   1      40.651  28.283  28.577  1.00  0.00     0.074 A 
ATOM     46  C   UNL A   1      39.640  28.100  27.560  1.00  0.00     0.031 C 
ATOM     47  C   UNL A   1      37.731  32.092  32.843  1.00  0.00     0.029 A 
ATOM     48  C   UNL A   1      39.060  31.493  32.943  1.00  0.00     0.049 A 
ATOM     49  H   UNL A   1      40.048  30.369  31.494  1.00  0.00     0.167 HD
ATOM     50  C   UNL A   1      41.879  27.713  28.539  1.00  0.00     0.034 A 
ATOM     51  C   UNL A   1      39.887  31.585  34.005  1.00  0.00     0.034 A 
ATOM     52  C   UNL A   1      42.888  27.901  29.546  1.00  0.00     0.049 A 
ATOM     53  C   UNL A   1      41.244  30.932  33.944  1.00  0.00     0.074 A 
ATOM     54  C   UNL A   1      44.184  27.416  29.567  1.00  0.00     0.029 A 
ATOM     55  N   UNL A   1      42.711  28.614  30.722  1.00  0.00    -0.354 N 
ATOM     56  N   UNL A   1      41.790  30.243  32.970  1.00  0.00    -0.248 NA
ATOM     57  C   UNL A   1      42.115  31.104  35.116  1.00  0.00     0.031 C 
ATOM     58  C   UNL A   1      44.777  27.800  30.774  1.00  0.00     0.029 A 
ATOM     59  C   UNL A   1      43.866  28.563  31.487  1.00  0.00     0.049 A 
ATOM     60  H   UNL A   1      41.886  29.086  30.976  1.00  0.00     0.167 HD
ATOM     61  C   UNL A   1      43.074  29.924  33.399  1.00  0.00     0.074 A 
ATOM     62  C   UNL A   1      43.236  30.522  34.707  1.00  0.00     0.031 C 
ATOM     63  C   UNL A   1      44.030  29.191  32.773  1.00  0.00     0.034 A 
BRANCH  50  64
ATOM     64  C   UNL A   1      42.201  26.832  27.361  1.00  0.00     0.023 A 
ATOM     65  C   UNL A   1      42.777  27.391  26.201  1.00  0.00     0.012 A 
ATOM     66  C   UNL A   1      41.973  25.443  27.417  1.00  0.00     0.148 A 
ATOM     67  C   UNL A   1      43.089  26.588  25.104  1.00  0.00     0.002 A 
ATOM     68  C   UNL A   1      42.330  24.642  26.339  1.00  0.00     0.091 A 
ATOM     69  F   UNL A   1      41.400  24.935  28.518  1.00  0.00    -0.205 F 
ATOM     70  C   UNL A   1      42.875  25.214  25.178  1.00  0.00     0.022 A 
BRANCH  68  71
ATOM     71  S   UNL A   1      42.171  22.854  26.368  1.00  0.00     0.127 S 
ATOM     72  O   UNL A   1      43.037  22.499  27.491  1.00  0.00    -0.237 OA
ATOM     73  O   UNL A   1      40.741  22.678  26.621  1.00  0.00    -0.237 OA
ATOM     74  O   UNL A   1      42.620  22.389  25.062  1.00  0.00    -0.744 OA
ENDBRANCH  68  71
ENDBRANCH  50  64
BRANCH  51  75
ATOM     75  C   UNL A   1      39.464  32.347  35.214  1.00  0.00     0.023 A 
ATOM     76  C   UNL A   1      38.625  31.739  36.167  1.00  0.00     0.012 A 
ATOM     77  C   UNL A   1      39.897  33.671  35.425  1.00  0.00     0.148 A 
ATOM     78  C   UNL A   1      38.200  32.445  37.294  1.00  0.00     0.002 A 
ATOM     79  C   UNL A   1      39.517  34.350  36.576  1.00  0.00     0.091 A 
ATOM     80  F   UNL A   1      40.680  34.238  34.496  1.00  0.00    -0.205 F 
ATOM     81  C   UNL A   1      38.654  33.745  37.504  1.00  0.00     0.022 A 
BRANCH  79  82
ATOM     82  S   UNL A   1      40.144  35.981  36.987  1.00  0.00     0.127 S 
ATOM     83  O   UNL A   1      41.586  35.750  37.011  1.00  0.00    -0.237 OA
ATOM     84  O   UNL A   1      39.668  36.779  35.857  1.00  0.00    -0.237 OA
ATOM     85  O   UNL A   1      39.541  36.327  38.267  1.00  0.00    -0.744 OA
ENDBRANCH  79  82
ENDBRANCH  51  75
BRANCH  63  86
ATOM     86  C   UNL A   1      45.351  29.014  33.483  1.00  0.00     0.023 A 
ATOM     87  C   UNL A   1      46.390  29.943  33.280  1.00  0.00     0.012 A 
ATOM     88  C   UNL A   1      45.547  27.949  34.386  1.00  0.00     0.148 A 
ATOM     89  C   UNL A   1      47.618  29.788  33.922  1.00  0.00     0.002 A 
ATOM     90  C   UNL A   1      46.755  27.831  35.064  1.00  0.00     0.091 A 
ATOM     91  F   UNL A   1      44.553  27.064  34.558  1.00  0.00    -0.205 F 
ATOM     92  C   UNL A   1      47.797  28.739  34.821  1.00  0.00     0.022 A 
BRANCH  90  93
ATOM     93  S   UNL A   1      47.038  26.570  36.311  1.00  0.00     0.127 S 
ATOM     94  O   UNL A   1      47.055  25.351  35.505  1.00  0.00    -0.237 OA
ATOM     95  O   UNL A   1      48.340  26.958  36.856  1.00  0.00    -0.237 OA
ATOM     96  O   UNL A   1      45.933  26.683  37.253  1.00  0.00    -0.744 OA
ENDBRANCH  90  93
ENDBRANCH  63  86
ENDBRANCH  37  38
ENDBRANCH  30  32
ENDBRANCH  29  30
ENDBRANCH  28  29
ENDBRANCH  27  28
ENDBRANCH  26  27
ENDBRANCH   1  26
TORSDOF 24
ENDMDL
