MODEL 1
REMARK VINA RESULT:      -7.8      0.000      0.000
REMARK SMILES CCC1C[NH+]([C@H](CCOC)C(=O)OCCOCCOCCOC(=O)c2ccc(-c3c4nc(c(-c5cccc(S(=O)(=O)[O-])c5F)c5ccc([nH]5)c(-c5cccc(S(=O)(=O)[O-])c5F)c5nc(c(-c6cccc(S(=O)(=O)[O-])c6F)c6ccc3[nH]6)C=C5)C=C4)cc2)C1
REMARK SMILES IDX 17 1 16 2 15 3 14 4 13 5 11 6 12 7 6 8 5 9 3 10 4 11 88 12
REMARK SMILES IDX 2 14 1 15 7 16 8 17 9 18 10 19 18 20 19 21 20 22 21 23 22 24
REMARK SMILES IDX 23 25 24 26 25 27 26 28 87 29 27 30 86 31 28 32 29 33 30 34
REMARK SMILES IDX 80 35 31 36 85 37 79 38 81 39 32 40 84 41 78 42 77 43 33 45
REMARK SMILES IDX 65 46 45 47 64 48 46 49 49 50 63 51 82 52 47 53 48 54 62 56
REMARK SMILES IDX 83 57 50 58 34 59 35 60 43 61 36 62 38 63 44 64 37 65 39 66
REMARK SMILES IDX 40 67 41 68 42 69 66 70 67 71 75 72 68 73 70 74 76 75 69 76
REMARK SMILES IDX 71 77 72 78 73 79 74 80 51 81 52 82 60 83 53 84 55 85 61 86
REMARK SMILES IDX 54 87 56 88 57 89 58 90 59 91
REMARK H PARENT 5 13 81 44 49 55
REMARK Flexibility Score: inf
ROOT
ATOM      1  C   UNL A   1      47.342  23.319  39.739  1.00  0.00     0.188 C 
ENDROOT
BRANCH   1   2
ATOM      2  O   UNL A   1      47.218  22.133  38.970  1.00  0.00    -0.376 OA
BRANCH   2   3
ATOM      3  C   UNL A   1      46.235  21.172  39.333  1.00  0.00     0.202 C 
BRANCH   3   4
ATOM      4  C   UNL A   1      46.587  19.983  40.251  1.00  0.00     0.261 C 
BRANCH   4   5
ATOM      5  O   UNL A   1      47.931  19.450  40.184  1.00  0.00    -0.459 OA
BRANCH   5   6
ATOM      6  C   UNL A   1      48.114  18.242  40.791  1.00  0.00     0.365 C 
ATOM      7  O   UNL A   1      49.094  17.527  40.592  1.00  0.00    -0.245 OA
BRANCH   6   8
ATOM      8  C   UNL A   1      46.940  17.770  41.690  1.00  0.00     0.297 C 
BRANCH   8   9
ATOM      9  N   UNL A   1      47.399  17.879  43.092  1.00  0.00    -0.322 N 
ATOM     10  C   UNL A   1      46.648  17.683  45.038  1.00  0.00     0.099 C 
ATOM     11  C   UNL A   1      47.114  16.705  43.926  1.00  0.00     0.272 C 
ATOM     12  C   UNL A   1      46.505  18.721  43.901  1.00  0.00     0.272 C 
ATOM     13  H   UNL A   1      48.372  18.143  42.943  1.00  0.00     0.348 HD
BRANCH  10  14
ATOM     14  C   UNL A   1      45.374  17.318  45.778  1.00  0.00     0.012 C 
ATOM     15  C   UNL A   1      45.705  16.484  47.004  1.00  0.00     0.004 C 
ENDBRANCH  10  14
ENDBRANCH   8   9
BRANCH   8  16
ATOM     16  C   UNL A   1      46.185  16.479  41.293  1.00  0.00     0.106 C 
BRANCH  16  17
ATOM     17  C   UNL A   1      45.611  16.506  39.866  1.00  0.00     0.166 C 
BRANCH  17  18
ATOM     18  O   UNL A   1      44.199  16.359  39.788  1.00  0.00    -0.384 OA
ATOM     19  C   UNL A   1      43.696  16.067  38.488  1.00  0.00     0.194 C 
ENDBRANCH  17  18
ENDBRANCH  16  17
ENDBRANCH   8  16
ENDBRANCH   6   8
ENDBRANCH   5   6
ENDBRANCH   4   5
ENDBRANCH   3   4
ENDBRANCH   2   3
ENDBRANCH   1   2
BRANCH   1  20
ATOM     20  C   UNL A   1      47.548  24.646  39.001  1.00  0.00     0.188 C 
BRANCH  20  21
ATOM     21  O   UNL A   1      48.759  24.770  38.295  1.00  0.00    -0.376 OA
BRANCH  21  22
ATOM     22  C   UNL A   1      48.768  24.522  36.901  1.00  0.00     0.202 C 
BRANCH  22  23
ATOM     23  C   UNL A   1      48.593  25.631  35.844  1.00  0.00     0.261 C 
BRANCH  23  24
ATOM     24  O   UNL A   1      48.731  26.994  36.267  1.00  0.00    -0.460 OA
BRANCH  24  25
ATOM     25  C   UNL A   1      47.674  27.559  36.897  1.00  0.00     0.338 C 
ATOM     26  O   UNL A   1      47.657  28.001  38.038  1.00  0.00    -0.246 OA
BRANCH  25  27
ATOM     27  C   UNL A   1      46.598  27.765  35.900  1.00  0.00     0.060 A 
ATOM     28  C   UNL A   1      46.763  28.768  34.935  1.00  0.00     0.016 A 
ATOM     29  C   UNL A   1      45.446  26.977  35.897  1.00  0.00     0.016 A 
ATOM     30  C   UNL A   1      45.775  28.993  33.973  1.00  0.00     0.010 A 
ATOM     31  C   UNL A   1      44.444  27.221  34.948  1.00  0.00     0.010 A 
ATOM     32  C   UNL A   1      44.596  28.241  33.990  1.00  0.00    -0.014 A 
BRANCH  32  33
ATOM     33  C   UNL A   1      43.448  28.654  33.143  1.00  0.00     0.031 A 
ATOM     34  C   UNL A   1      42.410  29.558  33.749  1.00  0.00     0.074 A 
ATOM     35  C   UNL A   1      43.315  28.246  31.868  1.00  0.00     0.049 A 
ATOM     36  N   UNL A   1      41.283  29.985  33.244  1.00  0.00    -0.248 NA
ATOM     37  C   UNL A   1      42.688  30.048  35.108  1.00  0.00     0.031 C 
ATOM     38  C   UNL A   1      44.266  27.409  31.141  1.00  0.00     0.029 A 
ATOM     39  N   UNL A   1      42.300  28.464  30.967  1.00  0.00    -0.354 N 
ATOM     40  C   UNL A   1      40.697  30.762  34.236  1.00  0.00     0.074 A 
ATOM     41  C   UNL A   1      41.596  30.750  35.370  1.00  0.00     0.031 C 
ATOM     42  C   UNL A   1      43.772  27.153  29.916  1.00  0.00     0.029 A 
ATOM     43  C   UNL A   1      42.453  27.774  29.786  1.00  0.00     0.049 A 
ATOM     44  H   UNL A   1      41.536  29.059  31.148  1.00  0.00     0.167 HD
ATOM     45  C   UNL A   1      39.517  31.424  34.211  1.00  0.00     0.034 A 
ATOM     46  C   UNL A   1      41.611  27.628  28.742  1.00  0.00     0.034 A 
ATOM     47  C   UNL A   1      38.618  31.437  33.089  1.00  0.00     0.049 A 
ATOM     48  C   UNL A   1      40.271  28.323  28.762  1.00  0.00     0.074 A 
ATOM     49  C   UNL A   1      37.410  32.099  32.964  1.00  0.00     0.029 A 
ATOM     50  N   UNL A   1      38.815  30.738  31.909  1.00  0.00    -0.354 N 
ATOM     51  N   UNL A   1      39.765  29.122  29.671  1.00  0.00    -0.248 NA
ATOM     52  C   UNL A   1      39.393  28.116  27.599  1.00  0.00     0.031 C 
ATOM     53  C   UNL A   1      36.856  31.767  31.725  1.00  0.00     0.029 A 
ATOM     54  C   UNL A   1      37.742  30.939  31.056  1.00  0.00     0.049 A 
ATOM     55  H   UNL A   1      39.600  30.181  31.706  1.00  0.00     0.167 HD
ATOM     56  C   UNL A   1      38.534  29.542  29.173  1.00  0.00     0.074 A 
ATOM     57  C   UNL A   1      38.376  28.921  27.875  1.00  0.00     0.031 C 
ATOM     58  C   UNL A   1      37.614  30.361  29.743  1.00  0.00     0.034 A 
BRANCH  45  59
ATOM     59  C   UNL A   1      39.125  32.183  35.451  1.00  0.00     0.023 A 
ATOM     60  C   UNL A   1      38.258  31.595  36.394  1.00  0.00     0.012 A 
ATOM     61  C   UNL A   1      39.640  33.471  35.692  1.00  0.00     0.148 A 
ATOM     62  C   UNL A   1      37.876  32.295  37.537  1.00  0.00     0.002 A 
ATOM     63  C   UNL A   1      39.296  34.142  36.858  1.00  0.00     0.091 A 
ATOM     64  F   UNL A   1      40.445  34.021  34.772  1.00  0.00    -0.205 F 
ATOM     65  C   UNL A   1      38.402  33.563  37.774  1.00  0.00     0.022 A 
BRANCH  63  66
ATOM     66  S   UNL A   1      39.983  35.743  37.291  1.00  0.00     0.127 S 
ATOM     67  O   UNL A   1      39.573  36.559  36.148  1.00  0.00    -0.237 OA
ATOM     68  O   UNL A   1      39.284  36.049  38.540  1.00  0.00    -0.237 OA
ATOM     69  O   UNL A   1      41.418  35.541  37.431  1.00  0.00    -0.744 OA
ENDBRANCH  63  66
ENDBRANCH  45  59
BRANCH  46  70
ATOM     70  C   UNL A   1      42.000  26.782  27.576  1.00  0.00     0.023 A 
ATOM     71  C   UNL A   1      42.602  27.379  26.451  1.00  0.00     0.012 A 
ATOM     72  C   UNL A   1      41.763  25.393  27.572  1.00  0.00     0.148 A 
ATOM     73  C   UNL A   1      42.931  26.612  25.331  1.00  0.00     0.002 A 
ATOM     74  C   UNL A   1      42.144  24.628  26.477  1.00  0.00     0.091 A 
ATOM     75  F   UNL A   1      41.171  24.848  28.644  1.00  0.00    -0.205 F 
ATOM     76  C   UNL A   1      42.713  25.238  25.347  1.00  0.00     0.022 A 
BRANCH  74  77
ATOM     77  S   UNL A   1      42.002  22.837  26.449  1.00  0.00     0.127 S 
ATOM     78  O   UNL A   1      42.586  22.512  25.149  1.00  0.00    -0.237 OA
ATOM     79  O   UNL A   1      42.817  22.458  27.603  1.00  0.00    -0.237 OA
ATOM     80  O   UNL A   1      40.582  22.551  26.589  1.00  0.00    -0.744 OA
ENDBRANCH  74  77
ENDBRANCH  46  70
BRANCH  58  81
ATOM     81  C   UNL A   1      36.369  30.690  28.955  1.00  0.00     0.023 A 
ATOM     82  C   UNL A   1      35.604  29.661  28.372  1.00  0.00     0.012 A 
ATOM     83  C   UNL A   1      35.914  32.022  28.866  1.00  0.00     0.148 A 
ATOM     84  C   UNL A   1      34.424  29.955  27.686  1.00  0.00     0.002 A 
ATOM     85  C   UNL A   1      34.711  32.301  28.228  1.00  0.00     0.091 A 
ATOM     86  F   UNL A   1      36.661  32.991  29.415  1.00  0.00    -0.205 F 
ATOM     87  C   UNL A   1      33.971  31.271  27.626  1.00  0.00     0.022 A 
BRANCH  85  88
ATOM     88  S   UNL A   1      33.998  33.951  28.188  1.00  0.00     0.127 S 
ATOM     89  O   UNL A   1      34.220  34.404  29.561  1.00  0.00    -0.237 OA
ATOM     90  O   UNL A   1      34.826  34.622  27.185  1.00  0.00    -0.237 OA
ATOM     91  O   UNL A   1      32.604  33.780  27.806  1.00  0.00    -0.744 OA
ENDBRANCH  85  88
ENDBRANCH  58  81
ENDBRANCH  32  33
ENDBRANCH  25  27
ENDBRANCH  24  25
ENDBRANCH  23  24
ENDBRANCH  22  23
ENDBRANCH  21  22
ENDBRANCH  20  21
ENDBRANCH   1  20
TORSDOF 25
ENDMDL
MODEL 2
REMARK VINA RESULT:      -7.7      8.310     12.780
REMARK SMILES CCC1C[NH+]([C@H](CCOC)C(=O)OCCOCCOCCOC(=O)c2ccc(-c3c4nc(c(-c5cccc(S(=O)(=O)[O-])c5F)c5ccc([nH]5)c(-c5cccc(S(=O)(=O)[O-])c5F)c5nc(c(-c6cccc(S(=O)(=O)[O-])c6F)c6ccc3[nH]6)C=C5)C=C4)cc2)C1
REMARK SMILES IDX 17 1 16 2 15 3 14 4 13 5 11 6 12 7 6 8 5 9 3 10 4 11 88 12
REMARK SMILES IDX 2 14 1 15 7 16 8 17 9 18 10 19 18 20 19 21 20 22 21 23 22 24
REMARK SMILES IDX 23 25 24 26 25 27 26 28 87 29 27 30 86 31 28 32 29 33 30 34
REMARK SMILES IDX 80 35 31 36 85 37 79 38 81 39 32 40 84 41 78 42 77 43 33 45
REMARK SMILES IDX 65 46 45 47 64 48 46 49 49 50 63 51 82 52 47 53 48 54 62 56
REMARK SMILES IDX 83 57 50 58 34 59 35 60 43 61 36 62 38 63 44 64 37 65 39 66
REMARK SMILES IDX 40 67 41 68 42 69 66 70 67 71 75 72 68 73 70 74 76 75 69 76
REMARK SMILES IDX 71 77 72 78 73 79 74 80 51 81 52 82 60 83 53 84 55 85 61 86
REMARK SMILES IDX 54 87 56 88 57 89 58 90 59 91
REMARK H PARENT 5 13 81 44 49 55
REMARK Flexibility Score: inf
ROOT
ATOM      1  C   UNL A   1      44.821  27.210  27.410  1.00  0.00     0.188 C 
ENDROOT
BRANCH   1   2
ATOM      2  O   UNL A   1      45.321  27.668  28.657  1.00  0.00    -0.376 OA
BRANCH   2   3
ATOM      3  C   UNL A   1      45.783  26.720  29.609  1.00  0.00     0.202 C 
BRANCH   3   4
ATOM      4  C   UNL A   1      46.933  25.750  29.270  1.00  0.00     0.261 C 
BRANCH   4   5
ATOM      5  O   UNL A   1      47.880  26.151  28.250  1.00  0.00    -0.459 OA
BRANCH   5   6
ATOM      6  C   UNL A   1      48.149  25.211  27.298  1.00  0.00     0.365 C 
ATOM      7  O   UNL A   1      49.186  24.550  27.275  1.00  0.00    -0.245 OA
BRANCH   6   8
ATOM      8  C   UNL A   1      47.093  25.096  26.166  1.00  0.00     0.297 C 
BRANCH   8   9
ATOM      9  N   UNL A   1      46.589  23.706  26.187  1.00  0.00    -0.322 N 
ATOM     10  C   UNL A   1      44.912  22.605  25.582  1.00  0.00     0.099 C 
ATOM     11  C   UNL A   1      46.169  23.183  24.879  1.00  0.00     0.272 C 
ATOM     12  C   UNL A   1      45.215  23.624  26.705  1.00  0.00     0.272 C 
ATOM     13  H   UNL A   1      47.358  23.242  26.669  1.00  0.00     0.348 HD
BRANCH  10  14
ATOM     14  C   UNL A   1      43.587  22.778  24.860  1.00  0.00     0.012 C 
ATOM     15  C   UNL A   1      42.459  22.200  25.699  1.00  0.00     0.004 C 
ENDBRANCH  10  14
ENDBRANCH   8   9
BRANCH   8  16
ATOM     16  C   UNL A   1      47.429  25.705  24.784  1.00  0.00     0.106 C 
BRANCH  16  17
ATOM     17  C   UNL A   1      47.697  27.220  24.818  1.00  0.00     0.166 C 
BRANCH  17  18
ATOM     18  O   UNL A   1      48.977  27.609  24.339  1.00  0.00    -0.384 OA
ATOM     19  C   UNL A   1      49.343  27.051  23.081  1.00  0.00     0.194 C 
ENDBRANCH  17  18
ENDBRANCH  16  17
ENDBRANCH   8  16
ENDBRANCH   6   8
ENDBRANCH   5   6
ENDBRANCH   4   5
ENDBRANCH   3   4
ENDBRANCH   2   3
ENDBRANCH   1   2
BRANCH   1  20
ATOM     20  C   UNL A   1      44.476  28.249  26.337  1.00  0.00     0.188 C 
BRANCH  20  21
ATOM     21  O   UNL A   1      44.070  27.730  25.093  1.00  0.00    -0.376 OA
BRANCH  21  22
ATOM     22  C   UNL A   1      43.201  26.613  25.066  1.00  0.00     0.202 C 
BRANCH  22  23
ATOM     23  C   UNL A   1      41.729  26.676  25.523  1.00  0.00     0.261 C 
BRANCH  23  24
ATOM     24  O   UNL A   1      41.241  25.626  26.370  1.00  0.00    -0.460 OA
BRANCH  24  25
ATOM     25  C   UNL A   1      40.102  25.865  27.061  1.00  0.00     0.338 C 
ATOM     26  O   UNL A   1      39.128  25.127  27.138  1.00  0.00    -0.246 OA
BRANCH  25  27
ATOM     27  C   UNL A   1      40.315  27.067  27.900  1.00  0.00     0.060 A 
ATOM     28  C   UNL A   1      39.649  28.250  27.556  1.00  0.00     0.016 A 
ATOM     29  C   UNL A   1      41.145  27.033  29.023  1.00  0.00     0.016 A 
ATOM     30  C   UNL A   1      39.819  29.406  28.324  1.00  0.00     0.010 A 
ATOM     31  C   UNL A   1      41.335  28.200  29.776  1.00  0.00     0.010 A 
ATOM     32  C   UNL A   1      40.686  29.397  29.421  1.00  0.00    -0.014 A 
BRANCH  32  33
ATOM     33  C   UNL A   1      41.065  30.678  30.070  1.00  0.00     0.031 A 
ATOM     34  C   UNL A   1      42.343  31.342  29.634  1.00  0.00     0.074 A 
ATOM     35  C   UNL A   1      40.306  31.252  31.021  1.00  0.00     0.049 A 
ATOM     36  N   UNL A   1      42.926  32.412  30.105  1.00  0.00    -0.248 NA
ATOM     37  C   UNL A   1      43.054  30.708  28.512  1.00  0.00     0.031 C 
ATOM     38  C   UNL A   1      39.025  30.746  31.505  1.00  0.00     0.029 A 
ATOM     39  N   UNL A   1      40.528  32.383  31.773  1.00  0.00    -0.354 N 
ATOM     40  C   UNL A   1      44.093  32.560  29.365  1.00  0.00     0.074 A 
ATOM     41  C   UNL A   1      44.130  31.473  28.410  1.00  0.00     0.031 C 
ATOM     42  C   UNL A   1      38.590  31.542  32.499  1.00  0.00     0.029 A 
ATOM     43  C   UNL A   1      39.580  32.590  32.748  1.00  0.00     0.049 A 
ATOM     44  H   UNL A   1      41.292  32.987  31.626  1.00  0.00     0.167 HD
ATOM     45  C   UNL A   1      45.049  33.512  29.467  1.00  0.00     0.034 A 
ATOM     46  C   UNL A   1      39.539  33.493  33.750  1.00  0.00     0.034 A 
ATOM     47  C   UNL A   1      45.018  34.593  30.414  1.00  0.00     0.049 A 
ATOM     48  C   UNL A   1      40.650  34.507  33.886  1.00  0.00     0.074 A 
ATOM     49  C   UNL A   1      45.932  35.619  30.576  1.00  0.00     0.029 A 
ATOM     50  N   UNL A   1      44.037  34.777  31.375  1.00  0.00    -0.354 N 
ATOM     51  N   UNL A   1      41.704  34.689  33.128  1.00  0.00    -0.248 NA
ATOM     52  C   UNL A   1      40.551  35.459  35.005  1.00  0.00     0.031 C 
ATOM     53  C   UNL A   1      45.526  36.399  31.663  1.00  0.00     0.029 A 
ATOM     54  C   UNL A   1      44.331  35.890  32.146  1.00  0.00     0.049 A 
ATOM     55  H   UNL A   1      43.247  34.202  31.493  1.00  0.00     0.167 HD
ATOM     56  C   UNL A   1      42.370  35.794  33.652  1.00  0.00     0.074 A 
ATOM     57  C   UNL A   1      41.592  36.251  34.783  1.00  0.00     0.031 C 
ATOM     58  C   UNL A   1      43.526  36.373  33.238  1.00  0.00     0.034 A 
BRANCH  45  59
ATOM     59  C   UNL A   1      46.223  33.414  28.530  1.00  0.00     0.023 A 
ATOM     60  C   UNL A   1      46.151  33.987  27.245  1.00  0.00     0.012 A 
ATOM     61  C   UNL A   1      47.409  32.775  28.938  1.00  0.00     0.148 A 
ATOM     62  C   UNL A   1      47.227  33.887  26.363  1.00  0.00     0.002 A 
ATOM     63  C   UNL A   1      48.495  32.724  28.074  1.00  0.00     0.091 A 
ATOM     64  F   UNL A   1      47.450  32.216  30.156  1.00  0.00    -0.205 F 
ATOM     65  C   UNL A   1      48.401  33.266  26.781  1.00  0.00     0.022 A 
BRANCH  63  66
ATOM     66  S   UNL A   1      50.076  32.016  28.547  1.00  0.00     0.127 S 
ATOM     67  O   UNL A   1      51.010  32.851  27.793  1.00  0.00    -0.237 OA
ATOM     68  O   UNL A   1      50.090  32.240  29.994  1.00  0.00    -0.237 OA
ATOM     69  O   UNL A   1      50.027  30.617  28.149  1.00  0.00    -0.744 OA
ENDBRANCH  63  66
ENDBRANCH  45  59
BRANCH  46  70
ATOM     70  C   UNL A   1      38.404  33.489  34.718  1.00  0.00     0.023 A 
ATOM     71  C   UNL A   1      37.232  34.214  34.424  1.00  0.00     0.012 A 
ATOM     72  C   UNL A   1      38.486  32.784  35.935  1.00  0.00     0.148 A 
ATOM     73  C   UNL A   1      36.177  34.261  35.337  1.00  0.00     0.002 A 
ATOM     74  C   UNL A   1      37.410  32.789  36.814  1.00  0.00     0.091 A 
ATOM     75  F   UNL A   1      39.617  32.117  36.205  1.00  0.00    -0.205 F 
ATOM     76  C   UNL A   1      36.260  33.541  36.525  1.00  0.00     0.022 A 
BRANCH  74  77
ATOM     77  S   UNL A   1      37.382  31.806  38.317  1.00  0.00     0.127 S 
ATOM     78  O   UNL A   1      37.405  30.445  37.786  1.00  0.00    -0.237 OA
ATOM     79  O   UNL A   1      38.618  32.233  38.973  1.00  0.00    -0.237 OA
ATOM     80  O   UNL A   1      36.162  32.187  39.016  1.00  0.00    -0.744 OA
ENDBRANCH  74  77
ENDBRANCH  46  70
BRANCH  58  81
ATOM     81  C   UNL A   1      44.007  37.603  33.968  1.00  0.00     0.023 A 
ATOM     82  C   UNL A   1      44.790  37.478  35.132  1.00  0.00     0.012 A 
ATOM     83  C   UNL A   1      43.749  38.887  33.446  1.00  0.00     0.148 A 
ATOM     84  C   UNL A   1      45.282  38.611  35.783  1.00  0.00     0.002 A 
ATOM     85  C   UNL A   1      44.287  40.008  34.069  1.00  0.00     0.091 A 
ATOM     86  F   UNL A   1      42.990  38.990  32.346  1.00  0.00    -0.205 F 
ATOM     87  C   UNL A   1      45.042  39.873  35.244  1.00  0.00     0.022 A 
BRANCH  85  88
ATOM     88  S   UNL A   1      44.114  41.665  33.392  1.00  0.00     0.127 S 
ATOM     89  O   UNL A   1      44.503  42.493  34.533  1.00  0.00    -0.237 OA
ATOM     90  O   UNL A   1      45.079  41.652  32.292  1.00  0.00    -0.237 OA
ATOM     91  O   UNL A   1      42.724  41.789  32.978  1.00  0.00    -0.744 OA
ENDBRANCH  85  88
ENDBRANCH  58  81
ENDBRANCH  32  33
ENDBRANCH  25  27
ENDBRANCH  24  25
ENDBRANCH  23  24
ENDBRANCH  22  23
ENDBRANCH  21  22
ENDBRANCH  20  21
ENDBRANCH   1  20
TORSDOF 25
ENDMDL
MODEL 3
REMARK VINA RESULT:      -7.6      9.565     19.056
REMARK SMILES CCC1C[NH+]([C@H](CCOC)C(=O)OCCOCCOCCOC(=O)c2ccc(-c3c4nc(c(-c5cccc(S(=O)(=O)[O-])c5F)c5ccc([nH]5)c(-c5cccc(S(=O)(=O)[O-])c5F)c5nc(c(-c6cccc(S(=O)(=O)[O-])c6F)c6ccc3[nH]6)C=C5)C=C4)cc2)C1
REMARK SMILES IDX 17 1 16 2 15 3 14 4 13 5 11 6 12 7 6 8 5 9 3 10 4 11 88 12
REMARK SMILES IDX 2 14 1 15 7 16 8 17 9 18 10 19 18 20 19 21 20 22 21 23 22 24
REMARK SMILES IDX 23 25 24 26 25 27 26 28 87 29 27 30 86 31 28 32 29 33 30 34
REMARK SMILES IDX 80 35 31 36 85 37 79 38 81 39 32 40 84 41 78 42 77 43 33 45
REMARK SMILES IDX 65 46 45 47 64 48 46 49 49 50 63 51 82 52 47 53 48 54 62 56
REMARK SMILES IDX 83 57 50 58 34 59 35 60 43 61 36 62 38 63 44 64 37 65 39 66
REMARK SMILES IDX 40 67 41 68 42 69 66 70 67 71 75 72 68 73 70 74 76 75 69 76
REMARK SMILES IDX 71 77 72 78 73 79 74 80 51 81 52 82 60 83 53 84 55 85 61 86
REMARK SMILES IDX 54 87 56 88 57 89 58 90 59 91
REMARK H PARENT 5 13 81 44 49 55
REMARK Flexibility Score: inf
ROOT
ATOM      1  C   UNL A   1      43.143  40.937  26.006  1.00  0.00     0.188 C 
ENDROOT
BRANCH   1   2
ATOM      2  O   UNL A   1      44.368  40.258  25.774  1.00  0.00    -0.376 OA
BRANCH   2   3
ATOM      3  C   UNL A   1      45.476  40.984  25.259  1.00  0.00     0.202 C 
BRANCH   3   4
ATOM      4  C   UNL A   1      45.481  42.526  25.253  1.00  0.00     0.261 C 
BRANCH   4   5
ATOM      5  O   UNL A   1      44.701  43.203  24.238  1.00  0.00    -0.459 OA
BRANCH   5   6
ATOM      6  C   UNL A   1      45.042  42.916  22.948  1.00  0.00     0.365 C 
ATOM      7  O   UNL A   1      45.745  41.959  22.632  1.00  0.00    -0.245 OA
BRANCH   6   8
ATOM      8  C   UNL A   1      44.562  43.948  21.893  1.00  0.00     0.297 C 
BRANCH   8   9
ATOM      9  N   UNL A   1      43.772  43.204  20.889  1.00  0.00    -0.322 N 
ATOM     10  C   UNL A   1      42.129  43.485  19.620  1.00  0.00     0.099 C 
ATOM     11  C   UNL A   1      43.630  43.880  19.592  1.00  0.00     0.272 C 
ATOM     12  C   UNL A   1      42.326  43.298  21.142  1.00  0.00     0.272 C 
ATOM     13  H   UNL A   1      44.249  42.304  20.916  1.00  0.00     0.348 HD
BRANCH  10  14
ATOM     14  C   UNL A   1      41.134  44.552  19.198  1.00  0.00     0.012 C 
ATOM     15  C   UNL A   1      40.428  44.129  17.921  1.00  0.00     0.004 C 
ENDBRANCH  10  14
ENDBRANCH   8   9
BRANCH   8  16
ATOM     16  C   UNL A   1      45.581  44.985  21.363  1.00  0.00     0.106 C 
BRANCH  16  17
ATOM     17  C   UNL A   1      47.035  44.694  21.771  1.00  0.00     0.166 C 
BRANCH  17  18
ATOM     18  O   UNL A   1      47.601  45.635  22.674  1.00  0.00    -0.384 OA
ATOM     19  C   UNL A   1      47.657  45.206  24.031  1.00  0.00     0.194 C 
ENDBRANCH  17  18
ENDBRANCH  16  17
ENDBRANCH   8  16
ENDBRANCH   6   8
ENDBRANCH   5   6
ENDBRANCH   4   5
ENDBRANCH   3   4
ENDBRANCH   2   3
ENDBRANCH   1   2
BRANCH   1  20
ATOM     20  C   UNL A   1      41.973  40.145  26.600  1.00  0.00     0.188 C 
BRANCH  20  21
ATOM     21  O   UNL A   1      41.588  40.512  27.903  1.00  0.00    -0.376 OA
BRANCH  21  22
ATOM     22  C   UNL A   1      42.151  39.823  29.004  1.00  0.00     0.202 C 
BRANCH  22  23
ATOM     23  C   UNL A   1      43.453  39.002  28.912  1.00  0.00     0.261 C 
BRANCH  23  24
ATOM     24  O   UNL A   1      43.765  38.109  29.990  1.00  0.00    -0.460 OA
BRANCH  24  25
ATOM     25  C   UNL A   1      44.516  38.599  31.004  1.00  0.00     0.338 C 
ATOM     26  O   UNL A   1      45.313  39.526  30.939  1.00  0.00    -0.246 OA
BRANCH  25  27
ATOM     27  C   UNL A   1      44.049  37.980  32.266  1.00  0.00     0.060 A 
ATOM     28  C   UNL A   1      44.319  36.623  32.486  1.00  0.00     0.016 A 
ATOM     29  C   UNL A   1      43.368  38.721  33.233  1.00  0.00     0.016 A 
ATOM     30  C   UNL A   1      43.900  36.000  33.664  1.00  0.00     0.010 A 
ATOM     31  C   UNL A   1      42.925  38.089  34.404  1.00  0.00     0.010 A 
ATOM     32  C   UNL A   1      43.175  36.721  34.618  1.00  0.00    -0.014 A 
BRANCH  32  33
ATOM     33  C   UNL A   1      42.510  36.002  35.735  1.00  0.00     0.031 A 
ATOM     34  C   UNL A   1      41.325  35.134  35.412  1.00  0.00     0.074 A 
ATOM     35  C   UNL A   1      42.934  36.106  37.007  1.00  0.00     0.049 A 
ATOM     36  N   UNL A   1      40.531  34.478  36.216  1.00  0.00    -0.248 NA
ATOM     37  C   UNL A   1      40.997  34.987  33.985  1.00  0.00     0.031 C 
ATOM     38  C   UNL A   1      44.094  36.871  37.456  1.00  0.00     0.029 A 
ATOM     39  N   UNL A   1      42.409  35.579  38.164  1.00  0.00    -0.354 N 
ATOM     40  C   UNL A   1      39.585  33.871  35.399  1.00  0.00     0.074 A 
ATOM     41  C   UNL A   1      39.908  34.234  34.035  1.00  0.00     0.031 C 
ATOM     42  C   UNL A   1      44.172  36.796  38.797  1.00  0.00     0.029 A 
ATOM     43  C   UNL A   1      43.047  36.010  39.305  1.00  0.00     0.049 A 
ATOM     44  H   UNL A   1      41.650  34.951  38.176  1.00  0.00     0.167 HD
ATOM     45  C   UNL A   1      38.540  33.084  35.746  1.00  0.00     0.034 A 
ATOM     46  C   UNL A   1      42.735  35.826  40.604  1.00  0.00     0.034 A 
ATOM     47  C   UNL A   1      38.213  32.723  37.099  1.00  0.00     0.049 A 
ATOM     48  C   UNL A   1      41.526  34.998  40.971  1.00  0.00     0.074 A 
ATOM     49  C   UNL A   1      37.186  31.911  37.546  1.00  0.00     0.029 A 
ATOM     50  N   UNL A   1      38.889  33.168  38.224  1.00  0.00    -0.354 N 
ATOM     51  N   UNL A   1      40.689  34.361  40.188  1.00  0.00    -0.248 NA
ATOM     52  C   UNL A   1      41.233  34.843  42.405  1.00  0.00     0.031 C 
ATOM     53  C   UNL A   1      37.215  31.899  38.943  1.00  0.00     0.029 A 
ATOM     54  C   UNL A   1      38.292  32.661  39.366  1.00  0.00     0.049 A 
ATOM     55  H   UNL A   1      39.678  33.756  38.212  1.00  0.00     0.167 HD
ATOM     56  C   UNL A   1      39.799  33.701  41.032  1.00  0.00     0.074 A 
ATOM     57  C   UNL A   1      40.208  34.002  42.387  1.00  0.00     0.031 C 
ATOM     58  C   UNL A   1      38.734  32.922  40.712  1.00  0.00     0.034 A 
BRANCH  45  59
ATOM     59  C   UNL A   1      37.663  32.572  34.636  1.00  0.00     0.023 A 
ATOM     60  C   UNL A   1      36.573  33.342  34.184  1.00  0.00     0.012 A 
ATOM     61  C   UNL A   1      37.938  31.334  34.023  1.00  0.00     0.148 A 
ATOM     62  C   UNL A   1      35.744  32.869  33.168  1.00  0.00     0.002 A 
ATOM     63  C   UNL A   1      37.139  30.893  32.977  1.00  0.00     0.091 A 
ATOM     64  F   UNL A   1      38.965  30.606  34.483  1.00  0.00    -0.205 F 
ATOM     65  C   UNL A   1      36.033  31.651  32.557  1.00  0.00     0.022 A 
BRANCH  63  66
ATOM     66  S   UNL A   1      37.477  29.377  32.075  1.00  0.00     0.127 S 
ATOM     67  O   UNL A   1      38.820  29.636  31.557  1.00  0.00    -0.237 OA
ATOM     68  O   UNL A   1      37.417  28.370  33.135  1.00  0.00    -0.237 OA
ATOM     69  O   UNL A   1      36.430  29.265  31.069  1.00  0.00    -0.744 OA
ENDBRANCH  63  66
ENDBRANCH  45  59
BRANCH  46  70
ATOM     70  C   UNL A   1      43.576  36.439  41.673  1.00  0.00     0.023 A 
ATOM     71  C   UNL A   1      44.668  35.720  42.200  1.00  0.00     0.012 A 
ATOM     72  C   UNL A   1      43.292  37.723  42.179  1.00  0.00     0.148 A 
ATOM     73  C   UNL A   1      45.440  36.257  43.233  1.00  0.00     0.002 A 
ATOM     74  C   UNL A   1      44.099  38.273  43.167  1.00  0.00     0.091 A 
ATOM     75  F   UNL A   1      42.237  38.381  41.678  1.00  0.00    -0.205 F 
ATOM     76  C   UNL A   1      45.163  37.535  43.708  1.00  0.00     0.022 A 
BRANCH  74  77
ATOM     77  S   UNL A   1      43.886  39.954  43.766  1.00  0.00     0.127 S 
ATOM     78  O   UNL A   1      44.815  39.988  44.894  1.00  0.00    -0.237 OA
ATOM     79  O   UNL A   1      44.301  40.737  42.602  1.00  0.00    -0.237 OA
ATOM     80  O   UNL A   1      42.476  40.076  44.109  1.00  0.00    -0.744 OA
ENDBRANCH  74  77
ENDBRANCH  46  70
BRANCH  58  81
ATOM     81  C   UNL A   1      37.955  32.285  41.837  1.00  0.00     0.023 A 
ATOM     82  C   UNL A   1      38.395  31.076  42.410  1.00  0.00     0.012 A 
ATOM     83  C   UNL A   1      36.830  32.936  42.383  1.00  0.00     0.148 A 
ATOM     84  C   UNL A   1      37.709  30.508  43.485  1.00  0.00     0.002 A 
ATOM     85  C   UNL A   1      36.183  32.393  43.487  1.00  0.00     0.091 A 
ATOM     86  F   UNL A   1      36.416  34.079  41.817  1.00  0.00    -0.205 F 
ATOM     87  C   UNL A   1      36.612  31.172  44.031  1.00  0.00     0.022 A 
BRANCH  85  88
ATOM     88  S   UNL A   1      34.826  33.227  44.319  1.00  0.00     0.127 S 
ATOM     89  O   UNL A   1      33.703  32.924  43.433  1.00  0.00    -0.237 OA
ATOM     90  O   UNL A   1      34.785  32.540  45.611  1.00  0.00    -0.237 OA
ATOM     91  O   UNL A   1      35.200  34.632  44.392  1.00  0.00    -0.744 OA
ENDBRANCH  85  88
ENDBRANCH  58  81
ENDBRANCH  32  33
ENDBRANCH  25  27
ENDBRANCH  24  25
ENDBRANCH  23  24
ENDBRANCH  22  23
ENDBRANCH  21  22
ENDBRANCH  20  21
ENDBRANCH   1  20
TORSDOF 25
ENDMDL
