MODEL 1
REMARK VINA RESULT:      -8.6      0.000      0.000
REMARK SMILES C[C@]1(CNC(=O)N2CCOC[C@H]2C(=O)OCCOCCOCCOC(=O)c2ccc(-c3c4nc(c(-c5cccc(S(=O)(=O)[O-])c5F)c5ccc([nH]5)c(-c5cccc(S(=O)(=O)[O-])c5F)c5nc(c(-c6cccc(S(=O)(=O)[O-])c6F)c6ccc3[nH]6)C=C5)C=C4)cc2)CCCO1
REMARK SMILES IDX 19 1 18 2 17 3 16 4 15 5 13 6 14 7 12 8 7 9 8 10 9 11 11 12
REMARK SMILES IDX 10 13 5 14 4 15 6 17 3 18 2 19 1 20 90 21 93 22 91 23 92 24
REMARK SMILES IDX 20 25 21 26 22 27 23 28 24 29 25 30 26 31 27 32 28 33 89 34
REMARK SMILES IDX 29 35 88 36 30 37 31 38 32 39 82 40 33 41 87 42 81 43 83 44
REMARK SMILES IDX 34 45 86 46 80 47 79 48 35 50 67 51 47 52 66 53 48 54 51 55
REMARK SMILES IDX 65 56 84 57 49 58 50 59 64 61 85 62 52 63 36 64 37 65 45 66
REMARK SMILES IDX 38 67 40 68 46 69 39 70 41 71 42 72 43 73 44 74 68 75 69 76
REMARK SMILES IDX 77 77 70 78 72 79 78 80 71 81 73 82 74 83 75 84 76 85 53 86
REMARK SMILES IDX 54 87 62 88 55 89 57 90 63 91 56 92 58 93 59 94 60 95 61 96
REMARK H PARENT 4 16 83 49 51 60
REMARK Flexibility Score: inf
ROOT
ATOM      1  C   UNL A   1      39.235  23.784  27.072  1.00  0.00     0.188 C 
ENDROOT
BRANCH   1   2
ATOM      2  O   UNL A   1      38.168  23.672  26.135  1.00  0.00    -0.376 OA
BRANCH   2   3
ATOM      3  C   UNL A   1      37.799  22.382  25.660  1.00  0.00     0.202 C 
BRANCH   3   4
ATOM      4  C   UNL A   1      36.304  22.046  25.540  1.00  0.00     0.261 C 
BRANCH   4   5
ATOM      5  O   UNL A   1      35.586  22.060  26.791  1.00  0.00    -0.462 OA
BRANCH   5   6
ATOM      6  C   UNL A   1      34.322  22.562  26.773  1.00  0.00     0.331 C 
ATOM      7  O   UNL A   1      33.660  22.762  27.787  1.00  0.00    -0.250 OA
BRANCH   6   8
ATOM      8  C   UNL A   1      33.741  22.826  25.358  1.00  0.00     0.222 C 
ATOM      9  N   UNL A   1      32.386  22.383  24.923  1.00  0.00    -0.306 N 
ATOM     10  C   UNL A   1      31.308  23.008  25.672  1.00  0.00     0.151 C 
ATOM     11  C   UNL A   1      31.418  24.527  25.529  1.00  0.00     0.182 C 
ATOM     12  C   UNL A   1      33.779  24.350  25.160  1.00  0.00     0.197 C 
ATOM     13  O   UNL A   1      32.724  25.004  25.903  1.00  0.00    -0.377 OA
BRANCH   9  14
ATOM     14  C   UNL A   1      32.289  21.561  23.840  1.00  0.00     0.318 C 
ATOM     15  N   UNL A   1      32.369  20.220  23.932  1.00  0.00    -0.335 N 
ATOM     16  H   UNL A   1      32.563  19.806  23.060  1.00  0.00     0.165 HD
ATOM     17  O   UNL A   1      32.083  22.016  22.711  1.00  0.00    -0.249 OA
BRANCH  15  18
ATOM     18  C   UNL A   1      32.243  19.222  24.991  1.00  0.00     0.152 C 
BRANCH  18  19
ATOM     19  C   UNL A   1      32.871  17.855  24.627  1.00  0.00     0.083 C 
ATOM     20  C   UNL A   1      32.073  16.739  25.319  1.00  0.00     0.044 C 
ATOM     21  C   UNL A   1      32.960  17.620  23.119  1.00  0.00     0.039 C 
ATOM     22  O   UNL A   1      34.223  17.771  25.124  1.00  0.00    -0.373 OA
ATOM     23  C   UNL A   1      34.157  16.709  22.998  1.00  0.00     0.031 C 
ATOM     24  C   UNL A   1      35.065  17.236  24.089  1.00  0.00     0.161 C 
ENDBRANCH  18  19
ENDBRANCH  15  18
ENDBRANCH   9  14
ENDBRANCH   6   8
ENDBRANCH   5   6
ENDBRANCH   4   5
ENDBRANCH   3   4
ENDBRANCH   2   3
ENDBRANCH   1   2
BRANCH   1  25
ATOM     25  C   UNL A   1      40.294  22.668  27.112  1.00  0.00     0.188 C 
BRANCH  25  26
ATOM     26  O   UNL A   1      41.296  22.772  26.120  1.00  0.00    -0.376 OA
BRANCH  26  27
ATOM     27  C   UNL A   1      42.135  21.647  25.931  1.00  0.00     0.202 C 
BRANCH  27  28
ATOM     28  C   UNL A   1      43.563  21.686  26.502  1.00  0.00     0.261 C 
BRANCH  28  29
ATOM     29  O   UNL A   1      44.057  22.970  26.919  1.00  0.00    -0.460 OA
BRANCH  29  30
ATOM     30  C   UNL A   1      45.360  23.236  26.683  1.00  0.00     0.338 C 
ATOM     31  O   UNL A   1      46.170  22.481  26.157  1.00  0.00    -0.246 OA
BRANCH  30  32
ATOM     32  C   UNL A   1      45.606  24.667  26.967  1.00  0.00     0.060 A 
ATOM     33  C   UNL A   1      45.949  25.051  28.272  1.00  0.00     0.016 A 
ATOM     34  C   UNL A   1      45.490  25.629  25.960  1.00  0.00     0.016 A 
ATOM     35  C   UNL A   1      46.109  26.402  28.587  1.00  0.00     0.010 A 
ATOM     36  C   UNL A   1      45.634  26.985  26.282  1.00  0.00     0.010 A 
ATOM     37  C   UNL A   1      45.894  27.381  27.608  1.00  0.00    -0.014 A 
BRANCH  37  38
ATOM     38  C   UNL A   1      45.712  28.797  28.023  1.00  0.00     0.031 A 
ATOM     39  C   UNL A   1      44.351  29.228  28.511  1.00  0.00     0.074 A 
ATOM     40  C   UNL A   1      46.728  29.680  28.010  1.00  0.00     0.049 A 
ATOM     41  N   UNL A   1      43.942  30.404  28.911  1.00  0.00    -0.248 NA
ATOM     42  C   UNL A   1      43.308  28.187  28.554  1.00  0.00     0.031 C 
ATOM     43  C   UNL A   1      48.093  29.395  27.574  1.00  0.00     0.029 A 
ATOM     44  N   UNL A   1      46.757  31.008  28.361  1.00  0.00    -0.354 N 
ATOM     45  C   UNL A   1      42.599  30.251  29.233  1.00  0.00     0.074 A 
ATOM     46  C   UNL A   1      42.250  28.875  28.955  1.00  0.00     0.031 C 
ATOM     47  C   UNL A   1      48.819  30.524  27.650  1.00  0.00     0.029 A 
ATOM     48  C   UNL A   1      47.967  31.616  28.122  1.00  0.00     0.049 A 
ATOM     49  H   UNL A   1      45.983  31.481  28.746  1.00  0.00     0.167 HD
ATOM     50  C   UNL A   1      41.735  31.161  29.742  1.00  0.00     0.034 A 
ATOM     51  C   UNL A   1      48.336  32.907  28.247  1.00  0.00     0.034 A 
ATOM     52  C   UNL A   1      42.080  32.524  30.039  1.00  0.00     0.049 A 
ATOM     53  C   UNL A   1      47.344  33.912  28.783  1.00  0.00     0.074 A 
ATOM     54  C   UNL A   1      41.280  33.516  30.575  1.00  0.00     0.029 A 
ATOM     55  N   UNL A   1      43.327  33.089  29.822  1.00  0.00    -0.354 N 
ATOM     56  N   UNL A   1      46.107  33.727  29.178  1.00  0.00    -0.248 NA
ATOM     57  C   UNL A   1      47.813  35.299  28.926  1.00  0.00     0.031 C 
ATOM     58  C   UNL A   1      42.035  34.690  30.659  1.00  0.00     0.029 A 
ATOM     59  C   UNL A   1      43.316  34.418  30.208  1.00  0.00     0.049 A 
ATOM     60  H   UNL A   1      44.105  32.616  29.447  1.00  0.00     0.167 HD
ATOM     61  C   UNL A   1      45.666  34.960  29.647  1.00  0.00     0.074 A 
ATOM     62  C   UNL A   1      46.776  35.879  29.516  1.00  0.00     0.031 C 
ATOM     63  C   UNL A   1      44.446  35.308  30.127  1.00  0.00     0.034 A 
BRANCH  50  64
ATOM     64  C   UNL A   1      40.334  30.699  30.048  1.00  0.00     0.023 A 
ATOM     65  C   UNL A   1      39.443  30.433  28.987  1.00  0.00     0.012 A 
ATOM     66  C   UNL A   1      39.919  30.467  31.374  1.00  0.00     0.148 A 
ATOM     67  C   UNL A   1      38.153  29.973  29.242  1.00  0.00     0.002 A 
ATOM     68  C   UNL A   1      38.647  29.964  31.617  1.00  0.00     0.091 A 
ATOM     69  F   UNL A   1      40.775  30.742  32.368  1.00  0.00    -0.205 F 
ATOM     70  C   UNL A   1      37.759  29.728  30.555  1.00  0.00     0.022 A 
BRANCH  68  71
ATOM     71  S   UNL A   1      38.067  29.540  33.264  1.00  0.00     0.127 S 
ATOM     72  O   UNL A   1      39.312  29.154  33.925  1.00  0.00    -0.237 OA
ATOM     73  O   UNL A   1      37.501  30.809  33.723  1.00  0.00    -0.237 OA
ATOM     74  O   UNL A   1      37.099  28.467  33.088  1.00  0.00    -0.744 OA
ENDBRANCH  68  71
ENDBRANCH  50  64
BRANCH  51  75
ATOM     75  C   UNL A   1      49.712  33.340  27.864  1.00  0.00     0.023 A 
ATOM     76  C   UNL A   1      50.744  33.339  28.822  1.00  0.00     0.012 A 
ATOM     77  C   UNL A   1      49.993  33.783  26.556  1.00  0.00     0.148 A 
ATOM     78  C   UNL A   1      52.016  33.814  28.499  1.00  0.00     0.002 A 
ATOM     79  C   UNL A   1      51.277  34.199  26.224  1.00  0.00     0.091 A 
ATOM     80  F   UNL A   1      48.995  33.798  25.661  1.00  0.00    -0.205 F 
ATOM     81  C   UNL A   1      52.285  34.236  27.199  1.00  0.00     0.022 A 
BRANCH  79  82
ATOM     82  S   UNL A   1      51.740  34.644  24.547  1.00  0.00     0.127 S 
ATOM     83  O   UNL A   1      51.559  33.378  23.841  1.00  0.00    -0.237 OA
ATOM     84  O   UNL A   1      50.752  35.675  24.225  1.00  0.00    -0.237 OA
ATOM     85  O   UNL A   1      53.110  35.131  24.634  1.00  0.00    -0.744 OA
ENDBRANCH  79  82
ENDBRANCH  51  75
BRANCH  63  86
ATOM     86  C   UNL A   1      44.251  36.731  30.590  1.00  0.00     0.023 A 
ATOM     87  C   UNL A   1      44.586  37.095  31.908  1.00  0.00     0.012 A 
ATOM     88  C   UNL A   1      43.796  37.721  29.694  1.00  0.00     0.148 A 
ATOM     89  C   UNL A   1      44.432  38.412  32.342  1.00  0.00     0.002 A 
ATOM     90  C   UNL A   1      43.696  39.041  30.118  1.00  0.00     0.091 A 
ATOM     91  F   UNL A   1      43.470  37.354  28.447  1.00  0.00    -0.205 F 
ATOM     92  C   UNL A   1      43.998  39.385  31.445  1.00  0.00     0.022 A 
BRANCH  90  93
ATOM     93  S   UNL A   1      43.240  40.380  29.010  1.00  0.00     0.127 S 
ATOM     94  O   UNL A   1      41.872  40.015  28.649  1.00  0.00    -0.237 OA
ATOM     95  O   UNL A   1      43.350  41.552  29.879  1.00  0.00    -0.237 OA
ATOM     96  O   UNL A   1      44.204  40.344  27.917  1.00  0.00    -0.744 OA
ENDBRANCH  90  93
ENDBRANCH  63  86
ENDBRANCH  37  38
ENDBRANCH  30  32
ENDBRANCH  29  30
ENDBRANCH  28  29
ENDBRANCH  27  28
ENDBRANCH  26  27
ENDBRANCH  25  26
ENDBRANCH   1  25
TORSDOF 23
ENDMDL
MODEL 2
REMARK VINA RESULT:      -8.4      6.215     12.645
REMARK SMILES C[C@]1(CNC(=O)N2CCOC[C@H]2C(=O)OCCOCCOCCOC(=O)c2ccc(-c3c4nc(c(-c5cccc(S(=O)(=O)[O-])c5F)c5ccc([nH]5)c(-c5cccc(S(=O)(=O)[O-])c5F)c5nc(c(-c6cccc(S(=O)(=O)[O-])c6F)c6ccc3[nH]6)C=C5)C=C4)cc2)CCCO1
REMARK SMILES IDX 19 1 18 2 17 3 16 4 15 5 13 6 14 7 12 8 7 9 8 10 9 11 11 12
REMARK SMILES IDX 10 13 5 14 4 15 6 17 3 18 2 19 1 20 90 21 93 22 91 23 92 24
REMARK SMILES IDX 20 25 21 26 22 27 23 28 24 29 25 30 26 31 27 32 28 33 89 34
REMARK SMILES IDX 29 35 88 36 30 37 31 38 32 39 82 40 33 41 87 42 81 43 83 44
REMARK SMILES IDX 34 45 86 46 80 47 79 48 35 50 67 51 47 52 66 53 48 54 51 55
REMARK SMILES IDX 65 56 84 57 49 58 50 59 64 61 85 62 52 63 36 64 37 65 45 66
REMARK SMILES IDX 38 67 40 68 46 69 39 70 41 71 42 72 43 73 44 74 68 75 69 76
REMARK SMILES IDX 77 77 70 78 72 79 78 80 71 81 73 82 74 83 75 84 76 85 53 86
REMARK SMILES IDX 54 87 62 88 55 89 57 90 63 91 56 92 58 93 59 94 60 95 61 96
REMARK H PARENT 4 16 83 49 51 60
REMARK Flexibility Score: inf
ROOT
ATOM      1  C   UNL A   1      39.399  34.789  38.425  1.00  0.00     0.188 C 
ENDROOT
BRANCH   1   2
ATOM      2  O   UNL A   1      38.310  34.047  38.968  1.00  0.00    -0.376 OA
BRANCH   2   3
ATOM      3  C   UNL A   1      37.759  32.977  38.209  1.00  0.00     0.202 C 
BRANCH   3   4
ATOM      4  C   UNL A   1      38.086  32.899  36.709  1.00  0.00     0.261 C 
BRANCH   4   5
ATOM      5  O   UNL A   1      37.447  31.807  36.015  1.00  0.00    -0.462 OA
BRANCH   5   6
ATOM      6  C   UNL A   1      38.229  30.745  35.681  1.00  0.00     0.331 C 
ATOM      7  O   UNL A   1      38.925  30.138  36.491  1.00  0.00    -0.250 OA
BRANCH   6   8
ATOM      8  C   UNL A   1      38.222  30.373  34.175  1.00  0.00     0.222 C 
ATOM      9  N   UNL A   1      37.789  31.303  33.093  1.00  0.00    -0.306 N 
ATOM     10  C   UNL A   1      38.631  32.484  32.977  1.00  0.00     0.151 C 
ATOM     11  C   UNL A   1      40.073  32.043  32.722  1.00  0.00     0.182 C 
ATOM     12  C   UNL A   1      39.663  29.960  33.833  1.00  0.00     0.197 C 
ATOM     13  O   UNL A   1      40.530  31.111  33.721  1.00  0.00    -0.377 OA
BRANCH   9  14
ATOM     14  C   UNL A   1      36.763  30.921  32.281  1.00  0.00     0.318 C 
ATOM     15  N   UNL A   1      36.850  29.876  31.437  1.00  0.00    -0.335 N 
ATOM     16  H   UNL A   1      36.154  29.911  30.741  1.00  0.00     0.165 HD
ATOM     17  O   UNL A   1      35.677  31.506  32.311  1.00  0.00    -0.249 OA
BRANCH  15  18
ATOM     18  C   UNL A   1      37.709  28.704  31.287  1.00  0.00     0.152 C 
BRANCH  18  19
ATOM     19  C   UNL A   1      38.774  28.860  30.176  1.00  0.00     0.083 C 
ATOM     20  C   UNL A   1      40.051  28.119  30.600  1.00  0.00     0.044 C 
ATOM     21  C   UNL A   1      38.285  28.384  28.808  1.00  0.00     0.039 C 
ATOM     22  O   UNL A   1      39.132  30.248  30.009  1.00  0.00    -0.373 OA
ATOM     23  C   UNL A   1      39.081  29.242  27.855  1.00  0.00     0.031 C 
ATOM     24  C   UNL A   1      39.158  30.555  28.605  1.00  0.00     0.161 C 
ENDBRANCH  18  19
ENDBRANCH  15  18
ENDBRANCH   9  14
ENDBRANCH   6   8
ENDBRANCH   5   6
ENDBRANCH   4   5
ENDBRANCH   3   4
ENDBRANCH   2   3
ENDBRANCH   1   2
BRANCH   1  25
ATOM     25  C   UNL A   1      39.499  36.289  38.756  1.00  0.00     0.188 C 
BRANCH  25  26
ATOM     26  O   UNL A   1      40.462  36.612  39.739  1.00  0.00    -0.376 OA
BRANCH  26  27
ATOM     27  C   UNL A   1      40.837  37.973  39.850  1.00  0.00     0.202 C 
BRANCH  27  28
ATOM     28  C   UNL A   1      42.280  38.372  39.494  1.00  0.00     0.261 C 
BRANCH  28  29
ATOM     29  O   UNL A   1      43.098  37.361  38.882  1.00  0.00    -0.460 OA
BRANCH  29  30
ATOM     30  C   UNL A   1      43.558  37.609  37.637  1.00  0.00     0.338 C 
ATOM     31  O   UNL A   1      44.093  38.645  37.254  1.00  0.00    -0.246 OA
BRANCH  30  32
ATOM     32  C   UNL A   1      43.507  36.352  36.857  1.00  0.00     0.060 A 
ATOM     33  C   UNL A   1      44.706  35.684  36.568  1.00  0.00     0.016 A 
ATOM     34  C   UNL A   1      42.290  35.838  36.403  1.00  0.00     0.016 A 
ATOM     35  C   UNL A   1      44.696  34.540  35.767  1.00  0.00     0.010 A 
ATOM     36  C   UNL A   1      42.283  34.700  35.587  1.00  0.00     0.010 A 
ATOM     37  C   UNL A   1      43.491  34.076  35.222  1.00  0.00    -0.014 A 
BRANCH  37  38
ATOM     38  C   UNL A   1      43.529  33.097  34.103  1.00  0.00     0.031 A 
ATOM     39  C   UNL A   1      43.557  33.629  32.692  1.00  0.00     0.074 A 
ATOM     40  C   UNL A   1      43.578  31.770  34.318  1.00  0.00     0.049 A 
ATOM     41  N   UNL A   1      43.576  32.980  31.556  1.00  0.00    -0.248 NA
ATOM     42  C   UNL A   1      43.564  35.096  32.542  1.00  0.00     0.031 C 
ATOM     43  C   UNL A   1      43.569  31.122  35.628  1.00  0.00     0.029 A 
ATOM     44  N   UNL A   1      43.627  30.725  33.427  1.00  0.00    -0.354 N 
ATOM     45  C   UNL A   1      43.578  33.953  30.563  1.00  0.00     0.074 A 
ATOM     46  C   UNL A   1      43.528  35.237  31.225  1.00  0.00     0.031 C 
ATOM     47  C   UNL A   1      43.575  29.788  35.455  1.00  0.00     0.029 A 
ATOM     48  C   UNL A   1      43.571  29.487  34.024  1.00  0.00     0.049 A 
ATOM     49  H   UNL A   1      43.694  30.851  32.452  1.00  0.00     0.167 HD
ATOM     50  C   UNL A   1      43.645  33.798  29.219  1.00  0.00     0.034 A 
ATOM     51  C   UNL A   1      43.499  28.257  33.476  1.00  0.00     0.034 A 
ATOM     52  C   UNL A   1      43.714  32.525  28.555  1.00  0.00     0.049 A 
ATOM     53  C   UNL A   1      43.538  28.111  31.974  1.00  0.00     0.074 A 
ATOM     54  C   UNL A   1      43.803  32.267  27.199  1.00  0.00     0.029 A 
ATOM     55  N   UNL A   1      43.696  31.297  29.197  1.00  0.00    -0.354 N 
ATOM     56  N   UNL A   1      43.643  29.038  31.053  1.00  0.00    -0.248 NA
ATOM     57  C   UNL A   1      43.488  26.742  31.436  1.00  0.00     0.031 C 
ATOM     58  C   UNL A   1      43.815  30.881  27.018  1.00  0.00     0.029 A 
ATOM     59  C   UNL A   1      43.769  30.277  28.264  1.00  0.00     0.049 A 
ATOM     60  H   UNL A   1      43.640  31.169  30.171  1.00  0.00     0.167 HD
ATOM     61  C   UNL A   1      43.706  28.366  29.837  1.00  0.00     0.074 A 
ATOM     62  C   UNL A   1      43.659  26.952  30.138  1.00  0.00     0.031 C 
ATOM     63  C   UNL A   1      43.779  28.872  28.580  1.00  0.00     0.034 A 
BRANCH  50  64
ATOM     64  C   UNL A   1      43.684  35.045  28.375  1.00  0.00     0.023 A 
ATOM     65  C   UNL A   1      42.476  35.647  27.966  1.00  0.00     0.012 A 
ATOM     66  C   UNL A   1      44.909  35.656  28.039  1.00  0.00     0.148 A 
ATOM     67  C   UNL A   1      42.485  36.819  27.212  1.00  0.00     0.002 A 
ATOM     68  C   UNL A   1      44.908  36.849  27.326  1.00  0.00     0.091 A 
ATOM     69  F   UNL A   1      46.046  35.058  28.421  1.00  0.00    -0.205 F 
ATOM     70  C   UNL A   1      43.700  37.425  26.902  1.00  0.00     0.022 A 
BRANCH  68  71
ATOM     71  S   UNL A   1      46.413  37.753  26.942  1.00  0.00     0.127 S 
ATOM     72  O   UNL A   1      47.156  36.769  26.156  1.00  0.00    -0.237 OA
ATOM     73  O   UNL A   1      45.899  38.886  26.172  1.00  0.00    -0.237 OA
ATOM     74  O   UNL A   1      47.012  38.104  28.221  1.00  0.00    -0.744 OA
ENDBRANCH  68  71
ENDBRANCH  50  64
BRANCH  51  75
ATOM     75  C   UNL A   1      43.386  27.049  34.346  1.00  0.00     0.023 A 
ATOM     76  C   UNL A   1      42.120  26.615  34.789  1.00  0.00     0.012 A 
ATOM     77  C   UNL A   1      44.534  26.347  34.761  1.00  0.00     0.148 A 
ATOM     78  C   UNL A   1      42.005  25.534  35.665  1.00  0.00     0.002 A 
ATOM     79  C   UNL A   1      44.408  25.235  35.586  1.00  0.00     0.091 A 
ATOM     80  F   UNL A   1      45.732  26.785  34.349  1.00  0.00    -0.205 F 
ATOM     81  C   UNL A   1      43.147  24.839  36.057  1.00  0.00     0.022 A 
BRANCH  79  82
ATOM     82  S   UNL A   1      45.812  24.211  36.042  1.00  0.00     0.127 S 
ATOM     83  O   UNL A   1      46.189  23.631  34.755  1.00  0.00    -0.237 OA
ATOM     84  O   UNL A   1      46.751  25.204  36.567  1.00  0.00    -0.237 OA
ATOM     85  O   UNL A   1      45.309  23.275  37.037  1.00  0.00    -0.744 OA
ENDBRANCH  79  82
ENDBRANCH  51  75
BRANCH  63  86
ATOM     86  C   UNL A   1      43.857  27.897  27.431  1.00  0.00     0.023 A 
ATOM     87  C   UNL A   1      42.676  27.414  26.835  1.00  0.00     0.012 A 
ATOM     88  C   UNL A   1      45.106  27.511  26.901  1.00  0.00     0.148 A 
ATOM     89  C   UNL A   1      42.735  26.530  25.758  1.00  0.00     0.002 A 
ATOM     90  C   UNL A   1      45.156  26.672  25.795  1.00  0.00     0.091 A 
ATOM     91  F   UNL A   1      46.220  27.970  27.489  1.00  0.00    -0.205 F 
ATOM     92  C   UNL A   1      43.972  26.168  25.231  1.00  0.00     0.022 A 
BRANCH  90  93
ATOM     93  S   UNL A   1      46.698  26.228  24.987  1.00  0.00     0.127 S 
ATOM     94  O   UNL A   1      46.852  27.314  24.020  1.00  0.00    -0.237 OA
ATOM     95  O   UNL A   1      47.650  26.262  26.097  1.00  0.00    -0.237 OA
ATOM     96  O   UNL A   1      46.485  24.906  24.412  1.00  0.00    -0.744 OA
ENDBRANCH  90  93
ENDBRANCH  63  86
ENDBRANCH  37  38
ENDBRANCH  30  32
ENDBRANCH  29  30
ENDBRANCH  28  29
ENDBRANCH  27  28
ENDBRANCH  26  27
ENDBRANCH  25  26
ENDBRANCH   1  25
TORSDOF 23
ENDMDL
MODEL 3
REMARK VINA RESULT:      -8.2      4.742      7.742
REMARK SMILES C[C@]1(CNC(=O)N2CCOC[C@H]2C(=O)OCCOCCOCCOC(=O)c2ccc(-c3c4nc(c(-c5cccc(S(=O)(=O)[O-])c5F)c5ccc([nH]5)c(-c5cccc(S(=O)(=O)[O-])c5F)c5nc(c(-c6cccc(S(=O)(=O)[O-])c6F)c6ccc3[nH]6)C=C5)C=C4)cc2)CCCO1
REMARK SMILES IDX 19 1 18 2 17 3 16 4 15 5 13 6 14 7 12 8 7 9 8 10 9 11 11 12
REMARK SMILES IDX 10 13 5 14 4 15 6 17 3 18 2 19 1 20 90 21 93 22 91 23 92 24
REMARK SMILES IDX 20 25 21 26 22 27 23 28 24 29 25 30 26 31 27 32 28 33 89 34
REMARK SMILES IDX 29 35 88 36 30 37 31 38 32 39 82 40 33 41 87 42 81 43 83 44
REMARK SMILES IDX 34 45 86 46 80 47 79 48 35 50 67 51 47 52 66 53 48 54 51 55
REMARK SMILES IDX 65 56 84 57 49 58 50 59 64 61 85 62 52 63 36 64 37 65 45 66
REMARK SMILES IDX 38 67 40 68 46 69 39 70 41 71 42 72 43 73 44 74 68 75 69 76
REMARK SMILES IDX 77 77 70 78 72 79 78 80 71 81 73 82 74 83 75 84 76 85 53 86
REMARK SMILES IDX 54 87 62 88 55 89 57 90 63 91 56 92 58 93 59 94 60 95 61 96
REMARK H PARENT 4 16 83 49 51 60
REMARK Flexibility Score: inf
ROOT
ATOM      1  C   UNL A   1      39.443  24.010  26.535  1.00  0.00     0.188 C 
ENDROOT
BRANCH   1   2
ATOM      2  O   UNL A   1      38.368  23.141  26.189  1.00  0.00    -0.376 OA
BRANCH   2   3
ATOM      3  C   UNL A   1      37.134  23.706  25.761  1.00  0.00     0.202 C 
BRANCH   3   4
ATOM      4  C   UNL A   1      36.108  22.791  25.075  1.00  0.00     0.261 C 
BRANCH   4   5
ATOM      5  O   UNL A   1      34.909  22.557  25.843  1.00  0.00    -0.462 OA
BRANCH   5   6
ATOM      6  C   UNL A   1      33.819  22.106  25.165  1.00  0.00     0.331 C 
ATOM      7  O   UNL A   1      33.778  21.015  24.602  1.00  0.00    -0.250 OA
BRANCH   6   8
ATOM      8  C   UNL A   1      32.626  23.096  25.107  1.00  0.00     0.222 C 
ATOM      9  N   UNL A   1      32.780  24.579  25.093  1.00  0.00    -0.306 N 
ATOM     10  C   UNL A   1      33.475  25.076  23.917  1.00  0.00     0.151 C 
ATOM     11  C   UNL A   1      32.716  24.630  22.666  1.00  0.00     0.182 C 
ATOM     12  C   UNL A   1      31.836  22.736  23.838  1.00  0.00     0.197 C 
ATOM     13  O   UNL A   1      32.508  23.206  22.647  1.00  0.00    -0.377 OA
BRANCH   9  14
ATOM     14  C   UNL A   1      32.182  25.302  26.082  1.00  0.00     0.318 C 
ATOM     15  N   UNL A   1      32.365  26.628  26.229  1.00  0.00    -0.335 N 
ATOM     16  H   UNL A   1      32.105  26.935  27.127  1.00  0.00     0.165 HD
ATOM     17  O   UNL A   1      31.404  24.771  26.879  1.00  0.00    -0.249 OA
BRANCH  15  18
ATOM     18  C   UNL A   1      32.849  27.729  25.399  1.00  0.00     0.152 C 
BRANCH  18  19
ATOM     19  C   UNL A   1      31.743  28.385  24.539  1.00  0.00     0.083 C 
ATOM     20  C   UNL A   1      31.405  29.764  25.126  1.00  0.00     0.044 C 
ATOM     21  C   UNL A   1      32.117  28.488  23.060  1.00  0.00     0.039 C 
ATOM     22  O   UNL A   1      30.532  27.602  24.589  1.00  0.00    -0.373 OA
ATOM     23  C   UNL A   1      30.774  28.435  22.375  1.00  0.00     0.031 C 
ATOM     24  C   UNL A   1      30.010  27.468  23.256  1.00  0.00     0.161 C 
ENDBRANCH  18  19
ENDBRANCH  15  18
ENDBRANCH   9  14
ENDBRANCH   6   8
ENDBRANCH   5   6
ENDBRANCH   4   5
ENDBRANCH   3   4
ENDBRANCH   2   3
ENDBRANCH   1   2
BRANCH   1  25
ATOM     25  C   UNL A   1      39.536  24.517  27.985  1.00  0.00     0.188 C 
BRANCH  25  26
ATOM     26  O   UNL A   1      40.288  25.703  28.146  1.00  0.00    -0.376 OA
BRANCH  26  27
ATOM     27  C   UNL A   1      39.659  26.919  27.782  1.00  0.00     0.202 C 
BRANCH  27  28
ATOM     28  C   UNL A   1      38.917  27.720  28.865  1.00  0.00     0.261 C 
BRANCH  28  29
ATOM     29  O   UNL A   1      38.671  29.109  28.587  1.00  0.00    -0.460 OA
BRANCH  29  30
ATOM     30  C   UNL A   1      38.169  29.860  29.590  1.00  0.00     0.338 C 
ATOM     31  O   UNL A   1      37.263  29.540  30.353  1.00  0.00    -0.246 OA
BRANCH  30  32
ATOM     32  C   UNL A   1      39.031  31.050  29.763  1.00  0.00     0.060 A 
ATOM     33  C   UNL A   1      40.399  30.866  30.013  1.00  0.00     0.016 A 
ATOM     34  C   UNL A   1      38.498  32.339  29.693  1.00  0.00     0.016 A 
ATOM     35  C   UNL A   1      41.222  31.968  30.259  1.00  0.00     0.010 A 
ATOM     36  C   UNL A   1      39.321  33.441  29.957  1.00  0.00     0.010 A 
ATOM     37  C   UNL A   1      40.676  33.257  30.292  1.00  0.00    -0.014 A 
BRANCH  37  38
ATOM     38  C   UNL A   1      41.461  34.365  30.899  1.00  0.00     0.031 A 
ATOM     39  C   UNL A   1      41.406  34.541  32.396  1.00  0.00     0.074 A 
ATOM     40  C   UNL A   1      42.239  35.176  30.159  1.00  0.00     0.049 A 
ATOM     41  N   UNL A   1      41.987  35.436  33.152  1.00  0.00    -0.248 NA
ATOM     42  C   UNL A   1      40.581  33.573  33.142  1.00  0.00     0.031 C 
ATOM     43  C   UNL A   1      42.394  35.110  28.707  1.00  0.00     0.029 A 
ATOM     44  N   UNL A   1      43.035  36.231  30.534  1.00  0.00    -0.354 N 
ATOM     45  C   UNL A   1      41.586  35.153  34.453  1.00  0.00     0.074 A 
ATOM     46  C   UNL A   1      40.688  34.022  34.384  1.00  0.00     0.031 C 
ATOM     47  C   UNL A   1      43.206  36.105  28.309  1.00  0.00     0.029 A 
ATOM     48  C   UNL A   1      43.614  36.890  29.474  1.00  0.00     0.049 A 
ATOM     49  H   UNL A   1      43.176  36.493  31.473  1.00  0.00     0.167 HD
ATOM     50  C   UNL A   1      41.951  35.758  35.608  1.00  0.00     0.034 A 
ATOM     51  C   UNL A   1      44.365  38.009  29.447  1.00  0.00     0.034 A 
ATOM     52  C   UNL A   1      42.858  36.870  35.686  1.00  0.00     0.049 A 
ATOM     53  C   UNL A   1      44.730  38.688  30.746  1.00  0.00     0.074 A 
ATOM     54  C   UNL A   1      43.304  37.538  36.811  1.00  0.00     0.029 A 
ATOM     55  N   UNL A   1      43.455  37.481  34.594  1.00  0.00    -0.354 N 
ATOM     56  N   UNL A   1      44.424  38.347  31.975  1.00  0.00    -0.248 NA
ATOM     57  C   UNL A   1      45.578  39.888  30.656  1.00  0.00     0.031 C 
ATOM     58  C   UNL A   1      44.152  38.571  36.399  1.00  0.00     0.029 A 
ATOM     59  C   UNL A   1      44.262  38.522  35.020  1.00  0.00     0.049 A 
ATOM     60  H   UNL A   1      43.325  37.214  33.656  1.00  0.00     0.167 HD
ATOM     61  C   UNL A   1      45.068  39.263  32.799  1.00  0.00     0.074 A 
ATOM     62  C   UNL A   1      45.806  40.158  31.934  1.00  0.00     0.031 C 
ATOM     63  C   UNL A   1      45.038  39.369  34.152  1.00  0.00     0.034 A 
BRANCH  50  64
ATOM     64  C   UNL A   1      41.395  35.202  36.893  1.00  0.00     0.023 A 
ATOM     65  C   UNL A   1      40.127  35.625  37.342  1.00  0.00     0.012 A 
ATOM     66  C   UNL A   1      42.093  34.218  37.621  1.00  0.00     0.148 A 
ATOM     67  C   UNL A   1      39.575  35.102  38.510  1.00  0.00     0.002 A 
ATOM     68  C   UNL A   1      41.516  33.668  38.759  1.00  0.00     0.091 A 
ATOM     69  F   UNL A   1      43.304  33.842  37.186  1.00  0.00    -0.205 F 
ATOM     70  C   UNL A   1      40.264  34.116  39.211  1.00  0.00     0.022 A 
BRANCH  68  71
ATOM     71  S   UNL A   1      42.283  32.337  39.691  1.00  0.00     0.127 S 
ATOM     72  O   UNL A   1      43.404  33.029  40.325  1.00  0.00    -0.237 OA
ATOM     73  O   UNL A   1      41.209  31.950  40.608  1.00  0.00    -0.237 OA
ATOM     74  O   UNL A   1      42.652  31.321  38.718  1.00  0.00    -0.744 OA
ENDBRANCH  68  71
ENDBRANCH  50  64
BRANCH  51  75
ATOM     75  C   UNL A   1      44.837  38.572  28.147  1.00  0.00     0.023 A 
ATOM     76  C   UNL A   1      45.923  37.979  27.475  1.00  0.00     0.012 A 
ATOM     77  C   UNL A   1      44.228  39.714  27.590  1.00  0.00     0.148 A 
ATOM     78  C   UNL A   1      46.424  38.539  26.299  1.00  0.00     0.002 A 
ATOM     79  C   UNL A   1      44.694  40.232  26.387  1.00  0.00     0.091 A 
ATOM     80  F   UNL A   1      43.209  40.279  28.253  1.00  0.00    -0.205 F 
ATOM     81  C   UNL A   1      45.805  39.660  25.751  1.00  0.00     0.022 A 
BRANCH  79  82
ATOM     82  S   UNL A   1      43.882  41.598  25.551  1.00  0.00     0.127 S 
ATOM     83  O   UNL A   1      42.490  41.154  25.534  1.00  0.00    -0.237 OA
ATOM     84  O   UNL A   1      44.160  42.714  26.457  1.00  0.00    -0.237 OA
ATOM     85  O   UNL A   1      44.529  41.704  24.251  1.00  0.00    -0.744 OA
ENDBRANCH  79  82
ENDBRANCH  51  75
BRANCH  63  86
ATOM     86  C   UNL A   1      45.859  40.462  34.791  1.00  0.00     0.023 A 
ATOM     87  C   UNL A   1      45.277  41.716  35.057  1.00  0.00     0.012 A 
ATOM     88  C   UNL A   1      47.191  40.221  35.187  1.00  0.00     0.148 A 
ATOM     89  C   UNL A   1      46.018  42.728  35.669  1.00  0.00     0.002 A 
ATOM     90  C   UNL A   1      47.906  41.214  35.844  1.00  0.00     0.091 A 
ATOM     91  F   UNL A   1      47.733  39.025  34.915  1.00  0.00    -0.205 F 
ATOM     92  C   UNL A   1      47.327  42.474  36.071  1.00  0.00     0.022 A 
BRANCH  90  93
ATOM     93  S   UNL A   1      49.563  40.949  36.487  1.00  0.00     0.127 S 
ATOM     94  O   UNL A   1      49.857  42.245  37.096  1.00  0.00    -0.237 OA
ATOM     95  O   UNL A   1      49.354  39.860  37.441  1.00  0.00    -0.237 OA
ATOM     96  O   UNL A   1      50.388  40.598  35.338  1.00  0.00    -0.744 OA
ENDBRANCH  90  93
ENDBRANCH  63  86
ENDBRANCH  37  38
ENDBRANCH  30  32
ENDBRANCH  29  30
ENDBRANCH  28  29
ENDBRANCH  27  28
ENDBRANCH  26  27
ENDBRANCH  25  26
ENDBRANCH   1  25
TORSDOF 23
ENDMDL
