MODEL 1
REMARK VINA RESULT:     -10.3      0.000      0.000
REMARK SMILES Cc1ccc(-c2cc([C@@H](C)C(=O)OCCOCCOCCOC(=O)c3ccc(-c4c5nc(c(-c6cccc(S(=O)(=O)[O-])c6F)c6ccc([nH]6)c(-c6cccc(S(=O)(=O)[O-])c6F)c6nc(c(-c7cccc(S(=O)(=O)[O-])c7F)c7ccc4[nH]7)C=C6)C=C5)cc3)ccc2C[C@H]2CCCC2=O)cc1
REMARK SMILES IDX 17 1 16 2 15 3 14 4 13 5 11 6 12 7 9 8 10 9 8 10 6 11 7 12
REMARK SMILES IDX 90 13 89 14 88 15 5 16 1 17 2 18 3 19 99 20 4 21 98 22 91 23
REMARK SMILES IDX 92 24 93 25 96 26 94 27 95 28 97 29 18 30 19 31 20 32 21 33
REMARK SMILES IDX 22 34 23 35 24 36 25 37 26 38 87 39 27 40 86 41 28 42 29 43
REMARK SMILES IDX 30 44 80 45 31 46 85 47 79 48 81 49 32 50 84 51 78 52 77 53
REMARK SMILES IDX 33 55 65 56 45 57 64 58 46 59 49 60 63 61 82 62 47 63 48 64
REMARK SMILES IDX 62 66 83 67 50 68 34 69 35 70 43 71 36 72 38 73 44 74 37 75
REMARK SMILES IDX 39 76 40 77 41 78 42 79 66 80 67 81 75 82 68 83 70 84 76 85
REMARK SMILES IDX 69 86 71 87 72 88 73 89 74 90 51 91 52 92 60 93 53 94 55 95
REMARK SMILES IDX 61 96 54 97 56 98 57 99 58 100 59 101
REMARK H PARENT 81 54 49 65
REMARK Flexibility Score: inf
ROOT
ATOM      1  C   UNL A   1      37.776  31.844  29.238  1.00  0.00     0.188 C 
ENDROOT
BRANCH   1   2
ATOM      2  O   UNL A   1      36.991  30.803  28.618  1.00  0.00    -0.376 OA
BRANCH   2   3
ATOM      3  C   UNL A   1      37.499  29.636  27.942  1.00  0.00     0.202 C 
BRANCH   3   4
ATOM      4  C   UNL A   1      38.594  28.428  28.506  1.00  0.00     0.261 C 
BRANCH   4   5
ATOM      5  O   UNL A   1      39.204  26.969  27.804  1.00  0.00    -0.463 OA
BRANCH   5   6
ATOM      6  C   UNL A   1      39.240  25.538  28.069  1.00  0.00     0.313 C 
ATOM      7  O   UNL A   1      38.932  24.930  29.100  1.00  0.00    -0.252 OA
BRANCH   6   8
ATOM      8  C   UNL A   1      39.800  24.560  27.102  1.00  0.00     0.126 C 
ATOM      9  C   UNL A   1      40.783  25.221  26.125  1.00  0.00     0.025 C 
BRANCH   8  10
ATOM     10  C   UNL A   1      38.803  23.674  26.497  1.00  0.00    -0.033 A 
ATOM     11  C   UNL A   1      36.625  23.490  25.479  1.00  0.00    -0.015 A 
ATOM     12  C   UNL A   1      37.588  24.245  26.124  1.00  0.00     0.013 A 
ATOM     13  C   UNL A   1      36.937  22.145  25.173  1.00  0.00    -0.039 A 
ATOM     14  C   UNL A   1      38.149  21.579  25.616  1.00  0.00     0.004 A 
ATOM     15  C   UNL A   1      39.085  22.339  26.273  1.00  0.00     0.005 A 
BRANCH  11  16
ATOM     16  C   UNL A   1      35.330  24.132  25.248  1.00  0.00    -0.018 A 
ATOM     17  C   UNL A   1      31.509  26.059  24.740  1.00  0.00     0.044 C 
ATOM     18  C   UNL A   1      32.856  25.432  24.917  1.00  0.00    -0.051 A 
ATOM     19  C   UNL A   1      33.169  24.804  26.126  1.00  0.00     0.004 A 
ATOM     20  C   UNL A   1      33.811  25.461  23.894  1.00  0.00     0.004 A 
ATOM     21  C   UNL A   1      34.398  24.170  26.290  1.00  0.00     0.009 A 
ATOM     22  C   UNL A   1      35.040  24.820  24.061  1.00  0.00     0.009 A 
ENDBRANCH  11  16
BRANCH  13  23
ATOM     23  C   UNL A   1      36.041  21.274  24.329  1.00  0.00     0.047 C 
BRANCH  23  24
ATOM     24  C   UNL A   1      35.053  20.421  25.129  1.00  0.00     0.060 C 
ATOM     25  C   UNL A   1      33.595  20.887  25.062  1.00  0.00     0.012 C 
ATOM     26  C   UNL A   1      34.947  18.971  24.688  1.00  0.00     0.136 C 
ATOM     27  C   UNL A   1      32.785  19.610  25.205  1.00  0.00     0.009 C 
ATOM     28  C   UNL A   1      33.529  18.576  24.378  1.00  0.00     0.076 C 
ATOM     29  O   UNL A   1      35.897  18.200  24.626  1.00  0.00    -0.299 OA
ENDBRANCH  23  24
ENDBRANCH  13  23
ENDBRANCH   8  10
ENDBRANCH   6   8
ENDBRANCH   5   6
ENDBRANCH   4   5
ENDBRANCH   3   4
ENDBRANCH   2   3
ENDBRANCH   1   2
BRANCH   1  30
ATOM     30  C   UNL A   1      37.271  32.728  30.374  1.00  0.00     0.188 C 
BRANCH  30  31
ATOM     31  O   UNL A   1      36.377  32.005  31.190  1.00  0.00    -0.376 OA
BRANCH  31  32
ATOM     32  C   UNL A   1      36.821  31.766  32.507  1.00  0.00     0.202 C 
BRANCH  32  33
ATOM     33  C   UNL A   1      37.831  30.601  32.626  1.00  0.00     0.261 C 
BRANCH  33  34
ATOM     34  O   UNL A   1      39.039  30.970  33.338  1.00  0.00    -0.460 OA
BRANCH  34  35
ATOM     35  C   UNL A   1      39.592  30.035  34.193  1.00  0.00     0.338 C 
ATOM     36  O   UNL A   1      39.398  30.039  35.398  1.00  0.00    -0.246 OA
BRANCH  35  37
ATOM     37  C   UNL A   1      40.546  29.151  33.436  1.00  0.00     0.060 A 
ATOM     38  C   UNL A   1      41.908  29.339  33.156  1.00  0.00     0.016 A 
ATOM     39  C   UNL A   1      39.946  28.178  32.723  1.00  0.00     0.016 A 
ATOM     40  C   UNL A   1      42.569  28.687  32.016  1.00  0.00     0.010 A 
ATOM     41  C   UNL A   1      40.540  27.827  31.521  1.00  0.00     0.010 A 
ATOM     42  C   UNL A   1      41.866  27.961  31.046  1.00  0.00    -0.014 A 
BRANCH  42  43
ATOM     43  C   UNL A   1      42.415  27.435  29.530  1.00  0.00     0.031 A 
ATOM     44  C   UNL A   1      43.228  26.004  28.946  1.00  0.00     0.074 A 
ATOM     45  C   UNL A   1      42.297  28.362  28.557  1.00  0.00     0.049 A 
ATOM     46  N   UNL A   1      43.958  25.954  27.845  1.00  0.00    -0.248 NA
ATOM     47  C   UNL A   1      43.379  24.617  29.562  1.00  0.00     0.031 C 
ATOM     48  C   UNL A   1      42.447  28.194  27.119  1.00  0.00     0.029 A 
ATOM     49  N   UNL A   1      42.124  29.739  28.716  1.00  0.00    -0.354 N 
ATOM     50  C   UNL A   1      44.433  24.637  27.686  1.00  0.00     0.074 A 
ATOM     51  C   UNL A   1      44.365  24.023  28.933  1.00  0.00     0.031 C 
ATOM     52  C   UNL A   1      42.676  29.398  26.574  1.00  0.00     0.029 A 
ATOM     53  C   UNL A   1      42.824  30.344  27.665  1.00  0.00     0.049 A 
ATOM     54  H   UNL A   1      41.612  30.192  29.424  1.00  0.00     0.167 HD
ATOM     55  C   UNL A   1      44.645  24.021  26.494  1.00  0.00     0.034 A 
ATOM     56  C   UNL A   1      43.907  31.121  27.957  1.00  0.00     0.034 A 
ATOM     57  C   UNL A   1      44.906  25.053  25.517  1.00  0.00     0.049 A 
ATOM     58  C   UNL A   1      45.190  30.568  27.359  1.00  0.00     0.074 A 
ATOM     59  C   UNL A   1      44.154  25.788  24.628  1.00  0.00     0.029 A 
ATOM     60  N   UNL A   1      46.066  25.768  25.733  1.00  0.00    -0.354 N 
ATOM     61  N   UNL A   1      45.247  29.568  26.514  1.00  0.00    -0.248 NA
ATOM     62  C   UNL A   1      46.522  31.069  27.698  1.00  0.00     0.031 C 
ATOM     63  C   UNL A   1      44.793  27.070  24.511  1.00  0.00     0.029 A 
ATOM     64  C   UNL A   1      45.949  27.070  25.283  1.00  0.00     0.049 A 
ATOM     65  H   UNL A   1      46.875  25.398  26.153  1.00  0.00     0.167 HD
ATOM     66  C   UNL A   1      46.549  29.177  26.363  1.00  0.00     0.074 A 
ATOM     67  C   UNL A   1      47.317  30.191  27.063  1.00  0.00     0.031 C 
ATOM     68  C   UNL A   1      46.950  28.026  25.747  1.00  0.00     0.034 A 
BRANCH  55  69
ATOM     69  C   UNL A   1      44.538  22.498  26.213  1.00  0.00     0.023 A 
ATOM     70  C   UNL A   1      45.623  21.936  25.510  1.00  0.00     0.012 A 
ATOM     71  C   UNL A   1      43.446  21.590  26.439  1.00  0.00     0.148 A 
ATOM     72  C   UNL A   1      45.626  20.611  25.037  1.00  0.00     0.002 A 
ATOM     73  C   UNL A   1      43.458  20.260  25.987  1.00  0.00     0.091 A 
ATOM     74  F   UNL A   1      42.332  21.977  27.056  1.00  0.00    -0.205 F 
ATOM     75  C   UNL A   1      44.545  19.772  25.271  1.00  0.00     0.022 A 
BRANCH  73  76
ATOM     76  S   UNL A   1      42.062  19.120  26.216  1.00  0.00     0.127 S 
ATOM     77  O   UNL A   1      41.809  19.231  27.655  1.00  0.00    -0.237 OA
ATOM     78  O   UNL A   1      41.027  19.716  25.374  1.00  0.00    -0.237 OA
ATOM     79  O   UNL A   1      42.521  17.802  25.792  1.00  0.00    -0.744 OA
ENDBRANCH  73  76
ENDBRANCH  55  69
BRANCH  56  80
ATOM     80  C   UNL A   1      43.710  31.932  29.217  1.00  0.00     0.023 A 
ATOM     81  C   UNL A   1      42.490  32.666  29.295  1.00  0.00     0.012 A 
ATOM     82  C   UNL A   1      44.458  31.803  30.402  1.00  0.00     0.148 A 
ATOM     83  C   UNL A   1      41.967  33.121  30.508  1.00  0.00     0.002 A 
ATOM     84  C   UNL A   1      43.947  32.301  31.613  1.00  0.00     0.091 A 
ATOM     85  F   UNL A   1      45.621  31.142  30.370  1.00  0.00    -0.205 F 
ATOM     86  C   UNL A   1      42.689  32.922  31.672  1.00  0.00     0.022 A 
BRANCH  84  87
ATOM     87  S   UNL A   1      44.809  32.036  33.179  1.00  0.00     0.127 S 
ATOM     88  O   UNL A   1      45.950  32.935  33.042  1.00  0.00    -0.237 OA
ATOM     89  O   UNL A   1      43.820  32.459  34.174  1.00  0.00    -0.237 OA
ATOM     90  O   UNL A   1      45.098  30.610  33.203  1.00  0.00    -0.744 OA
ENDBRANCH  84  87
ENDBRANCH  56  80
BRANCH  68  91
ATOM     91  C   UNL A   1      48.412  27.733  25.528  1.00  0.00     0.023 A 
ATOM     92  C   UNL A   1      48.927  27.832  24.225  1.00  0.00     0.012 A 
ATOM     93  C   UNL A   1      49.226  27.140  26.518  1.00  0.00     0.148 A 
ATOM     94  C   UNL A   1      50.192  27.333  23.911  1.00  0.00     0.002 A 
ATOM     95  C   UNL A   1      50.419  26.524  26.171  1.00  0.00     0.091 A 
ATOM     96  F   UNL A   1      48.849  27.192  27.804  1.00  0.00    -0.205 F 
ATOM     97  C   UNL A   1      50.919  26.637  24.873  1.00  0.00     0.022 A 
BRANCH  95  98
ATOM     98  S   UNL A   1      51.221  25.370  27.296  1.00  0.00     0.127 S 
ATOM     99  O   UNL A   1      51.636  26.246  28.394  1.00  0.00    -0.237 OA
ATOM    100  O   UNL A   1      50.133  24.454  27.624  1.00  0.00    -0.237 OA
ATOM    101  O   UNL A   1      52.330  24.812  26.531  1.00  0.00    -0.744 OA
ENDBRANCH  95  98
ENDBRANCH  68  91
ENDBRANCH  42  43
ENDBRANCH  35  37
ENDBRANCH  34  35
ENDBRANCH  33  34
ENDBRANCH  32  33
ENDBRANCH  31  32
ENDBRANCH  30  31
ENDBRANCH   1  30
TORSDOF 24
ENDMDL
MODEL 2
REMARK VINA RESULT:      -8.9      5.167     10.600
REMARK SMILES Cc1ccc(-c2cc([C@@H](C)C(=O)OCCOCCOCCOC(=O)c3ccc(-c4c5nc(c(-c6cccc(S(=O)(=O)[O-])c6F)c6ccc([nH]6)c(-c6cccc(S(=O)(=O)[O-])c6F)c6nc(c(-c7cccc(S(=O)(=O)[O-])c7F)c7ccc4[nH]7)C=C6)C=C5)cc3)ccc2C[C@H]2CCCC2=O)cc1
REMARK SMILES IDX 17 1 16 2 15 3 14 4 13 5 11 6 12 7 9 8 10 9 8 10 6 11 7 12
REMARK SMILES IDX 90 13 89 14 88 15 5 16 1 17 2 18 3 19 99 20 4 21 98 22 91 23
REMARK SMILES IDX 92 24 93 25 96 26 94 27 95 28 97 29 18 30 19 31 20 32 21 33
REMARK SMILES IDX 22 34 23 35 24 36 25 37 26 38 87 39 27 40 86 41 28 42 29 43
REMARK SMILES IDX 30 44 80 45 31 46 85 47 79 48 81 49 32 50 84 51 78 52 77 53
REMARK SMILES IDX 33 55 65 56 45 57 64 58 46 59 49 60 63 61 82 62 47 63 48 64
REMARK SMILES IDX 62 66 83 67 50 68 34 69 35 70 43 71 36 72 38 73 44 74 37 75
REMARK SMILES IDX 39 76 40 77 41 78 42 79 66 80 67 81 75 82 68 83 70 84 76 85
REMARK SMILES IDX 69 86 71 87 72 88 73 89 74 90 51 91 52 92 60 93 53 94 55 95
REMARK SMILES IDX 61 96 54 97 56 98 57 99 58 100 59 101
REMARK H PARENT 81 54 49 65
REMARK Flexibility Score: inf
ROOT
ATOM      1  C   UNL A   1      40.779  34.483  29.715  1.00  0.00     0.188 C 
ENDROOT
BRANCH   1   2
ATOM      2  O   UNL A   1      40.202  34.530  31.037  1.00  0.00    -0.376 OA
BRANCH   2   3
ATOM      3  C   UNL A   1      38.798  34.493  31.359  1.00  0.00     0.202 C 
BRANCH   3   4
ATOM      4  C   UNL A   1      38.019  34.622  32.893  1.00  0.00     0.261 C 
BRANCH   4   5
ATOM      5  O   UNL A   1      36.419  35.078  33.370  1.00  0.00    -0.463 OA
BRANCH   5   6
ATOM      6  C   UNL A   1      35.044  34.625  33.224  1.00  0.00     0.313 C 
ATOM      7  O   UNL A   1      34.411  33.823  33.920  1.00  0.00    -0.252 OA
BRANCH   6   8
ATOM      8  C   UNL A   1      34.195  35.006  32.067  1.00  0.00     0.126 C 
ATOM      9  C   UNL A   1      32.726  35.193  32.473  1.00  0.00     0.025 C 
BRANCH   8  10
ATOM     10  C   UNL A   1      34.424  34.204  30.862  1.00  0.00    -0.033 A 
ATOM     11  C   UNL A   1      35.515  32.281  29.900  1.00  0.00    -0.015 A 
ATOM     12  C   UNL A   1      35.303  33.130  30.972  1.00  0.00     0.013 A 
ATOM     13  C   UNL A   1      34.775  32.516  28.718  1.00  0.00    -0.039 A 
ATOM     14  C   UNL A   1      33.938  33.645  28.616  1.00  0.00     0.004 A 
ATOM     15  C   UNL A   1      33.756  34.488  29.685  1.00  0.00     0.005 A 
BRANCH  11  16
ATOM     16  C   UNL A   1      36.555  31.265  30.060  1.00  0.00    -0.018 A 
ATOM     17  C   UNL A   1      39.739  28.400  30.541  1.00  0.00     0.044 C 
ATOM     18  C   UNL A   1      38.633  29.401  30.420  1.00  0.00    -0.051 A 
ATOM     19  C   UNL A   1      38.888  30.637  29.817  1.00  0.00     0.004 A 
ATOM     20  C   UNL A   1      37.348  29.125  30.898  1.00  0.00     0.004 A 
ATOM     21  C   UNL A   1      37.860  31.561  29.649  1.00  0.00     0.009 A 
ATOM     22  C   UNL A   1      36.318  30.052  30.724  1.00  0.00     0.009 A 
ENDBRANCH  11  16
BRANCH  13  23
ATOM     23  C   UNL A   1      34.792  31.567  27.546  1.00  0.00     0.047 C 
BRANCH  23  24
ATOM     24  C   UNL A   1      33.600  30.607  27.493  1.00  0.00     0.060 C 
ATOM     25  C   UNL A   1      32.359  31.156  26.782  1.00  0.00     0.012 C 
ATOM     26  C   UNL A   1      33.850  29.307  26.748  1.00  0.00     0.136 C 
ATOM     27  C   UNL A   1      31.694  29.927  26.186  1.00  0.00     0.009 C 
ATOM     28  C   UNL A   1      32.836  29.075  25.662  1.00  0.00     0.076 C 
ATOM     29  O   UNL A   1      34.749  28.521  27.019  1.00  0.00    -0.299 OA
ENDBRANCH  23  24
ENDBRANCH  13  23
ENDBRANCH   8  10
ENDBRANCH   6   8
ENDBRANCH   5   6
ENDBRANCH   4   5
ENDBRANCH   3   4
ENDBRANCH   2   3
ENDBRANCH   1   2
BRANCH   1  30
ATOM     30  C   UNL A   1      41.875  35.427  29.232  1.00  0.00     0.188 C 
BRANCH  30  31
ATOM     31  O   UNL A   1      42.749  34.750  28.356  1.00  0.00    -0.376 OA
BRANCH  31  32
ATOM     32  C   UNL A   1      43.224  35.514  27.269  1.00  0.00     0.202 C 
BRANCH  32  33
ATOM     33  C   UNL A   1      44.765  35.523  27.136  1.00  0.00     0.261 C 
BRANCH  33  34
ATOM     34  O   UNL A   1      45.230  34.916  25.905  1.00  0.00    -0.460 OA
BRANCH  34  35
ATOM     35  C   UNL A   1      46.287  34.027  25.986  1.00  0.00     0.338 C 
ATOM     36  O   UNL A   1      47.398  34.273  25.547  1.00  0.00    -0.246 OA
BRANCH  35  37
ATOM     37  C   UNL A   1      45.808  32.715  26.545  1.00  0.00     0.060 A 
ATOM     38  C   UNL A   1      44.649  31.983  26.243  1.00  0.00     0.016 A 
ATOM     39  C   UNL A   1      46.454  32.324  27.662  1.00  0.00     0.016 A 
ATOM     40  C   UNL A   1      44.061  31.024  27.190  1.00  0.00     0.010 A 
ATOM     41  C   UNL A   1      45.709  31.637  28.607  1.00  0.00     0.010 A 
ATOM     42  C   UNL A   1      44.518  30.881  28.507  1.00  0.00    -0.014 A 
BRANCH  42  43
ATOM     43  C   UNL A   1      43.763  30.079  29.794  1.00  0.00     0.031 A 
ATOM     44  C   UNL A   1      42.913  30.590  31.233  1.00  0.00     0.074 A 
ATOM     45  C   UNL A   1      43.932  28.740  29.777  1.00  0.00     0.049 A 
ATOM     46  N   UNL A   1      42.780  29.856  32.325  1.00  0.00    -0.248 NA
ATOM     47  C   UNL A   1      42.272  31.926  31.595  1.00  0.00     0.031 C 
ATOM     48  C   UNL A   1      43.254  27.727  30.572  1.00  0.00     0.029 A 
ATOM     49  N   UNL A   1      44.898  28.019  29.071  1.00  0.00    -0.354 N 
ATOM     50  C   UNL A   1      42.018  30.585  33.260  1.00  0.00     0.074 A 
ATOM     51  C   UNL A   1      42.095  31.926  32.896  1.00  0.00     0.031 C 
ATOM     52  C   UNL A   1      43.997  26.612  30.560  1.00  0.00     0.029 A 
ATOM     53  C   UNL A   1      45.241  26.929  29.881  1.00  0.00     0.049 A 
ATOM     54  H   UNL A   1      45.262  28.233  28.182  1.00  0.00     0.167 HD
ATOM     55  C   UNL A   1      41.161  30.043  34.163  1.00  0.00     0.034 A 
ATOM     56  C   UNL A   1      46.508  26.853  30.379  1.00  0.00     0.034 A 
ATOM     57  C   UNL A   1      41.608  28.694  34.423  1.00  0.00     0.049 A 
ATOM     58  C   UNL A   1      46.535  26.896  31.898  1.00  0.00     0.074 A 
ATOM     59  C   UNL A   1      41.336  27.445  33.911  1.00  0.00     0.029 A 
ATOM     60  N   UNL A   1      42.838  28.605  35.039  1.00  0.00    -0.354 N 
ATOM     61  N   UNL A   1      45.472  26.835  32.662  1.00  0.00    -0.248 NA
ATOM     62  C   UNL A   1      47.759  27.058  32.681  1.00  0.00     0.031 C 
ATOM     63  C   UNL A   1      42.547  26.680  34.032  1.00  0.00     0.029 A 
ATOM     64  C   UNL A   1      43.510  27.456  34.665  1.00  0.00     0.049 A 
ATOM     65  H   UNL A   1      43.194  29.275  35.666  1.00  0.00     0.167 HD
ATOM     66  C   UNL A   1      45.823  27.138  33.949  1.00  0.00     0.074 A 
ATOM     67  C   UNL A   1      47.274  27.196  33.927  1.00  0.00     0.031 C 
ATOM     68  C   UNL A   1      44.939  27.397  34.957  1.00  0.00     0.034 A 
BRANCH  55  69
ATOM     69  C   UNL A   1      39.886  30.715  34.740  1.00  0.00     0.023 A 
ATOM     70  C   UNL A   1      38.772  30.738  33.875  1.00  0.00     0.012 A 
ATOM     71  C   UNL A   1      39.696  31.437  35.968  1.00  0.00     0.148 A 
ATOM     72  C   UNL A   1      37.588  31.437  34.171  1.00  0.00     0.002 A 
ATOM     73  C   UNL A   1      38.505  32.116  36.273  1.00  0.00     0.091 A 
ATOM     74  F   UNL A   1      40.665  31.542  36.874  1.00  0.00    -0.205 F 
ATOM     75  C   UNL A   1      37.452  32.129  35.366  1.00  0.00     0.022 A 
BRANCH  73  76
ATOM     76  S   UNL A   1      38.272  33.080  37.796  1.00  0.00     0.127 S 
ATOM     77  O   UNL A   1      36.834  32.938  38.032  1.00  0.00    -0.237 OA
ATOM     78  O   UNL A   1      39.114  32.365  38.754  1.00  0.00    -0.237 OA
ATOM     79  O   UNL A   1      38.695  34.444  37.501  1.00  0.00    -0.744 OA
ENDBRANCH  73  76
ENDBRANCH  55  69
BRANCH  56  80
ATOM     80  C   UNL A   1      47.545  27.335  29.389  1.00  0.00     0.023 A 
ATOM     81  C   UNL A   1      48.119  28.610  29.667  1.00  0.00     0.012 A 
ATOM     82  C   UNL A   1      48.182  26.542  28.417  1.00  0.00     0.148 A 
ATOM     83  C   UNL A   1      49.338  29.016  29.120  1.00  0.00     0.002 A 
ATOM     84  C   UNL A   1      49.388  26.974  27.837  1.00  0.00     0.091 A 
ATOM     85  F   UNL A   1      47.665  25.347  28.108  1.00  0.00    -0.205 F 
ATOM     86  C   UNL A   1      49.983  28.188  28.217  1.00  0.00     0.022 A 
BRANCH  84  87
ATOM     87  S   UNL A   1      50.310  25.928  26.690  1.00  0.00     0.127 S 
ATOM     88  O   UNL A   1      49.365  25.797  25.587  1.00  0.00    -0.237 OA
ATOM     89  O   UNL A   1      51.492  26.737  26.383  1.00  0.00    -0.237 OA
ATOM     90  O   UNL A   1      50.603  24.720  27.447  1.00  0.00    -0.744 OA
ENDBRANCH  84  87
ENDBRANCH  56  80
BRANCH  68  91
ATOM     91  C   UNL A   1      45.416  27.610  36.370  1.00  0.00     0.023 A 
ATOM     92  C   UNL A   1      46.130  28.783  36.666  1.00  0.00     0.012 A 
ATOM     93  C   UNL A   1      45.386  26.590  37.347  1.00  0.00     0.148 A 
ATOM     94  C   UNL A   1      46.815  28.924  37.874  1.00  0.00     0.002 A 
ATOM     95  C   UNL A   1      46.179  26.679  38.481  1.00  0.00     0.091 A 
ATOM     96  F   UNL A   1      44.569  25.539  37.182  1.00  0.00    -0.205 F 
ATOM     97  C   UNL A   1      46.878  27.854  38.762  1.00  0.00     0.022 A 
BRANCH  95  98
ATOM     98  S   UNL A   1      46.525  25.221  39.480  1.00  0.00     0.127 S 
ATOM     99  O   UNL A   1      47.620  25.686  40.334  1.00  0.00    -0.237 OA
ATOM    100  O   UNL A   1      45.257  25.015  40.172  1.00  0.00    -0.237 OA
ATOM    101  O   UNL A   1      46.916  24.196  38.521  1.00  0.00    -0.744 OA
ENDBRANCH  95  98
ENDBRANCH  68  91
ENDBRANCH  42  43
ENDBRANCH  35  37
ENDBRANCH  34  35
ENDBRANCH  33  34
ENDBRANCH  32  33
ENDBRANCH  31  32
ENDBRANCH  30  31
ENDBRANCH   1  30
TORSDOF 24
ENDMDL
MODEL 3
REMARK VINA RESULT:      -8.7      5.172      9.395
REMARK SMILES Cc1ccc(-c2cc([C@@H](C)C(=O)OCCOCCOCCOC(=O)c3ccc(-c4c5nc(c(-c6cccc(S(=O)(=O)[O-])c6F)c6ccc([nH]6)c(-c6cccc(S(=O)(=O)[O-])c6F)c6nc(c(-c7cccc(S(=O)(=O)[O-])c7F)c7ccc4[nH]7)C=C6)C=C5)cc3)ccc2C[C@H]2CCCC2=O)cc1
REMARK SMILES IDX 17 1 16 2 15 3 14 4 13 5 11 6 12 7 9 8 10 9 8 10 6 11 7 12
REMARK SMILES IDX 90 13 89 14 88 15 5 16 1 17 2 18 3 19 99 20 4 21 98 22 91 23
REMARK SMILES IDX 92 24 93 25 96 26 94 27 95 28 97 29 18 30 19 31 20 32 21 33
REMARK SMILES IDX 22 34 23 35 24 36 25 37 26 38 87 39 27 40 86 41 28 42 29 43
REMARK SMILES IDX 30 44 80 45 31 46 85 47 79 48 81 49 32 50 84 51 78 52 77 53
REMARK SMILES IDX 33 55 65 56 45 57 64 58 46 59 49 60 63 61 82 62 47 63 48 64
REMARK SMILES IDX 62 66 83 67 50 68 34 69 35 70 43 71 36 72 38 73 44 74 37 75
REMARK SMILES IDX 39 76 40 77 41 78 42 79 66 80 67 81 75 82 68 83 70 84 76 85
REMARK SMILES IDX 69 86 71 87 72 88 73 89 74 90 51 91 52 92 60 93 53 94 55 95
REMARK SMILES IDX 61 96 54 97 56 98 57 99 58 100 59 101
REMARK H PARENT 81 54 49 65
REMARK Flexibility Score: inf
ROOT
ATOM      1  C   UNL A   1      36.817  32.689  34.510  1.00  0.00     0.188 C 
ENDROOT
BRANCH   1   2
ATOM      2  O   UNL A   1      36.514  32.456  33.118  1.00  0.00    -0.376 OA
BRANCH   2   3
ATOM      3  C   UNL A   1      36.293  31.176  32.493  1.00  0.00     0.202 C 
BRANCH   3   4
ATOM      4  C   UNL A   1      37.318  29.790  32.436  1.00  0.00     0.261 C 
BRANCH   4   5
ATOM      5  O   UNL A   1      37.614  28.590  31.225  1.00  0.00    -0.463 OA
BRANCH   5   6
ATOM      6  C   UNL A   1      38.640  28.207  30.266  1.00  0.00     0.313 C 
ATOM      7  O   UNL A   1      39.576  27.411  30.405  1.00  0.00    -0.252 OA
BRANCH   6   8
ATOM      8  C   UNL A   1      38.776  28.857  28.938  1.00  0.00     0.126 C 
ATOM      9  C   UNL A   1      40.205  29.357  28.689  1.00  0.00     0.025 C 
BRANCH   8  10
ATOM     10  C   UNL A   1      37.706  29.807  28.621  1.00  0.00    -0.033 A 
ATOM     11  C   UNL A   1      35.442  30.106  27.849  1.00  0.00    -0.015 A 
ATOM     12  C   UNL A   1      36.524  29.283  28.103  1.00  0.00     0.013 A 
ATOM     13  C   UNL A   1      35.564  31.476  28.177  1.00  0.00    -0.039 A 
ATOM     14  C   UNL A   1      36.792  31.987  28.643  1.00  0.00     0.004 A 
ATOM     15  C   UNL A   1      37.862  31.158  28.871  1.00  0.00     0.005 A 
BRANCH  11  16
ATOM     16  C   UNL A   1      34.293  29.496  27.179  1.00  0.00    -0.018 A 
ATOM     17  C   UNL A   1      30.997  27.546  25.200  1.00  0.00     0.044 C 
ATOM     18  C   UNL A   1      32.128  28.205  25.927  1.00  0.00    -0.051 A 
ATOM     19  C   UNL A   1      33.437  27.770  25.701  1.00  0.00     0.004 A 
ATOM     20  C   UNL A   1      31.900  29.248  26.831  1.00  0.00     0.004 A 
ATOM     21  C   UNL A   1      34.505  28.405  26.329  1.00  0.00     0.009 A 
ATOM     22  C   UNL A   1      32.974  29.885  27.456  1.00  0.00     0.009 A 
ENDBRANCH  11  16
BRANCH  13  23
ATOM     23  C   UNL A   1      34.404  32.437  28.104  1.00  0.00     0.047 C 
BRANCH  23  24
ATOM     24  C   UNL A   1      34.709  33.837  28.643  1.00  0.00     0.060 C 
ATOM     25  C   UNL A   1      34.299  34.989  27.721  1.00  0.00     0.012 C 
ATOM     26  C   UNL A   1      34.005  34.197  29.941  1.00  0.00     0.136 C 
ATOM     27  C   UNL A   1      33.964  36.128  28.669  1.00  0.00     0.009 C 
ATOM     28  C   UNL A   1      33.224  35.477  29.823  1.00  0.00     0.076 C 
ATOM     29  O   UNL A   1      34.091  33.544  30.974  1.00  0.00    -0.299 OA
ENDBRANCH  23  24
ENDBRANCH  13  23
ENDBRANCH   8  10
ENDBRANCH   6   8
ENDBRANCH   5   6
ENDBRANCH   4   5
ENDBRANCH   3   4
ENDBRANCH   2   3
ENDBRANCH   1   2
BRANCH   1  30
ATOM     30  C   UNL A   1      37.158  34.059  35.087  1.00  0.00     0.188 C 
BRANCH  30  31
ATOM     31  O   UNL A   1      37.602  34.921  34.064  1.00  0.00    -0.376 OA
BRANCH  31  32
ATOM     32  C   UNL A   1      38.981  34.853  33.775  1.00  0.00     0.202 C 
BRANCH  32  33
ATOM     33  C   UNL A   1      39.298  34.368  32.341  1.00  0.00     0.261 C 
BRANCH  33  34
ATOM     34  O   UNL A   1      40.671  33.930  32.182  1.00  0.00    -0.460 OA
BRANCH  34  35
ATOM     35  C   UNL A   1      41.019  33.329  30.986  1.00  0.00     0.338 C 
ATOM     36  O   UNL A   1      40.939  33.896  29.908  1.00  0.00    -0.246 OA
BRANCH  35  37
ATOM     37  C   UNL A   1      41.350  31.880  31.220  1.00  0.00     0.060 A 
ATOM     38  C   UNL A   1      40.676  30.922  31.994  1.00  0.00     0.016 A 
ATOM     39  C   UNL A   1      42.595  31.531  30.838  1.00  0.00     0.016 A 
ATOM     40  C   UNL A   1      41.355  29.737  32.537  1.00  0.00     0.010 A 
ATOM     41  C   UNL A   1      43.235  30.567  31.601  1.00  0.00     0.010 A 
ATOM     42  C   UNL A   1      42.742  29.554  32.455  1.00  0.00    -0.014 A 
BRANCH  42  43
ATOM     43  C   UNL A   1      43.700  28.434  33.293  1.00  0.00     0.031 A 
ATOM     44  C   UNL A   1      44.778  28.523  34.665  1.00  0.00     0.074 A 
ATOM     45  C   UNL A   1      43.732  27.211  32.725  1.00  0.00     0.049 A 
ATOM     46  N   UNL A   1      45.759  27.669  34.904  1.00  0.00    -0.248 NA
ATOM     47  C   UNL A   1      44.915  29.571  35.764  1.00  0.00     0.031 C 
ATOM     48  C   UNL A   1      44.250  25.967  33.274  1.00  0.00     0.029 A 
ATOM     49  N   UNL A   1      43.383  26.877  31.414  1.00  0.00    -0.354 N 
ATOM     50  C   UNL A   1      46.392  28.044  36.106  1.00  0.00     0.074 A 
ATOM     51  C   UNL A   1      46.082  29.381  36.333  1.00  0.00     0.031 C 
ATOM     52  C   UNL A   1      44.479  25.120  32.260  1.00  0.00     0.029 A 
ATOM     53  C   UNL A   1      44.254  25.852  31.027  1.00  0.00     0.049 A 
ATOM     54  H   UNL A   1      42.667  27.281  30.872  1.00  0.00     0.167 HD
ATOM     55  C   UNL A   1      46.955  27.185  36.994  1.00  0.00     0.034 A 
ATOM     56  C   UNL A   1      45.145  26.090  30.022  1.00  0.00     0.034 A 
ATOM     57  C   UNL A   1      47.340  26.001  36.261  1.00  0.00     0.049 A 
ATOM     58  C   UNL A   1      46.586  25.976  30.489  1.00  0.00     0.074 A 
ATOM     59  C   UNL A   1      46.760  24.789  35.961  1.00  0.00     0.029 A 
ATOM     60  N   UNL A   1      48.330  26.203  35.322  1.00  0.00    -0.354 N 
ATOM     61  N   UNL A   1      46.954  25.530  31.665  1.00  0.00    -0.248 NA
ATOM     62  C   UNL A   1      47.734  26.397  29.685  1.00  0.00     0.031 C 
ATOM     63  C   UNL A   1      47.272  24.395  34.677  1.00  0.00     0.029 A 
ATOM     64  C   UNL A   1      48.194  25.343  34.249  1.00  0.00     0.049 A 
ATOM     65  H   UNL A   1      49.044  26.876  35.405  1.00  0.00     0.167 HD
ATOM     66  C   UNL A   1      48.286  25.781  31.848  1.00  0.00     0.074 A 
ATOM     67  C   UNL A   1      48.747  26.255  30.555  1.00  0.00     0.031 C 
ATOM     68  C   UNL A   1      48.944  25.665  33.039  1.00  0.00     0.034 A 
BRANCH  55  69
ATOM     69  C   UNL A   1      47.079  27.396  38.527  1.00  0.00     0.023 A 
ATOM     70  C   UNL A   1      48.354  27.135  39.071  1.00  0.00     0.012 A 
ATOM     71  C   UNL A   1      46.068  27.689  39.505  1.00  0.00     0.148 A 
ATOM     72  C   UNL A   1      48.609  27.127  40.454  1.00  0.00     0.002 A 
ATOM     73  C   UNL A   1      46.327  27.702  40.886  1.00  0.00     0.091 A 
ATOM     74  F   UNL A   1      44.805  27.921  39.156  1.00  0.00    -0.205 F 
ATOM     75  C   UNL A   1      47.599  27.406  41.363  1.00  0.00     0.022 A 
BRANCH  73  76
ATOM     76  S   UNL A   1      45.046  28.015  42.135  1.00  0.00     0.127 S 
ATOM     77  O   UNL A   1      44.093  26.933  41.874  1.00  0.00    -0.237 OA
ATOM     78  O   UNL A   1      45.786  27.876  43.388  1.00  0.00    -0.237 OA
ATOM     79  O   UNL A   1      44.518  29.349  41.874  1.00  0.00    -0.744 OA
ENDBRANCH  73  76
ENDBRANCH  55  69
BRANCH  56  80
ATOM     80  C   UNL A   1      44.559  26.952  28.926  1.00  0.00     0.023 A 
ATOM     81  C   UNL A   1      45.095  28.270  28.824  1.00  0.00     0.012 A 
ATOM     82  C   UNL A   1      43.772  26.493  27.854  1.00  0.00     0.148 A 
ATOM     83  C   UNL A   1      44.979  29.035  27.662  1.00  0.00     0.002 A 
ATOM     84  C   UNL A   1      43.623  27.286  26.702  1.00  0.00     0.091 A 
ATOM     85  F   UNL A   1      43.230  25.272  27.918  1.00  0.00    -0.205 F 
ATOM     86  C   UNL A   1      44.257  28.534  26.592  1.00  0.00     0.022 A 
BRANCH  84  87
ATOM     87  S   UNL A   1      42.737  26.681  25.250  1.00  0.00     0.127 S 
ATOM     88  O   UNL A   1      43.536  25.517  24.883  1.00  0.00    -0.237 OA
ATOM     89  O   UNL A   1      41.410  26.362  25.782  1.00  0.00    -0.237 OA
ATOM     90  O   UNL A   1      42.746  27.800  24.320  1.00  0.00    -0.744 OA
ENDBRANCH  84  87
ENDBRANCH  56  80
BRANCH  68  91
ATOM     91  C   UNL A   1      50.437  25.854  33.121  1.00  0.00     0.023 A 
ATOM     92  C   UNL A   1      51.252  24.713  33.205  1.00  0.00     0.012 A 
ATOM     93  C   UNL A   1      51.034  27.112  33.353  1.00  0.00     0.148 A 
ATOM     94  C   UNL A   1      52.604  24.817  33.538  1.00  0.00     0.002 A 
ATOM     95  C   UNL A   1      52.338  27.197  33.818  1.00  0.00     0.091 A 
ATOM     96  F   UNL A   1      50.338  28.231  33.104  1.00  0.00    -0.205 F 
ATOM     97  C   UNL A   1      53.136  26.054  33.890  1.00  0.00     0.022 A 
BRANCH  95  98
ATOM     98  S   UNL A   1      52.952  28.715  34.567  1.00  0.00     0.127 S 
ATOM     99  O   UNL A   1      54.212  28.273  35.169  1.00  0.00    -0.237 OA
ATOM    100  O   UNL A   1      53.103  29.590  33.408  1.00  0.00    -0.237 OA
ATOM    101  O   UNL A   1      51.932  29.092  35.537  1.00  0.00    -0.744 OA
ENDBRANCH  95  98
ENDBRANCH  68  91
ENDBRANCH  42  43
ENDBRANCH  35  37
ENDBRANCH  34  35
ENDBRANCH  33  34
ENDBRANCH  32  33
ENDBRANCH  31  32
ENDBRANCH  30  31
ENDBRANCH   1  30
TORSDOF 24
ENDMDL
