MODEL 1
REMARK VINA RESULT:     -11.0      0.000      0.000
REMARK SMILES O=C(OCCOCCOCCOC(=O)[C@H]1CCCN(C(=O)c2c[nH]c3ccccc23)C1)c1ccc(-c2c3nc(c(-c4cccc(S(=O)(=O)[O-])c4F)c4ccc([nH]4)c(-c4cccc(S(=O)(=O)[O-])c4F)c4nc(c(-c5cccc(S(=O)(=O)[O-])c5F)c5ccc2[nH]5)C=C4)C=C3)cc1
REMARK SMILES IDX 7 1 6 2 5 3 4 4 3 5 2 6 1 7 32 8 33 9 94 10 34 11 93 12
REMARK SMILES IDX 35 13 36 14 37 15 87 16 38 17 92 18 86 19 88 20 39 21 91 22
REMARK SMILES IDX 85 23 84 24 40 26 72 27 52 28 71 29 53 30 56 31 70 32 89 33
REMARK SMILES IDX 54 34 55 35 69 37 90 38 57 39 41 40 42 41 50 42 43 43 45 44
REMARK SMILES IDX 51 45 44 46 46 47 47 48 48 49 49 50 73 51 74 52 82 53 75 54
REMARK SMILES IDX 77 55 83 56 76 57 78 58 79 59 80 60 81 61 58 62 59 63 67 64
REMARK SMILES IDX 60 65 62 66 68 67 61 68 63 69 64 70 65 71 66 72 8 73 9 74
REMARK SMILES IDX 10 75 11 76 12 77 13 78 14 79 15 80 16 81 31 82 17 83 19 84
REMARK SMILES IDX 18 85 20 86 21 87 22 88 23 89 30 90 24 91 25 92 29 93 26 95
REMARK SMILES IDX 28 96 27 97
REMARK H PARENT 88 25 56 36 24 94
REMARK Flexibility Score: inf
ROOT
ATOM      1  C   UNL A   1      31.897  29.270  24.765  1.00  0.00     0.188 C 
ENDROOT
BRANCH   1   2
ATOM      2  O   UNL A   1      31.795  29.669  26.125  1.00  0.00    -0.376 OA
BRANCH   2   3
ATOM      3  C   UNL A   1      32.497  30.814  26.607  1.00  0.00     0.202 C 
BRANCH   3   4
ATOM      4  C   UNL A   1      31.763  32.105  27.019  1.00  0.00     0.261 C 
BRANCH   4   5
ATOM      5  O   UNL A   1      32.492  33.345  27.195  1.00  0.00    -0.460 OA
BRANCH   5   6
ATOM      6  C   UNL A   1      33.129  33.930  28.235  1.00  0.00     0.338 C 
ATOM      7  O   UNL A   1      32.650  34.935  28.751  1.00  0.00    -0.246 OA
BRANCH   6   8
ATOM      8  C   UNL A   1      34.377  33.368  28.787  1.00  0.00     0.060 A 
ATOM      9  C   UNL A   1      34.405  32.231  29.574  1.00  0.00     0.016 A 
ATOM     10  C   UNL A   1      35.596  33.939  28.431  1.00  0.00     0.016 A 
ATOM     11  C   UNL A   1      35.508  31.842  30.282  1.00  0.00     0.010 A 
ATOM     12  C   UNL A   1      36.773  33.417  28.961  1.00  0.00     0.010 A 
ATOM     13  C   UNL A   1      36.713  32.404  29.932  1.00  0.00    -0.014 A 
BRANCH  13  14
ATOM     14  C   UNL A   1      37.919  31.901  30.573  1.00  0.00     0.031 A 
ATOM     15  C   UNL A   1      38.169  32.200  31.976  1.00  0.00     0.074 A 
ATOM     16  C   UNL A   1      38.740  31.043  29.960  1.00  0.00     0.049 A 
ATOM     17  N   UNL A   1      39.147  31.742  32.691  1.00  0.00    -0.248 NA
ATOM     18  C   UNL A   1      37.167  33.004  32.679  1.00  0.00     0.031 C 
ATOM     19  C   UNL A   1      38.372  30.341  28.766  1.00  0.00     0.029 A 
ATOM     20  N   UNL A   1      40.007  30.605  30.235  1.00  0.00    -0.354 N 
ATOM     21  C   UNL A   1      38.900  32.214  33.947  1.00  0.00     0.074 A 
ATOM     22  C   UNL A   1      37.687  33.010  33.894  1.00  0.00     0.031 C 
ATOM     23  C   UNL A   1      39.425  29.645  28.361  1.00  0.00     0.029 A 
ATOM     24  C   UNL A   1      40.509  29.776  29.262  1.00  0.00     0.049 A 
ATOM     25  H   UNL A   1      40.506  30.858  31.045  1.00  0.00     0.167 HD
ATOM     26  C   UNL A   1      39.638  31.973  35.040  1.00  0.00     0.034 A 
ATOM     27  C   UNL A   1      41.676  29.143  29.077  1.00  0.00     0.034 A 
ATOM     28  C   UNL A   1      40.846  31.206  35.075  1.00  0.00     0.049 A 
ATOM     29  C   UNL A   1      42.664  29.471  30.165  1.00  0.00     0.074 A 
ATOM     30  C   UNL A   1      41.661  30.980  36.166  1.00  0.00     0.029 A 
ATOM     31  N   UNL A   1      41.457  30.603  33.986  1.00  0.00    -0.354 N 
ATOM     32  N   UNL A   1      42.366  29.743  31.413  1.00  0.00    -0.248 NA
ATOM     33  C   UNL A   1      44.096  29.316  29.915  1.00  0.00     0.031 C 
ATOM     34  C   UNL A   1      42.811  30.326  35.723  1.00  0.00     0.029 A 
ATOM     35  C   UNL A   1      42.686  30.083  34.365  1.00  0.00     0.049 A 
ATOM     36  H   UNL A   1      41.075  30.552  33.080  1.00  0.00     0.167 HD
ATOM     37  C   UNL A   1      43.517  29.480  32.128  1.00  0.00     0.074 A 
ATOM     38  C   UNL A   1      44.524  29.110  31.155  1.00  0.00     0.031 C 
ATOM     39  C   UNL A   1      43.650  29.480  33.475  1.00  0.00     0.034 A 
BRANCH  26  40
ATOM     40  C   UNL A   1      39.200  32.710  36.243  1.00  0.00     0.023 A 
ATOM     41  C   UNL A   1      39.634  34.023  36.490  1.00  0.00     0.012 A 
ATOM     42  C   UNL A   1      38.386  32.030  37.159  1.00  0.00     0.148 A 
ATOM     43  C   UNL A   1      39.259  34.656  37.667  1.00  0.00     0.002 A 
ATOM     44  C   UNL A   1      37.960  32.690  38.289  1.00  0.00     0.091 A 
ATOM     45  F   UNL A   1      38.076  30.750  36.911  1.00  0.00    -0.205 F 
ATOM     46  C   UNL A   1      38.405  33.998  38.555  1.00  0.00     0.022 A 
BRANCH  44  47
ATOM     47  S   UNL A   1      36.805  31.943  39.428  1.00  0.00     0.127 S 
ATOM     48  O   UNL A   1      37.295  32.441  40.713  1.00  0.00    -0.237 OA
ATOM     49  O   UNL A   1      35.540  32.524  38.984  1.00  0.00    -0.237 OA
ATOM     50  O   UNL A   1      36.920  30.503  39.245  1.00  0.00    -0.744 OA
ENDBRANCH  44  47
ENDBRANCH  26  40
BRANCH  27  51
ATOM     51  C   UNL A   1      42.019  28.100  27.854  1.00  0.00     0.023 A 
ATOM     52  C   UNL A   1      41.830  27.950  25.835  1.00  0.00     0.012 A 
ATOM     53  C   UNL A   1      42.246  26.556  28.762  1.00  0.00     0.148 A 
ATOM     54  C   UNL A   1      41.777  26.313  25.073  1.00  0.00     0.002 A 
ATOM     55  C   UNL A   1      42.214  25.037  27.895  1.00  0.00     0.091 A 
ATOM     56  F   UNL A   1      42.506  26.607  30.078  1.00  0.00    -0.205 F 
ATOM     57  C   UNL A   1      41.951  24.912  26.127  1.00  0.00     0.022 A 
BRANCH  55  58
ATOM     58  S   UNL A   1      43.311  23.725  28.563  1.00  0.00     0.127 S 
ATOM     59  O   UNL A   1      43.092  22.625  27.636  1.00  0.00    -0.237 OA
ATOM     60  O   UNL A   1      44.614  24.389  28.460  1.00  0.00    -0.237 OA
ATOM     61  O   UNL A   1      42.860  23.531  29.935  1.00  0.00    -0.744 OA
ENDBRANCH  55  58
ENDBRANCH  27  51
BRANCH  39  62
ATOM     62  C   UNL A   1      44.861  28.818  34.076  1.00  0.00     0.023 A 
ATOM     63  C   UNL A   1      45.978  29.566  34.488  1.00  0.00     0.012 A 
ATOM     64  C   UNL A   1      44.865  27.420  34.278  1.00  0.00     0.148 A 
ATOM     65  C   UNL A   1      47.108  28.935  35.004  1.00  0.00     0.002 A 
ATOM     66  C   UNL A   1      45.950  26.809  34.891  1.00  0.00     0.091 A 
ATOM     67  F   UNL A   1      43.803  26.706  33.871  1.00  0.00    -0.205 F 
ATOM     68  C   UNL A   1      47.086  27.561  35.223  1.00  0.00     0.022 A 
BRANCH  66  69
ATOM     69  S   UNL A   1      45.951  25.077  35.365  1.00  0.00     0.127 S 
ATOM     70  O   UNL A   1      46.054  24.412  34.066  1.00  0.00    -0.237 OA
ATOM     71  O   UNL A   1      47.155  24.993  36.191  1.00  0.00    -0.237 OA
ATOM     72  O   UNL A   1      44.704  24.846  36.079  1.00  0.00    -0.744 OA
ENDBRANCH  66  69
ENDBRANCH  39  62
ENDBRANCH  13  14
ENDBRANCH   6   8
ENDBRANCH   5   6
ENDBRANCH   4   5
ENDBRANCH   3   4
ENDBRANCH   2   3
ENDBRANCH   1   2
BRANCH   1  73
ATOM     73  C   UNL A   1      30.614  28.793  24.085  1.00  0.00     0.188 C 
BRANCH  73  74
ATOM     74  O   UNL A   1      30.683  27.607  23.304  1.00  0.00    -0.376 OA
BRANCH  74  75
ATOM     75  C   UNL A   1      31.499  27.640  22.138  1.00  0.00     0.202 C 
BRANCH  75  76
ATOM     76  C   UNL A   1      31.786  26.319  21.413  1.00  0.00     0.261 C 
BRANCH  76  77
ATOM     77  O   UNL A   1      33.134  25.856  21.514  1.00  0.00    -0.463 OA
BRANCH  77  78
ATOM     78  C   UNL A   1      33.357  24.673  22.140  1.00  0.00     0.310 C 
ATOM     79  O   UNL A   1      33.428  23.585  21.582  1.00  0.00    -0.252 OA
BRANCH  78  80
ATOM     80  C   UNL A   1      33.442  24.847  23.629  1.00  0.00     0.119 C 
ATOM     81  C   UNL A   1      33.866  26.131  24.343  1.00  0.00     0.019 C 
ATOM     82  C   UNL A   1      32.117  24.486  24.253  1.00  0.00     0.135 C 
ATOM     83  C   UNL A   1      34.183  25.745  25.814  1.00  0.00     0.022 C 
ATOM     84  N   UNL A   1      32.469  23.847  25.480  1.00  0.00    -0.338 N 
ATOM     85  C   UNL A   1      33.196  24.726  26.454  1.00  0.00     0.120 C 
BRANCH  84  86
ATOM     86  C   UNL A   1      32.165  22.473  25.504  1.00  0.00     0.256 C 
ATOM     87  O   UNL A   1      31.030  22.045  25.715  1.00  0.00    -0.269 OA
BRANCH  86  88
ATOM     88  C   UNL A   1      33.233  21.554  25.267  1.00  0.00     0.065 A 
ATOM     89  C   UNL A   1      34.436  21.656  25.914  1.00  0.00     0.097 A 
ATOM     90  C   UNL A   1      33.269  20.429  24.392  1.00  0.00     0.012 A 
ATOM     91  N   UNL A   1      35.257  20.589  25.687  1.00  0.00    -0.360 N 
ATOM     92  C   UNL A   1      34.664  19.513  24.940  1.00  0.00     0.046 A 
ATOM     93  C   UNL A   1      32.201  19.664  23.205  1.00  0.00     0.011 A 
ATOM     94  H   UNL A   1      36.187  20.559  26.010  1.00  0.00     0.166 HD
ATOM     95  C   UNL A   1      34.941  17.652  24.232  1.00  0.00     0.027 A 
ATOM     96  C   UNL A   1      32.438  18.050  22.524  1.00  0.00     0.001 A 
ATOM     97  C   UNL A   1      33.782  17.039  22.978  1.00  0.00     0.002 A 
ENDBRANCH  86  88
ENDBRANCH  84  86
ENDBRANCH  78  80
ENDBRANCH  77  78
ENDBRANCH  76  77
ENDBRANCH  75  76
ENDBRANCH  74  75
ENDBRANCH  73  74
ENDBRANCH   1  73
TORSDOF 22
ENDMDL
MODEL 2
REMARK VINA RESULT:     -10.8      2.227      7.096
REMARK SMILES O=C(OCCOCCOCCOC(=O)[C@H]1CCCN(C(=O)c2c[nH]c3ccccc23)C1)c1ccc(-c2c3nc(c(-c4cccc(S(=O)(=O)[O-])c4F)c4ccc([nH]4)c(-c4cccc(S(=O)(=O)[O-])c4F)c4nc(c(-c5cccc(S(=O)(=O)[O-])c5F)c5ccc2[nH]5)C=C4)C=C3)cc1
REMARK SMILES IDX 7 1 6 2 5 3 4 4 3 5 2 6 1 7 32 8 33 9 94 10 34 11 93 12
REMARK SMILES IDX 35 13 36 14 37 15 87 16 38 17 92 18 86 19 88 20 39 21 91 22
REMARK SMILES IDX 85 23 84 24 40 26 72 27 52 28 71 29 53 30 56 31 70 32 89 33
REMARK SMILES IDX 54 34 55 35 69 37 90 38 57 39 41 40 42 41 50 42 43 43 45 44
REMARK SMILES IDX 51 45 44 46 46 47 47 48 48 49 49 50 73 51 74 52 82 53 75 54
REMARK SMILES IDX 77 55 83 56 76 57 78 58 79 59 80 60 81 61 58 62 59 63 67 64
REMARK SMILES IDX 60 65 62 66 68 67 61 68 63 69 64 70 65 71 66 72 8 73 9 74
REMARK SMILES IDX 10 75 11 76 12 77 13 78 14 79 15 80 16 81 31 82 17 83 19 84
REMARK SMILES IDX 18 85 20 86 21 87 22 88 23 89 30 90 24 91 25 92 29 93 26 95
REMARK SMILES IDX 28 96 27 97
REMARK H PARENT 88 25 56 36 24 94
REMARK Flexibility Score: inf
ROOT
ATOM      1  C   UNL A   1      32.271  29.494  25.234  1.00  0.00     0.188 C 
ENDROOT
BRANCH   1   2
ATOM      2  O   UNL A   1      32.106  29.855  26.597  1.00  0.00    -0.376 OA
BRANCH   2   3
ATOM      3  C   UNL A   1      32.693  31.048  27.116  1.00  0.00     0.202 C 
BRANCH   3   4
ATOM      4  C   UNL A   1      31.927  32.385  27.147  1.00  0.00     0.261 C 
BRANCH   4   5
ATOM      5  O   UNL A   1      32.637  33.639  27.300  1.00  0.00    -0.460 OA
BRANCH   5   6
ATOM      6  C   UNL A   1      33.229  34.272  28.338  1.00  0.00     0.338 C 
ATOM      7  O   UNL A   1      32.773  35.339  28.738  1.00  0.00    -0.246 OA
BRANCH   6   8
ATOM      8  C   UNL A   1      34.399  33.693  29.027  1.00  0.00     0.060 A 
ATOM      9  C   UNL A   1      35.697  34.097  28.770  1.00  0.00     0.016 A 
ATOM     10  C   UNL A   1      34.199  32.769  30.048  1.00  0.00     0.016 A 
ATOM     11  C   UNL A   1      36.792  33.413  29.218  1.00  0.00     0.010 A 
ATOM     12  C   UNL A   1      35.303  32.215  30.691  1.00  0.00     0.010 A 
ATOM     13  C   UNL A   1      36.597  32.500  30.228  1.00  0.00    -0.014 A 
BRANCH  13  14
ATOM     14  C   UNL A   1      37.767  31.865  30.816  1.00  0.00     0.031 A 
ATOM     15  C   UNL A   1      38.508  30.869  30.055  1.00  0.00     0.074 A 
ATOM     16  C   UNL A   1      38.280  32.270  31.981  1.00  0.00     0.049 A 
ATOM     17  N   UNL A   1      39.612  30.298  30.418  1.00  0.00    -0.248 NA
ATOM     18  C   UNL A   1      38.025  30.560  28.707  1.00  0.00     0.031 C 
ATOM     19  C   UNL A   1      37.911  33.511  32.597  1.00  0.00     0.029 A 
ATOM     20  N   UNL A   1      39.199  31.727  32.837  1.00  0.00    -0.354 N 
ATOM     21  C   UNL A   1      39.968  29.533  29.345  1.00  0.00     0.074 A 
ATOM     22  C   UNL A   1      38.951  29.699  28.322  1.00  0.00     0.031 C 
ATOM     23  C   UNL A   1      38.519  33.579  33.773  1.00  0.00     0.029 A 
ATOM     24  C   UNL A   1      39.359  32.460  33.986  1.00  0.00     0.049 A 
ATOM     25  H   UNL A   1      39.694  30.896  32.647  1.00  0.00     0.167 HD
ATOM     26  C   UNL A   1      41.068  28.774  29.247  1.00  0.00     0.034 A 
ATOM     27  C   UNL A   1      40.097  32.318  35.096  1.00  0.00     0.034 A 
ATOM     28  C   UNL A   1      42.052  28.599  30.273  1.00  0.00     0.049 A 
ATOM     29  C   UNL A   1      40.880  31.032  35.082  1.00  0.00     0.074 A 
ATOM     30  C   UNL A   1      43.167  27.786  30.231  1.00  0.00     0.029 A 
ATOM     31  N   UNL A   1      42.018  29.170  31.536  1.00  0.00    -0.354 N 
ATOM     32  N   UNL A   1      41.354  30.436  34.014  1.00  0.00    -0.248 NA
ATOM     33  C   UNL A   1      41.333  30.445  36.342  1.00  0.00     0.031 C 
ATOM     34  C   UNL A   1      43.755  27.789  31.496  1.00  0.00     0.029 A 
ATOM     35  C   UNL A   1      43.046  28.655  32.311  1.00  0.00     0.049 A 
ATOM     36  H   UNL A   1      41.362  29.841  31.836  1.00  0.00     0.167 HD
ATOM     37  C   UNL A   1      42.381  29.634  34.470  1.00  0.00     0.074 A 
ATOM     38  C   UNL A   1      42.392  29.769  35.913  1.00  0.00     0.031 C 
ATOM     39  C   UNL A   1      43.258  28.934  33.713  1.00  0.00     0.034 A 
BRANCH  26  40
ATOM     40  C   UNL A   1      41.138  27.960  28.016  1.00  0.00     0.023 A 
ATOM     41  C   UNL A   1      41.686  28.481  26.831  1.00  0.00     0.012 A 
ATOM     42  C   UNL A   1      40.585  26.674  28.056  1.00  0.00     0.148 A 
ATOM     43  C   UNL A   1      41.669  27.711  25.676  1.00  0.00     0.002 A 
ATOM     44  C   UNL A   1      40.636  25.891  26.925  1.00  0.00     0.091 A 
ATOM     45  F   UNL A   1      40.000  26.265  29.191  1.00  0.00    -0.205 F 
ATOM     46  C   UNL A   1      41.164  26.410  25.729  1.00  0.00     0.022 A 
BRANCH  44  47
ATOM     47  S   UNL A   1      40.086  24.192  26.938  1.00  0.00     0.127 S 
ATOM     48  O   UNL A   1      40.257  23.838  28.347  1.00  0.00    -0.237 OA
ATOM     49  O   UNL A   1      38.698  24.332  26.502  1.00  0.00    -0.237 OA
ATOM     50  O   UNL A   1      40.953  23.472  26.016  1.00  0.00    -0.744 OA
ENDBRANCH  44  47
ENDBRANCH  26  40
BRANCH  27  51
ATOM     51  C   UNL A   1      40.199  33.403  36.327  1.00  0.00     0.023 A 
ATOM     52  C   UNL A   1      39.061  34.165  37.830  1.00  0.00     0.012 A 
ATOM     53  C   UNL A   1      41.623  34.387  35.811  1.00  0.00     0.148 A 
ATOM     54  C   UNL A   1      39.445  35.805  38.483  1.00  0.00     0.002 A 
ATOM     55  C   UNL A   1      41.904  35.946  36.555  1.00  0.00     0.091 A 
ATOM     56  F   UNL A   1      42.480  33.872  34.917  1.00  0.00    -0.205 F 
ATOM     57  C   UNL A   1      40.839  36.649  37.813  1.00  0.00     0.022 A 
BRANCH  55  58
ATOM     58  S   UNL A   1      43.667  36.422  36.744  1.00  0.00     0.127 S 
ATOM     59  O   UNL A   1      44.193  36.235  35.400  1.00  0.00    -0.237 OA
ATOM     60  O   UNL A   1      43.522  37.816  37.178  1.00  0.00    -0.237 OA
ATOM     61  O   UNL A   1      44.178  35.537  37.782  1.00  0.00    -0.744 OA
ENDBRANCH  55  58
ENDBRANCH  27  51
BRANCH  39  62
ATOM     62  C   UNL A   1      44.517  28.423  34.361  1.00  0.00     0.023 A 
ATOM     63  C   UNL A   1      45.674  29.218  34.443  1.00  0.00     0.012 A 
ATOM     64  C   UNL A   1      44.530  27.136  34.944  1.00  0.00     0.148 A 
ATOM     65  C   UNL A   1      46.844  28.717  35.009  1.00  0.00     0.002 A 
ATOM     66  C   UNL A   1      45.666  26.684  35.601  1.00  0.00     0.091 A 
ATOM     67  F   UNL A   1      43.429  26.375  34.851  1.00  0.00    -0.205 F 
ATOM     68  C   UNL A   1      46.834  27.459  35.604  1.00  0.00     0.022 A 
BRANCH  66  69
ATOM     69  S   UNL A   1      45.700  25.152  36.537  1.00  0.00     0.127 S 
ATOM     70  O   UNL A   1      45.521  24.153  35.483  1.00  0.00    -0.237 OA
ATOM     71  O   UNL A   1      47.041  25.188  37.121  1.00  0.00    -0.237 OA
ATOM     72  O   UNL A   1      44.612  25.233  37.500  1.00  0.00    -0.744 OA
ENDBRANCH  66  69
ENDBRANCH  39  62
ENDBRANCH  13  14
ENDBRANCH   6   8
ENDBRANCH   5   6
ENDBRANCH   4   5
ENDBRANCH   3   4
ENDBRANCH   2   3
ENDBRANCH   1   2
BRANCH   1  73
ATOM     73  C   UNL A   1      31.005  29.156  24.447  1.00  0.00     0.188 C 
BRANCH  73  74
ATOM     74  O   UNL A   1      30.949  27.894  23.796  1.00  0.00    -0.376 OA
BRANCH  74  75
ATOM     75  C   UNL A   1      31.096  27.883  22.380  1.00  0.00     0.202 C 
BRANCH  75  76
ATOM     76  C   UNL A   1      31.415  26.549  21.693  1.00  0.00     0.261 C 
BRANCH  76  77
ATOM     77  O   UNL A   1      32.799  26.193  21.682  1.00  0.00    -0.463 OA
BRANCH  77  78
ATOM     78  C   UNL A   1      33.147  24.975  22.170  1.00  0.00     0.310 C 
ATOM     79  O   UNL A   1      33.252  23.954  21.503  1.00  0.00    -0.252 OA
BRANCH  78  80
ATOM     80  C   UNL A   1      33.327  25.013  23.660  1.00  0.00     0.119 C 
ATOM     81  C   UNL A   1      33.797  26.228  24.461  1.00  0.00     0.019 C 
ATOM     82  C   UNL A   1      32.045  24.588  24.333  1.00  0.00     0.135 C 
ATOM     83  C   UNL A   1      34.208  25.710  25.867  1.00  0.00     0.022 C 
ATOM     84  N   UNL A   1      32.474  23.841  25.470  1.00  0.00    -0.338 N 
ATOM     85  C   UNL A   1      33.263  24.632  26.473  1.00  0.00     0.120 C 
BRANCH  84  86
ATOM     86  C   UNL A   1      32.172  22.469  25.387  1.00  0.00     0.256 C 
ATOM     87  O   UNL A   1      31.026  22.032  25.494  1.00  0.00    -0.269 OA
BRANCH  86  88
ATOM     88  C   UNL A   1      33.255  21.564  25.165  1.00  0.00     0.065 A 
ATOM     89  C   UNL A   1      34.472  21.724  25.775  1.00  0.00     0.097 A 
ATOM     90  C   UNL A   1      33.295  20.402  24.342  1.00  0.00     0.012 A 
ATOM     91  N   UNL A   1      35.311  20.666  25.575  1.00  0.00    -0.360 N 
ATOM     92  C   UNL A   1      34.725  19.543  24.894  1.00  0.00     0.046 A 
ATOM     93  C   UNL A   1      32.216  19.558  23.220  1.00  0.00     0.011 A 
ATOM     94  H   UNL A   1      36.249  20.672  25.875  1.00  0.00     0.166 HD
ATOM     95  C   UNL A   1      35.028  17.658  24.266  1.00  0.00     0.027 A 
ATOM     96  C   UNL A   1      32.474  17.920  22.608  1.00  0.00     0.001 A 
ATOM     97  C   UNL A   1      33.853  16.961  23.072  1.00  0.00     0.002 A 
ENDBRANCH  86  88
ENDBRANCH  84  86
ENDBRANCH  78  80
ENDBRANCH  77  78
ENDBRANCH  76  77
ENDBRANCH  75  76
ENDBRANCH  74  75
ENDBRANCH  73  74
ENDBRANCH   1  73
TORSDOF 22
ENDMDL
MODEL 3
REMARK VINA RESULT:     -10.3      4.232      6.778
REMARK SMILES O=C(OCCOCCOCCOC(=O)[C@H]1CCCN(C(=O)c2c[nH]c3ccccc23)C1)c1ccc(-c2c3nc(c(-c4cccc(S(=O)(=O)[O-])c4F)c4ccc([nH]4)c(-c4cccc(S(=O)(=O)[O-])c4F)c4nc(c(-c5cccc(S(=O)(=O)[O-])c5F)c5ccc2[nH]5)C=C4)C=C3)cc1
REMARK SMILES IDX 7 1 6 2 5 3 4 4 3 5 2 6 1 7 32 8 33 9 94 10 34 11 93 12
REMARK SMILES IDX 35 13 36 14 37 15 87 16 38 17 92 18 86 19 88 20 39 21 91 22
REMARK SMILES IDX 85 23 84 24 40 26 72 27 52 28 71 29 53 30 56 31 70 32 89 33
REMARK SMILES IDX 54 34 55 35 69 37 90 38 57 39 41 40 42 41 50 42 43 43 45 44
REMARK SMILES IDX 51 45 44 46 46 47 47 48 48 49 49 50 73 51 74 52 82 53 75 54
REMARK SMILES IDX 77 55 83 56 76 57 78 58 79 59 80 60 81 61 58 62 59 63 67 64
REMARK SMILES IDX 60 65 62 66 68 67 61 68 63 69 64 70 65 71 66 72 8 73 9 74
REMARK SMILES IDX 10 75 11 76 12 77 13 78 14 79 15 80 16 81 31 82 17 83 19 84
REMARK SMILES IDX 18 85 20 86 21 87 22 88 23 89 30 90 24 91 25 92 29 93 26 95
REMARK SMILES IDX 28 96 27 97
REMARK H PARENT 88 25 56 36 24 94
REMARK Flexibility Score: inf
ROOT
ATOM      1  C   UNL A   1      33.816  34.072  28.508  1.00  0.00     0.188 C 
ENDROOT
BRANCH   1   2
ATOM      2  O   UNL A   1      32.941  34.993  29.144  1.00  0.00    -0.376 OA
BRANCH   2   3
ATOM      3  C   UNL A   1      33.365  35.738  30.286  1.00  0.00     0.202 C 
BRANCH   3   4
ATOM      4  C   UNL A   1      33.625  35.063  31.646  1.00  0.00     0.261 C 
BRANCH   4   5
ATOM      5  O   UNL A   1      34.818  34.266  31.859  1.00  0.00    -0.460 OA
BRANCH   5   6
ATOM      6  C   UNL A   1      35.094  32.944  31.813  1.00  0.00     0.338 C 
ATOM      7  O   UNL A   1      34.250  32.134  32.185  1.00  0.00    -0.246 OA
BRANCH   6   8
ATOM      8  C   UNL A   1      36.383  32.444  31.296  1.00  0.00     0.060 A 
ATOM      9  C   UNL A   1      37.106  33.103  30.317  1.00  0.00     0.016 A 
ATOM     10  C   UNL A   1      36.956  31.314  31.873  1.00  0.00     0.016 A 
ATOM     11  C   UNL A   1      38.165  32.537  29.666  1.00  0.00     0.010 A 
ATOM     12  C   UNL A   1      38.166  30.836  31.378  1.00  0.00     0.010 A 
ATOM     13  C   UNL A   1      38.734  31.422  30.235  1.00  0.00    -0.014 A 
BRANCH  13  14
ATOM     14  C   UNL A   1      39.948  30.888  29.636  1.00  0.00     0.031 A 
ATOM     15  C   UNL A   1      41.221  31.556  29.865  1.00  0.00     0.074 A 
ATOM     16  C   UNL A   1      39.965  29.713  29.000  1.00  0.00     0.049 A 
ATOM     17  N   UNL A   1      42.383  31.140  29.474  1.00  0.00    -0.248 NA
ATOM     18  C   UNL A   1      41.207  32.754  30.709  1.00  0.00     0.031 C 
ATOM     19  C   UNL A   1      38.891  28.768  29.094  1.00  0.00     0.029 A 
ATOM     20  N   UNL A   1      40.880  29.105  28.184  1.00  0.00    -0.354 N 
ATOM     21  C   UNL A   1      43.263  32.035  30.008  1.00  0.00     0.074 A 
ATOM     22  C   UNL A   1      42.499  33.030  30.739  1.00  0.00     0.031 C 
ATOM     23  C   UNL A   1      39.166  27.755  28.286  1.00  0.00     0.029 A 
ATOM     24  C   UNL A   1      40.431  27.914  27.670  1.00  0.00     0.049 A 
ATOM     25  H   UNL A   1      41.768  29.483  27.987  1.00  0.00     0.167 HD
ATOM     26  C   UNL A   1      44.598  31.996  29.892  1.00  0.00     0.034 A 
ATOM     27  C   UNL A   1      40.938  27.004  26.827  1.00  0.00     0.034 A 
ATOM     28  C   UNL A   1      45.340  31.023  29.148  1.00  0.00     0.049 A 
ATOM     29  C   UNL A   1      42.282  27.426  26.296  1.00  0.00     0.074 A 
ATOM     30  C   UNL A   1      46.706  30.979  28.959  1.00  0.00     0.029 A 
ATOM     31  N   UNL A   1      44.799  29.977  28.416  1.00  0.00    -0.354 N 
ATOM     32  N   UNL A   1      43.167  28.147  26.940  1.00  0.00    -0.248 NA
ATOM     33  C   UNL A   1      42.770  26.871  25.034  1.00  0.00     0.031 C 
ATOM     34  C   UNL A   1      46.986  29.970  28.039  1.00  0.00     0.029 A 
ATOM     35  C   UNL A   1      45.801  29.338  27.701  1.00  0.00     0.049 A 
ATOM     36  H   UNL A   1      43.847  29.726  28.404  1.00  0.00     0.167 HD
ATOM     37  C   UNL A   1      44.375  27.870  26.333  1.00  0.00     0.074 A 
ATOM     38  C   UNL A   1      44.080  26.983  25.226  1.00  0.00     0.031 C 
ATOM     39  C   UNL A   1      45.599  28.274  26.745  1.00  0.00     0.034 A 
BRANCH  26  40
ATOM     40  C   UNL A   1      45.294  33.162  30.475  1.00  0.00     0.023 A 
ATOM     41  C   UNL A   1      45.539  34.318  29.714  1.00  0.00     0.012 A 
ATOM     42  C   UNL A   1      45.753  33.050  31.793  1.00  0.00     0.148 A 
ATOM     43  C   UNL A   1      46.259  35.364  30.275  1.00  0.00     0.002 A 
ATOM     44  C   UNL A   1      46.403  34.119  32.365  1.00  0.00     0.091 A 
ATOM     45  F   UNL A   1      45.565  31.890  32.439  1.00  0.00    -0.205 F 
ATOM     46  C   UNL A   1      46.671  35.273  31.606  1.00  0.00     0.022 A 
BRANCH  44  47
ATOM     47  S   UNL A   1      46.889  34.108  34.084  1.00  0.00     0.127 S 
ATOM     48  O   UNL A   1      47.871  33.025  34.105  1.00  0.00    -0.237 OA
ATOM     49  O   UNL A   1      47.447  35.450  34.239  1.00  0.00    -0.237 OA
ATOM     50  O   UNL A   1      45.677  33.851  34.851  1.00  0.00    -0.744 OA
ENDBRANCH  44  47
ENDBRANCH  26  40
BRANCH  27  51
ATOM     51  C   UNL A   1      40.237  25.572  26.425  1.00  0.00     0.023 A 
ATOM     52  C   UNL A   1      38.412  24.809  25.957  1.00  0.00     0.012 A 
ATOM     53  C   UNL A   1      41.482  24.397  26.999  1.00  0.00     0.148 A 
ATOM     54  C   UNL A   1      38.089  23.054  26.243  1.00  0.00     0.002 A 
ATOM     55  C   UNL A   1      41.048  22.714  27.196  1.00  0.00     0.091 A 
ATOM     56  F   UNL A   1      42.739  24.826  27.196  1.00  0.00    -0.205 F 
ATOM     57  C   UNL A   1      39.409  22.069  26.870  1.00  0.00     0.022 A 
BRANCH  55  58
ATOM     58  S   UNL A   1      42.388  21.508  26.843  1.00  0.00     0.127 S 
ATOM     59  O   UNL A   1      42.605  21.683  25.416  1.00  0.00    -0.237 OA
ATOM     60  O   UNL A   1      43.449  22.027  27.713  1.00  0.00    -0.237 OA
ATOM     61  O   UNL A   1      41.851  20.225  27.278  1.00  0.00    -0.744 OA
ENDBRANCH  55  58
ENDBRANCH  27  51
BRANCH  39  62
ATOM     62  C   UNL A   1      46.811  27.579  26.182  1.00  0.00     0.023 A 
ATOM     63  C   UNL A   1      47.469  26.560  26.894  1.00  0.00     0.012 A 
ATOM     64  C   UNL A   1      47.275  27.919  24.892  1.00  0.00     0.148 A 
ATOM     65  C   UNL A   1      48.613  25.955  26.378  1.00  0.00     0.002 A 
ATOM     66  C   UNL A   1      48.350  27.239  24.339  1.00  0.00     0.091 A 
ATOM     67  F   UNL A   1      46.653  28.902  24.221  1.00  0.00    -0.205 F 
ATOM     68  C   UNL A   1      49.042  26.280  25.094  1.00  0.00     0.022 A 
BRANCH  66  69
ATOM     69  S   UNL A   1      48.875  27.469  22.637  1.00  0.00     0.127 S 
ATOM     70  O   UNL A   1      50.206  28.050  22.810  1.00  0.00    -0.237 OA
ATOM     71  O   UNL A   1      48.870  26.095  22.134  1.00  0.00    -0.237 OA
ATOM     72  O   UNL A   1      47.893  28.348  22.020  1.00  0.00    -0.744 OA
ENDBRANCH  66  69
ENDBRANCH  39  62
ENDBRANCH  13  14
ENDBRANCH   6   8
ENDBRANCH   5   6
ENDBRANCH   4   5
ENDBRANCH   3   4
ENDBRANCH   2   3
ENDBRANCH   1   2
BRANCH   1  73
ATOM     73  C   UNL A   1      33.174  32.865  27.826  1.00  0.00     0.188 C 
BRANCH  73  74
ATOM     74  O   UNL A   1      31.884  33.039  27.254  1.00  0.00    -0.376 OA
BRANCH  74  75
ATOM     75  C   UNL A   1      31.303  31.916  26.599  1.00  0.00     0.202 C 
BRANCH  75  76
ATOM     76  C   UNL A   1      32.215  30.742  26.223  1.00  0.00     0.261 C 
BRANCH  76  77
ATOM     77  O   UNL A   1      31.532  29.531  25.891  1.00  0.00    -0.463 OA
BRANCH  77  78
ATOM     78  C   UNL A   1      30.963  29.437  24.662  1.00  0.00     0.310 C 
ATOM     79  O   UNL A   1      30.246  30.289  24.153  1.00  0.00    -0.252 OA
BRANCH  78  80
ATOM     80  C   UNL A   1      31.266  28.116  24.017  1.00  0.00     0.119 C 
ATOM     81  C   UNL A   1      31.633  27.917  22.546  1.00  0.00     0.019 C 
ATOM     82  C   UNL A   1      32.372  27.427  24.779  1.00  0.00     0.135 C 
ATOM     83  C   UNL A   1      31.474  26.401  22.242  1.00  0.00     0.022 C 
ATOM     84  N   UNL A   1      32.018  26.045  24.738  1.00  0.00    -0.338 N 
ATOM     85  C   UNL A   1      31.988  25.450  23.361  1.00  0.00     0.120 C 
BRANCH  84  86
ATOM     86  C   UNL A   1      31.655  25.522  25.993  1.00  0.00     0.256 C 
ATOM     87  O   UNL A   1      31.407  26.235  26.966  1.00  0.00    -0.269 OA
BRANCH  86  88
ATOM     88  C   UNL A   1      31.570  24.101  26.120  1.00  0.00     0.065 A 
ATOM     89  C   UNL A   1      30.419  23.475  26.522  1.00  0.00     0.097 A 
ATOM     90  C   UNL A   1      32.570  23.119  25.868  1.00  0.00     0.012 A 
ATOM     91  N   UNL A   1      30.484  22.116  26.410  1.00  0.00    -0.360 N 
ATOM     92  C   UNL A   1      31.670  21.614  25.772  1.00  0.00     0.046 A 
ATOM     93  C   UNL A   1      34.276  23.084  25.394  1.00  0.00     0.011 A 
ATOM     94  H   UNL A   1      29.771  21.524  26.742  1.00  0.00     0.166 HD
ATOM     95  C   UNL A   1      32.602  19.967  25.093  1.00  0.00     0.027 A 
ATOM     96  C   UNL A   1      35.143  21.647  24.839  1.00  0.00     0.001 A 
ATOM     97  C   UNL A   1      34.369  20.092  24.701  1.00  0.00     0.002 A 
ENDBRANCH  86  88
ENDBRANCH  84  86
ENDBRANCH  78  80
ENDBRANCH  77  78
ENDBRANCH  76  77
ENDBRANCH  75  76
ENDBRANCH  74  75
ENDBRANCH  73  74
ENDBRANCH   1  73
TORSDOF 22
ENDMDL
