MODEL 1
REMARK VINA RESULT:     -10.3      0.000      0.000
REMARK SMILES C[C@H](Nc1ccc(F)cc1Br)[C@@H](C)C(=O)OCCOCCOCCOC(=O)c1ccc(-c2c3nc(c(-c4cccc(S(=O)(=O)[O-])c4F)c4ccc([nH]4)c(-c4cccc(S(=O)(=O)[O-])c4F)c4nc(c(-c5cccc(S(=O)(=O)[O-])c5F)c5ccc2[nH]5)C=C4)C=C3)cc1
REMARK SMILES IDX 20 1 19 2 18 3 17 4 16 5 14 6 15 7 12 8 13 9 2 10 1 11 3 12
REMARK SMILES IDX 4 14 5 15 10 16 6 17 9 18 11 19 7 20 8 21 21 22 22 23 23 24
REMARK SMILES IDX 24 25 25 26 26 27 27 28 28 29 29 30 90 31 30 32 89 33 31 34
REMARK SMILES IDX 32 35 33 36 83 37 34 38 88 39 82 40 84 41 35 42 87 43 81 44
REMARK SMILES IDX 80 45 36 47 68 48 48 49 67 50 49 51 52 52 66 53 85 54 50 55
REMARK SMILES IDX 51 56 65 58 86 59 53 60 37 61 38 62 46 63 39 64 41 65 47 66
REMARK SMILES IDX 40 67 42 68 43 69 44 70 45 71 69 72 70 73 78 74 71 75 73 76
REMARK SMILES IDX 79 77 72 78 74 79 75 80 76 81 77 82 54 83 55 84 63 85 56 86
REMARK SMILES IDX 58 87 64 88 57 89 59 90 60 91 61 92 62 93
REMARK H PARENT 3 13 84 46 52 57
REMARK Flexibility Score: inf
ROOT
ATOM      1  C   UNL A   1      29.302  30.090  23.175  1.00  0.00     0.188 C 
ENDROOT
BRANCH   1   2
ATOM      2  O   UNL A   1      29.320  28.764  22.653  1.00  0.00    -0.376 OA
BRANCH   2   3
ATOM      3  C   UNL A   1      28.383  27.821  23.152  1.00  0.00     0.202 C 
BRANCH   3   4
ATOM      4  C   UNL A   1      28.972  26.637  23.934  1.00  0.00     0.261 C 
BRANCH   4   5
ATOM      5  O   UNL A   1      30.405  26.645  24.167  1.00  0.00    -0.463 OA
BRANCH   5   6
ATOM      6  C   UNL A   1      31.046  25.485  23.853  1.00  0.00     0.310 C 
ATOM      7  O   UNL A   1      30.765  24.398  24.345  1.00  0.00    -0.252 OA
BRANCH   6   8
ATOM      8  C   UNL A   1      32.300  25.668  23.009  1.00  0.00     0.118 C 
ATOM      9  C   UNL A   1      31.801  26.174  21.647  1.00  0.00     0.022 C 
BRANCH   8  10
ATOM     10  C   UNL A   1      33.293  24.493  22.838  1.00  0.00     0.090 C 
ATOM     11  C   UNL A   1      32.854  23.419  21.856  1.00  0.00     0.031 C 
BRANCH  10  12
ATOM     12  N   UNL A   1      33.653  23.921  24.168  1.00  0.00    -0.381 N 
ATOM     13  H   UNL A   1      33.063  24.131  24.927  1.00  0.00     0.160 HD
BRANCH  12  14
ATOM     14  C   UNL A   1      34.765  23.112  24.418  1.00  0.00     0.049 A 
ATOM     15  C   UNL A   1      35.871  23.130  23.554  1.00  0.00     0.030 A 
ATOM     16  C   UNL A   1      34.843  22.256  25.540  1.00  0.00     0.044 A 
ATOM     17  C   UNL A   1      36.987  22.315  23.769  1.00  0.00     0.041 A 
ATOM     18  C   UNL A   1      35.953  21.432  25.757  1.00  0.00     0.057 A 
ATOM     19  Br  UNL A   1      33.478  22.211  26.861  1.00  0.00    -0.048 Br
ATOM     20  C   UNL A   1      37.013  21.468  24.864  1.00  0.00     0.124 A 
ATOM     21  F   UNL A   1      38.086  20.699  25.079  1.00  0.00    -0.207 F 
ENDBRANCH  12  14
ENDBRANCH  10  12
ENDBRANCH   8  10
ENDBRANCH   6   8
ENDBRANCH   5   6
ENDBRANCH   4   5
ENDBRANCH   3   4
ENDBRANCH   2   3
ENDBRANCH   1   2
BRANCH   1  22
ATOM     22  C   UNL A   1      30.304  30.427  24.273  1.00  0.00     0.188 C 
BRANCH  22  23
ATOM     23  O   UNL A   1      31.420  29.536  24.256  1.00  0.00    -0.376 OA
BRANCH  23  24
ATOM     24  C   UNL A   1      32.298  29.754  25.361  1.00  0.00     0.202 C 
BRANCH  24  25
ATOM     25  C   UNL A   1      31.770  30.934  26.180  1.00  0.00     0.261 C 
BRANCH  25  26
ATOM     26  O   UNL A   1      32.410  31.060  27.465  1.00  0.00    -0.460 OA
BRANCH  26  27
ATOM     27  C   UNL A   1      33.265  32.102  27.591  1.00  0.00     0.338 C 
ATOM     28  O   UNL A   1      32.959  33.281  27.627  1.00  0.00    -0.246 OA
BRANCH  27  29
ATOM     29  C   UNL A   1      34.633  31.602  27.859  1.00  0.00     0.060 A 
ATOM     30  C   UNL A   1      34.813  30.216  27.963  1.00  0.00     0.016 A 
ATOM     31  C   UNL A   1      35.709  32.467  28.070  1.00  0.00     0.016 A 
ATOM     32  C   UNL A   1      36.045  29.695  28.356  1.00  0.00     0.010 A 
ATOM     33  C   UNL A   1      36.944  31.945  28.469  1.00  0.00     0.010 A 
ATOM     34  C   UNL A   1      37.100  30.561  28.670  1.00  0.00    -0.014 A 
BRANCH  34  35
ATOM     35  C   UNL A   1      38.271  30.038  29.420  1.00  0.00     0.031 A 
ATOM     36  C   UNL A   1      38.509  30.545  30.820  1.00  0.00     0.074 A 
ATOM     37  C   UNL A   1      39.093  29.113  28.894  1.00  0.00     0.049 A 
ATOM     38  N   UNL A   1      39.464  30.246  31.662  1.00  0.00    -0.248 NA
ATOM     39  C   UNL A   1      37.539  31.525  31.339  1.00  0.00     0.031 C 
ATOM     40  C   UNL A   1      38.972  28.532  27.559  1.00  0.00     0.029 A 
ATOM     41  N   UNL A   1      40.208  28.512  29.425  1.00  0.00    -0.354 N 
ATOM     42  C   UNL A   1      39.230  31.022  32.791  1.00  0.00     0.074 A 
ATOM     43  C   UNL A   1      38.053  31.818  32.523  1.00  0.00     0.031 C 
ATOM     44  C   UNL A   1      39.986  27.668  27.368  1.00  0.00     0.029 A 
ATOM     45  C   UNL A   1      40.837  27.652  28.557  1.00  0.00     0.049 A 
ATOM     46  H   UNL A   1      40.526  28.682  30.342  1.00  0.00     0.167 HD
ATOM     47  C   UNL A   1      39.915  31.057  33.958  1.00  0.00     0.034 A 
ATOM     48  C   UNL A   1      41.973  26.942  28.704  1.00  0.00     0.034 A 
ATOM     49  C   UNL A   1      41.063  30.241  34.248  1.00  0.00     0.049 A 
ATOM     50  C   UNL A   1      42.724  27.004  30.012  1.00  0.00     0.074 A 
ATOM     51  C   UNL A   1      41.800  30.176  35.417  1.00  0.00     0.029 A 
ATOM     52  N   UNL A   1      41.643  29.349  33.360  1.00  0.00    -0.354 N 
ATOM     53  N   UNL A   1      42.427  27.658  31.109  1.00  0.00    -0.248 NA
ATOM     54  C   UNL A   1      43.952  26.198  30.112  1.00  0.00     0.031 C 
ATOM     55  C   UNL A   1      42.837  29.256  35.230  1.00  0.00     0.029 A 
ATOM     56  C   UNL A   1      42.733  28.733  33.952  1.00  0.00     0.049 A 
ATOM     57  H   UNL A   1      41.327  29.179  32.443  1.00  0.00     0.167 HD
ATOM     58  C   UNL A   1      43.408  27.317  32.036  1.00  0.00     0.074 A 
ATOM     59  C   UNL A   1      44.293  26.378  31.380  1.00  0.00     0.031 C 
ATOM     60  C   UNL A   1      43.574  27.758  33.309  1.00  0.00     0.034 A 
BRANCH  47  61
ATOM     61  C   UNL A   1      39.416  31.991  35.027  1.00  0.00     0.023 A 
ATOM     62  C   UNL A   1      39.619  33.379  34.890  1.00  0.00     0.012 A 
ATOM     63  C   UNL A   1      38.717  31.501  36.147  1.00  0.00     0.148 A 
ATOM     64  C   UNL A   1      39.162  34.264  35.865  1.00  0.00     0.002 A 
ATOM     65  C   UNL A   1      38.227  32.393  37.095  1.00  0.00     0.091 A 
ATOM     66  F   UNL A   1      38.558  30.177  36.274  1.00  0.00    -0.205 F 
ATOM     67  C   UNL A   1      38.458  33.772  36.962  1.00  0.00     0.022 A 
BRANCH  65  68
ATOM     68  S   UNL A   1      37.247  31.864  38.503  1.00  0.00     0.127 S 
ATOM     69  O   UNL A   1      36.057  32.704  38.368  1.00  0.00    -0.237 OA
ATOM     70  O   UNL A   1      37.028  30.447  38.212  1.00  0.00    -0.237 OA
ATOM     71  O   UNL A   1      38.064  32.121  39.681  1.00  0.00    -0.744 OA
ENDBRANCH  65  68
ENDBRANCH  47  61
BRANCH  48  72
ATOM     72  C   UNL A   1      42.461  26.072  27.596  1.00  0.00     0.023 A 
ATOM     73  C   UNL A   1      43.375  26.591  26.657  1.00  0.00     0.012 A 
ATOM     74  C   UNL A   1      42.024  24.740  27.464  1.00  0.00     0.148 A 
ATOM     75  C   UNL A   1      43.819  25.811  25.590  1.00  0.00     0.002 A 
ATOM     76  C   UNL A   1      42.511  23.952  26.427  1.00  0.00     0.091 A 
ATOM     77  F   UNL A   1      41.136  24.272  28.352  1.00  0.00    -0.205 F 
ATOM     78  C   UNL A   1      43.395  24.489  25.481  1.00  0.00     0.022 A 
BRANCH  76  79
ATOM     79  S   UNL A   1      42.110  22.207  26.276  1.00  0.00     0.127 S 
ATOM     80  O   UNL A   1      42.766  21.857  25.019  1.00  0.00    -0.237 OA
ATOM     81  O   UNL A   1      42.737  21.648  27.475  1.00  0.00    -0.237 OA
ATOM     82  O   UNL A   1      40.656  22.138  26.273  1.00  0.00    -0.744 OA
ENDBRANCH  76  79
ENDBRANCH  48  72
BRANCH  60  83
ATOM     83  C   UNL A   1      44.739  27.209  34.094  1.00  0.00     0.023 A 
ATOM     84  C   UNL A   1      45.979  27.878  34.063  1.00  0.00     0.012 A 
ATOM     85  C   UNL A   1      44.590  26.070  34.911  1.00  0.00     0.148 A 
ATOM     86  C   UNL A   1      47.062  27.400  34.800  1.00  0.00     0.002 A 
ATOM     87  C   UNL A   1      45.661  25.628  35.681  1.00  0.00     0.091 A 
ATOM     88  F   UNL A   1      43.410  25.433  34.916  1.00  0.00    -0.205 F 
ATOM     89  C   UNL A   1      46.901  26.283  35.618  1.00  0.00     0.022 A 
BRANCH  87  90
ATOM     90  S   UNL A   1      45.509  24.255  36.830  1.00  0.00     0.127 S 
ATOM     91  O   UNL A   1      44.415  24.703  37.690  1.00  0.00    -0.237 OA
ATOM     92  O   UNL A   1      45.169  23.140  35.945  1.00  0.00    -0.237 OA
ATOM     93  O   UNL A   1      46.810  24.132  37.475  1.00  0.00    -0.744 OA
ENDBRANCH  87  90
ENDBRANCH  60  83
ENDBRANCH  34  35
ENDBRANCH  27  29
ENDBRANCH  26  27
ENDBRANCH  25  26
ENDBRANCH  24  25
ENDBRANCH  23  24
ENDBRANCH  22  23
ENDBRANCH   1  22
TORSDOF 23
ENDMDL
MODEL 2
REMARK VINA RESULT:     -10.2      2.138      7.853
REMARK SMILES C[C@H](Nc1ccc(F)cc1Br)[C@@H](C)C(=O)OCCOCCOCCOC(=O)c1ccc(-c2c3nc(c(-c4cccc(S(=O)(=O)[O-])c4F)c4ccc([nH]4)c(-c4cccc(S(=O)(=O)[O-])c4F)c4nc(c(-c5cccc(S(=O)(=O)[O-])c5F)c5ccc2[nH]5)C=C4)C=C3)cc1
REMARK SMILES IDX 20 1 19 2 18 3 17 4 16 5 14 6 15 7 12 8 13 9 2 10 1 11 3 12
REMARK SMILES IDX 4 14 5 15 10 16 6 17 9 18 11 19 7 20 8 21 21 22 22 23 23 24
REMARK SMILES IDX 24 25 25 26 26 27 27 28 28 29 29 30 90 31 30 32 89 33 31 34
REMARK SMILES IDX 32 35 33 36 83 37 34 38 88 39 82 40 84 41 35 42 87 43 81 44
REMARK SMILES IDX 80 45 36 47 68 48 48 49 67 50 49 51 52 52 66 53 85 54 50 55
REMARK SMILES IDX 51 56 65 58 86 59 53 60 37 61 38 62 46 63 39 64 41 65 47 66
REMARK SMILES IDX 40 67 42 68 43 69 44 70 45 71 69 72 70 73 78 74 71 75 73 76
REMARK SMILES IDX 79 77 72 78 74 79 75 80 76 81 77 82 54 83 55 84 63 85 56 86
REMARK SMILES IDX 58 87 64 88 57 89 59 90 60 91 61 92 62 93
REMARK H PARENT 3 13 84 46 52 57
REMARK Flexibility Score: inf
ROOT
ATOM      1  C   UNL A   1      29.591  28.700  23.141  1.00  0.00     0.188 C 
ENDROOT
BRANCH   1   2
ATOM      2  O   UNL A   1      30.038  27.405  22.750  1.00  0.00    -0.376 OA
BRANCH   2   3
ATOM      3  C   UNL A   1      30.152  26.394  23.741  1.00  0.00     0.202 C 
BRANCH   3   4
ATOM      4  C   UNL A   1      30.234  24.950  23.222  1.00  0.00     0.261 C 
BRANCH   4   5
ATOM      5  O   UNL A   1      31.546  24.330  23.193  1.00  0.00    -0.463 OA
BRANCH   5   6
ATOM      6  C   UNL A   1      32.492  24.947  23.954  1.00  0.00     0.310 C 
ATOM      7  O   UNL A   1      33.392  25.639  23.491  1.00  0.00    -0.252 OA
BRANCH   6   8
ATOM      8  C   UNL A   1      32.491  24.531  25.419  1.00  0.00     0.118 C 
ATOM      9  C   UNL A   1      33.185  25.680  26.166  1.00  0.00     0.022 C 
BRANCH   8  10
ATOM     10  C   UNL A   1      33.080  23.161  25.832  1.00  0.00     0.090 C 
ATOM     11  C   UNL A   1      34.106  23.215  26.952  1.00  0.00     0.031 C 
BRANCH  10  12
ATOM     12  N   UNL A   1      33.597  22.438  24.634  1.00  0.00    -0.381 N 
ATOM     13  H   UNL A   1      33.979  22.979  23.906  1.00  0.00     0.160 HD
BRANCH  12  14
ATOM     14  C   UNL A   1      33.580  21.050  24.466  1.00  0.00     0.049 A 
ATOM     15  C   UNL A   1      32.420  20.399  24.017  1.00  0.00     0.030 A 
ATOM     16  C   UNL A   1      34.710  20.241  24.722  1.00  0.00     0.044 A 
ATOM     17  C   UNL A   1      32.369  19.010  23.862  1.00  0.00     0.041 A 
ATOM     18  C   UNL A   1      34.663  18.850  24.576  1.00  0.00     0.057 A 
ATOM     19  Br  UNL A   1      36.385  20.989  25.221  1.00  0.00    -0.048 Br
ATOM     20  C   UNL A   1      33.489  18.249  24.151  1.00  0.00     0.124 A 
ATOM     21  F   UNL A   1      33.446  16.921  23.988  1.00  0.00    -0.207 F 
ENDBRANCH  12  14
ENDBRANCH  10  12
ENDBRANCH   8  10
ENDBRANCH   6   8
ENDBRANCH   5   6
ENDBRANCH   4   5
ENDBRANCH   3   4
ENDBRANCH   2   3
ENDBRANCH   1   2
BRANCH   1  22
ATOM     22  C   UNL A   1      30.572  29.581  23.905  1.00  0.00     0.188 C 
BRANCH  22  23
ATOM     23  O   UNL A   1      31.912  29.106  23.781  1.00  0.00    -0.376 OA
BRANCH  23  24
ATOM     24  C   UNL A   1      32.719  29.473  24.901  1.00  0.00     0.202 C 
BRANCH  24  25
ATOM     25  C   UNL A   1      31.841  30.211  25.915  1.00  0.00     0.261 C 
BRANCH  25  26
ATOM     26  O   UNL A   1      32.475  30.370  27.199  1.00  0.00    -0.460 OA
BRANCH  26  27
ATOM     27  C   UNL A   1      33.172  31.519  27.367  1.00  0.00     0.338 C 
ATOM     28  O   UNL A   1      32.708  32.646  27.369  1.00  0.00    -0.246 OA
BRANCH  27  29
ATOM     29  C   UNL A   1      34.575  31.209  27.725  1.00  0.00     0.060 A 
ATOM     30  C   UNL A   1      34.916  29.865  27.927  1.00  0.00     0.016 A 
ATOM     31  C   UNL A   1      35.527  32.212  27.925  1.00  0.00     0.016 A 
ATOM     32  C   UNL A   1      36.181  29.525  28.405  1.00  0.00     0.010 A 
ATOM     33  C   UNL A   1      36.794  31.872  28.411  1.00  0.00     0.010 A 
ATOM     34  C   UNL A   1      37.106  30.533  28.708  1.00  0.00    -0.014 A 
BRANCH  34  35
ATOM     35  C   UNL A   1      38.292  30.205  29.541  1.00  0.00     0.031 A 
ATOM     36  C   UNL A   1      39.318  29.252  28.982  1.00  0.00     0.074 A 
ATOM     37  C   UNL A   1      38.480  30.757  30.753  1.00  0.00     0.049 A 
ATOM     38  N   UNL A   1      40.424  28.810  29.523  1.00  0.00    -0.248 NA
ATOM     39  C   UNL A   1      39.060  28.725  27.631  1.00  0.00     0.031 C 
ATOM     40  C   UNL A   1      37.573  31.699  31.406  1.00  0.00     0.029 A 
ATOM     41  N   UNL A   1      39.499  30.587  31.657  1.00  0.00    -0.354 N 
ATOM     42  C   UNL A   1      40.973  27.931  28.597  1.00  0.00     0.074 A 
ATOM     43  C   UNL A   1      40.073  27.889  27.466  1.00  0.00     0.031 C 
ATOM     44  C   UNL A   1      38.069  32.010  32.617  1.00  0.00     0.029 A 
ATOM     45  C   UNL A   1      39.315  31.276  32.831  1.00  0.00     0.049 A 
ATOM     46  H   UNL A   1      40.288  30.023  31.479  1.00  0.00     0.167 HD
ATOM     47  C   UNL A   1      42.133  27.237  28.665  1.00  0.00     0.034 A 
ATOM     48  C   UNL A   1      40.063  31.301  33.953  1.00  0.00     0.034 A 
ATOM     49  C   UNL A   1      43.052  27.303  29.768  1.00  0.00     0.049 A 
ATOM     50  C   UNL A   1      41.348  30.511  34.008  1.00  0.00     0.074 A 
ATOM     51  C   UNL A   1      44.273  26.667  29.910  1.00  0.00     0.029 A 
ATOM     52  N   UNL A   1      42.853  28.047  30.920  1.00  0.00    -0.354 N 
ATOM     53  N   UNL A   1      41.908  29.773  33.080  1.00  0.00    -0.248 NA
ATOM     54  C   UNL A   1      42.122  30.589  35.257  1.00  0.00     0.031 C 
ATOM     55  C   UNL A   1      44.805  27.014  31.157  1.00  0.00     0.029 A 
ATOM     56  C   UNL A   1      43.925  27.882  31.781  1.00  0.00     0.049 A 
ATOM     57  H   UNL A   1      42.065  28.609  31.099  1.00  0.00     0.167 HD
ATOM     58  C   UNL A   1      43.111  29.328  33.620  1.00  0.00     0.074 A 
ATOM     59  C   UNL A   1      43.212  29.902  34.944  1.00  0.00     0.031 C 
ATOM     60  C   UNL A   1      44.041  28.502  33.075  1.00  0.00     0.034 A 
BRANCH  47  61
ATOM     61  C   UNL A   1      42.489  26.365  27.490  1.00  0.00     0.023 A 
ATOM     62  C   UNL A   1      43.255  26.899  26.434  1.00  0.00     0.012 A 
ATOM     63  C   UNL A   1      42.098  25.013  27.448  1.00  0.00     0.148 A 
ATOM     64  C   UNL A   1      43.601  26.109  25.339  1.00  0.00     0.002 A 
ATOM     65  C   UNL A   1      42.482  24.221  26.372  1.00  0.00     0.091 A 
ATOM     66  F   UNL A   1      41.347  24.532  28.448  1.00  0.00    -0.205 F 
ATOM     67  C   UNL A   1      43.222  24.769  25.312  1.00  0.00     0.022 A 
BRANCH  65  68
ATOM     68  S   UNL A   1      42.105  22.467  26.281  1.00  0.00     0.127 S 
ATOM     69  O   UNL A   1      42.817  22.075  25.065  1.00  0.00    -0.237 OA
ATOM     70  O   UNL A   1      42.694  21.961  27.522  1.00  0.00    -0.237 OA
ATOM     71  O   UNL A   1      40.654  22.371  26.216  1.00  0.00    -0.744 OA
ENDBRANCH  65  68
ENDBRANCH  47  61
BRANCH  48  72
ATOM     72  C   UNL A   1      39.641  32.135  35.115  1.00  0.00     0.023 A 
ATOM     73  C   UNL A   1      40.026  33.489  35.173  1.00  0.00     0.012 A 
ATOM     74  C   UNL A   1      38.866  31.597  36.160  1.00  0.00     0.148 A 
ATOM     75  C   UNL A   1      39.675  34.283  36.265  1.00  0.00     0.002 A 
ATOM     76  C   UNL A   1      38.476  32.407  37.220  1.00  0.00     0.091 A 
ATOM     77  F   UNL A   1      38.530  30.301  36.098  1.00  0.00    -0.205 F 
ATOM     78  C   UNL A   1      38.893  33.745  37.283  1.00  0.00     0.022 A 
BRANCH  76  79
ATOM     79  S   UNL A   1      37.372  31.830  38.516  1.00  0.00     0.127 S 
ATOM     80  O   UNL A   1      38.204  31.984  39.706  1.00  0.00    -0.237 OA
ATOM     81  O   UNL A   1      36.263  32.779  38.413  1.00  0.00    -0.237 OA
ATOM     82  O   UNL A   1      37.027  30.463  38.156  1.00  0.00    -0.744 OA
ENDBRANCH  76  79
ENDBRANCH  48  72
BRANCH  60  83
ATOM     83  C   UNL A   1      45.266  28.189  33.896  1.00  0.00     0.023 A 
ATOM     84  C   UNL A   1      45.270  27.063  34.745  1.00  0.00     0.012 A 
ATOM     85  C   UNL A   1      46.435  28.969  33.782  1.00  0.00     0.148 A 
ATOM     86  C   UNL A   1      46.401  26.742  35.494  1.00  0.00     0.002 A 
ATOM     87  C   UNL A   1      47.575  28.615  34.496  1.00  0.00     0.091 A 
ATOM     88  F   UNL A   1      46.411  30.048  32.985  1.00  0.00    -0.205 F 
ATOM     89  C   UNL A   1      47.556  27.510  35.362  1.00  0.00     0.022 A 
BRANCH  87  90
ATOM     90  S   UNL A   1      49.130  29.494  34.310  1.00  0.00     0.127 S 
ATOM     91  O   UNL A   1      49.984  28.799  35.270  1.00  0.00    -0.237 OA
ATOM     92  O   UNL A   1      49.465  29.247  32.906  1.00  0.00    -0.237 OA
ATOM     93  O   UNL A   1      48.836  30.888  34.618  1.00  0.00    -0.744 OA
ENDBRANCH  87  90
ENDBRANCH  60  83
ENDBRANCH  34  35
ENDBRANCH  27  29
ENDBRANCH  26  27
ENDBRANCH  25  26
ENDBRANCH  24  25
ENDBRANCH  23  24
ENDBRANCH  22  23
ENDBRANCH   1  22
TORSDOF 23
ENDMDL
MODEL 3
REMARK VINA RESULT:     -10.0      1.956      2.398
REMARK SMILES C[C@H](Nc1ccc(F)cc1Br)[C@@H](C)C(=O)OCCOCCOCCOC(=O)c1ccc(-c2c3nc(c(-c4cccc(S(=O)(=O)[O-])c4F)c4ccc([nH]4)c(-c4cccc(S(=O)(=O)[O-])c4F)c4nc(c(-c5cccc(S(=O)(=O)[O-])c5F)c5ccc2[nH]5)C=C4)C=C3)cc1
REMARK SMILES IDX 20 1 19 2 18 3 17 4 16 5 14 6 15 7 12 8 13 9 2 10 1 11 3 12
REMARK SMILES IDX 4 14 5 15 10 16 6 17 9 18 11 19 7 20 8 21 21 22 22 23 23 24
REMARK SMILES IDX 24 25 25 26 26 27 27 28 28 29 29 30 90 31 30 32 89 33 31 34
REMARK SMILES IDX 32 35 33 36 83 37 34 38 88 39 82 40 84 41 35 42 87 43 81 44
REMARK SMILES IDX 80 45 36 47 68 48 48 49 67 50 49 51 52 52 66 53 85 54 50 55
REMARK SMILES IDX 51 56 65 58 86 59 53 60 37 61 38 62 46 63 39 64 41 65 47 66
REMARK SMILES IDX 40 67 42 68 43 69 44 70 45 71 69 72 70 73 78 74 71 75 73 76
REMARK SMILES IDX 79 77 72 78 74 79 75 80 76 81 77 82 54 83 55 84 63 85 56 86
REMARK SMILES IDX 58 87 64 88 57 89 59 90 60 91 61 92 62 93
REMARK H PARENT 3 13 84 46 52 57
REMARK Flexibility Score: inf
ROOT
ATOM      1  C   UNL A   1      29.830  28.552  23.400  1.00  0.00     0.188 C 
ENDROOT
BRANCH   1   2
ATOM      2  O   UNL A   1      30.404  27.421  22.749  1.00  0.00    -0.376 OA
BRANCH   2   3
ATOM      3  C   UNL A   1      30.377  26.166  23.412  1.00  0.00     0.202 C 
BRANCH   3   4
ATOM      4  C   UNL A   1      31.194  25.041  22.755  1.00  0.00     0.261 C 
BRANCH   4   5
ATOM      5  O   UNL A   1      32.307  24.502  23.514  1.00  0.00    -0.463 OA
BRANCH   5   6
ATOM      6  C   UNL A   1      33.164  25.432  24.020  1.00  0.00     0.310 C 
ATOM      7  O   UNL A   1      33.759  26.254  23.333  1.00  0.00    -0.252 OA
BRANCH   6   8
ATOM      8  C   UNL A   1      33.510  25.233  25.490  1.00  0.00     0.118 C 
ATOM      9  C   UNL A   1      33.693  26.649  26.058  1.00  0.00     0.022 C 
BRANCH   8  10
ATOM     10  C   UNL A   1      34.694  24.317  25.886  1.00  0.00     0.090 C 
ATOM     11  C   UNL A   1      35.682  24.025  24.769  1.00  0.00     0.031 C 
BRANCH  10  12
ATOM     12  N   UNL A   1      34.189  23.067  26.526  1.00  0.00    -0.381 N 
ATOM     13  H   UNL A   1      34.098  23.064  27.506  1.00  0.00     0.160 HD
BRANCH  12  14
ATOM     14  C   UNL A   1      33.838  21.901  25.841  1.00  0.00     0.049 A 
ATOM     15  C   UNL A   1      34.823  20.985  25.437  1.00  0.00     0.030 A 
ATOM     16  C   UNL A   1      32.498  21.577  25.531  1.00  0.00     0.044 A 
ATOM     17  C   UNL A   1      34.501  19.822  24.731  1.00  0.00     0.041 A 
ATOM     18  C   UNL A   1      32.170  20.419  24.818  1.00  0.00     0.057 A 
ATOM     19  Br  UNL A   1      31.047  22.657  26.115  1.00  0.00    -0.048 Br
ATOM     20  C   UNL A   1      33.178  19.555  24.421  1.00  0.00     0.124 A 
ATOM     21  F   UNL A   1      32.868  18.434  23.759  1.00  0.00    -0.207 F 
ENDBRANCH  12  14
ENDBRANCH  10  12
ENDBRANCH   8  10
ENDBRANCH   6   8
ENDBRANCH   5   6
ENDBRANCH   4   5
ENDBRANCH   3   4
ENDBRANCH   2   3
ENDBRANCH   1   2
BRANCH   1  22
ATOM     22  C   UNL A   1      30.757  29.428  24.234  1.00  0.00     0.188 C 
BRANCH  22  23
ATOM     23  O   UNL A   1      32.128  29.088  24.028  1.00  0.00    -0.376 OA
BRANCH  23  24
ATOM     24  C   UNL A   1      32.987  29.717  24.981  1.00  0.00     0.202 C 
BRANCH  24  25
ATOM     25  C   UNL A   1      32.122  30.392  26.048  1.00  0.00     0.261 C 
BRANCH  25  26
ATOM     26  O   UNL A   1      32.771  30.471  27.332  1.00  0.00    -0.460 OA
BRANCH  26  27
ATOM     27  C   UNL A   1      33.541  31.568  27.530  1.00  0.00     0.338 C 
ATOM     28  O   UNL A   1      33.152  32.722  27.557  1.00  0.00    -0.246 OA
BRANCH  27  29
ATOM     29  C   UNL A   1      34.918  31.158  27.888  1.00  0.00     0.060 A 
ATOM     30  C   UNL A   1      35.168  29.790  28.066  1.00  0.00     0.016 A 
ATOM     31  C   UNL A   1      35.934  32.091  28.109  1.00  0.00     0.016 A 
ATOM     32  C   UNL A   1      36.405  29.358  28.543  1.00  0.00     0.010 A 
ATOM     33  C   UNL A   1      37.174  31.658  28.593  1.00  0.00     0.010 A 
ATOM     34  C   UNL A   1      37.394  30.296  28.867  1.00  0.00    -0.014 A 
BRANCH  34  35
ATOM     35  C   UNL A   1      38.551  29.875  29.697  1.00  0.00     0.031 A 
ATOM     36  C   UNL A   1      38.649  30.399  31.107  1.00  0.00     0.074 A 
ATOM     37  C   UNL A   1      39.483  29.023  29.233  1.00  0.00     0.049 A 
ATOM     38  N   UNL A   1      39.567  30.182  32.014  1.00  0.00    -0.248 NA
ATOM     39  C   UNL A   1      37.566  31.292  31.555  1.00  0.00     0.031 C 
ATOM     40  C   UNL A   1      39.503  28.435  27.896  1.00  0.00     0.029 A 
ATOM     41  N   UNL A   1      40.606  28.519  29.842  1.00  0.00    -0.354 N 
ATOM     42  C   UNL A   1      39.192  30.934  33.120  1.00  0.00     0.074 A 
ATOM     43  C   UNL A   1      37.972  31.626  32.769  1.00  0.00     0.031 C 
ATOM     44  C   UNL A   1      40.598  27.662  27.778  1.00  0.00     0.029 A 
ATOM     45  C   UNL A   1      41.364  27.717  29.023  1.00  0.00     0.049 A 
ATOM     46  H   UNL A   1      40.845  28.715  30.777  1.00  0.00     0.167 HD
ATOM     47  C   UNL A   1      39.790  31.026  34.331  1.00  0.00     0.034 A 
ATOM     48  C   UNL A   1      42.544  27.107  29.250  1.00  0.00     0.034 A 
ATOM     49  C   UNL A   1      40.980  30.312  34.702  1.00  0.00     0.049 A 
ATOM     50  C   UNL A   1      43.196  27.231  30.606  1.00  0.00     0.074 A 
ATOM     51  C   UNL A   1      41.639  30.309  35.919  1.00  0.00     0.029 A 
ATOM     52  N   UNL A   1      41.694  29.473  33.860  1.00  0.00    -0.354 N 
ATOM     53  N   UNL A   1      42.771  27.857  31.676  1.00  0.00    -0.248 NA
ATOM     54  C   UNL A   1      44.478  26.533  30.792  1.00  0.00     0.031 C 
ATOM     55  C   UNL A   1      42.762  29.481  35.808  1.00  0.00     0.029 A 
ATOM     56  C   UNL A   1      42.789  28.952  34.528  1.00  0.00     0.049 A 
ATOM     57  H   UNL A   1      41.456  29.277  32.925  1.00  0.00     0.167 HD
ATOM     58  C   UNL A   1      43.712  27.601  32.669  1.00  0.00     0.074 A 
ATOM     59  C   UNL A   1      44.716  26.741  32.080  1.00  0.00     0.031 C 
ATOM     60  C   UNL A   1      43.752  28.052  33.949  1.00  0.00     0.034 A 
BRANCH  47  61
ATOM     61  C   UNL A   1      39.141  31.914  35.360  1.00  0.00     0.023 A 
ATOM     62  C   UNL A   1      39.161  33.312  35.185  1.00  0.00     0.012 A 
ATOM     63  C   UNL A   1      38.483  31.365  36.477  1.00  0.00     0.148 A 
ATOM     64  C   UNL A   1      38.563  34.154  36.121  1.00  0.00     0.002 A 
ATOM     65  C   UNL A   1      37.853  32.208  37.385  1.00  0.00     0.091 A 
ATOM     66  F   UNL A   1      38.499  30.035  36.640  1.00  0.00    -0.205 F 
ATOM     67  C   UNL A   1      37.902  33.602  37.216  1.00  0.00     0.022 A 
BRANCH  65  68
ATOM     68  S   UNL A   1      36.914  31.590  38.785  1.00  0.00     0.127 S 
ATOM     69  O   UNL A   1      36.728  30.186  38.420  1.00  0.00    -0.237 OA
ATOM     70  O   UNL A   1      37.836  31.813  39.899  1.00  0.00    -0.237 OA
ATOM     71  O   UNL A   1      35.697  32.390  38.837  1.00  0.00    -0.744 OA
ENDBRANCH  65  68
ENDBRANCH  47  61
BRANCH  48  72
ATOM     72  C   UNL A   1      43.178  26.282  28.181  1.00  0.00     0.023 A 
ATOM     73  C   UNL A   1      42.706  24.978  27.939  1.00  0.00     0.012 A 
ATOM     74  C   UNL A   1      44.245  26.780  27.409  1.00  0.00     0.148 A 
ATOM     75  C   UNL A   1      43.304  24.172  26.970  1.00  0.00     0.002 A 
ATOM     76  C   UNL A   1      44.803  25.991  26.409  1.00  0.00     0.091 A 
ATOM     77  F   UNL A   1      44.696  28.015  27.670  1.00  0.00    -0.205 F 
ATOM     78  C   UNL A   1      44.345  24.682  26.199  1.00  0.00     0.022 A 
BRANCH  76  79
ATOM     79  S   UNL A   1      46.068  26.607  25.292  1.00  0.00     0.127 S 
ATOM     80  O   UNL A   1      47.147  26.941  26.218  1.00  0.00    -0.237 OA
ATOM     81  O   UNL A   1      46.320  25.438  24.448  1.00  0.00    -0.237 OA
ATOM     82  O   UNL A   1      45.461  27.731  24.594  1.00  0.00    -0.744 OA
ENDBRANCH  76  79
ENDBRANCH  48  72
BRANCH  60  83
ATOM     83  C   UNL A   1      44.903  27.605  34.813  1.00  0.00     0.023 A 
ATOM     84  C   UNL A   1      46.059  28.406  34.908  1.00  0.00     0.012 A 
ATOM     85  C   UNL A   1      44.818  26.425  35.581  1.00  0.00     0.148 A 
ATOM     86  C   UNL A   1      47.125  28.022  35.721  1.00  0.00     0.002 A 
ATOM     87  C   UNL A   1      45.865  26.074  36.426  1.00  0.00     0.091 A 
ATOM     88  F   UNL A   1      43.720  25.663  35.466  1.00  0.00    -0.205 F 
ATOM     89  C   UNL A   1      47.025  26.863  36.488  1.00  0.00     0.022 A 
BRANCH  87  90
ATOM     90  S   UNL A   1      45.776  24.649  37.516  1.00  0.00     0.127 S 
ATOM     91  O   UNL A   1      47.089  24.677  38.156  1.00  0.00    -0.237 OA
ATOM     92  O   UNL A   1      44.661  24.998  38.399  1.00  0.00    -0.237 OA
ATOM     93  O   UNL A   1      45.518  23.504  36.652  1.00  0.00    -0.744 OA
ENDBRANCH  87  90
ENDBRANCH  60  83
ENDBRANCH  34  35
ENDBRANCH  27  29
ENDBRANCH  26  27
ENDBRANCH  25  26
ENDBRANCH  24  25
ENDBRANCH  23  24
ENDBRANCH  22  23
ENDBRANCH   1  22
TORSDOF 23
ENDMDL
