MODEL 1
REMARK VINA RESULT:     -10.9      0.000      0.000
REMARK SMILES C[C@H]1CCc2sc3ncn4nc(/C=C\C(=O)OCCOCCOCCOC(=O)c5ccc(-c6c7nc(c(-c8cccc(S(=O)(=O)[O-])c8F)c8ccc([nH]8)c(-c8cccc(S(=O)(=O)[O-])c8F)c8nc(c(-c9cccc(S(=O)(=O)[O-])c9F)c9ccc6[nH]9)C=C8)C=C7)cc5)nc4c3c2C1
REMARK SMILES IDX 22 1 21 2 20 3 19 4 18 5 17 6 15 7 16 8 14 9 13 10 12 11
REMARK SMILES IDX 1 12 2 13 3 14 96 15 4 16 95 17 5 18 94 19 6 20 7 21 93 22
REMARK SMILES IDX 8 23 10 24 92 25 9 26 11 27 23 28 24 29 25 30 26 31 27 32
REMARK SMILES IDX 28 33 29 34 30 35 91 36 31 37 90 38 32 39 33 40 34 41 84 42
REMARK SMILES IDX 35 43 89 44 83 45 85 46 36 47 88 48 82 49 81 50 37 52 69 53
REMARK SMILES IDX 49 54 68 55 50 56 53 57 67 58 86 59 51 60 52 61 66 63 87 64
REMARK SMILES IDX 54 65 38 66 39 67 47 68 40 69 42 70 48 71 41 72 43 73 44 74
REMARK SMILES IDX 45 75 46 76 70 77 71 78 79 79 72 80 74 81 80 82 73 83 75 84
REMARK SMILES IDX 76 85 77 86 78 87 55 88 56 89 64 90 57 91 59 92 65 93 58 94
REMARK SMILES IDX 60 95 61 96 62 97 63 98
REMARK H PARENT 85 51 53 62
REMARK Flexibility Score: inf
ROOT
ATOM      1  C   UNL A   1      35.337  35.483  32.929  1.00  0.00     0.188 C 
ENDROOT
BRANCH   1   2
ATOM      2  C   UNL A   1      33.839  35.214  32.621  1.00  0.00     0.188 C 
BRANCH   2   3
ATOM      3  O   UNL A   1      33.020  36.239  32.074  1.00  0.00    -0.376 OA
BRANCH   3   4
ATOM      4  C   UNL A   1      32.423  36.039  30.800  1.00  0.00     0.202 C 
BRANCH   4   5
ATOM      5  C   UNL A   1      33.292  35.703  29.577  1.00  0.00     0.261 C 
BRANCH   5   6
ATOM      6  O   UNL A   1      33.071  34.401  29.037  1.00  0.00    -0.460 OA
BRANCH   6   7
ATOM      7  C   UNL A   1      33.979  33.907  28.175  1.00  0.00     0.330 C 
ATOM      8  O   UNL A   1      34.517  34.498  27.263  1.00  0.00    -0.247 OA
BRANCH   7   9
ATOM      9  C   UNL A   1      34.420  32.562  28.605  1.00  0.00     0.097 C 
ATOM     10  C   UNL A   1      34.026  31.355  28.171  1.00  0.00     0.058 C 
BRANCH  10  11
ATOM     11  C   UNL A   1      33.094  30.976  27.159  1.00  0.00     0.175 A 
ATOM     12  C   UNL A   1      33.197  24.667  24.668  1.00  0.00     0.008 C 
ATOM     13  C   UNL A   1      33.866  25.761  23.831  1.00  0.00    -0.009 C 
ATOM     14  C   UNL A   1      33.449  25.728  22.345  1.00  0.00     0.009 C 
ATOM     15  C   UNL A   1      33.618  27.144  24.458  1.00  0.00     0.041 C 
ATOM     16  C   UNL A   1      31.984  26.134  22.104  1.00  0.00     0.047 C 
ATOM     17  C   UNL A   1      32.377  27.812  23.977  1.00  0.00    -0.020 A 
ATOM     18  C   UNL A   1      31.646  27.358  22.899  1.00  0.00     0.011 A 
ATOM     19  C   UNL A   1      31.807  28.990  24.499  1.00  0.00     0.060 A 
ATOM     20  S   UNL A   1      30.278  28.332  22.576  1.00  0.00    -0.120 S 
ATOM     21  C   UNL A   1      30.660  29.416  23.849  1.00  0.00     0.129 A 
ATOM     22  C   UNL A   1      32.235  29.864  25.603  1.00  0.00     0.168 A 
ATOM     23  N   UNL A   1      29.903  30.532  24.132  1.00  0.00    -0.225 NA
ATOM     24  N   UNL A   1      31.503  30.987  25.821  1.00  0.00    -0.201 N 
ATOM     25  N   UNL A   1      33.208  29.790  26.471  1.00  0.00    -0.207 NA
ATOM     26  C   UNL A   1      30.348  31.294  25.102  1.00  0.00     0.227 A 
ATOM     27  N   UNL A   1      32.028  31.728  26.814  1.00  0.00    -0.145 NA
ENDBRANCH  10  11
ENDBRANCH   7   9
ENDBRANCH   6   7
ENDBRANCH   5   6
ENDBRANCH   4   5
ENDBRANCH   3   4
ENDBRANCH   2   3
ENDBRANCH   1   2
BRANCH   1  28
ATOM     28  O   UNL A   1      35.843  34.896  34.108  1.00  0.00    -0.376 OA
BRANCH  28  29
ATOM     29  C   UNL A   1      36.116  33.512  34.249  1.00  0.00     0.202 C 
BRANCH  29  30
ATOM     30  C   UNL A   1      37.181  32.744  33.479  1.00  0.00     0.261 C 
BRANCH  30  31
ATOM     31  O   UNL A   1      37.069  32.851  32.084  1.00  0.00    -0.460 OA
BRANCH  31  32
ATOM     32  C   UNL A   1      36.246  31.923  31.561  1.00  0.00     0.338 C 
ATOM     33  O   UNL A   1      35.120  31.632  31.939  1.00  0.00    -0.246 OA
BRANCH  32  34
ATOM     34  C   UNL A   1      36.942  31.233  30.486  1.00  0.00     0.060 A 
ATOM     35  C   UNL A   1      36.808  29.845  30.495  1.00  0.00     0.016 A 
ATOM     36  C   UNL A   1      38.022  31.905  29.897  1.00  0.00     0.016 A 
ATOM     37  C   UNL A   1      37.933  29.120  30.220  1.00  0.00     0.010 A 
ATOM     38  C   UNL A   1      39.148  31.178  29.642  1.00  0.00     0.010 A 
ATOM     39  C   UNL A   1      39.111  29.818  29.925  1.00  0.00    -0.014 A 
BRANCH  39  40
ATOM     40  C   UNL A   1      40.320  29.050  29.813  1.00  0.00     0.031 A 
ATOM     41  C   UNL A   1      40.932  28.853  31.135  1.00  0.00     0.074 A 
ATOM     42  C   UNL A   1      40.768  28.575  28.640  1.00  0.00     0.049 A 
ATOM     43  N   UNL A   1      41.940  29.499  31.615  1.00  0.00    -0.248 NA
ATOM     44  C   UNL A   1      40.175  28.080  32.129  1.00  0.00     0.031 C 
ATOM     45  C   UNL A   1      40.085  28.515  27.345  1.00  0.00     0.029 A 
ATOM     46  N   UNL A   1      41.929  27.918  28.400  1.00  0.00    -0.354 N 
ATOM     47  C   UNL A   1      42.103  28.991  32.897  1.00  0.00     0.074 A 
ATOM     48  C   UNL A   1      40.855  28.368  33.238  1.00  0.00     0.031 C 
ATOM     49  C   UNL A   1      40.733  27.631  26.547  1.00  0.00     0.029 A 
ATOM     50  C   UNL A   1      41.938  27.179  27.224  1.00  0.00     0.049 A 
ATOM     51  H   UNL A   1      42.701  27.959  29.009  1.00  0.00     0.167 HD
ATOM     52  C   UNL A   1      43.350  28.840  33.414  1.00  0.00     0.034 A 
ATOM     53  C   UNL A   1      42.834  26.210  26.910  1.00  0.00     0.034 A 
ATOM     54  C   UNL A   1      44.306  29.641  32.677  1.00  0.00     0.049 A 
ATOM     55  C   UNL A   1      44.032  26.443  27.758  1.00  0.00     0.074 A 
ATOM     56  C   UNL A   1      44.436  30.987  32.399  1.00  0.00     0.029 A 
ATOM     57  N   UNL A   1      45.080  28.983  31.749  1.00  0.00    -0.354 N 
ATOM     58  N   UNL A   1      44.798  27.490  27.639  1.00  0.00    -0.248 NA
ATOM     59  C   UNL A   1      44.094  25.760  29.042  1.00  0.00     0.031 C 
ATOM     60  C   UNL A   1      44.911  31.044  31.056  1.00  0.00     0.029 A 
ATOM     61  C   UNL A   1      45.116  29.737  30.608  1.00  0.00     0.049 A 
ATOM     62  H   UNL A   1      45.530  28.118  31.884  1.00  0.00     0.167 HD
ATOM     63  C   UNL A   1      45.065  27.870  28.950  1.00  0.00     0.074 A 
ATOM     64  C   UNL A   1      44.692  26.713  29.764  1.00  0.00     0.031 C 
ATOM     65  C   UNL A   1      45.265  29.181  29.278  1.00  0.00     0.034 A 
BRANCH  52  66
ATOM     66  C   UNL A   1      43.784  27.664  34.266  1.00  0.00     0.023 A 
ATOM     67  C   UNL A   1      44.427  27.980  35.483  1.00  0.00     0.012 A 
ATOM     68  C   UNL A   1      43.854  26.313  33.847  1.00  0.00     0.148 A 
ATOM     69  C   UNL A   1      45.181  27.036  36.186  1.00  0.00     0.002 A 
ATOM     70  C   UNL A   1      44.546  25.361  34.583  1.00  0.00     0.091 A 
ATOM     71  F   UNL A   1      43.352  25.933  32.674  1.00  0.00    -0.205 F 
ATOM     72  C   UNL A   1      45.244  25.725  35.733  1.00  0.00     0.022 A 
BRANCH  70  73
ATOM     73  S   UNL A   1      44.623  23.638  34.066  1.00  0.00     0.127 S 
ATOM     74  O   UNL A   1      43.211  23.270  34.069  1.00  0.00    -0.237 OA
ATOM     75  O   UNL A   1      45.232  23.757  32.741  1.00  0.00    -0.237 OA
ATOM     76  O   UNL A   1      45.460  22.961  35.048  1.00  0.00    -0.744 OA
ENDBRANCH  70  73
ENDBRANCH  52  66
BRANCH  53  77
ATOM     77  C   UNL A   1      42.622  24.919  26.204  1.00  0.00     0.023 A 
ATOM     78  C   UNL A   1      43.580  24.478  25.267  1.00  0.00     0.012 A 
ATOM     79  C   UNL A   1      41.665  23.986  26.662  1.00  0.00     0.148 A 
ATOM     80  C   UNL A   1      43.611  23.145  24.835  1.00  0.00     0.002 A 
ATOM     81  C   UNL A   1      41.701  22.663  26.232  1.00  0.00     0.091 A 
ATOM     82  F   UNL A   1      40.779  24.373  27.589  1.00  0.00    -0.205 F 
ATOM     83  C   UNL A   1      42.680  22.235  25.327  1.00  0.00     0.022 A 
BRANCH  81  84
ATOM     84  S   UNL A   1      40.567  21.417  26.865  1.00  0.00     0.127 S 
ATOM     85  O   UNL A   1      39.268  21.962  26.469  1.00  0.00    -0.237 OA
ATOM     86  O   UNL A   1      40.984  20.229  26.127  1.00  0.00    -0.237 OA
ATOM     87  O   UNL A   1      40.785  21.371  28.305  1.00  0.00    -0.744 OA
ENDBRANCH  81  84
ENDBRANCH  53  77
BRANCH  65  88
ATOM     88  C   UNL A   1      45.409  30.188  28.159  1.00  0.00     0.023 A 
ATOM     89  C   UNL A   1      44.293  30.781  27.527  1.00  0.00     0.012 A 
ATOM     90  C   UNL A   1      46.687  30.710  27.905  1.00  0.00     0.148 A 
ATOM     91  C   UNL A   1      44.455  31.865  26.658  1.00  0.00     0.002 A 
ATOM     92  C   UNL A   1      46.837  31.822  27.085  1.00  0.00     0.091 A 
ATOM     93  F   UNL A   1      47.736  30.135  28.513  1.00  0.00    -0.205 F 
ATOM     94  C   UNL A   1      45.725  32.398  26.452  1.00  0.00     0.022 A 
BRANCH  92  95
ATOM     95  S   UNL A   1      48.419  32.648  26.905  1.00  0.00     0.127 S 
ATOM     96  O   UNL A   1      48.094  33.734  25.983  1.00  0.00    -0.237 OA
ATOM     97  O   UNL A   1      48.706  33.075  28.277  1.00  0.00    -0.237 OA
ATOM     98  O   UNL A   1      49.343  31.645  26.389  1.00  0.00    -0.744 OA
ENDBRANCH  92  95
ENDBRANCH  65  88
ENDBRANCH  39  40
ENDBRANCH  32  34
ENDBRANCH  31  32
ENDBRANCH  30  31
ENDBRANCH  29  30
ENDBRANCH  28  29
ENDBRANCH   1  28
TORSDOF 21
ENDMDL
MODEL 2
REMARK VINA RESULT:     -10.8      4.368     12.355
REMARK SMILES C[C@H]1CCc2sc3ncn4nc(/C=C\C(=O)OCCOCCOCCOC(=O)c5ccc(-c6c7nc(c(-c8cccc(S(=O)(=O)[O-])c8F)c8ccc([nH]8)c(-c8cccc(S(=O)(=O)[O-])c8F)c8nc(c(-c9cccc(S(=O)(=O)[O-])c9F)c9ccc6[nH]9)C=C8)C=C7)cc5)nc4c3c2C1
REMARK SMILES IDX 22 1 21 2 20 3 19 4 18 5 17 6 15 7 16 8 14 9 13 10 12 11
REMARK SMILES IDX 1 12 2 13 3 14 96 15 4 16 95 17 5 18 94 19 6 20 7 21 93 22
REMARK SMILES IDX 8 23 10 24 92 25 9 26 11 27 23 28 24 29 25 30 26 31 27 32
REMARK SMILES IDX 28 33 29 34 30 35 91 36 31 37 90 38 32 39 33 40 34 41 84 42
REMARK SMILES IDX 35 43 89 44 83 45 85 46 36 47 88 48 82 49 81 50 37 52 69 53
REMARK SMILES IDX 49 54 68 55 50 56 53 57 67 58 86 59 51 60 52 61 66 63 87 64
REMARK SMILES IDX 54 65 38 66 39 67 47 68 40 69 42 70 48 71 41 72 43 73 44 74
REMARK SMILES IDX 45 75 46 76 70 77 71 78 79 79 72 80 74 81 80 82 73 83 75 84
REMARK SMILES IDX 76 85 77 86 78 87 55 88 56 89 64 90 57 91 59 92 65 93 58 94
REMARK SMILES IDX 60 95 61 96 62 97 63 98
REMARK H PARENT 85 51 53 62
REMARK Flexibility Score: inf
ROOT
ATOM      1  C   UNL A   1      44.781  19.255  25.081  1.00  0.00     0.188 C 
ENDROOT
BRANCH   1   2
ATOM      2  C   UNL A   1      46.060  20.016  24.641  1.00  0.00     0.188 C 
BRANCH   2   3
ATOM      3  O   UNL A   1      46.434  21.228  25.283  1.00  0.00    -0.376 OA
BRANCH   3   4
ATOM      4  C   UNL A   1      46.202  22.462  24.619  1.00  0.00     0.202 C 
BRANCH   4   5
ATOM      5  C   UNL A   1      46.368  23.793  25.370  1.00  0.00     0.261 C 
BRANCH   5   6
ATOM      6  O   UNL A   1      46.187  24.953  24.559  1.00  0.00    -0.460 OA
BRANCH   6   7
ATOM      7  C   UNL A   1      45.469  25.975  25.062  1.00  0.00     0.330 C 
ATOM      8  O   UNL A   1      44.469  25.900  25.743  1.00  0.00    -0.247 OA
BRANCH   7   9
ATOM      9  C   UNL A   1      46.180  27.256  24.855  1.00  0.00     0.097 C 
ATOM     10  C   UNL A   1      47.112  27.848  25.617  1.00  0.00     0.058 C 
BRANCH  10  11
ATOM     11  C   UNL A   1      47.731  27.439  26.836  1.00  0.00     0.175 A 
ATOM     12  C   UNL A   1      44.196  23.828  31.363  1.00  0.00     0.008 C 
ATOM     13  C   UNL A   1      44.351  25.328  31.632  1.00  0.00    -0.009 C 
ATOM     14  C   UNL A   1      44.788  25.642  33.079  1.00  0.00     0.009 C 
ATOM     15  C   UNL A   1      45.303  25.962  30.603  1.00  0.00     0.041 C 
ATOM     16  C   UNL A   1      46.232  25.214  33.397  1.00  0.00     0.047 C 
ATOM     17  C   UNL A   1      46.734  25.942  31.010  1.00  0.00    -0.020 A 
ATOM     18  C   UNL A   1      47.151  25.616  32.284  1.00  0.00     0.011 A 
ATOM     19  C   UNL A   1      47.838  26.287  30.204  1.00  0.00     0.060 A 
ATOM     20  S   UNL A   1      48.851  25.690  32.459  1.00  0.00    -0.120 S 
ATOM     21  C   UNL A   1      49.067  26.208  30.838  1.00  0.00     0.129 A 
ATOM     22  C   UNL A   1      47.908  26.742  28.806  1.00  0.00     0.168 A 
ATOM     23  N   UNL A   1      50.305  26.494  30.305  1.00  0.00    -0.225 NA
ATOM     24  N   UNL A   1      49.135  27.072  28.325  1.00  0.00    -0.201 N 
ATOM     25  N   UNL A   1      47.006  26.898  27.874  1.00  0.00    -0.207 NA
ATOM     26  C   UNL A   1      50.307  26.928  29.067  1.00  0.00     0.227 A 
ATOM     27  N   UNL A   1      49.058  27.527  27.061  1.00  0.00    -0.145 NA
ENDBRANCH  10  11
ENDBRANCH   7   9
ENDBRANCH   6   7
ENDBRANCH   5   6
ENDBRANCH   4   5
ENDBRANCH   3   4
ENDBRANCH   2   3
ENDBRANCH   1   2
BRANCH   1  28
ATOM     28  O   UNL A   1      43.563  19.957  24.946  1.00  0.00    -0.376 OA
BRANCH  28  29
ATOM     29  C   UNL A   1      42.952  20.691  25.994  1.00  0.00     0.202 C 
BRANCH  29  30
ATOM     30  C   UNL A   1      42.565  22.161  25.927  1.00  0.00     0.261 C 
BRANCH  30  31
ATOM     31  O   UNL A   1      41.202  22.385  25.674  1.00  0.00    -0.460 OA
BRANCH  31  32
ATOM     32  C   UNL A   1      40.623  23.150  26.618  1.00  0.00     0.338 C 
ATOM     33  O   UNL A   1      39.594  22.916  27.235  1.00  0.00    -0.246 OA
BRANCH  32  34
ATOM     34  C   UNL A   1      41.384  24.383  26.752  1.00  0.00     0.060 A 
ATOM     35  C   UNL A   1      42.152  24.477  27.911  1.00  0.00     0.016 A 
ATOM     36  C   UNL A   1      40.920  25.495  26.036  1.00  0.00     0.016 A 
ATOM     37  C   UNL A   1      42.156  25.686  28.546  1.00  0.00     0.010 A 
ATOM     38  C   UNL A   1      40.910  26.696  26.683  1.00  0.00     0.010 A 
ATOM     39  C   UNL A   1      41.422  26.733  27.974  1.00  0.00    -0.014 A 
BRANCH  39  40
ATOM     40  C   UNL A   1      41.292  27.941  28.741  1.00  0.00     0.031 A 
ATOM     41  C   UNL A   1      42.367  28.886  28.403  1.00  0.00     0.074 A 
ATOM     42  C   UNL A   1      40.288  28.141  29.610  1.00  0.00     0.049 A 
ATOM     43  N   UNL A   1      43.429  29.115  29.097  1.00  0.00    -0.248 NA
ATOM     44  C   UNL A   1      42.413  29.404  27.029  1.00  0.00     0.031 C 
ATOM     45  C   UNL A   1      39.062  27.362  29.800  1.00  0.00     0.029 A 
ATOM     46  N   UNL A   1      40.110  29.194  30.443  1.00  0.00    -0.354 N 
ATOM     47  C   UNL A   1      44.146  30.036  28.346  1.00  0.00     0.074 A 
ATOM     48  C   UNL A   1      43.632  29.944  27.009  1.00  0.00     0.031 C 
ATOM     49  C   UNL A   1      38.167  28.112  30.490  1.00  0.00     0.029 A 
ATOM     50  C   UNL A   1      38.808  29.352  30.899  1.00  0.00     0.049 A 
ATOM     51  H   UNL A   1      40.842  29.797  30.704  1.00  0.00     0.167 HD
ATOM     52  C   UNL A   1      44.855  31.015  28.967  1.00  0.00     0.034 A 
ATOM     53  C   UNL A   1      38.307  30.471  31.479  1.00  0.00     0.034 A 
ATOM     54  C   UNL A   1      45.081  30.674  30.356  1.00  0.00     0.049 A 
ATOM     55  C   UNL A   1      39.468  31.246  31.989  1.00  0.00     0.074 A 
ATOM     56  C   UNL A   1      45.695  29.625  31.012  1.00  0.00     0.029 A 
ATOM     57  N   UNL A   1      44.262  31.277  31.283  1.00  0.00    -0.354 N 
ATOM     58  N   UNL A   1      40.237  30.829  32.955  1.00  0.00    -0.248 NA
ATOM     59  C   UNL A   1      40.053  32.246  31.106  1.00  0.00     0.031 C 
ATOM     60  C   UNL A   1      44.881  29.376  32.155  1.00  0.00     0.029 A 
ATOM     61  C   UNL A   1      43.858  30.327  32.181  1.00  0.00     0.049 A 
ATOM     62  H   UNL A   1      44.010  32.228  31.297  1.00  0.00     0.167 HD
ATOM     63  C   UNL A   1      41.523  31.142  32.530  1.00  0.00     0.074 A 
ATOM     64  C   UNL A   1      41.340  32.101  31.439  1.00  0.00     0.031 C 
ATOM     65  C   UNL A   1      42.592  30.369  32.885  1.00  0.00     0.034 A 
BRANCH  52  66
ATOM     66  C   UNL A   1      44.954  32.443  28.470  1.00  0.00     0.023 A 
ATOM     67  C   UNL A   1      43.738  33.155  28.374  1.00  0.00     0.012 A 
ATOM     68  C   UNL A   1      46.081  33.031  27.846  1.00  0.00     0.148 A 
ATOM     69  C   UNL A   1      43.625  34.324  27.617  1.00  0.00     0.002 A 
ATOM     70  C   UNL A   1      45.982  34.230  27.152  1.00  0.00     0.091 A 
ATOM     71  F   UNL A   1      47.252  32.398  27.808  1.00  0.00    -0.205 F 
ATOM     72  C   UNL A   1      44.748  34.861  27.002  1.00  0.00     0.022 A 
BRANCH  70  73
ATOM     73  S   UNL A   1      47.414  34.993  26.373  1.00  0.00     0.127 S 
ATOM     74  O   UNL A   1      47.779  33.986  25.383  1.00  0.00    -0.237 OA
ATOM     75  O   UNL A   1      46.832  36.220  25.828  1.00  0.00    -0.237 OA
ATOM     76  O   UNL A   1      48.382  35.215  27.441  1.00  0.00    -0.744 OA
ENDBRANCH  70  73
ENDBRANCH  52  66
BRANCH  53  77
ATOM     77  C   UNL A   1      36.964  31.091  31.335  1.00  0.00     0.023 A 
ATOM     78  C   UNL A   1      36.346  31.674  32.461  1.00  0.00     0.012 A 
ATOM     79  C   UNL A   1      36.431  31.388  30.061  1.00  0.00     0.148 A 
ATOM     80  C   UNL A   1      35.264  32.554  32.322  1.00  0.00     0.002 A 
ATOM     81  C   UNL A   1      35.358  32.264  29.926  1.00  0.00     0.091 A 
ATOM     82  F   UNL A   1      37.034  30.885  28.976  1.00  0.00    -0.205 F 
ATOM     83  C   UNL A   1      34.778  32.859  31.053  1.00  0.00     0.022 A 
BRANCH  81  84
ATOM     84  S   UNL A   1      34.711  32.750  28.318  1.00  0.00     0.127 S 
ATOM     85  O   UNL A   1      35.881  33.374  27.699  1.00  0.00    -0.237 OA
ATOM     86  O   UNL A   1      34.329  31.462  27.747  1.00  0.00    -0.237 OA
ATOM     87  O   UNL A   1      33.614  33.669  28.589  1.00  0.00    -0.744 OA
ENDBRANCH  81  84
ENDBRANCH  53  77
BRANCH  65  88
ATOM     88  C   UNL A   1      42.386  29.293  33.927  1.00  0.00     0.023 A 
ATOM     89  C   UNL A   1      41.621  28.132  33.676  1.00  0.00     0.012 A 
ATOM     90  C   UNL A   1      43.165  29.350  35.094  1.00  0.00     0.148 A 
ATOM     91  C   UNL A   1      41.632  27.058  34.572  1.00  0.00     0.002 A 
ATOM     92  C   UNL A   1      43.218  28.259  35.953  1.00  0.00     0.091 A 
ATOM     93  F   UNL A   1      43.885  30.460  35.318  1.00  0.00    -0.205 F 
ATOM     94  C   UNL A   1      42.445  27.114  35.701  1.00  0.00     0.022 A 
BRANCH  92  95
ATOM     95  S   UNL A   1      44.360  28.207  37.334  1.00  0.00     0.127 S 
ATOM     96  O   UNL A   1      44.170  29.524  37.938  1.00  0.00    -0.237 OA
ATOM     97  O   UNL A   1      43.842  27.090  38.126  1.00  0.00    -0.237 OA
ATOM     98  O   UNL A   1      45.679  27.968  36.760  1.00  0.00    -0.744 OA
ENDBRANCH  92  95
ENDBRANCH  65  88
ENDBRANCH  39  40
ENDBRANCH  32  34
ENDBRANCH  31  32
ENDBRANCH  30  31
ENDBRANCH  29  30
ENDBRANCH  28  29
ENDBRANCH   1  28
TORSDOF 21
ENDMDL
MODEL 3
REMARK VINA RESULT:     -10.6      3.245      9.701
REMARK SMILES C[C@H]1CCc2sc3ncn4nc(/C=C\C(=O)OCCOCCOCCOC(=O)c5ccc(-c6c7nc(c(-c8cccc(S(=O)(=O)[O-])c8F)c8ccc([nH]8)c(-c8cccc(S(=O)(=O)[O-])c8F)c8nc(c(-c9cccc(S(=O)(=O)[O-])c9F)c9ccc6[nH]9)C=C8)C=C7)cc5)nc4c3c2C1
REMARK SMILES IDX 22 1 21 2 20 3 19 4 18 5 17 6 15 7 16 8 14 9 13 10 12 11
REMARK SMILES IDX 1 12 2 13 3 14 96 15 4 16 95 17 5 18 94 19 6 20 7 21 93 22
REMARK SMILES IDX 8 23 10 24 92 25 9 26 11 27 23 28 24 29 25 30 26 31 27 32
REMARK SMILES IDX 28 33 29 34 30 35 91 36 31 37 90 38 32 39 33 40 34 41 84 42
REMARK SMILES IDX 35 43 89 44 83 45 85 46 36 47 88 48 82 49 81 50 37 52 69 53
REMARK SMILES IDX 49 54 68 55 50 56 53 57 67 58 86 59 51 60 52 61 66 63 87 64
REMARK SMILES IDX 54 65 38 66 39 67 47 68 40 69 42 70 48 71 41 72 43 73 44 74
REMARK SMILES IDX 45 75 46 76 70 77 71 78 79 79 72 80 74 81 80 82 73 83 75 84
REMARK SMILES IDX 76 85 77 86 78 87 55 88 56 89 64 90 57 91 59 92 65 93 58 94
REMARK SMILES IDX 60 95 61 96 62 97 63 98
REMARK H PARENT 85 51 53 62
REMARK Flexibility Score: inf
ROOT
ATOM      1  C   UNL A   1      39.620  21.375  25.803  1.00  0.00     0.188 C 
ENDROOT
BRANCH   1   2
ATOM      2  C   UNL A   1      38.367  20.519  25.475  1.00  0.00     0.188 C 
BRANCH   2   3
ATOM      3  O   UNL A   1      37.200  21.126  24.936  1.00  0.00    -0.376 OA
BRANCH   3   4
ATOM      4  C   UNL A   1      36.337  21.852  25.801  1.00  0.00     0.202 C 
BRANCH   4   5
ATOM      5  C   UNL A   1      34.852  21.473  25.916  1.00  0.00     0.261 C 
BRANCH   5   6
ATOM      6  O   UNL A   1      34.247  21.083  24.685  1.00  0.00    -0.460 OA
BRANCH   6   7
ATOM      7  C   UNL A   1      32.927  21.297  24.529  1.00  0.00     0.330 C 
ATOM      8  O   UNL A   1      32.068  21.214  25.381  1.00  0.00    -0.247 OA
BRANCH   7   9
ATOM      9  C   UNL A   1      32.650  21.867  23.192  1.00  0.00     0.097 C 
ATOM     10  C   UNL A   1      32.469  23.147  22.831  1.00  0.00     0.058 C 
BRANCH  10  11
ATOM     11  C   UNL A   1      32.507  24.354  23.591  1.00  0.00     0.175 A 
ATOM     12  C   UNL A   1      27.365  28.760  23.181  1.00  0.00     0.008 C 
ATOM     13  C   UNL A   1      28.622  29.075  22.366  1.00  0.00    -0.009 C 
ATOM     14  C   UNL A   1      29.105  30.532  22.534  1.00  0.00     0.009 C 
ATOM     15  C   UNL A   1      29.739  28.068  22.692  1.00  0.00     0.041 C 
ATOM     16  C   UNL A   1      29.669  30.840  23.933  1.00  0.00     0.047 C 
ATOM     17  C   UNL A   1      30.612  28.478  23.826  1.00  0.00    -0.020 A 
ATOM     18  C   UNL A   1      30.586  29.742  24.377  1.00  0.00     0.011 A 
ATOM     19  C   UNL A   1      31.592  27.685  24.455  1.00  0.00     0.060 A 
ATOM     20  S   UNL A   1      31.706  29.923  25.658  1.00  0.00    -0.120 S 
ATOM     21  C   UNL A   1      32.286  28.320  25.472  1.00  0.00     0.129 A 
ATOM     22  C   UNL A   1      32.026  26.302  24.200  1.00  0.00     0.168 A 
ATOM     23  N   UNL A   1      33.298  27.798  26.248  1.00  0.00    -0.225 NA
ATOM     24  N   UNL A   1      33.065  25.834  24.940  1.00  0.00    -0.201 N 
ATOM     25  N   UNL A   1      31.606  25.373  23.384  1.00  0.00    -0.207 NA
ATOM     26  C   UNL A   1      33.670  26.574  25.956  1.00  0.00     0.227 A 
ATOM     27  N   UNL A   1      33.403  24.585  24.573  1.00  0.00    -0.145 NA
ENDBRANCH  10  11
ENDBRANCH   7   9
ENDBRANCH   6   7
ENDBRANCH   5   6
ENDBRANCH   4   5
ENDBRANCH   3   4
ENDBRANCH   2   3
ENDBRANCH   1   2
BRANCH   1  28
ATOM     28  O   UNL A   1      40.610  20.749  26.591  1.00  0.00    -0.376 OA
BRANCH  28  29
ATOM     29  C   UNL A   1      41.897  20.397  26.113  1.00  0.00     0.202 C 
BRANCH  29  30
ATOM     30  C   UNL A   1      43.016  21.379  25.798  1.00  0.00     0.261 C 
BRANCH  30  31
ATOM     31  O   UNL A   1      42.989  22.548  26.575  1.00  0.00    -0.460 OA
BRANCH  31  32
ATOM     32  C   UNL A   1      42.622  23.630  25.863  1.00  0.00     0.338 C 
ATOM     33  O   UNL A   1      43.086  24.012  24.799  1.00  0.00    -0.246 OA
BRANCH  32  34
ATOM     34  C   UNL A   1      41.603  24.355  26.608  1.00  0.00     0.060 A 
ATOM     35  C   UNL A   1      41.050  25.445  25.939  1.00  0.00     0.016 A 
ATOM     36  C   UNL A   1      41.634  24.235  28.004  1.00  0.00     0.016 A 
ATOM     37  C   UNL A   1      40.843  26.576  26.677  1.00  0.00     0.010 A 
ATOM     38  C   UNL A   1      41.445  25.372  28.735  1.00  0.00     0.010 A 
ATOM     39  C   UNL A   1      41.171  26.543  28.038  1.00  0.00    -0.014 A 
BRANCH  39  40
ATOM     40  C   UNL A   1      41.116  27.784  28.759  1.00  0.00     0.031 A 
ATOM     41  C   UNL A   1      42.194  28.684  28.322  1.00  0.00     0.074 A 
ATOM     42  C   UNL A   1      40.169  28.048  29.674  1.00  0.00     0.049 A 
ATOM     43  N   UNL A   1      43.300  28.911  28.945  1.00  0.00    -0.248 NA
ATOM     44  C   UNL A   1      42.175  29.144  26.927  1.00  0.00     0.031 C 
ATOM     45  C   UNL A   1      38.936  27.312  29.966  1.00  0.00     0.029 A 
ATOM     46  N   UNL A   1      40.067  29.139  30.471  1.00  0.00    -0.354 N 
ATOM     47  C   UNL A   1      43.996  29.781  28.117  1.00  0.00     0.074 A 
ATOM     48  C   UNL A   1      43.404  29.648  26.815  1.00  0.00     0.031 C 
ATOM     49  C   UNL A   1      38.102  28.115  30.672  1.00  0.00     0.029 A 
ATOM     50  C   UNL A   1      38.797  29.351  30.992  1.00  0.00     0.049 A 
ATOM     51  H   UNL A   1      40.828  29.731  30.665  1.00  0.00     0.167 HD
ATOM     52  C   UNL A   1      44.765  30.763  28.655  1.00  0.00     0.034 A 
ATOM     53  C   UNL A   1      38.359  30.507  31.551  1.00  0.00     0.034 A 
ATOM     54  C   UNL A   1      45.061  30.473  30.042  1.00  0.00     0.049 A 
ATOM     55  C   UNL A   1      39.567  31.269  31.962  1.00  0.00     0.074 A 
ATOM     56  C   UNL A   1      45.683  29.435  30.706  1.00  0.00     0.029 A 
ATOM     57  N   UNL A   1      44.312  31.136  30.987  1.00  0.00    -0.354 N 
ATOM     58  N   UNL A   1      40.379  30.870  32.900  1.00  0.00    -0.248 NA
ATOM     59  C   UNL A   1      40.126  32.215  31.006  1.00  0.00     0.031 C 
ATOM     60  C   UNL A   1      44.930  29.255  31.903  1.00  0.00     0.029 A 
ATOM     61  C   UNL A   1      43.935  30.235  31.946  1.00  0.00     0.049 A 
ATOM     62  H   UNL A   1      44.086  32.094  30.976  1.00  0.00     0.167 HD
ATOM     63  C   UNL A   1      41.646  31.129  32.390  1.00  0.00     0.074 A 
ATOM     64  C   UNL A   1      41.426  32.048  31.272  1.00  0.00     0.031 C 
ATOM     65  C   UNL A   1      42.713  30.341  32.718  1.00  0.00     0.034 A 
BRANCH  52  66
ATOM     66  C   UNL A   1      44.872  32.166  28.093  1.00  0.00     0.023 A 
ATOM     67  C   UNL A   1      46.159  32.576  27.681  1.00  0.00     0.012 A 
ATOM     68  C   UNL A   1      43.888  33.180  28.192  1.00  0.00     0.148 A 
ATOM     69  C   UNL A   1      46.476  33.922  27.481  1.00  0.00     0.002 A 
ATOM     70  C   UNL A   1      44.188  34.510  27.926  1.00  0.00     0.091 A 
ATOM     71  F   UNL A   1      42.669  32.909  28.653  1.00  0.00    -0.205 F 
ATOM     72  C   UNL A   1      45.490  34.892  27.608  1.00  0.00     0.022 A 
BRANCH  70  73
ATOM     73  S   UNL A   1      42.938  35.801  28.032  1.00  0.00     0.127 S 
ATOM     74  O   UNL A   1      42.231  35.423  29.251  1.00  0.00    -0.237 OA
ATOM     75  O   UNL A   1      43.766  37.002  28.139  1.00  0.00    -0.237 OA
ATOM     76  O   UNL A   1      42.167  35.717  26.797  1.00  0.00    -0.744 OA
ENDBRANCH  70  73
ENDBRANCH  52  66
BRANCH  53  77
ATOM     77  C   UNL A   1      37.027  31.159  31.456  1.00  0.00     0.023 A 
ATOM     78  C   UNL A   1      36.487  31.799  32.592  1.00  0.00     0.012 A 
ATOM     79  C   UNL A   1      36.432  31.423  30.202  1.00  0.00     0.148 A 
ATOM     80  C   UNL A   1      35.421  32.702  32.477  1.00  0.00     0.002 A 
ATOM     81  C   UNL A   1      35.375  32.323  30.093  1.00  0.00     0.091 A 
ATOM     82  F   UNL A   1      36.961  30.865  29.107  1.00  0.00    -0.205 F 
ATOM     83  C   UNL A   1      34.875  32.974  31.226  1.00  0.00     0.022 A 
BRANCH  81  84
ATOM     84  S   UNL A   1      34.654  32.767  28.505  1.00  0.00     0.127 S 
ATOM     85  O   UNL A   1      33.694  33.803  28.890  1.00  0.00    -0.237 OA
ATOM     86  O   UNL A   1      35.818  33.254  27.772  1.00  0.00    -0.237 OA
ATOM     87  O   UNL A   1      34.046  31.549  27.986  1.00  0.00    -0.744 OA
ENDBRANCH  81  84
ENDBRANCH  53  77
BRANCH  65  88
ATOM     88  C   UNL A   1      42.539  29.315  33.814  1.00  0.00     0.023 A 
ATOM     89  C   UNL A   1      41.839  28.105  33.614  1.00  0.00     0.012 A 
ATOM     90  C   UNL A   1      43.290  29.476  34.990  1.00  0.00     0.148 A 
ATOM     91  C   UNL A   1      41.886  27.084  34.569  1.00  0.00     0.002 A 
ATOM     92  C   UNL A   1      43.379  28.438  35.910  1.00  0.00     0.091 A 
ATOM     93  F   UNL A   1      43.948  30.632  35.165  1.00  0.00    -0.205 F 
ATOM     94  C   UNL A   1      42.671  27.243  35.708  1.00  0.00     0.022 A 
BRANCH  92  95
ATOM     95  S   UNL A   1      44.493  28.521  37.312  1.00  0.00     0.127 S 
ATOM     96  O   UNL A   1      45.801  28.570  36.662  1.00  0.00    -0.237 OA
ATOM     97  O   UNL A   1      44.086  29.769  37.961  1.00  0.00    -0.237 OA
ATOM     98  O   UNL A   1      44.235  27.326  38.106  1.00  0.00    -0.744 OA
ENDBRANCH  92  95
ENDBRANCH  65  88
ENDBRANCH  39  40
ENDBRANCH  32  34
ENDBRANCH  31  32
ENDBRANCH  30  31
ENDBRANCH  29  30
ENDBRANCH  28  29
ENDBRANCH   1  28
TORSDOF 21
ENDMDL
