MODEL 1
REMARK VINA RESULT:     -13.1      0.000      0.000
REMARK SMILES Cc1c(NC(=O)[C@@H]2CC=CC[C@@H]2C(=O)OCCOCCOCCOC(=O)c2ccc(-c3c4nc(c(-c5cccc(S(=O)(=O)[O-])c5F)c5ccc([nH]5)c(-c5cccc(S(=O)(=O)[O-])c5F)c5nc(c(-c6cccc(S(=O)(=O)[O-])c6F)c6ccc3[nH]6)C=C5)C=C4)cc2)cccc1C(=O)N1CCOCC1
REMARK SMILES IDX 19 1 18 2 17 3 16 4 15 5 13 6 14 7 12 8 7 9 8 10 9 11 11 12
REMARK SMILES IDX 10 13 5 14 4 15 6 17 3 18 1 19 2 20 93 21 90 22 92 23 91 24
REMARK SMILES IDX 94 25 95 26 96 27 97 28 101 29 98 30 100 31 99 32 20 33
REMARK SMILES IDX 21 34 22 35 23 36 24 37 25 38 26 39 27 40 28 41 89 42 29 43
REMARK SMILES IDX 88 44 30 45 31 46 32 47 82 48 33 49 87 50 81 51 83 52 34 53
REMARK SMILES IDX 86 54 80 55 79 56 35 58 67 59 47 60 66 61 48 62 51 63 65 64
REMARK SMILES IDX 84 65 49 66 50 67 64 69 85 70 52 71 36 72 37 73 45 74 38 75
REMARK SMILES IDX 40 76 46 77 39 78 41 79 42 80 43 81 44 82 68 83 69 84 77 85
REMARK SMILES IDX 70 86 72 87 78 88 71 89 73 90 74 91 75 92 76 93 53 94 54 95
REMARK SMILES IDX 62 96 55 97 57 98 63 99 56 100 58 101 59 102 60 103 61 104
REMARK H PARENT 4 16 83 57 51 68
REMARK Flexibility Score: inf
ROOT
ATOM      1  C   UNL A   1      33.670  33.594  28.055  1.00  0.00     0.188 C 
ENDROOT
BRANCH   1   2
ATOM      2  O   UNL A   1      34.250  32.393  27.504  1.00  0.00    -0.376 OA
BRANCH   2   3
ATOM      3  C   UNL A   1      33.634  31.088  27.573  1.00  0.00     0.202 C 
BRANCH   3   4
ATOM      4  C   UNL A   1      32.955  30.305  26.278  1.00  0.00     0.261 C 
BRANCH   4   5
ATOM      5  O   UNL A   1      31.590  29.173  26.173  1.00  0.00    -0.463 OA
BRANCH   5   6
ATOM      6  C   UNL A   1      31.267  27.764  26.171  1.00  0.00     0.310 C 
ATOM      7  O   UNL A   1      30.935  27.049  27.120  1.00  0.00    -0.252 OA
BRANCH   6   8
ATOM      8  C   UNL A   1      31.264  26.902  24.934  1.00  0.00     0.116 C 
ATOM      9  C   UNL A   1      32.599  26.619  24.321  1.00  0.00     0.097 C 
ATOM     10  C   UNL A   1      33.047  27.802  23.491  1.00  0.00     0.041 C 
ATOM     11  C   UNL A   1      31.956  28.179  22.509  1.00  0.00    -0.030 C 
ATOM     12  C   UNL A   1      30.148  27.216  23.937  1.00  0.00     0.043 C 
ATOM     13  C   UNL A   1      30.658  27.895  22.706  1.00  0.00    -0.030 C 
BRANCH   9  14
ATOM     14  C   UNL A   1      33.431  26.181  25.501  1.00  0.00     0.228 C 
ATOM     15  N   UNL A   1      33.160  24.872  25.911  1.00  0.00    -0.326 N 
ATOM     16  H   UNL A   1      32.587  24.667  26.684  1.00  0.00     0.169 HD
ATOM     17  O   UNL A   1      34.147  26.942  26.142  1.00  0.00    -0.274 OA
BRANCH  15  18
ATOM     18  C   UNL A   1      33.773  23.867  25.130  1.00  0.00     0.044 A 
ATOM     19  C   UNL A   1      31.457  23.391  24.309  1.00  0.00     0.047 C 
ATOM     20  C   UNL A   1      32.914  23.014  24.424  1.00  0.00    -0.015 A 
ATOM     21  C   UNL A   1      33.456  21.818  23.930  1.00  0.00     0.045 A 
ATOM     22  C   UNL A   1      35.138  23.588  25.269  1.00  0.00     0.026 A 
ATOM     23  C   UNL A   1      34.792  21.467  24.197  1.00  0.00     0.014 A 
ATOM     24  C   UNL A   1      35.640  22.364  24.842  1.00  0.00     0.003 A 
BRANCH  21  25
ATOM     25  C   UNL A   1      32.600  20.809  23.274  1.00  0.00     0.254 C 
ATOM     26  O   UNL A   1      32.071  21.113  22.206  1.00  0.00    -0.269 OA
ATOM     27  N   UNL A   1      32.490  19.556  23.855  1.00  0.00    -0.334 N 
ATOM     28  C   UNL A   1      32.632  19.248  25.294  1.00  0.00     0.148 C 
ATOM     29  C   UNL A   1      32.124  18.429  23.006  1.00  0.00     0.148 C 
ATOM     30  C   UNL A   1      33.335  17.903  25.549  1.00  0.00     0.181 C 
ATOM     31  C   UNL A   1      32.962  17.196  23.350  1.00  0.00     0.181 C 
ATOM     32  O   UNL A   1      32.755  16.870  24.732  1.00  0.00    -0.378 OA
ENDBRANCH  21  25
ENDBRANCH  15  18
ENDBRANCH   9  14
ENDBRANCH   6   8
ENDBRANCH   5   6
ENDBRANCH   4   5
ENDBRANCH   3   4
ENDBRANCH   2   3
ENDBRANCH   1   2
BRANCH   1  33
ATOM     33  C   UNL A   1      34.419  34.930  28.086  1.00  0.00     0.188 C 
BRANCH  33  34
ATOM     34  O   UNL A   1      34.121  35.614  29.283  1.00  0.00    -0.376 OA
BRANCH  34  35
ATOM     35  C   UNL A   1      33.702  34.844  30.388  1.00  0.00     0.202 C 
BRANCH  35  36
ATOM     36  C   UNL A   1      34.827  34.604  31.409  1.00  0.00     0.261 C 
BRANCH  36  37
ATOM     37  O   UNL A   1      35.666  33.491  31.026  1.00  0.00    -0.460 OA
BRANCH  37  38
ATOM     38  C   UNL A   1      35.541  32.336  31.775  1.00  0.00     0.338 C 
ATOM     39  O   UNL A   1      35.111  32.320  32.910  1.00  0.00    -0.246 OA
BRANCH  38  40
ATOM     40  C   UNL A   1      36.205  31.192  31.061  1.00  0.00     0.060 A 
ATOM     41  C   UNL A   1      36.630  29.963  31.581  1.00  0.00     0.016 A 
ATOM     42  C   UNL A   1      36.672  31.479  29.832  1.00  0.00     0.016 A 
ATOM     43  C   UNL A   1      37.679  29.151  30.943  1.00  0.00     0.010 A 
ATOM     44  C   UNL A   1      37.790  30.783  29.390  1.00  0.00     0.010 A 
ATOM     45  C   UNL A   1      38.421  29.581  29.832  1.00  0.00    -0.014 A 
BRANCH  45  46
ATOM     46  C   UNL A   1      39.873  28.858  29.246  1.00  0.00     0.031 A 
ATOM     47  C   UNL A   1      40.348  27.216  28.790  1.00  0.00     0.074 A 
ATOM     48  C   UNL A   1      40.954  29.666  29.263  1.00  0.00     0.049 A 
ATOM     49  N   UNL A   1      41.480  26.628  29.139  1.00  0.00    -0.248 NA
ATOM     50  C   UNL A   1      39.573  26.154  28.020  1.00  0.00     0.031 C 
ATOM     51  C   UNL A   1      42.300  29.383  28.778  1.00  0.00     0.029 A 
ATOM     52  N   UNL A   1      41.081  30.902  29.908  1.00  0.00    -0.354 N 
ATOM     53  C   UNL A   1      41.531  25.328  28.582  1.00  0.00     0.074 A 
ATOM     54  C   UNL A   1      40.286  25.053  27.997  1.00  0.00     0.031 C 
ATOM     55  C   UNL A   1      43.153  30.207  29.410  1.00  0.00     0.029 A 
ATOM     56  C   UNL A   1      42.386  30.933  30.409  1.00  0.00     0.049 A 
ATOM     57  H   UNL A   1      40.395  31.602  29.991  1.00  0.00     0.167 HD
ATOM     58  C   UNL A   1      42.648  24.572  28.405  1.00  0.00     0.034 A 
ATOM     59  C   UNL A   1      42.635  31.006  31.747  1.00  0.00     0.034 A 
ATOM     60  C   UNL A   1      43.784  25.315  28.866  1.00  0.00     0.049 A 
ATOM     61  C   UNL A   1      43.600  29.946  32.227  1.00  0.00     0.074 A 
ATOM     62  C   UNL A   1      44.586  26.247  28.233  1.00  0.00     0.029 A 
ATOM     63  N   UNL A   1      43.952  25.476  30.224  1.00  0.00    -0.354 N 
ATOM     64  N   UNL A   1      43.936  28.893  31.533  1.00  0.00    -0.248 NA
ATOM     65  C   UNL A   1      44.286  29.996  33.513  1.00  0.00     0.031 C 
ATOM     66  C   UNL A   1      45.200  27.029  29.239  1.00  0.00     0.029 A 
ATOM     67  C   UNL A   1      44.806  26.534  30.470  1.00  0.00     0.049 A 
ATOM     68  H   UNL A   1      43.527  24.920  30.916  1.00  0.00     0.167 HD
ATOM     69  C   UNL A   1      44.769  28.093  32.270  1.00  0.00     0.074 A 
ATOM     70  C   UNL A   1      45.008  28.862  33.476  1.00  0.00     0.031 C 
ATOM     71  C   UNL A   1      45.149  26.851  31.842  1.00  0.00     0.034 A 
BRANCH  58  72
ATOM     72  C   UNL A   1      42.678  23.419  27.393  1.00  0.00     0.023 A 
ATOM     73  C   UNL A   1      41.944  22.262  27.725  1.00  0.00     0.012 A 
ATOM     74  C   UNL A   1      43.490  23.327  26.229  1.00  0.00     0.148 A 
ATOM     75  C   UNL A   1      42.102  21.049  27.044  1.00  0.00     0.002 A 
ATOM     76  C   UNL A   1      43.706  22.091  25.595  1.00  0.00     0.091 A 
ATOM     77  F   UNL A   1      44.078  24.432  25.737  1.00  0.00    -0.205 F 
ATOM     78  C   UNL A   1      43.018  20.949  26.008  1.00  0.00     0.022 A 
BRANCH  76  79
ATOM     79  S   UNL A   1      44.998  21.883  24.351  1.00  0.00     0.127 S 
ATOM     80  O   UNL A   1      44.724  20.555  23.795  1.00  0.00    -0.237 OA
ATOM     81  O   UNL A   1      44.741  22.989  23.438  1.00  0.00    -0.237 OA
ATOM     82  O   UNL A   1      46.246  21.948  25.107  1.00  0.00    -0.744 OA
ENDBRANCH  76  79
ENDBRANCH  58  72
BRANCH  59  83
ATOM     83  C   UNL A   1      41.590  31.723  32.560  1.00  0.00     0.023 A 
ATOM     84  C   UNL A   1      41.204  33.016  32.108  1.00  0.00     0.012 A 
ATOM     85  C   UNL A   1      40.809  31.124  33.568  1.00  0.00     0.148 A 
ATOM     86  C   UNL A   1      40.037  33.642  32.555  1.00  0.00     0.002 A 
ATOM     87  C   UNL A   1      39.648  31.767  34.026  1.00  0.00     0.091 A 
ATOM     88  F   UNL A   1      41.131  29.896  33.994  1.00  0.00    -0.205 F 
ATOM     89  C   UNL A   1      39.256  33.015  33.511  1.00  0.00     0.022 A 
BRANCH  87  90
ATOM     90  S   UNL A   1      38.544  30.998  35.228  1.00  0.00     0.127 S 
ATOM     91  O   UNL A   1      39.403  30.861  36.407  1.00  0.00    -0.237 OA
ATOM     92  O   UNL A   1      37.486  31.992  35.370  1.00  0.00    -0.237 OA
ATOM     93  O   UNL A   1      38.177  29.728  34.613  1.00  0.00    -0.744 OA
ENDBRANCH  87  90
ENDBRANCH  59  83
BRANCH  71  94
ATOM     94  C   UNL A   1      45.832  25.766  32.657  1.00  0.00     0.023 A 
ATOM     95  C   UNL A   1      47.225  25.716  32.823  1.00  0.00     0.012 A 
ATOM     96  C   UNL A   1      45.064  24.875  33.461  1.00  0.00     0.148 A 
ATOM     97  C   UNL A   1      47.829  24.817  33.711  1.00  0.00     0.002 A 
ATOM     98  C   UNL A   1      45.662  24.086  34.438  1.00  0.00     0.091 A 
ATOM     99  F   UNL A   1      43.738  24.775  33.289  1.00  0.00    -0.205 F 
ATOM    100  C   UNL A   1      47.049  24.027  34.545  1.00  0.00     0.022 A 
BRANCH  98 101
ATOM    101  S   UNL A   1      44.643  23.304  35.700  1.00  0.00     0.127 S 
ATOM    102  O   UNL A   1      45.613  23.015  36.753  1.00  0.00    -0.237 OA
ATOM    103  O   UNL A   1      43.680  24.356  36.035  1.00  0.00    -0.237 OA
ATOM    104  O   UNL A   1      44.055  22.156  35.020  1.00  0.00    -0.744 OA
ENDBRANCH  98 101
ENDBRANCH  71  94
ENDBRANCH  45  46
ENDBRANCH  38  40
ENDBRANCH  37  38
ENDBRANCH  36  37
ENDBRANCH  35  36
ENDBRANCH  34  35
ENDBRANCH  33  34
ENDBRANCH   1  33
TORSDOF 23
ENDMDL
MODEL 2
REMARK VINA RESULT:     -12.7      1.611      2.054
REMARK SMILES Cc1c(NC(=O)[C@@H]2CC=CC[C@@H]2C(=O)OCCOCCOCCOC(=O)c2ccc(-c3c4nc(c(-c5cccc(S(=O)(=O)[O-])c5F)c5ccc([nH]5)c(-c5cccc(S(=O)(=O)[O-])c5F)c5nc(c(-c6cccc(S(=O)(=O)[O-])c6F)c6ccc3[nH]6)C=C5)C=C4)cc2)cccc1C(=O)N1CCOCC1
REMARK SMILES IDX 19 1 18 2 17 3 16 4 15 5 13 6 14 7 12 8 7 9 8 10 9 11 11 12
REMARK SMILES IDX 10 13 5 14 4 15 6 17 3 18 1 19 2 20 93 21 90 22 92 23 91 24
REMARK SMILES IDX 94 25 95 26 96 27 97 28 101 29 98 30 100 31 99 32 20 33
REMARK SMILES IDX 21 34 22 35 23 36 24 37 25 38 26 39 27 40 28 41 89 42 29 43
REMARK SMILES IDX 88 44 30 45 31 46 32 47 82 48 33 49 87 50 81 51 83 52 34 53
REMARK SMILES IDX 86 54 80 55 79 56 35 58 67 59 47 60 66 61 48 62 51 63 65 64
REMARK SMILES IDX 84 65 49 66 50 67 64 69 85 70 52 71 36 72 37 73 45 74 38 75
REMARK SMILES IDX 40 76 46 77 39 78 41 79 42 80 43 81 44 82 68 83 69 84 77 85
REMARK SMILES IDX 70 86 72 87 78 88 71 89 73 90 74 91 75 92 76 93 53 94 54 95
REMARK SMILES IDX 62 96 55 97 57 98 63 99 56 100 58 101 59 102 60 103 61 104
REMARK H PARENT 4 16 83 57 51 68
REMARK Flexibility Score: inf
ROOT
ATOM      1  C   UNL A   1      33.406  34.067  28.274  1.00  0.00     0.188 C 
ENDROOT
BRANCH   1   2
ATOM      2  O   UNL A   1      34.051  32.880  27.767  1.00  0.00    -0.376 OA
BRANCH   2   3
ATOM      3  C   UNL A   1      33.529  31.542  27.924  1.00  0.00     0.202 C 
BRANCH   3   4
ATOM      4  C   UNL A   1      32.979  30.601  26.675  1.00  0.00     0.261 C 
BRANCH   4   5
ATOM      5  O   UNL A   1      31.633  29.445  26.579  1.00  0.00    -0.463 OA
BRANCH   5   6
ATOM      6  C   UNL A   1      31.339  28.043  26.384  1.00  0.00     0.310 C 
ATOM      7  O   UNL A   1      30.982  27.208  27.219  1.00  0.00    -0.252 OA
BRANCH   6   8
ATOM      8  C   UNL A   1      31.404  27.346  25.048  1.00  0.00     0.116 C 
ATOM      9  C   UNL A   1      32.769  27.155  24.467  1.00  0.00     0.097 C 
ATOM     10  C   UNL A   1      33.237  28.439  23.816  1.00  0.00     0.041 C 
ATOM     11  C   UNL A   1      32.186  28.929  22.840  1.00  0.00    -0.030 C 
ATOM     12  C   UNL A   1      30.330  27.775  24.048  1.00  0.00     0.043 C 
ATOM     13  C   UNL A   1      30.884  28.611  22.938  1.00  0.00    -0.030 C 
BRANCH   9  14
ATOM     14  C   UNL A   1      33.553  26.577  25.619  1.00  0.00     0.228 C 
ATOM     15  N   UNL A   1      33.231  25.244  25.892  1.00  0.00    -0.326 N 
ATOM     16  H   UNL A   1      32.630  24.984  26.626  1.00  0.00     0.169 HD
ATOM     17  O   UNL A   1      34.274  27.248  26.350  1.00  0.00    -0.274 OA
BRANCH  15  18
ATOM     18  C   UNL A   1      33.835  24.301  25.032  1.00  0.00     0.044 A 
ATOM     19  C   UNL A   1      31.494  23.751  24.338  1.00  0.00     0.047 C 
ATOM     20  C   UNL A   1      32.971  23.438  24.345  1.00  0.00    -0.015 A 
ATOM     21  C   UNL A   1      33.531  22.288  23.768  1.00  0.00     0.045 A 
ATOM     22  C   UNL A   1      35.217  24.079  25.073  1.00  0.00     0.026 A 
ATOM     23  C   UNL A   1      34.895  21.989  23.936  1.00  0.00     0.014 A 
ATOM     24  C   UNL A   1      35.743  22.898  24.563  1.00  0.00     0.003 A 
BRANCH  21  25
ATOM     25  C   UNL A   1      32.679  21.268  23.125  1.00  0.00     0.254 C 
ATOM     26  O   UNL A   1      32.259  21.503  21.992  1.00  0.00    -0.269 OA
ATOM     27  N   UNL A   1      32.453  20.077  23.794  1.00  0.00    -0.334 N 
ATOM     28  C   UNL A   1      32.457  19.887  25.260  1.00  0.00     0.148 C 
ATOM     29  C   UNL A   1      32.098  18.899  23.012  1.00  0.00     0.148 C 
ATOM     30  C   UNL A   1      33.063  18.538  25.685  1.00  0.00     0.181 C 
ATOM     31  C   UNL A   1      32.837  17.662  23.528  1.00  0.00     0.181 C 
ATOM     32  O   UNL A   1      32.497  17.467  24.908  1.00  0.00    -0.378 OA
ENDBRANCH  21  25
ENDBRANCH  15  18
ENDBRANCH   9  14
ENDBRANCH   6   8
ENDBRANCH   5   6
ENDBRANCH   4   5
ENDBRANCH   3   4
ENDBRANCH   2   3
ENDBRANCH   1   2
BRANCH   1  33
ATOM     33  C   UNL A   1      34.128  35.415  28.380  1.00  0.00     0.188 C 
BRANCH  33  34
ATOM     34  O   UNL A   1      33.644  36.126  29.497  1.00  0.00    -0.376 OA
BRANCH  34  35
ATOM     35  C   UNL A   1      33.167  35.376  30.593  1.00  0.00     0.202 C 
BRANCH  35  36
ATOM     36  C   UNL A   1      34.225  35.185  31.691  1.00  0.00     0.261 C 
BRANCH  36  37
ATOM     37  O   UNL A   1      35.197  34.177  31.327  1.00  0.00    -0.460 OA
BRANCH  37  38
ATOM     38  C   UNL A   1      34.843  32.862  31.566  1.00  0.00     0.338 C 
ATOM     39  O   UNL A   1      34.030  32.532  32.404  1.00  0.00    -0.246 OA
BRANCH  38  40
ATOM     40  C   UNL A   1      35.758  31.943  30.806  1.00  0.00     0.060 A 
ATOM     41  C   UNL A   1      35.945  30.565  30.965  1.00  0.00     0.016 A 
ATOM     42  C   UNL A   1      36.688  32.558  30.052  1.00  0.00     0.016 A 
ATOM     43  C   UNL A   1      37.174  29.875  30.539  1.00  0.00     0.010 A 
ATOM     44  C   UNL A   1      37.897  31.902  29.861  1.00  0.00     0.010 A 
ATOM     45  C   UNL A   1      38.303  30.545  30.044  1.00  0.00    -0.014 A 
BRANCH  45  46
ATOM     46  C   UNL A   1      39.877  29.865  29.852  1.00  0.00     0.031 A 
ATOM     47  C   UNL A   1      40.503  28.345  29.199  1.00  0.00     0.074 A 
ATOM     48  C   UNL A   1      40.869  30.555  30.455  1.00  0.00     0.049 A 
ATOM     49  N   UNL A   1      41.435  27.600  29.769  1.00  0.00    -0.248 NA
ATOM     50  C   UNL A   1      40.074  27.564  27.964  1.00  0.00     0.031 C 
ATOM     51  C   UNL A   1      42.302  30.286  30.426  1.00  0.00     0.029 A 
ATOM     52  N   UNL A   1      40.739  31.588  31.391  1.00  0.00    -0.354 N 
ATOM     53  C   UNL A   1      41.701  26.470  28.959  1.00  0.00     0.074 A 
ATOM     54  C   UNL A   1      40.758  26.445  27.921  1.00  0.00     0.031 C 
ATOM     55  C   UNL A   1      42.857  30.863  31.505  1.00  0.00     0.029 A 
ATOM     56  C   UNL A   1      41.771  31.392  32.314  1.00  0.00     0.049 A 
ATOM     57  H   UNL A   1      40.062  32.303  31.397  1.00  0.00     0.167 HD
ATOM     58  C   UNL A   1      42.812  25.689  29.008  1.00  0.00     0.034 A 
ATOM     59  C   UNL A   1      41.512  31.125  33.626  1.00  0.00     0.034 A 
ATOM     60  C   UNL A   1      43.694  26.206  30.014  1.00  0.00     0.049 A 
ATOM     61  C   UNL A   1      42.247  29.906  34.135  1.00  0.00     0.074 A 
ATOM     62  C   UNL A   1      44.662  27.192  29.963  1.00  0.00     0.029 A 
ATOM     63  N   UNL A   1      43.353  26.026  31.337  1.00  0.00    -0.354 N 
ATOM     64  N   UNL A   1      42.824  29.024  33.366  1.00  0.00    -0.248 NA
ATOM     65  C   UNL A   1      42.416  29.593  35.549  1.00  0.00     0.031 C 
ATOM     66  C   UNL A   1      44.858  27.660  31.282  1.00  0.00     0.029 A 
ATOM     67  C   UNL A   1      44.047  26.921  32.126  1.00  0.00     0.049 A 
ATOM     68  H   UNL A   1      42.711  25.358  31.668  1.00  0.00     0.167 HD
ATOM     69  C   UNL A   1      43.339  28.006  34.125  1.00  0.00     0.074 A 
ATOM     70  C   UNL A   1      43.114  28.445  35.489  1.00  0.00     0.031 C 
ATOM     71  C   UNL A   1      43.863  26.874  33.563  1.00  0.00     0.034 A 
BRANCH  58  72
ATOM     72  C   UNL A   1      43.223  24.810  27.818  1.00  0.00     0.023 A 
ATOM     73  C   UNL A   1      42.453  23.651  27.589  1.00  0.00     0.012 A 
ATOM     74  C   UNL A   1      44.387  24.952  27.015  1.00  0.00     0.148 A 
ATOM     75  C   UNL A   1      42.871  22.628  26.730  1.00  0.00     0.002 A 
ATOM     76  C   UNL A   1      44.844  23.893  26.212  1.00  0.00     0.091 A 
ATOM     77  F   UNL A   1      45.075  26.106  27.037  1.00  0.00    -0.205 F 
ATOM     78  C   UNL A   1      44.090  22.725  26.076  1.00  0.00     0.022 A 
BRANCH  76  79
ATOM     79  S   UNL A   1      46.490  23.913  25.470  1.00  0.00     0.127 S 
ATOM     80  O   UNL A   1      46.631  22.563  24.917  1.00  0.00    -0.237 OA
ATOM     81  O   UNL A   1      46.375  24.970  24.473  1.00  0.00    -0.237 OA
ATOM     82  O   UNL A   1      47.391  24.178  26.589  1.00  0.00    -0.744 OA
ENDBRANCH  76  79
ENDBRANCH  58  72
BRANCH  59  83
ATOM     83  C   UNL A   1      40.236  31.712  34.165  1.00  0.00     0.023 A 
ATOM     84  C   UNL A   1      39.027  31.304  33.535  1.00  0.00     0.012 A 
ATOM     85  C   UNL A   1      40.131  32.427  35.375  1.00  0.00     0.148 A 
ATOM     86  C   UNL A   1      37.777  31.499  34.127  1.00  0.00     0.002 A 
ATOM     87  C   UNL A   1      38.870  32.635  35.956  1.00  0.00     0.091 A 
ATOM     88  F   UNL A   1      41.251  32.800  36.006  1.00  0.00    -0.205 F 
ATOM     89  C   UNL A   1      37.699  32.161  35.341  1.00  0.00     0.022 A 
BRANCH  87  90
ATOM     90  S   UNL A   1      38.680  33.438  37.560  1.00  0.00     0.127 S 
ATOM     91  O   UNL A   1      37.244  33.304  37.815  1.00  0.00    -0.237 OA
ATOM     92  O   UNL A   1      39.522  32.622  38.427  1.00  0.00    -0.237 OA
ATOM     93  O   UNL A   1      39.113  34.811  37.325  1.00  0.00    -0.744 OA
ENDBRANCH  87  90
ENDBRANCH  59  83
BRANCH  71  94
ATOM     94  C   UNL A   1      44.213  25.575  34.269  1.00  0.00     0.023 A 
ATOM     95  C   UNL A   1      43.288  24.530  34.419  1.00  0.00     0.012 A 
ATOM     96  C   UNL A   1      45.562  25.284  34.620  1.00  0.00     0.148 A 
ATOM     97  C   UNL A   1      43.666  23.278  34.917  1.00  0.00     0.002 A 
ATOM     98  C   UNL A   1      45.955  23.999  34.981  1.00  0.00     0.091 A 
ATOM     99  F   UNL A   1      46.491  26.252  34.614  1.00  0.00    -0.205 F 
ATOM    100  C   UNL A   1      45.005  22.998  35.165  1.00  0.00     0.022 A 
BRANCH  98 101
ATOM    101  S   UNL A   1      47.704  23.574  35.007  1.00  0.00     0.127 S 
ATOM    102  O   UNL A   1      47.674  22.115  34.976  1.00  0.00    -0.237 OA
ATOM    103  O   UNL A   1      48.205  24.196  33.779  1.00  0.00    -0.237 OA
ATOM    104  O   UNL A   1      48.202  24.192  36.229  1.00  0.00    -0.744 OA
ENDBRANCH  98 101
ENDBRANCH  71  94
ENDBRANCH  45  46
ENDBRANCH  38  40
ENDBRANCH  37  38
ENDBRANCH  36  37
ENDBRANCH  35  36
ENDBRANCH  34  35
ENDBRANCH  33  34
ENDBRANCH   1  33
TORSDOF 23
ENDMDL
MODEL 3
REMARK VINA RESULT:     -12.2      1.680      2.317
REMARK SMILES Cc1c(NC(=O)[C@@H]2CC=CC[C@@H]2C(=O)OCCOCCOCCOC(=O)c2ccc(-c3c4nc(c(-c5cccc(S(=O)(=O)[O-])c5F)c5ccc([nH]5)c(-c5cccc(S(=O)(=O)[O-])c5F)c5nc(c(-c6cccc(S(=O)(=O)[O-])c6F)c6ccc3[nH]6)C=C5)C=C4)cc2)cccc1C(=O)N1CCOCC1
REMARK SMILES IDX 19 1 18 2 17 3 16 4 15 5 13 6 14 7 12 8 7 9 8 10 9 11 11 12
REMARK SMILES IDX 10 13 5 14 4 15 6 17 3 18 1 19 2 20 93 21 90 22 92 23 91 24
REMARK SMILES IDX 94 25 95 26 96 27 97 28 101 29 98 30 100 31 99 32 20 33
REMARK SMILES IDX 21 34 22 35 23 36 24 37 25 38 26 39 27 40 28 41 89 42 29 43
REMARK SMILES IDX 88 44 30 45 31 46 32 47 82 48 33 49 87 50 81 51 83 52 34 53
REMARK SMILES IDX 86 54 80 55 79 56 35 58 67 59 47 60 66 61 48 62 51 63 65 64
REMARK SMILES IDX 84 65 49 66 50 67 64 69 85 70 52 71 36 72 37 73 45 74 38 75
REMARK SMILES IDX 40 76 46 77 39 78 41 79 42 80 43 81 44 82 68 83 69 84 77 85
REMARK SMILES IDX 70 86 72 87 78 88 71 89 73 90 74 91 75 92 76 93 53 94 54 95
REMARK SMILES IDX 62 96 55 97 57 98 63 99 56 100 58 101 59 102 60 103 61 104
REMARK H PARENT 4 16 83 57 51 68
REMARK Flexibility Score: inf
ROOT
ATOM      1  C   UNL A   1      34.789  33.381  27.935  1.00  0.00     0.188 C 
ENDROOT
BRANCH   1   2
ATOM      2  O   UNL A   1      34.783  31.970  27.635  1.00  0.00    -0.376 OA
BRANCH   2   3
ATOM      3  C   UNL A   1      33.591  31.157  27.577  1.00  0.00     0.202 C 
BRANCH   3   4
ATOM      4  C   UNL A   1      33.370  29.896  26.523  1.00  0.00     0.261 C 
BRANCH   4   5
ATOM      5  O   UNL A   1      31.911  29.275  25.722  1.00  0.00    -0.463 OA
BRANCH   5   6
ATOM      6  C   UNL A   1      30.859  29.652  24.806  1.00  0.00     0.310 C 
ATOM      7  O   UNL A   1      30.304  30.746  24.678  1.00  0.00    -0.252 OA
BRANCH   6   8
ATOM      8  C   UNL A   1      30.253  28.719  23.788  1.00  0.00     0.116 C 
ATOM      9  C   UNL A   1      30.900  28.700  22.440  1.00  0.00     0.097 C 
ATOM     10  C   UNL A   1      30.432  29.886  21.625  1.00  0.00     0.041 C 
ATOM     11  C   UNL A   1      28.917  29.930  21.610  1.00  0.00    -0.030 C 
ATOM     12  C   UNL A   1      28.724  28.694  23.772  1.00  0.00     0.043 C 
ATOM     13  C   UNL A   1      28.155  29.374  22.567  1.00  0.00    -0.030 C 
BRANCH   9  14
ATOM     14  C   UNL A   1      32.366  28.553  22.765  1.00  0.00     0.228 C 
ATOM     15  N   UNL A   1      32.642  27.455  23.585  1.00  0.00    -0.326 N 
ATOM     16  H   UNL A   1      32.793  27.542  24.554  1.00  0.00     0.169 HD
ATOM     17  O   UNL A   1      33.207  29.400  22.485  1.00  0.00    -0.274 OA
BRANCH  15  18
ATOM     18  C   UNL A   1      32.686  26.212  22.916  1.00  0.00     0.044 A 
ATOM     19  C   UNL A   1      33.951  25.416  24.925  1.00  0.00     0.047 C 
ATOM     20  C   UNL A   1      33.466  25.211  23.509  1.00  0.00    -0.015 A 
ATOM     21  C   UNL A   1      33.810  24.106  22.716  1.00  0.00     0.045 A 
ATOM     22  C   UNL A   1      32.194  26.086  21.611  1.00  0.00     0.026 A 
ATOM     23  C   UNL A   1      33.440  24.049  21.361  1.00  0.00     0.014 A 
ATOM     24  C   UNL A   1      32.608  25.024  20.816  1.00  0.00     0.003 A 
BRANCH  21  25
ATOM     25  C   UNL A   1      34.721  23.060  23.223  1.00  0.00     0.254 C 
ATOM     26  O   UNL A   1      35.919  23.171  22.968  1.00  0.00    -0.269 OA
ATOM     27  N   UNL A   1      34.195  22.051  24.013  1.00  0.00    -0.334 N 
ATOM     28  C   UNL A   1      32.808  21.541  23.965  1.00  0.00     0.148 C 
ATOM     29  C   UNL A   1      35.087  21.353  24.931  1.00  0.00     0.148 C 
ATOM     30  C   UNL A   1      32.259  21.175  25.355  1.00  0.00     0.181 C 
ATOM     31  C   UNL A   1      34.406  21.129  26.283  1.00  0.00     0.181 C 
ATOM     32  O   UNL A   1      33.208  20.367  26.073  1.00  0.00    -0.378 OA
ENDBRANCH  21  25
ENDBRANCH  15  18
ENDBRANCH   9  14
ENDBRANCH   6   8
ENDBRANCH   5   6
ENDBRANCH   4   5
ENDBRANCH   3   4
ENDBRANCH   2   3
ENDBRANCH   1   2
BRANCH   1  33
ATOM     33  C   UNL A   1      33.675  34.056  28.741  1.00  0.00     0.188 C 
BRANCH  33  34
ATOM     34  O   UNL A   1      34.232  35.014  29.613  1.00  0.00    -0.376 OA
BRANCH  34  35
ATOM     35  C   UNL A   1      33.760  35.040  30.942  1.00  0.00     0.202 C 
BRANCH  35  36
ATOM     36  C   UNL A   1      34.835  34.640  31.966  1.00  0.00     0.261 C 
BRANCH  36  37
ATOM     37  O   UNL A   1      35.750  33.660  31.423  1.00  0.00    -0.460 OA
BRANCH  37  38
ATOM     38  C   UNL A   1      35.740  32.411  32.015  1.00  0.00     0.338 C 
ATOM     39  O   UNL A   1      35.363  32.213  33.151  1.00  0.00    -0.246 OA
BRANCH  38  40
ATOM     40  C   UNL A   1      36.453  31.424  31.132  1.00  0.00     0.060 A 
ATOM     41  C   UNL A   1      36.710  30.068  31.365  1.00  0.00     0.016 A 
ATOM     42  C   UNL A   1      37.143  31.966  30.111  1.00  0.00     0.016 A 
ATOM     43  C   UNL A   1      37.806  29.342  30.701  1.00  0.00     0.010 A 
ATOM     44  C   UNL A   1      38.279  31.295  29.676  1.00  0.00     0.010 A 
ATOM     45  C   UNL A   1      38.753  29.963  29.873  1.00  0.00    -0.014 A 
BRANCH  45  46
ATOM     46  C   UNL A   1      40.242  29.270  29.345  1.00  0.00     0.031 A 
ATOM     47  C   UNL A   1      40.747  27.654  28.830  1.00  0.00     0.074 A 
ATOM     48  C   UNL A   1      41.319  30.072  29.479  1.00  0.00     0.049 A 
ATOM     49  N   UNL A   1      41.854  27.045  29.221  1.00  0.00    -0.248 NA
ATOM     50  C   UNL A   1      40.026  26.640  27.952  1.00  0.00     0.031 C 
ATOM     51  C   UNL A   1      42.694  29.813  29.070  1.00  0.00     0.029 A 
ATOM     52  N   UNL A   1      41.402  31.270  30.200  1.00  0.00    -0.354 N 
ATOM     53  C   UNL A   1      41.944  25.777  28.595  1.00  0.00     0.074 A 
ATOM     54  C   UNL A   1      40.740  25.540  27.914  1.00  0.00     0.031 C 
ATOM     55  C   UNL A   1      43.503  30.598  29.802  1.00  0.00     0.029 A 
ATOM     56  C   UNL A   1      42.671  31.269  30.787  1.00  0.00     0.049 A 
ATOM     57  H   UNL A   1      40.711  31.967  30.276  1.00  0.00     0.167 HD
ATOM     58  C   UNL A   1      43.070  25.030  28.451  1.00  0.00     0.034 A 
ATOM     59  C   UNL A   1      42.829  31.267  32.141  1.00  0.00     0.034 A 
ATOM     60  C   UNL A   1      44.172  25.743  29.028  1.00  0.00     0.049 A 
ATOM     61  C   UNL A   1      43.761  30.178  32.624  1.00  0.00     0.074 A 
ATOM     62  C   UNL A   1      45.014  26.706  28.503  1.00  0.00     0.029 A 
ATOM     63  N   UNL A   1      44.250  25.827  30.401  1.00  0.00    -0.354 N 
ATOM     64  N   UNL A   1      44.143  29.165  31.896  1.00  0.00    -0.248 NA
ATOM     65  C   UNL A   1      44.360  30.154  33.953  1.00  0.00     0.031 C 
ATOM     66  C   UNL A   1      45.559  27.428  29.589  1.00  0.00     0.029 A 
ATOM     67  C   UNL A   1      45.084  26.867  30.762  1.00  0.00     0.049 A 
ATOM     68  H   UNL A   1      43.779  25.234  31.031  1.00  0.00     0.167 HD
ATOM     69  C   UNL A   1      44.926  28.322  32.641  1.00  0.00     0.074 A 
ATOM     70  C   UNL A   1      45.084  29.022  33.901  1.00  0.00     0.031 C 
ATOM     71  C   UNL A   1      45.336  27.105  32.169  1.00  0.00     0.034 A 
BRANCH  58  72
ATOM     72  C   UNL A   1      43.169  23.935  27.380  1.00  0.00     0.023 A 
ATOM     73  C   UNL A   1      43.588  24.338  26.096  1.00  0.00     0.012 A 
ATOM     74  C   UNL A   1      42.737  22.586  27.497  1.00  0.00     0.148 A 
ATOM     75  C   UNL A   1      43.459  23.517  24.969  1.00  0.00     0.002 A 
ATOM     76  C   UNL A   1      42.536  21.790  26.357  1.00  0.00     0.091 A 
ATOM     77  F   UNL A   1      42.495  22.067  28.714  1.00  0.00    -0.205 F 
ATOM     78  C   UNL A   1      42.889  22.259  25.090  1.00  0.00     0.022 A 
BRANCH  76  79
ATOM     79  S   UNL A   1      41.657  20.215  26.448  1.00  0.00     0.127 S 
ATOM     80  O   UNL A   1      42.197  19.593  27.660  1.00  0.00    -0.237 OA
ATOM     81  O   UNL A   1      40.265  20.635  26.549  1.00  0.00    -0.237 OA
ATOM     82  O   UNL A   1      42.031  19.517  25.221  1.00  0.00    -0.744 OA
ENDBRANCH  76  79
ENDBRANCH  58  72
BRANCH  59  83
ATOM     83  C   UNL A   1      41.732  31.940  32.922  1.00  0.00     0.023 A 
ATOM     84  C   UNL A   1      41.397  33.268  32.539  1.00  0.00     0.012 A 
ATOM     85  C   UNL A   1      40.868  31.282  33.818  1.00  0.00     0.148 A 
ATOM     86  C   UNL A   1      40.207  33.881  32.939  1.00  0.00     0.002 A 
ATOM     87  C   UNL A   1      39.681  31.909  34.232  1.00  0.00     0.091 A 
ATOM     88  F   UNL A   1      41.141  30.021  34.176  1.00  0.00    -0.205 F 
ATOM     89  C   UNL A   1      39.346  33.198  33.782  1.00  0.00     0.022 A 
BRANCH  87  90
ATOM     90  S   UNL A   1      38.478  31.074  35.284  1.00  0.00     0.127 S 
ATOM     91  O   UNL A   1      37.434  32.090  35.443  1.00  0.00    -0.237 OA
ATOM     92  O   UNL A   1      38.082  29.931  34.470  1.00  0.00    -0.237 OA
ATOM     93  O   UNL A   1      39.214  30.786  36.509  1.00  0.00    -0.744 OA
ENDBRANCH  87  90
ENDBRANCH  59  83
BRANCH  71  94
ATOM     94  C   UNL A   1      45.964  25.974  32.966  1.00  0.00     0.023 A 
ATOM     95  C   UNL A   1      47.347  25.889  33.186  1.00  0.00     0.012 A 
ATOM     96  C   UNL A   1      45.146  25.068  33.701  1.00  0.00     0.148 A 
ATOM     97  C   UNL A   1      47.897  24.942  34.059  1.00  0.00     0.002 A 
ATOM     98  C   UNL A   1      45.688  24.228  34.669  1.00  0.00     0.091 A 
ATOM     99  F   UNL A   1      43.826  25.003  33.473  1.00  0.00    -0.205 F 
ATOM    100  C   UNL A   1      47.068  24.135  34.828  1.00  0.00     0.022 A 
BRANCH  98 101
ATOM    101  S   UNL A   1      44.604  23.417  35.855  1.00  0.00     0.127 S 
ATOM    102  O   UNL A   1      45.553  22.786  36.769  1.00  0.00    -0.237 OA
ATOM    103  O   UNL A   1      43.861  24.539  36.433  1.00  0.00    -0.237 OA
ATOM    104  O   UNL A   1      43.789  22.524  35.040  1.00  0.00    -0.744 OA
ENDBRANCH  98 101
ENDBRANCH  71  94
ENDBRANCH  45  46
ENDBRANCH  38  40
ENDBRANCH  37  38
ENDBRANCH  36  37
ENDBRANCH  35  36
ENDBRANCH  34  35
ENDBRANCH  33  34
ENDBRANCH   1  33
TORSDOF 23
ENDMDL
