MODEL 1
REMARK VINA RESULT:     -10.7      0.000      0.000
REMARK SMILES C[C@@H](C(=O)OCCOCCOCCOC(=O)c1ccc(-c2c3nc(c(-c4cccc(S(=O)(=O)[O-])c4F)c4ccc([nH]4)c(-c4cccc(S(=O)(=O)[O-])c4F)c4nc(c(-c5cccc(S(=O)(=O)[O-])c5F)c5ccc2[nH]5)C=C4)C=C3)cc1)c1ccc(-c2ccccc2)c(F)c1
REMARK SMILES IDX 10 1 9 2 8 3 7 4 6 5 5 6 3 7 4 8 2 9 1 10 80 11 81 12 92 13
REMARK SMILES IDX 82 14 90 15 83 16 91 17 84 18 85 19 89 20 86 21 88 22 87 23
REMARK SMILES IDX 11 24 12 25 13 26 14 27 15 28 16 29 17 30 18 31 79 32 19 33
REMARK SMILES IDX 78 34 20 35 21 36 22 37 72 38 23 39 77 40 71 41 73 42 24 43
REMARK SMILES IDX 76 44 70 45 69 46 25 48 57 49 37 50 56 51 38 52 41 53 55 54
REMARK SMILES IDX 74 55 39 56 40 57 54 59 75 60 42 61 26 62 27 63 35 64 28 65
REMARK SMILES IDX 30 66 36 67 29 68 31 69 32 70 33 71 34 72 58 73 59 74 67 75
REMARK SMILES IDX 60 76 62 77 68 78 61 79 63 80 64 81 65 82 66 83 43 84 44 85
REMARK SMILES IDX 52 86 45 87 47 88 53 89 46 90 48 91 49 92 50 93 51 94
REMARK H PARENT 73 47 41 58
REMARK Flexibility Score: inf
ROOT
ATOM      1  C   UNL A   1      33.505  30.003  25.763  1.00  0.00     0.188 C 
ENDROOT
BRANCH   1   2
ATOM      2  C   UNL A   1      32.004  29.694  25.855  1.00  0.00     0.188 C 
BRANCH   2   3
ATOM      3  O   UNL A   1      31.468  29.355  27.125  1.00  0.00    -0.376 OA
BRANCH   3   4
ATOM      4  C   UNL A   1      31.417  27.979  27.491  1.00  0.00     0.202 C 
BRANCH   4   5
ATOM      5  C   UNL A   1      32.408  26.980  26.862  1.00  0.00     0.261 C 
BRANCH   5   6
ATOM      6  O   UNL A   1      31.836  26.154  25.825  1.00  0.00    -0.463 OA
BRANCH   6   7
ATOM      7  C   UNL A   1      32.123  24.828  25.884  1.00  0.00     0.313 C 
ATOM      8  O   UNL A   1      31.504  24.029  26.581  1.00  0.00    -0.252 OA
BRANCH   7   9
ATOM      9  C   UNL A   1      33.271  24.395  24.953  1.00  0.00     0.126 C 
ATOM     10  C   UNL A   1      33.324  25.176  23.632  1.00  0.00     0.025 C 
BRANCH   9  11
ATOM     11  C   UNL A   1      33.464  22.875  24.858  1.00  0.00    -0.031 A 
ATOM     12  C   UNL A   1      34.279  22.132  25.726  1.00  0.00     0.005 A 
ATOM     13  C   UNL A   1      32.701  22.146  23.934  1.00  0.00     0.044 A 
ATOM     14  C   UNL A   1      34.308  20.723  25.682  1.00  0.00     0.012 A 
ATOM     15  C   UNL A   1      32.724  20.748  23.906  1.00  0.00     0.131 A 
ATOM     16  C   UNL A   1      33.512  19.990  24.785  1.00  0.00     0.017 A 
ATOM     17  F   UNL A   1      31.906  20.153  23.024  1.00  0.00    -0.206 F 
BRANCH  16  18
ATOM     18  C   UNL A   1      33.490  18.507  24.786  1.00  0.00    -0.015 A 
ATOM     19  C   UNL A   1      34.328  17.736  23.957  1.00  0.00     0.009 A 
ATOM     20  C   UNL A   1      32.634  17.799  25.642  1.00  0.00     0.009 A 
ATOM     21  C   UNL A   1      34.294  16.333  23.967  1.00  0.00     0.001 A 
ATOM     22  C   UNL A   1      32.626  16.405  25.674  1.00  0.00     0.001 A 
ATOM     23  C   UNL A   1      33.435  15.665  24.827  1.00  0.00     0.000 A 
ENDBRANCH  16  18
ENDBRANCH   9  11
ENDBRANCH   7   9
ENDBRANCH   6   7
ENDBRANCH   5   6
ENDBRANCH   4   5
ENDBRANCH   3   4
ENDBRANCH   2   3
ENDBRANCH   1   2
BRANCH   1  24
ATOM     24  O   UNL A   1      34.186  30.174  26.983  1.00  0.00    -0.376 OA
BRANCH  24  25
ATOM     25  C   UNL A   1      34.343  31.464  27.547  1.00  0.00     0.202 C 
BRANCH  25  26
ATOM     26  C   UNL A   1      33.205  32.471  27.828  1.00  0.00     0.261 C 
BRANCH  26  27
ATOM     27  O   UNL A   1      33.456  33.865  27.636  1.00  0.00    -0.460 OA
BRANCH  27  28
ATOM     28  C   UNL A   1      33.443  34.647  28.743  1.00  0.00     0.338 C 
ATOM     29  O   UNL A   1      32.555  35.413  29.090  1.00  0.00    -0.246 OA
BRANCH  28  30
ATOM     30  C   UNL A   1      34.578  34.228  29.597  1.00  0.00     0.060 A 
ATOM     31  C   UNL A   1      35.889  34.428  29.137  1.00  0.00     0.016 A 
ATOM     32  C   UNL A   1      34.349  33.667  30.853  1.00  0.00     0.016 A 
ATOM     33  C   UNL A   1      36.975  34.055  29.930  1.00  0.00     0.010 A 
ATOM     34  C   UNL A   1      35.438  33.263  31.630  1.00  0.00     0.010 A 
ATOM     35  C   UNL A   1      36.754  33.432  31.164  1.00  0.00    -0.014 A 
BRANCH  35  36
ATOM     36  C   UNL A   1      37.882  32.776  31.873  1.00  0.00     0.031 A 
ATOM     37  C   UNL A   1      38.609  31.666  31.167  1.00  0.00     0.074 A 
ATOM     38  C   UNL A   1      38.225  33.124  33.127  1.00  0.00     0.049 A 
ATOM     39  N   UNL A   1      39.608  30.933  31.580  1.00  0.00    -0.248 NA
ATOM     40  C   UNL A   1      38.128  31.321  29.817  1.00  0.00     0.031 C 
ATOM     41  C   UNL A   1      37.583  34.174  33.913  1.00  0.00     0.029 A 
ATOM     42  N   UNL A   1      39.196  32.625  33.963  1.00  0.00    -0.354 N 
ATOM     43  C   UNL A   1      39.824  29.993  30.580  1.00  0.00     0.074 A 
ATOM     44  C   UNL A   1      38.874  30.268  29.525  1.00  0.00     0.031 C 
ATOM     45  C   UNL A   1      38.184  34.249  35.114  1.00  0.00     0.029 A 
ATOM     46  C   UNL A   1      39.252  33.251  35.190  1.00  0.00     0.049 A 
ATOM     47  H   UNL A   1      39.796  31.887  33.710  1.00  0.00     0.167 HD
ATOM     48  C   UNL A   1      40.721  28.980  30.553  1.00  0.00     0.034 A 
ATOM     49  C   UNL A   1      40.090  33.057  36.233  1.00  0.00     0.034 A 
ATOM     50  C   UNL A   1      41.676  28.724  31.596  1.00  0.00     0.049 A 
ATOM     51  C   UNL A   1      41.153  31.987  36.118  1.00  0.00     0.074 A 
ATOM     52  C   UNL A   1      42.647  27.739  31.648  1.00  0.00     0.029 A 
ATOM     53  N   UNL A   1      41.772  29.444  32.776  1.00  0.00    -0.354 N 
ATOM     54  N   UNL A   1      41.441  31.204  35.105  1.00  0.00    -0.248 NA
ATOM     55  C   UNL A   1      42.029  31.793  37.285  1.00  0.00     0.031 C 
ATOM     56  C   UNL A   1      43.303  27.838  32.878  1.00  0.00     0.029 A 
ATOM     57  C   UNL A   1      42.774  28.915  33.571  1.00  0.00     0.049 A 
ATOM     58  H   UNL A   1      41.210  30.216  33.013  1.00  0.00     0.167 HD
ATOM     59  C   UNL A   1      42.532  30.441  35.508  1.00  0.00     0.074 A 
ATOM     60  C   UNL A   1      42.898  30.902  36.830  1.00  0.00     0.031 C 
ATOM     61  C   UNL A   1      43.154  29.420  34.864  1.00  0.00     0.034 A 
BRANCH  48  62
ATOM     62  C   UNL A   1      40.689  28.049  29.371  1.00  0.00     0.023 A 
ATOM     63  C   UNL A   1      39.789  26.965  29.343  1.00  0.00     0.012 A 
ATOM     64  C   UNL A   1      41.529  28.282  28.263  1.00  0.00     0.148 A 
ATOM     65  C   UNL A   1      39.750  26.107  28.244  1.00  0.00     0.002 A 
ATOM     66  C   UNL A   1      41.447  27.454  27.152  1.00  0.00     0.091 A 
ATOM     67  F   UNL A   1      42.396  29.303  28.322  1.00  0.00    -0.205 F 
ATOM     68  C   UNL A   1      40.569  26.358  27.145  1.00  0.00     0.022 A 
BRANCH  66  69
ATOM     69  S   UNL A   1      42.398  27.747  25.657  1.00  0.00     0.127 S 
ATOM     70  O   UNL A   1      43.768  27.735  26.172  1.00  0.00    -0.237 OA
ATOM     71  O   UNL A   1      42.044  26.587  24.838  1.00  0.00    -0.237 OA
ATOM     72  O   UNL A   1      41.942  29.025  25.131  1.00  0.00    -0.744 OA
ENDBRANCH  66  69
ENDBRANCH  48  62
BRANCH  49  73
ATOM     73  C   UNL A   1      40.059  33.963  37.430  1.00  0.00     0.023 A 
ATOM     74  C   UNL A   1      40.748  35.197  37.376  1.00  0.00     0.012 A 
ATOM     75  C   UNL A   1      39.337  33.653  38.597  1.00  0.00     0.148 A 
ATOM     76  C   UNL A   1      40.704  36.104  38.434  1.00  0.00     0.002 A 
ATOM     77  C   UNL A   1      39.259  34.582  39.633  1.00  0.00     0.091 A 
ATOM     78  F   UNL A   1      38.732  32.460  38.673  1.00  0.00    -0.205 F 
ATOM     79  C   UNL A   1      39.945  35.804  39.556  1.00  0.00     0.022 A 
BRANCH  77  80
ATOM     80  S   UNL A   1      38.215  34.326  41.072  1.00  0.00     0.127 S 
ATOM     81  O   UNL A   1      39.129  33.645  41.985  1.00  0.00    -0.237 OA
ATOM     82  O   UNL A   1      37.876  35.699  41.451  1.00  0.00    -0.237 OA
ATOM     83  O   UNL A   1      37.085  33.539  40.600  1.00  0.00    -0.744 OA
ENDBRANCH  77  80
ENDBRANCH  49  73
BRANCH  61  84
ATOM     84  C   UNL A   1      44.292  28.733  35.577  1.00  0.00     0.023 A 
ATOM     85  C   UNL A   1      45.619  29.152  35.343  1.00  0.00     0.012 A 
ATOM     86  C   UNL A   1      44.047  27.726  36.530  1.00  0.00     0.148 A 
ATOM     87  C   UNL A   1      46.684  28.550  36.012  1.00  0.00     0.002 A 
ATOM     88  C   UNL A   1      45.109  27.169  37.234  1.00  0.00     0.091 A 
ATOM     89  F   UNL A   1      42.781  27.332  36.733  1.00  0.00    -0.205 F 
ATOM     90  C   UNL A   1      46.428  27.567  36.965  1.00  0.00     0.022 A 
BRANCH  88  91
ATOM     91  S   UNL A   1      44.874  25.970  38.551  1.00  0.00     0.127 S 
ATOM     92  O   UNL A   1      44.258  24.855  37.832  1.00  0.00    -0.237 OA
ATOM     93  O   UNL A   1      46.246  25.726  38.994  1.00  0.00    -0.237 OA
ATOM     94  O   UNL A   1      44.023  26.617  39.540  1.00  0.00    -0.744 OA
ENDBRANCH  88  91
ENDBRANCH  61  84
ENDBRANCH  35  36
ENDBRANCH  28  30
ENDBRANCH  27  28
ENDBRANCH  26  27
ENDBRANCH  25  26
ENDBRANCH  24  25
ENDBRANCH   1  24
TORSDOF 22
ENDMDL
MODEL 2
REMARK VINA RESULT:     -10.5      1.503      8.126
REMARK SMILES C[C@@H](C(=O)OCCOCCOCCOC(=O)c1ccc(-c2c3nc(c(-c4cccc(S(=O)(=O)[O-])c4F)c4ccc([nH]4)c(-c4cccc(S(=O)(=O)[O-])c4F)c4nc(c(-c5cccc(S(=O)(=O)[O-])c5F)c5ccc2[nH]5)C=C4)C=C3)cc1)c1ccc(-c2ccccc2)c(F)c1
REMARK SMILES IDX 10 1 9 2 8 3 7 4 6 5 5 6 3 7 4 8 2 9 1 10 80 11 81 12 92 13
REMARK SMILES IDX 82 14 90 15 83 16 91 17 84 18 85 19 89 20 86 21 88 22 87 23
REMARK SMILES IDX 11 24 12 25 13 26 14 27 15 28 16 29 17 30 18 31 79 32 19 33
REMARK SMILES IDX 78 34 20 35 21 36 22 37 72 38 23 39 77 40 71 41 73 42 24 43
REMARK SMILES IDX 76 44 70 45 69 46 25 48 57 49 37 50 56 51 38 52 41 53 55 54
REMARK SMILES IDX 74 55 39 56 40 57 54 59 75 60 42 61 26 62 27 63 35 64 28 65
REMARK SMILES IDX 30 66 36 67 29 68 31 69 32 70 33 71 34 72 58 73 59 74 67 75
REMARK SMILES IDX 60 76 62 77 68 78 61 79 63 80 64 81 65 82 66 83 43 84 44 85
REMARK SMILES IDX 52 86 45 87 47 88 53 89 46 90 48 91 49 92 50 93 51 94
REMARK H PARENT 73 47 41 58
REMARK Flexibility Score: inf
ROOT
ATOM      1  C   UNL A   1      34.818  34.055  28.004  1.00  0.00     0.188 C 
ENDROOT
BRANCH   1   2
ATOM      2  C   UNL A   1      34.011  32.817  28.421  1.00  0.00     0.188 C 
BRANCH   2   3
ATOM      3  O   UNL A   1      34.724  31.636  28.755  1.00  0.00    -0.376 OA
BRANCH   3   4
ATOM      4  C   UNL A   1      35.601  31.079  27.781  1.00  0.00     0.202 C 
BRANCH   4   5
ATOM      5  C   UNL A   1      35.517  29.577  27.442  1.00  0.00     0.261 C 
BRANCH   5   6
ATOM      6  O   UNL A   1      34.191  29.018  27.561  1.00  0.00    -0.463 OA
BRANCH   6   7
ATOM      7  C   UNL A   1      33.481  28.899  26.410  1.00  0.00     0.313 C 
ATOM      8  O   UNL A   1      33.825  29.403  25.345  1.00  0.00    -0.252 OA
BRANCH   7   9
ATOM      9  C   UNL A   1      32.220  28.025  26.541  1.00  0.00     0.126 C 
ATOM     10  C   UNL A   1      31.495  28.185  27.885  1.00  0.00     0.025 C 
BRANCH   9  11
ATOM     11  C   UNL A   1      32.391  26.592  26.021  1.00  0.00    -0.031 A 
ATOM     12  C   UNL A   1      33.636  25.987  25.786  1.00  0.00     0.005 A 
ATOM     13  C   UNL A   1      31.259  25.776  25.877  1.00  0.00     0.044 A 
ATOM     14  C   UNL A   1      33.737  24.622  25.444  1.00  0.00     0.012 A 
ATOM     15  C   UNL A   1      31.368  24.421  25.552  1.00  0.00     0.131 A 
ATOM     16  C   UNL A   1      32.606  23.794  25.341  1.00  0.00     0.017 A 
ATOM     17  F   UNL A   1      30.224  23.722  25.503  1.00  0.00    -0.206 F 
BRANCH  16  18
ATOM     18  C   UNL A   1      32.718  22.344  25.051  1.00  0.00    -0.015 A 
ATOM     19  C   UNL A   1      33.141  21.409  26.016  1.00  0.00     0.009 A 
ATOM     20  C   UNL A   1      32.382  21.833  23.790  1.00  0.00     0.009 A 
ATOM     21  C   UNL A   1      33.245  20.040  25.726  1.00  0.00     0.001 A 
ATOM     22  C   UNL A   1      32.455  20.468  23.514  1.00  0.00     0.001 A 
ATOM     23  C   UNL A   1      32.904  19.568  24.467  1.00  0.00     0.000 A 
ENDBRANCH  16  18
ENDBRANCH   9  11
ENDBRANCH   7   9
ENDBRANCH   6   7
ENDBRANCH   5   6
ENDBRANCH   4   5
ENDBRANCH   3   4
ENDBRANCH   2   3
ENDBRANCH   1   2
BRANCH   1  24
ATOM     24  O   UNL A   1      34.444  35.277  28.594  1.00  0.00    -0.376 OA
BRANCH  24  25
ATOM     25  C   UNL A   1      33.100  35.509  28.981  1.00  0.00     0.202 C 
BRANCH  25  26
ATOM     26  C   UNL A   1      32.626  36.569  29.999  1.00  0.00     0.261 C 
BRANCH  26  27
ATOM     27  O   UNL A   1      33.208  36.579  31.305  1.00  0.00    -0.460 OA
BRANCH  27  28
ATOM     28  C   UNL A   1      32.917  35.531  32.113  1.00  0.00     0.338 C 
ATOM     29  O   UNL A   1      31.810  35.193  32.506  1.00  0.00    -0.246 OA
BRANCH  28  30
ATOM     30  C   UNL A   1      34.143  34.709  32.234  1.00  0.00     0.060 A 
ATOM     31  C   UNL A   1      34.028  33.362  32.614  1.00  0.00     0.016 A 
ATOM     32  C   UNL A   1      35.394  35.256  31.947  1.00  0.00     0.016 A 
ATOM     33  C   UNL A   1      35.167  32.563  32.720  1.00  0.00     0.010 A 
ATOM     34  C   UNL A   1      36.536  34.463  32.087  1.00  0.00     0.010 A 
ATOM     35  C   UNL A   1      36.431  33.121  32.497  1.00  0.00    -0.014 A 
BRANCH  35  36
ATOM     36  C   UNL A   1      37.651  32.368  32.886  1.00  0.00     0.031 A 
ATOM     37  C   UNL A   1      38.271  32.672  34.221  1.00  0.00     0.074 A 
ATOM     38  C   UNL A   1      38.220  31.470  32.060  1.00  0.00     0.049 A 
ATOM     39  N   UNL A   1      39.339  32.164  34.775  1.00  0.00    -0.248 NA
ATOM     40  C   UNL A   1      37.606  33.706  35.034  1.00  0.00     0.031 C 
ATOM     41  C   UNL A   1      37.714  31.107  30.740  1.00  0.00     0.029 A 
ATOM     42  N   UNL A   1      39.353  30.706  32.209  1.00  0.00    -0.354 N 
ATOM     43  C   UNL A   1      39.520  32.868  35.959  1.00  0.00     0.074 A 
ATOM     44  C   UNL A   1      38.434  33.817  36.061  1.00  0.00     0.031 C 
ATOM     45  C   UNL A   1      38.529  30.181  30.202  1.00  0.00     0.029 A 
ATOM     46  C   UNL A   1      39.618  29.885  31.134  1.00  0.00     0.049 A 
ATOM     47  H   UNL A   1      39.925  30.743  33.010  1.00  0.00     0.167 HD
ATOM     48  C   UNL A   1      40.514  32.748  36.870  1.00  0.00     0.034 A 
ATOM     49  C   UNL A   1      40.606  28.981  30.946  1.00  0.00     0.034 A 
ATOM     50  C   UNL A   1      41.581  31.789  36.774  1.00  0.00     0.049 A 
ATOM     51  C   UNL A   1      41.635  28.798  32.039  1.00  0.00     0.074 A 
ATOM     52  C   UNL A   1      42.619  31.569  37.662  1.00  0.00     0.029 A 
ATOM     53  N   UNL A   1      41.757  30.904  35.723  1.00  0.00    -0.354 N 
ATOM     54  N   UNL A   1      41.707  29.366  33.220  1.00  0.00    -0.248 NA
ATOM     55  C   UNL A   1      42.707  27.822  31.785  1.00  0.00     0.031 C 
ATOM     56  C   UNL A   1      43.447  30.578  37.127  1.00  0.00     0.029 A 
ATOM     57  C   UNL A   1      42.897  30.147  35.931  1.00  0.00     0.049 A 
ATOM     58  H   UNL A   1      41.160  30.826  34.944  1.00  0.00     0.167 HD
ATOM     59  C   UNL A   1      42.818  28.809  33.847  1.00  0.00     0.074 A 
ATOM     60  C   UNL A   1      43.347  27.808  32.945  1.00  0.00     0.031 C 
ATOM     61  C   UNL A   1      43.379  29.122  35.042  1.00  0.00     0.034 A 
BRANCH  48  62
ATOM     62  C   UNL A   1      40.514  33.701  38.035  1.00  0.00     0.023 A 
ATOM     63  C   UNL A   1      41.339  34.843  38.021  1.00  0.00     0.012 A 
ATOM     64  C   UNL A   1      39.655  33.480  39.130  1.00  0.00     0.148 A 
ATOM     65  C   UNL A   1      41.333  35.733  39.095  1.00  0.00     0.002 A 
ATOM     66  C   UNL A   1      39.616  34.398  40.171  1.00  0.00     0.091 A 
ATOM     67  F   UNL A   1      38.898  32.374  39.136  1.00  0.00    -0.205 F 
ATOM     68  C   UNL A   1      40.464  35.518  40.162  1.00  0.00     0.022 A 
BRANCH  66  69
ATOM     69  S   UNL A   1      38.472  34.253  41.547  1.00  0.00     0.127 S 
ATOM     70  O   UNL A   1      39.144  33.260  42.386  1.00  0.00    -0.237 OA
ATOM     71  O   UNL A   1      38.473  35.611  42.089  1.00  0.00    -0.237 OA
ATOM     72  O   UNL A   1      37.203  33.827  40.975  1.00  0.00    -0.744 OA
ENDBRANCH  66  69
ENDBRANCH  48  62
BRANCH  49  73
ATOM     73  C   UNL A   1      40.617  28.085  29.742  1.00  0.00     0.023 A 
ATOM     74  C   UNL A   1      39.690  27.020  29.670  1.00  0.00     0.012 A 
ATOM     75  C   UNL A   1      41.490  28.284  28.657  1.00  0.00     0.148 A 
ATOM     76  C   UNL A   1      39.614  26.193  28.550  1.00  0.00     0.002 A 
ATOM     77  C   UNL A   1      41.379  27.484  27.521  1.00  0.00     0.091 A 
ATOM     78  F   UNL A   1      42.407  29.256  28.747  1.00  0.00    -0.205 F 
ATOM     79  C   UNL A   1      40.448  26.436  27.467  1.00  0.00     0.022 A 
BRANCH  77  80
ATOM     80  S   UNL A   1      42.340  27.793  26.034  1.00  0.00     0.127 S 
ATOM     81  O   UNL A   1      41.893  26.710  25.162  1.00  0.00    -0.237 OA
ATOM     82  O   UNL A   1      41.878  29.127  25.645  1.00  0.00    -0.237 OA
ATOM     83  O   UNL A   1      43.733  27.740  26.452  1.00  0.00    -0.744 OA
ENDBRANCH  77  80
ENDBRANCH  49  73
BRANCH  61  84
ATOM     84  C   UNL A   1      44.627  28.376  35.447  1.00  0.00     0.023 A 
ATOM     85  C   UNL A   1      45.892  28.869  35.064  1.00  0.00     0.012 A 
ATOM     86  C   UNL A   1      44.553  27.233  36.267  1.00  0.00     0.148 A 
ATOM     87  C   UNL A   1      47.059  28.211  35.451  1.00  0.00     0.002 A 
ATOM     88  C   UNL A   1      45.722  26.615  36.695  1.00  0.00     0.091 A 
ATOM     89  F   UNL A   1      43.342  26.773  36.614  1.00  0.00    -0.205 F 
ATOM     90  C   UNL A   1      46.974  27.092  36.275  1.00  0.00     0.022 A 
BRANCH  88  91
ATOM     91  S   UNL A   1      45.721  25.230  37.839  1.00  0.00     0.127 S 
ATOM     92  O   UNL A   1      45.045  24.197  37.055  1.00  0.00    -0.237 OA
ATOM     93  O   UNL A   1      47.150  25.000  38.046  1.00  0.00    -0.237 OA
ATOM     94  O   UNL A   1      45.002  25.683  39.022  1.00  0.00    -0.744 OA
ENDBRANCH  88  91
ENDBRANCH  61  84
ENDBRANCH  35  36
ENDBRANCH  28  30
ENDBRANCH  27  28
ENDBRANCH  26  27
ENDBRANCH  25  26
ENDBRANCH  24  25
ENDBRANCH   1  24
TORSDOF 22
ENDMDL
MODEL 3
REMARK VINA RESULT:     -10.4      1.795      8.085
REMARK SMILES C[C@@H](C(=O)OCCOCCOCCOC(=O)c1ccc(-c2c3nc(c(-c4cccc(S(=O)(=O)[O-])c4F)c4ccc([nH]4)c(-c4cccc(S(=O)(=O)[O-])c4F)c4nc(c(-c5cccc(S(=O)(=O)[O-])c5F)c5ccc2[nH]5)C=C4)C=C3)cc1)c1ccc(-c2ccccc2)c(F)c1
REMARK SMILES IDX 10 1 9 2 8 3 7 4 6 5 5 6 3 7 4 8 2 9 1 10 80 11 81 12 92 13
REMARK SMILES IDX 82 14 90 15 83 16 91 17 84 18 85 19 89 20 86 21 88 22 87 23
REMARK SMILES IDX 11 24 12 25 13 26 14 27 15 28 16 29 17 30 18 31 79 32 19 33
REMARK SMILES IDX 78 34 20 35 21 36 22 37 72 38 23 39 77 40 71 41 73 42 24 43
REMARK SMILES IDX 76 44 70 45 69 46 25 48 57 49 37 50 56 51 38 52 41 53 55 54
REMARK SMILES IDX 74 55 39 56 40 57 54 59 75 60 42 61 26 62 27 63 35 64 28 65
REMARK SMILES IDX 30 66 36 67 29 68 31 69 32 70 33 71 34 72 58 73 59 74 67 75
REMARK SMILES IDX 60 76 62 77 68 78 61 79 63 80 64 81 65 82 66 83 43 84 44 85
REMARK SMILES IDX 52 86 45 87 47 88 53 89 46 90 48 91 49 92 50 93 51 94
REMARK H PARENT 73 47 41 58
REMARK Flexibility Score: inf
ROOT
ATOM      1  C   UNL A   1      35.171  31.923  28.222  1.00  0.00     0.188 C 
ENDROOT
BRANCH   1   2
ATOM      2  C   UNL A   1      34.843  30.617  27.484  1.00  0.00     0.188 C 
BRANCH   2   3
ATOM      3  O   UNL A   1      33.497  30.390  27.095  1.00  0.00    -0.376 OA
BRANCH   3   4
ATOM      4  C   UNL A   1      33.249  29.500  26.010  1.00  0.00     0.202 C 
BRANCH   4   5
ATOM      5  C   UNL A   1      31.800  29.155  25.616  1.00  0.00     0.261 C 
BRANCH   5   6
ATOM      6  O   UNL A   1      31.487  29.411  24.229  1.00  0.00    -0.463 OA
BRANCH   6   7
ATOM      7  C   UNL A   1      32.253  28.768  23.310  1.00  0.00     0.313 C 
ATOM      8  O   UNL A   1      33.269  29.249  22.816  1.00  0.00    -0.252 OA
BRANCH   7   9
ATOM      9  C   UNL A   1      31.765  27.347  22.973  1.00  0.00     0.126 C 
ATOM     10  C   UNL A   1      30.313  27.076  23.396  1.00  0.00     0.025 C 
BRANCH   9  11
ATOM     11  C   UNL A   1      32.785  26.242  23.279  1.00  0.00    -0.031 A 
ATOM     12  C   UNL A   1      33.597  26.221  24.424  1.00  0.00     0.005 A 
ATOM     13  C   UNL A   1      32.845  25.116  22.445  1.00  0.00     0.044 A 
ATOM     14  C   UNL A   1      34.414  25.111  24.725  1.00  0.00     0.012 A 
ATOM     15  C   UNL A   1      33.646  24.014  22.759  1.00  0.00     0.131 A 
ATOM     16  C   UNL A   1      34.443  23.965  23.912  1.00  0.00     0.017 A 
ATOM     17  F   UNL A   1      33.578  22.966  21.922  1.00  0.00    -0.206 F 
BRANCH  16  18
ATOM     18  C   UNL A   1      35.248  22.771  24.266  1.00  0.00    -0.015 A 
ATOM     19  C   UNL A   1      34.661  21.543  24.629  1.00  0.00     0.009 A 
ATOM     20  C   UNL A   1      36.648  22.811  24.236  1.00  0.00     0.009 A 
ATOM     21  C   UNL A   1      35.436  20.422  24.964  1.00  0.00     0.001 A 
ATOM     22  C   UNL A   1      37.416  21.686  24.538  1.00  0.00     0.001 A 
ATOM     23  C   UNL A   1      36.821  20.496  24.923  1.00  0.00     0.000 A 
ENDBRANCH  16  18
ENDBRANCH   9  11
ENDBRANCH   7   9
ENDBRANCH   6   7
ENDBRANCH   5   6
ENDBRANCH   4   5
ENDBRANCH   3   4
ENDBRANCH   2   3
ENDBRANCH   1   2
BRANCH   1  24
ATOM     24  O   UNL A   1      34.083  32.763  28.524  1.00  0.00    -0.376 OA
BRANCH  24  25
ATOM     25  C   UNL A   1      34.174  34.163  28.322  1.00  0.00     0.202 C 
BRANCH  25  26
ATOM     26  C   UNL A   1      33.268  35.229  28.976  1.00  0.00     0.261 C 
BRANCH  26  27
ATOM     27  O   UNL A   1      32.561  34.893  30.173  1.00  0.00    -0.460 OA
BRANCH  27  28
ATOM     28  C   UNL A   1      32.913  35.561  31.299  1.00  0.00     0.338 C 
ATOM     29  O   UNL A   1      32.292  36.464  31.839  1.00  0.00    -0.246 OA
BRANCH  28  30
ATOM     30  C   UNL A   1      34.051  34.836  31.909  1.00  0.00     0.060 A 
ATOM     31  C   UNL A   1      35.294  35.480  32.011  1.00  0.00     0.016 A 
ATOM     32  C   UNL A   1      33.884  33.541  32.401  1.00  0.00     0.016 A 
ATOM     33  C   UNL A   1      36.378  34.823  32.595  1.00  0.00     0.010 A 
ATOM     34  C   UNL A   1      34.980  32.874  32.955  1.00  0.00     0.010 A 
ATOM     35  C   UNL A   1      36.237  33.501  33.033  1.00  0.00    -0.014 A 
BRANCH  35  36
ATOM     36  C   UNL A   1      37.442  32.706  33.383  1.00  0.00     0.031 A 
ATOM     37  C   UNL A   1      38.128  33.003  34.687  1.00  0.00     0.074 A 
ATOM     38  C   UNL A   1      37.942  31.776  32.548  1.00  0.00     0.049 A 
ATOM     39  N   UNL A   1      39.198  32.461  35.205  1.00  0.00    -0.248 NA
ATOM     40  C   UNL A   1      37.537  34.073  35.511  1.00  0.00     0.031 C 
ATOM     41  C   UNL A   1      37.369  31.416  31.254  1.00  0.00     0.029 A 
ATOM     42  N   UNL A   1      39.050  30.971  32.661  1.00  0.00    -0.354 N 
ATOM     43  C   UNL A   1      39.454  33.173  36.370  1.00  0.00     0.074 A 
ATOM     44  C   UNL A   1      38.410  34.165  36.502  1.00  0.00     0.031 C 
ATOM     45  C   UNL A   1      38.124  30.452  30.697  1.00  0.00     0.029 A 
ATOM     46  C   UNL A   1      39.239  30.126  31.589  1.00  0.00     0.049 A 
ATOM     47  H   UNL A   1      39.655  30.996  33.437  1.00  0.00     0.167 HD
ATOM     48  C   UNL A   1      40.479  33.026  37.241  1.00  0.00     0.034 A 
ATOM     49  C   UNL A   1      40.183  29.182  31.374  1.00  0.00     0.034 A 
ATOM     50  C   UNL A   1      41.504  32.025  37.116  1.00  0.00     0.049 A 
ATOM     51  C   UNL A   1      41.248  28.973  32.427  1.00  0.00     0.074 A 
ATOM     52  C   UNL A   1      42.568  31.776  37.964  1.00  0.00     0.029 A 
ATOM     53  N   UNL A   1      41.602  31.121  36.072  1.00  0.00    -0.354 N 
ATOM     54  N   UNL A   1      41.391  29.553  33.595  1.00  0.00    -0.248 NA
ATOM     55  C   UNL A   1      42.270  27.953  32.143  1.00  0.00     0.031 C 
ATOM     56  C   UNL A   1      43.335  30.747  37.410  1.00  0.00     0.029 A 
ATOM     57  C   UNL A   1      42.720  30.322  36.244  1.00  0.00     0.049 A 
ATOM     58  H   UNL A   1      40.971  31.056  35.319  1.00  0.00     0.167 HD
ATOM     59  C   UNL A   1      42.504  28.962  34.185  1.00  0.00     0.074 A 
ATOM     60  C   UNL A   1      42.957  27.930  33.277  1.00  0.00     0.031 C 
ATOM     61  C   UNL A   1      43.126  29.268  35.352  1.00  0.00     0.034 A 
BRANCH  48  62
ATOM     62  C   UNL A   1      40.564  33.993  38.391  1.00  0.00     0.023 A 
ATOM     63  C   UNL A   1      41.356  35.154  38.289  1.00  0.00     0.012 A 
ATOM     64  C   UNL A   1      39.815  33.766  39.564  1.00  0.00     0.148 A 
ATOM     65  C   UNL A   1      41.427  36.057  39.350  1.00  0.00     0.002 A 
ATOM     66  C   UNL A   1      39.851  34.696  40.594  1.00  0.00     0.091 A 
ATOM     67  F   UNL A   1      39.088  32.643  39.651  1.00  0.00    -0.205 F 
ATOM     68  C   UNL A   1      40.666  35.835  40.495  1.00  0.00     0.022 A 
BRANCH  66  69
ATOM     69  S   UNL A   1      38.842  34.541  42.071  1.00  0.00     0.127 S 
ATOM     70  O   UNL A   1      39.855  34.587  43.126  1.00  0.00    -0.237 OA
ATOM     71  O   UNL A   1      37.994  35.731  41.988  1.00  0.00    -0.237 OA
ATOM     72  O   UNL A   1      38.130  33.278  41.946  1.00  0.00    -0.744 OA
ENDBRANCH  66  69
ENDBRANCH  48  62
BRANCH  49  73
ATOM     73  C   UNL A   1      40.110  28.271  30.183  1.00  0.00     0.023 A 
ATOM     74  C   UNL A   1      39.183  27.203  30.191  1.00  0.00     0.012 A 
ATOM     75  C   UNL A   1      40.902  28.458  29.036  1.00  0.00     0.148 A 
ATOM     76  C   UNL A   1      39.029  26.361  29.090  1.00  0.00     0.002 A 
ATOM     77  C   UNL A   1      40.712  27.644  27.921  1.00  0.00     0.091 A 
ATOM     78  F   UNL A   1      41.821  29.433  29.048  1.00  0.00    -0.205 F 
ATOM     79  C   UNL A   1      39.782  26.593  27.947  1.00  0.00     0.022 A 
BRANCH  77  80
ATOM     80  S   UNL A   1      41.563  27.935  26.365  1.00  0.00     0.127 S 
ATOM     81  O   UNL A   1      42.953  28.038  26.801  1.00  0.00    -0.237 OA
ATOM     82  O   UNL A   1      41.242  26.723  25.611  1.00  0.00    -0.237 OA
ATOM     83  O   UNL A   1      40.975  29.151  25.822  1.00  0.00    -0.744 OA
ENDBRANCH  77  80
ENDBRANCH  49  73
BRANCH  61  84
ATOM     84  C   UNL A   1      44.359  28.480  35.716  1.00  0.00     0.023 A 
ATOM     85  C   UNL A   1      45.625  28.915  35.272  1.00  0.00     0.012 A 
ATOM     86  C   UNL A   1      44.275  27.353  36.557  1.00  0.00     0.148 A 
ATOM     87  C   UNL A   1      46.781  28.218  35.621  1.00  0.00     0.002 A 
ATOM     88  C   UNL A   1      45.437  26.695  36.947  1.00  0.00     0.091 A 
ATOM     89  F   UNL A   1      43.064  26.946  36.962  1.00  0.00    -0.205 F 
ATOM     90  C   UNL A   1      46.688  27.116  36.467  1.00  0.00     0.022 A 
BRANCH  88  91
ATOM     91  S   UNL A   1      45.431  25.328  38.112  1.00  0.00     0.127 S 
ATOM     92  O   UNL A   1      46.857  25.164  38.387  1.00  0.00    -0.237 OA
ATOM     93  O   UNL A   1      44.654  25.874  39.224  1.00  0.00    -0.237 OA
ATOM     94  O   UNL A   1      44.799  24.212  37.421  1.00  0.00    -0.744 OA
ENDBRANCH  88  91
ENDBRANCH  61  84
ENDBRANCH  35  36
ENDBRANCH  28  30
ENDBRANCH  27  28
ENDBRANCH  26  27
ENDBRANCH  25  26
ENDBRANCH  24  25
ENDBRANCH   1  24
TORSDOF 22
ENDMDL
