MODEL 1
REMARK VINA RESULT:      -9.8      0.000      0.000
REMARK SMILES O=C(OCCOCCOCCOC(=O)[C@H]1CCCCN1c1cc(-c2ccccc2)nc(-c2cccc(Cl)c2)n1)c1ccc(-c2c3nc(c(-c4cccc(S(=O)(=O)[O-])c4F)c4ccc([nH]4)c(-c4cccc(S(=O)(=O)[O-])c4F)c4nc(c(-c5cccc(S(=O)(=O)[O-])c5F)c5ccc2[nH]5)C=C4)C=C3)cc1
REMARK SMILES IDX 7 1 6 2 5 3 4 4 3 5 2 6 1 7 40 8 41 9 102 10 42 11 101 12
REMARK SMILES IDX 43 13 44 14 45 15 95 16 46 17 100 18 94 19 96 20 47 21 99 22
REMARK SMILES IDX 93 23 92 24 48 26 80 27 60 28 79 29 61 30 64 31 78 32 97 33
REMARK SMILES IDX 62 34 63 35 77 37 98 38 65 39 49 40 50 41 58 42 51 43 53 44
REMARK SMILES IDX 59 45 52 46 54 47 55 48 56 49 57 50 81 51 82 52 90 53 83 54
REMARK SMILES IDX 85 55 91 56 84 57 86 58 87 59 88 60 89 61 66 62 67 63 75 64
REMARK SMILES IDX 68 65 70 66 76 67 69 68 71 69 72 70 73 71 74 72 8 73 9 74
REMARK SMILES IDX 10 75 11 76 12 77 13 78 14 79 15 80 16 81 20 82 17 83 19 84
REMARK SMILES IDX 18 85 21 86 22 87 39 88 23 89 31 90 30 91 24 92 25 93 29 94
REMARK SMILES IDX 26 95 28 96 27 97 32 98 33 99 38 100 34 101 36 102 35 103
REMARK SMILES IDX 37 104
REMARK H PARENT 96 25 64 36
REMARK Flexibility Score: inf
ROOT
ATOM      1  C   UNL A   1      40.134  21.205  26.613  1.00  0.00     0.188 C 
ENDROOT
BRANCH   1   2
ATOM      2  O   UNL A   1      41.439  20.941  26.086  1.00  0.00    -0.376 OA
BRANCH   2   3
ATOM      3  C   UNL A   1      42.121  22.097  25.592  1.00  0.00     0.202 C 
BRANCH   3   4
ATOM      4  C   UNL A   1      43.640  21.956  25.435  1.00  0.00     0.261 C 
BRANCH   4   5
ATOM      5  O   UNL A   1      44.375  22.181  26.633  1.00  0.00    -0.460 OA
BRANCH   5   6
ATOM      6  C   UNL A   1      44.325  23.307  27.377  1.00  0.00     0.338 C 
ATOM      7  O   UNL A   1      43.765  23.224  28.469  1.00  0.00    -0.246 OA
BRANCH   6   8
ATOM      8  C   UNL A   1      44.976  24.603  26.987  1.00  0.00     0.060 A 
ATOM      9  C   UNL A   1      45.058  25.207  25.734  1.00  0.00     0.016 A 
ATOM     10  C   UNL A   1      45.555  25.296  28.049  1.00  0.00     0.016 A 
ATOM     11  C   UNL A   1      45.779  26.391  25.558  1.00  0.00     0.010 A 
ATOM     12  C   UNL A   1      46.268  26.461  27.910  1.00  0.00     0.010 A 
ATOM     13  C   UNL A   1      46.417  26.982  26.646  1.00  0.00    -0.014 A 
BRANCH  13  14
ATOM     14  C   UNL A   1      47.291  28.135  26.495  1.00  0.00     0.031 A 
ATOM     15  C   UNL A   1      46.668  29.489  26.520  1.00  0.00     0.074 A 
ATOM     16  C   UNL A   1      48.589  27.901  26.260  1.00  0.00     0.049 A 
ATOM     17  N   UNL A   1      47.250  30.649  26.565  1.00  0.00    -0.248 NA
ATOM     18  C   UNL A   1      45.193  29.552  26.490  1.00  0.00     0.031 C 
ATOM     19  C   UNL A   1      49.179  26.571  26.085  1.00  0.00     0.029 A 
ATOM     20  N   UNL A   1      49.634  28.756  26.109  1.00  0.00    -0.354 N 
ATOM     21  C   UNL A   1      46.222  31.580  26.585  1.00  0.00     0.074 A 
ATOM     22  C   UNL A   1      44.975  30.859  26.506  1.00  0.00     0.031 C 
ATOM     23  C   UNL A   1      50.497  26.700  25.870  1.00  0.00     0.029 A 
ATOM     24  C   UNL A   1      50.829  28.118  25.890  1.00  0.00     0.049 A 
ATOM     25  H   UNL A   1      49.543  29.735  26.153  1.00  0.00     0.167 HD
ATOM     26  C   UNL A   1      46.334  32.922  26.685  1.00  0.00     0.034 A 
ATOM     27  C   UNL A   1      52.053  28.651  25.745  1.00  0.00     0.034 A 
ATOM     28  C   UNL A   1      47.613  33.573  26.699  1.00  0.00     0.049 A 
ATOM     29  C   UNL A   1      52.153  30.143  25.900  1.00  0.00     0.074 A 
ATOM     30  C   UNL A   1      47.905  34.915  26.825  1.00  0.00     0.029 A 
ATOM     31  N   UNL A   1      48.824  32.905  26.539  1.00  0.00    -0.354 N 
ATOM     32  N   UNL A   1      51.193  31.013  26.123  1.00  0.00    -0.248 NA
ATOM     33  C   UNL A   1      53.495  30.727  25.834  1.00  0.00     0.031 C 
ATOM     34  C   UNL A   1      49.292  35.059  26.711  1.00  0.00     0.029 A 
ATOM     35  C   UNL A   1      49.869  33.805  26.556  1.00  0.00     0.049 A 
ATOM     36  H   UNL A   1      48.920  31.931  26.429  1.00  0.00     0.167 HD
ATOM     37  C   UNL A   1      51.812  32.245  26.246  1.00  0.00     0.074 A 
ATOM     38  C   UNL A   1      53.238  31.998  26.108  1.00  0.00     0.031 C 
ATOM     39  C   UNL A   1      51.269  33.475  26.439  1.00  0.00     0.034 A 
BRANCH  26  40
ATOM     40  C   UNL A   1      45.065  33.720  26.801  1.00  0.00     0.023 A 
ATOM     41  C   UNL A   1      44.467  34.250  25.637  1.00  0.00     0.012 A 
ATOM     42  C   UNL A   1      44.461  33.955  28.050  1.00  0.00     0.148 A 
ATOM     43  C   UNL A   1      43.312  35.029  25.716  1.00  0.00     0.002 A 
ATOM     44  C   UNL A   1      43.288  34.698  28.119  1.00  0.00     0.091 A 
ATOM     45  F   UNL A   1      45.056  33.467  29.148  1.00  0.00    -0.205 F 
ATOM     46  C   UNL A   1      42.720  35.247  26.956  1.00  0.00     0.022 A 
BRANCH  44  47
ATOM     47  S   UNL A   1      42.409  34.997  29.656  1.00  0.00     0.127 S 
ATOM     48  O   UNL A   1      42.428  33.672  30.272  1.00  0.00    -0.237 OA
ATOM     49  O   UNL A   1      43.261  35.987  30.307  1.00  0.00    -0.237 OA
ATOM     50  O   UNL A   1      41.084  35.481  29.277  1.00  0.00    -0.744 OA
ENDBRANCH  44  47
ENDBRANCH  26  40
BRANCH  27  51
ATOM     51  C   UNL A   1      53.238  27.775  25.540  1.00  0.00     0.023 A 
ATOM     52  C   UNL A   1      53.616  27.399  24.237  1.00  0.00     0.012 A 
ATOM     53  C   UNL A   1      54.025  27.352  26.630  1.00  0.00     0.148 A 
ATOM     54  C   UNL A   1      54.729  26.582  24.026  1.00  0.00     0.002 A 
ATOM     55  C   UNL A   1      55.161  26.580  26.410  1.00  0.00     0.091 A 
ATOM     56  F   UNL A   1      53.655  27.723  27.864  1.00  0.00    -0.205 F 
ATOM     57  C   UNL A   1      55.505  26.179  25.110  1.00  0.00     0.022 A 
BRANCH  55  58
ATOM     58  S   UNL A   1      56.281  26.115  27.735  1.00  0.00     0.127 S 
ATOM     59  O   UNL A   1      56.689  27.419  28.251  1.00  0.00    -0.237 OA
ATOM     60  O   UNL A   1      55.403  25.349  28.620  1.00  0.00    -0.237 OA
ATOM     61  O   UNL A   1      57.335  25.328  27.107  1.00  0.00    -0.744 OA
ENDBRANCH  55  58
ENDBRANCH  27  51
BRANCH  39  62
ATOM     62  C   UNL A   1      52.234  34.621  26.526  1.00  0.00     0.023 A 
ATOM     63  C   UNL A   1      52.717  35.034  27.782  1.00  0.00     0.012 A 
ATOM     64  C   UNL A   1      52.713  35.230  25.352  1.00  0.00     0.148 A 
ATOM     65  C   UNL A   1      53.641  36.070  27.869  1.00  0.00     0.002 A 
ATOM     66  C   UNL A   1      53.680  36.217  25.445  1.00  0.00     0.091 A 
ATOM     67  F   UNL A   1      52.218  34.827  24.173  1.00  0.00    -0.205 F 
ATOM     68  C   UNL A   1      54.133  36.651  26.702  1.00  0.00     0.022 A 
BRANCH  66  69
ATOM     69  S   UNL A   1      54.454  36.933  23.993  1.00  0.00     0.127 S 
ATOM     70  O   UNL A   1      53.339  37.660  23.391  1.00  0.00    -0.237 OA
ATOM     71  O   UNL A   1      55.490  37.780  24.582  1.00  0.00    -0.237 OA
ATOM     72  O   UNL A   1      54.962  35.812  23.213  1.00  0.00    -0.744 OA
ENDBRANCH  66  69
ENDBRANCH  39  62
ENDBRANCH  13  14
ENDBRANCH   6   8
ENDBRANCH   5   6
ENDBRANCH   4   5
ENDBRANCH   3   4
ENDBRANCH   2   3
ENDBRANCH   1   2
BRANCH   1  73
ATOM     73  C   UNL A   1      39.835  22.670  26.924  1.00  0.00     0.188 C 
BRANCH  73  74
ATOM     74  O   UNL A   1      38.848  23.337  26.158  1.00  0.00    -0.376 OA
BRANCH  74  75
ATOM     75  C   UNL A   1      37.765  22.558  25.670  1.00  0.00     0.202 C 
BRANCH  75  76
ATOM     76  C   UNL A   1      36.827  23.092  24.565  1.00  0.00     0.261 C 
BRANCH  76  77
ATOM     77  O   UNL A   1      35.590  22.391  24.311  1.00  0.00    -0.462 OA
BRANCH  77  78
ATOM     78  C   UNL A   1      34.508  22.895  24.980  1.00  0.00     0.328 C 
ATOM     79  O   UNL A   1      34.081  22.371  26.006  1.00  0.00    -0.250 OA
BRANCH  78  80
ATOM     80  C   UNL A   1      33.911  24.184  24.327  1.00  0.00     0.193 C 
ATOM     81  C   UNL A   1      33.587  23.832  22.859  1.00  0.00     0.037 C 
ATOM     82  N   UNL A   1      32.691  24.691  25.047  1.00  0.00    -0.343 N 
ATOM     83  C   UNL A   1      32.364  22.919  22.722  1.00  0.00     0.005 C 
ATOM     84  C   UNL A   1      31.521  23.808  24.961  1.00  0.00     0.119 C 
ATOM     85  C   UNL A   1      31.175  23.458  23.510  1.00  0.00     0.022 C 
BRANCH  82  86
ATOM     86  C   UNL A   1      32.383  26.069  24.992  1.00  0.00     0.134 A 
ATOM     87  C   UNL A   1      31.417  26.550  24.092  1.00  0.00     0.076 A 
ATOM     88  N   UNL A   1      33.036  26.926  25.791  1.00  0.00    -0.211 NA
ATOM     89  C   UNL A   1      31.137  27.918  24.057  1.00  0.00     0.076 A 
ATOM     90  C   UNL A   1      32.745  28.242  25.680  1.00  0.00     0.162 A 
ATOM     91  N   UNL A   1      31.817  28.772  24.852  1.00  0.00    -0.228 NA
BRANCH  89  92
ATOM     92  C   UNL A   1      30.056  28.561  23.233  1.00  0.00     0.000 A 
ATOM     93  C   UNL A   1      30.344  29.620  22.360  1.00  0.00     0.010 A 
ATOM     94  C   UNL A   1      28.686  28.240  23.339  1.00  0.00     0.010 A 
ATOM     95  C   UNL A   1      29.328  30.297  21.653  1.00  0.00     0.001 A 
ATOM     96  C   UNL A   1      27.663  28.933  22.680  1.00  0.00     0.001 A 
ATOM     97  C   UNL A   1      27.987  29.965  21.825  1.00  0.00     0.000 A 
ENDBRANCH  89  92
BRANCH  90  98
ATOM     98  C   UNL A   1      33.532  29.185  26.492  1.00  0.00     0.021 A 
ATOM     99  C   UNL A   1      34.774  28.807  27.033  1.00  0.00     0.012 A 
ATOM    100  C   UNL A   1      33.083  30.494  26.747  1.00  0.00     0.032 A 
ATOM    101  C   UNL A   1      35.544  29.700  27.789  1.00  0.00     0.002 A 
ATOM    102  C   UNL A   1      33.844  31.377  27.521  1.00  0.00     0.041 A 
ATOM    103  C   UNL A   1      35.076  30.989  28.033  1.00  0.00     0.020 A 
ATOM    104  Cl  UNL A   1      33.249  32.961  27.843  1.00  0.00    -0.084 Cl
ENDBRANCH  90  98
ENDBRANCH  82  86
ENDBRANCH  78  80
ENDBRANCH  77  78
ENDBRANCH  76  77
ENDBRANCH  75  76
ENDBRANCH  74  75
ENDBRANCH  73  74
ENDBRANCH   1  73
TORSDOF 23
ENDMDL
MODEL 2
REMARK VINA RESULT:      -9.6      3.925      9.093
REMARK SMILES O=C(OCCOCCOCCOC(=O)[C@H]1CCCCN1c1cc(-c2ccccc2)nc(-c2cccc(Cl)c2)n1)c1ccc(-c2c3nc(c(-c4cccc(S(=O)(=O)[O-])c4F)c4ccc([nH]4)c(-c4cccc(S(=O)(=O)[O-])c4F)c4nc(c(-c5cccc(S(=O)(=O)[O-])c5F)c5ccc2[nH]5)C=C4)C=C3)cc1
REMARK SMILES IDX 7 1 6 2 5 3 4 4 3 5 2 6 1 7 40 8 41 9 102 10 42 11 101 12
REMARK SMILES IDX 43 13 44 14 45 15 95 16 46 17 100 18 94 19 96 20 47 21 99 22
REMARK SMILES IDX 93 23 92 24 48 26 80 27 60 28 79 29 61 30 64 31 78 32 97 33
REMARK SMILES IDX 62 34 63 35 77 37 98 38 65 39 49 40 50 41 58 42 51 43 53 44
REMARK SMILES IDX 59 45 52 46 54 47 55 48 56 49 57 50 81 51 82 52 90 53 83 54
REMARK SMILES IDX 85 55 91 56 84 57 86 58 87 59 88 60 89 61 66 62 67 63 75 64
REMARK SMILES IDX 68 65 70 66 76 67 69 68 71 69 72 70 73 71 74 72 8 73 9 74
REMARK SMILES IDX 10 75 11 76 12 77 13 78 14 79 15 80 16 81 20 82 17 83 19 84
REMARK SMILES IDX 18 85 21 86 22 87 39 88 23 89 31 90 30 91 24 92 25 93 29 94
REMARK SMILES IDX 26 95 28 96 27 97 32 98 33 99 38 100 34 101 36 102 35 103
REMARK SMILES IDX 37 104
REMARK H PARENT 96 25 64 36
REMARK Flexibility Score: inf
ROOT
ATOM      1  C   UNL A   1      40.203  21.443  26.433  1.00  0.00     0.188 C 
ENDROOT
BRANCH   1   2
ATOM      2  O   UNL A   1      41.569  21.436  26.006  1.00  0.00    -0.376 OA
BRANCH   2   3
ATOM      3  C   UNL A   1      42.140  22.735  25.832  1.00  0.00     0.202 C 
BRANCH   3   4
ATOM      4  C   UNL A   1      43.625  22.863  26.197  1.00  0.00     0.261 C 
BRANCH   4   5
ATOM      5  O   UNL A   1      43.903  22.683  27.581  1.00  0.00    -0.460 OA
BRANCH   5   6
ATOM      6  C   UNL A   1      43.256  23.300  28.592  1.00  0.00     0.338 C 
ATOM      7  O   UNL A   1      42.330  22.682  29.116  1.00  0.00    -0.246 OA
BRANCH   6   8
ATOM      8  C   UNL A   1      43.650  24.636  29.154  1.00  0.00     0.060 A 
ATOM      9  C   UNL A   1      44.210  24.941  30.393  1.00  0.00     0.016 A 
ATOM     10  C   UNL A   1      43.441  25.707  28.287  1.00  0.00     0.016 A 
ATOM     11  C   UNL A   1      44.439  26.268  30.765  1.00  0.00     0.010 A 
ATOM     12  C   UNL A   1      43.657  27.021  28.620  1.00  0.00     0.010 A 
ATOM     13  C   UNL A   1      44.116  27.300  29.887  1.00  0.00    -0.014 A 
BRANCH  13  14
ATOM     14  C   UNL A   1      44.206  28.699  30.274  1.00  0.00     0.031 A 
ATOM     15  C   UNL A   1      45.510  29.394  30.075  1.00  0.00     0.074 A 
ATOM     16  C   UNL A   1      43.135  29.249  30.859  1.00  0.00     0.049 A 
ATOM     17  N   UNL A   1      45.782  30.659  30.192  1.00  0.00    -0.248 NA
ATOM     18  C   UNL A   1      46.667  28.559  29.693  1.00  0.00     0.031 C 
ATOM     19  C   UNL A   1      41.903  28.528  31.193  1.00  0.00     0.029 A 
ATOM     20  N   UNL A   1      42.911  30.517  31.294  1.00  0.00    -0.354 N 
ATOM     21  C   UNL A   1      47.130  30.779  29.887  1.00  0.00     0.074 A 
ATOM     22  C   UNL A   1      47.638  29.456  29.617  1.00  0.00     0.031 C 
ATOM     23  C   UNL A   1      41.038  29.379  31.766  1.00  0.00     0.029 A 
ATOM     24  C   UNL A   1      41.663  30.692  31.837  1.00  0.00     0.049 A 
ATOM     25  H   UNL A   1      43.578  31.238  31.226  1.00  0.00     0.167 HD
ATOM     26  C   UNL A   1      47.856  31.915  29.820  1.00  0.00     0.034 A 
ATOM     27  C   UNL A   1      41.103  31.815  32.316  1.00  0.00     0.034 A 
ATOM     28  C   UNL A   1      47.294  33.191  30.161  1.00  0.00     0.049 A 
ATOM     29  C   UNL A   1      41.920  33.071  32.194  1.00  0.00     0.074 A 
ATOM     30  C   UNL A   1      47.879  34.439  30.120  1.00  0.00     0.029 A 
ATOM     31  N   UNL A   1      46.002  33.362  30.652  1.00  0.00    -0.354 N 
ATOM     32  N   UNL A   1      43.134  33.220  31.712  1.00  0.00    -0.248 NA
ATOM     33  C   UNL A   1      41.286  34.318  32.629  1.00  0.00     0.031 C 
ATOM     34  C   UNL A   1      46.949  35.359  30.615  1.00  0.00     0.029 A 
ATOM     35  C   UNL A   1      45.769  34.694  30.925  1.00  0.00     0.049 A 
ATOM     36  H   UNL A   1      45.349  32.637  30.785  1.00  0.00     0.167 HD
ATOM     37  C   UNL A   1      43.406  34.576  31.764  1.00  0.00     0.074 A 
ATOM     38  C   UNL A   1      42.209  35.209  32.293  1.00  0.00     0.031 C 
ATOM     39  C   UNL A   1      44.536  35.249  31.427  1.00  0.00     0.034 A 
BRANCH  26  40
ATOM     40  C   UNL A   1      49.282  31.804  29.356  1.00  0.00     0.023 A 
ATOM     41  C   UNL A   1      50.321  31.729  30.309  1.00  0.00     0.012 A 
ATOM     42  C   UNL A   1      49.604  31.778  27.987  1.00  0.00     0.148 A 
ATOM     43  C   UNL A   1      51.656  31.667  29.909  1.00  0.00     0.002 A 
ATOM     44  C   UNL A   1      50.934  31.675  27.594  1.00  0.00     0.091 A 
ATOM     45  F   UNL A   1      48.608  31.876  27.094  1.00  0.00    -0.205 F 
ATOM     46  C   UNL A   1      51.961  31.633  28.552  1.00  0.00     0.022 A 
BRANCH  44  47
ATOM     47  S   UNL A   1      51.440  31.568  25.874  1.00  0.00     0.127 S 
ATOM     48  O   UNL A   1      52.896  31.574  25.991  1.00  0.00    -0.237 OA
ATOM     49  O   UNL A   1      50.865  30.289  25.467  1.00  0.00    -0.237 OA
ATOM     50  O   UNL A   1      50.869  32.736  25.210  1.00  0.00    -0.744 OA
ENDBRANCH  44  47
ENDBRANCH  26  40
BRANCH  27  51
ATOM     51  C   UNL A   1      39.712  31.799  32.842  1.00  0.00     0.023 A 
ATOM     52  C   UNL A   1      39.462  31.348  34.152  1.00  0.00     0.012 A 
ATOM     53  C   UNL A   1      38.637  32.280  32.068  1.00  0.00     0.148 A 
ATOM     54  C   UNL A   1      38.164  31.332  34.665  1.00  0.00     0.002 A 
ATOM     55  C   UNL A   1      37.353  32.308  32.602  1.00  0.00     0.091 A 
ATOM     56  F   UNL A   1      38.892  32.711  30.824  1.00  0.00    -0.205 F 
ATOM     57  C   UNL A   1      37.112  31.818  33.894  1.00  0.00     0.022 A 
BRANCH  55  58
ATOM     58  S   UNL A   1      35.960  33.025  31.722  1.00  0.00     0.127 S 
ATOM     59  O   UNL A   1      35.203  31.835  31.344  1.00  0.00    -0.237 OA
ATOM     60  O   UNL A   1      35.338  33.848  32.760  1.00  0.00    -0.237 OA
ATOM     61  O   UNL A   1      36.535  33.784  30.619  1.00  0.00    -0.744 OA
ENDBRANCH  55  58
ENDBRANCH  27  51
BRANCH  39  62
ATOM     62  C   UNL A   1      44.502  36.738  31.610  1.00  0.00     0.023 A 
ATOM     63  C   UNL A   1      44.991  37.308  32.802  1.00  0.00     0.012 A 
ATOM     64  C   UNL A   1      44.055  37.567  30.566  1.00  0.00     0.148 A 
ATOM     65  C   UNL A   1      44.999  38.689  32.965  1.00  0.00     0.002 A 
ATOM     66  C   UNL A   1      44.125  38.943  30.713  1.00  0.00     0.091 A 
ATOM     67  F   UNL A   1      43.576  36.994  29.452  1.00  0.00    -0.205 F 
ATOM     68  C   UNL A   1      44.581  39.506  31.917  1.00  0.00     0.022 A 
BRANCH  66  69
ATOM     69  S   UNL A   1      43.722  40.066  29.373  1.00  0.00     0.127 S 
ATOM     70  O   UNL A   1      43.999  41.366  29.983  1.00  0.00    -0.237 OA
ATOM     71  O   UNL A   1      44.672  39.662  28.336  1.00  0.00    -0.237 OA
ATOM     72  O   UNL A   1      42.325  39.816  29.043  1.00  0.00    -0.744 OA
ENDBRANCH  66  69
ENDBRANCH  39  62
ENDBRANCH  13  14
ENDBRANCH   6   8
ENDBRANCH   5   6
ENDBRANCH   4   5
ENDBRANCH   3   4
ENDBRANCH   2   3
ENDBRANCH   1   2
BRANCH   1  73
ATOM     73  C   UNL A   1      39.668  22.795  26.903  1.00  0.00     0.188 C 
BRANCH  73  74
ATOM     74  O   UNL A   1      38.626  23.406  26.163  1.00  0.00    -0.376 OA
BRANCH  74  75
ATOM     75  C   UNL A   1      37.646  22.551  25.593  1.00  0.00     0.202 C 
BRANCH  75  76
ATOM     76  C   UNL A   1      36.698  23.050  24.479  1.00  0.00     0.261 C 
BRANCH  76  77
ATOM     77  O   UNL A   1      35.446  22.360  24.277  1.00  0.00    -0.462 OA
BRANCH  77  78
ATOM     78  C   UNL A   1      34.396  22.878  24.984  1.00  0.00     0.328 C 
ATOM     79  O   UNL A   1      33.978  22.341  26.008  1.00  0.00    -0.250 OA
BRANCH  78  80
ATOM     80  C   UNL A   1      33.821  24.199  24.379  1.00  0.00     0.193 C 
ATOM     81  C   UNL A   1      33.544  23.922  22.885  1.00  0.00     0.037 C 
ATOM     82  N   UNL A   1      32.580  24.673  25.084  1.00  0.00    -0.343 N 
ATOM     83  C   UNL A   1      32.324  23.020  22.665  1.00  0.00     0.005 C 
ATOM     84  C   UNL A   1      31.412  23.799  24.917  1.00  0.00     0.119 C 
ATOM     85  C   UNL A   1      31.112  23.522  23.440  1.00  0.00     0.022 C 
BRANCH  82  86
ATOM     86  C   UNL A   1      32.276  26.054  25.088  1.00  0.00     0.134 A 
ATOM     87  C   UNL A   1      31.236  26.558  24.289  1.00  0.00     0.076 A 
ATOM     88  N   UNL A   1      33.002  26.889  25.846  1.00  0.00    -0.211 NA
ATOM     89  C   UNL A   1      30.961  27.928  24.310  1.00  0.00     0.076 A 
ATOM     90  C   UNL A   1      32.709  28.208  25.791  1.00  0.00     0.162 A 
ATOM     91  N   UNL A   1      31.714  28.760  25.061  1.00  0.00    -0.228 NA
BRANCH  89  92
ATOM     92  C   UNL A   1      29.815  28.593  23.600  1.00  0.00     0.000 A 
ATOM     93  C   UNL A   1      29.915  29.916  23.145  1.00  0.00     0.010 A 
ATOM     94  C   UNL A   1      28.544  28.005  23.429  1.00  0.00     0.010 A 
ATOM     95  C   UNL A   1      28.818  30.586  22.565  1.00  0.00     0.001 A 
ATOM     96  C   UNL A   1      27.434  28.673  22.898  1.00  0.00     0.001 A 
ATOM     97  C   UNL A   1      27.574  29.971  22.456  1.00  0.00     0.000 A 
ENDBRANCH  89  92
BRANCH  90  98
ATOM     98  C   UNL A   1      33.570  29.130  26.551  1.00  0.00     0.021 A 
ATOM     99  C   UNL A   1      33.093  30.390  26.955  1.00  0.00     0.012 A 
ATOM    100  C   UNL A   1      34.886  28.787  26.911  1.00  0.00     0.032 A 
ATOM    101  C   UNL A   1      33.892  31.270  27.698  1.00  0.00     0.002 A 
ATOM    102  C   UNL A   1      35.689  29.676  27.632  1.00  0.00     0.041 A 
ATOM    103  C   UNL A   1      35.194  30.910  28.036  1.00  0.00     0.020 A 
ATOM    104  Cl  UNL A   1      37.307  29.238  28.027  1.00  0.00    -0.084 Cl
ENDBRANCH  90  98
ENDBRANCH  82  86
ENDBRANCH  78  80
ENDBRANCH  77  78
ENDBRANCH  76  77
ENDBRANCH  75  76
ENDBRANCH  74  75
ENDBRANCH  73  74
ENDBRANCH   1  73
TORSDOF 23
ENDMDL
MODEL 3
REMARK VINA RESULT:      -9.5      6.081     14.854
REMARK SMILES O=C(OCCOCCOCCOC(=O)[C@H]1CCCCN1c1cc(-c2ccccc2)nc(-c2cccc(Cl)c2)n1)c1ccc(-c2c3nc(c(-c4cccc(S(=O)(=O)[O-])c4F)c4ccc([nH]4)c(-c4cccc(S(=O)(=O)[O-])c4F)c4nc(c(-c5cccc(S(=O)(=O)[O-])c5F)c5ccc2[nH]5)C=C4)C=C3)cc1
REMARK SMILES IDX 7 1 6 2 5 3 4 4 3 5 2 6 1 7 40 8 41 9 102 10 42 11 101 12
REMARK SMILES IDX 43 13 44 14 45 15 95 16 46 17 100 18 94 19 96 20 47 21 99 22
REMARK SMILES IDX 93 23 92 24 48 26 80 27 60 28 79 29 61 30 64 31 78 32 97 33
REMARK SMILES IDX 62 34 63 35 77 37 98 38 65 39 49 40 50 41 58 42 51 43 53 44
REMARK SMILES IDX 59 45 52 46 54 47 55 48 56 49 57 50 81 51 82 52 90 53 83 54
REMARK SMILES IDX 85 55 91 56 84 57 86 58 87 59 88 60 89 61 66 62 67 63 75 64
REMARK SMILES IDX 68 65 70 66 76 67 69 68 71 69 72 70 73 71 74 72 8 73 9 74
REMARK SMILES IDX 10 75 11 76 12 77 13 78 14 79 15 80 16 81 20 82 17 83 19 84
REMARK SMILES IDX 18 85 21 86 22 87 39 88 23 89 31 90 30 91 24 92 25 93 29 94
REMARK SMILES IDX 26 95 28 96 27 97 32 98 33 99 38 100 34 101 36 102 35 103
REMARK SMILES IDX 37 104
REMARK H PARENT 96 25 64 36
REMARK Flexibility Score: inf
ROOT
ATOM      1  C   UNL A   1      49.716  39.223  31.499  1.00  0.00     0.188 C 
ENDROOT
BRANCH   1   2
ATOM      2  O   UNL A   1      50.012  38.878  30.140  1.00  0.00    -0.376 OA
BRANCH   2   3
ATOM      3  C   UNL A   1      49.206  37.824  29.610  1.00  0.00     0.202 C 
BRANCH   3   4
ATOM      4  C   UNL A   1      48.168  38.244  28.561  1.00  0.00     0.261 C 
BRANCH   4   5
ATOM      5  O   UNL A   1      46.841  37.818  28.849  1.00  0.00    -0.460 OA
BRANCH   5   6
ATOM      6  C   UNL A   1      46.059  37.094  28.019  1.00  0.00     0.338 C 
ATOM      7  O   UNL A   1      45.816  37.587  26.918  1.00  0.00    -0.246 OA
BRANCH   6   8
ATOM      8  C   UNL A   1      45.551  35.716  28.329  1.00  0.00     0.060 A 
ATOM      9  C   UNL A   1      45.877  34.873  29.391  1.00  0.00     0.016 A 
ATOM     10  C   UNL A   1      44.602  35.238  27.427  1.00  0.00     0.016 A 
ATOM     11  C   UNL A   1      45.348  33.583  29.466  1.00  0.00     0.010 A 
ATOM     12  C   UNL A   1      44.061  33.977  27.474  1.00  0.00     0.010 A 
ATOM     13  C   UNL A   1      44.478  33.132  28.476  1.00  0.00    -0.014 A 
BRANCH  13  14
ATOM     14  C   UNL A   1      44.006  31.756  28.431  1.00  0.00     0.031 A 
ATOM     15  C   UNL A   1      42.722  31.437  29.117  1.00  0.00     0.074 A 
ATOM     16  C   UNL A   1      44.800  30.849  27.847  1.00  0.00     0.049 A 
ATOM     17  N   UNL A   1      42.032  30.337  29.077  1.00  0.00    -0.248 NA
ATOM     18  C   UNL A   1      42.128  32.494  29.961  1.00  0.00     0.031 C 
ATOM     19  C   UNL A   1      46.132  31.131  27.305  1.00  0.00     0.029 A 
ATOM     20  N   UNL A   1      44.621  29.520  27.628  1.00  0.00    -0.354 N 
ATOM     21  C   UNL A   1      40.919  30.568  29.874  1.00  0.00     0.074 A 
ATOM     22  C   UNL A   1      41.039  31.897  30.421  1.00  0.00     0.031 C 
ATOM     23  C   UNL A   1      46.645  30.002  26.793  1.00  0.00     0.029 A 
ATOM     24  C   UNL A   1      45.677  28.931  26.979  1.00  0.00     0.049 A 
ATOM     25  H   UNL A   1      43.816  29.028  27.908  1.00  0.00     0.167 HD
ATOM     26  C   UNL A   1      39.884  29.730  30.096  1.00  0.00     0.034 A 
ATOM     27  C   UNL A   1      45.810  27.658  26.571  1.00  0.00     0.034 A 
ATOM     28  C   UNL A   1      39.864  28.397  29.564  1.00  0.00     0.049 A 
ATOM     29  C   UNL A   1      44.626  26.759  26.797  1.00  0.00     0.074 A 
ATOM     30  C   UNL A   1      38.883  27.434  29.667  1.00  0.00     0.029 A 
ATOM     31  N   UNL A   1      40.918  27.833  28.850  1.00  0.00    -0.354 N 
ATOM     32  N   UNL A   1      43.480  27.037  27.378  1.00  0.00    -0.248 NA
ATOM     33  C   UNL A   1      44.724  25.393  26.276  1.00  0.00     0.031 C 
ATOM     34  C   UNL A   1      39.359  26.276  29.041  1.00  0.00     0.029 A 
ATOM     35  C   UNL A   1      40.618  26.530  28.510  1.00  0.00     0.049 A 
ATOM     36  H   UNL A   1      41.756  28.296  28.622  1.00  0.00     0.167 HD
ATOM     37  C   UNL A   1      42.709  25.892  27.276  1.00  0.00     0.074 A 
ATOM     38  C   UNL A   1      43.511  24.928  26.542  1.00  0.00     0.031 C 
ATOM     39  C   UNL A   1      41.462  25.639  27.751  1.00  0.00     0.034 A 
BRANCH  26  40
ATOM     40  C   UNL A   1      38.732  30.248  30.912  1.00  0.00     0.023 A 
ATOM     41  C   UNL A   1      38.675  29.968  32.294  1.00  0.00     0.012 A 
ATOM     42  C   UNL A   1      37.702  31.005  30.323  1.00  0.00     0.148 A 
ATOM     43  C   UNL A   1      37.598  30.401  33.069  1.00  0.00     0.002 A 
ATOM     44  C   UNL A   1      36.651  31.467  31.107  1.00  0.00     0.091 A 
ATOM     45  F   UNL A   1      37.756  31.240  29.004  1.00  0.00    -0.205 F 
ATOM     46  C   UNL A   1      36.591  31.155  32.476  1.00  0.00     0.022 A 
BRANCH  44  47
ATOM     47  S   UNL A   1      35.327  32.494  30.462  1.00  0.00     0.127 S 
ATOM     48  O   UNL A   1      34.395  32.520  31.587  1.00  0.00    -0.237 OA
ATOM     49  O   UNL A   1      36.016  33.756  30.209  1.00  0.00    -0.237 OA
ATOM     50  O   UNL A   1      34.832  31.814  29.268  1.00  0.00    -0.744 OA
ENDBRANCH  44  47
ENDBRANCH  26  40
BRANCH  27  51
ATOM     51  C   UNL A   1      47.036  27.221  25.851  1.00  0.00     0.023 A 
ATOM     52  C   UNL A   1      47.144  27.425  24.462  1.00  0.00     0.012 A 
ATOM     53  C   UNL A   1      48.121  26.648  26.545  1.00  0.00     0.148 A 
ATOM     54  C   UNL A   1      48.290  27.027  23.770  1.00  0.00     0.002 A 
ATOM     55  C   UNL A   1      49.279  26.299  25.859  1.00  0.00     0.091 A 
ATOM     56  F   UNL A   1      48.004  26.466  27.868  1.00  0.00    -0.205 F 
ATOM     57  C   UNL A   1      49.359  26.471  24.469  1.00  0.00     0.022 A 
BRANCH  55  58
ATOM     58  S   UNL A   1      50.746  25.687  26.695  1.00  0.00     0.127 S 
ATOM     59  O   UNL A   1      50.255  24.444  27.285  1.00  0.00    -0.237 OA
ATOM     60  O   UNL A   1      51.680  25.513  25.582  1.00  0.00    -0.237 OA
ATOM     61  O   UNL A   1      51.128  26.727  27.641  1.00  0.00    -0.744 OA
ENDBRANCH  55  58
ENDBRANCH  27  51
BRANCH  39  62
ATOM     62  C   UNL A   1      40.907  24.275  27.467  1.00  0.00     0.023 A 
ATOM     63  C   UNL A   1      41.497  23.142  28.059  1.00  0.00     0.012 A 
ATOM     64  C   UNL A   1      39.755  24.134  26.673  1.00  0.00     0.148 A 
ATOM     65  C   UNL A   1      40.965  21.877  27.832  1.00  0.00     0.002 A 
ATOM     66  C   UNL A   1      39.195  22.878  26.503  1.00  0.00     0.091 A 
ATOM     67  F   UNL A   1      39.229  25.230  26.105  1.00  0.00    -0.205 F 
ATOM     68  C   UNL A   1      39.808  21.746  27.067  1.00  0.00     0.022 A 
BRANCH  66  69
ATOM     69  S   UNL A   1      37.643  22.635  25.637  1.00  0.00     0.127 S 
ATOM     70  O   UNL A   1      37.851  23.431  24.428  1.00  0.00    -0.237 OA
ATOM     71  O   UNL A   1      37.633  21.189  25.422  1.00  0.00    -0.237 OA
ATOM     72  O   UNL A   1      36.601  23.120  26.532  1.00  0.00    -0.744 OA
ENDBRANCH  66  69
ENDBRANCH  39  62
ENDBRANCH  13  14
ENDBRANCH   6   8
ENDBRANCH   5   6
ENDBRANCH   4   5
ENDBRANCH   3   4
ENDBRANCH   2   3
ENDBRANCH   1   2
BRANCH   1  73
ATOM     73  C   UNL A   1      49.327  40.681  31.736  1.00  0.00     0.188 C 
BRANCH  73  74
ATOM     74  O   UNL A   1      48.167  40.957  32.500  1.00  0.00    -0.376 OA
BRANCH  74  75
ATOM     75  C   UNL A   1      48.341  41.684  33.707  1.00  0.00     0.202 C 
BRANCH  75  76
ATOM     76  C   UNL A   1      48.032  43.197  33.783  1.00  0.00     0.261 C 
BRANCH  76  77
ATOM     77  O   UNL A   1      46.689  43.643  33.496  1.00  0.00    -0.462 OA
BRANCH  77  78
ATOM     78  C   UNL A   1      45.766  43.306  34.448  1.00  0.00     0.328 C 
ATOM     79  O   UNL A   1      45.652  43.944  35.493  1.00  0.00    -0.250 OA
BRANCH  78  80
ATOM     80  C   UNL A   1      44.884  42.076  34.060  1.00  0.00     0.193 C 
ATOM     81  C   UNL A   1      43.685  42.061  35.034  1.00  0.00     0.037 C 
ATOM     82  N   UNL A   1      44.421  42.117  32.629  1.00  0.00    -0.343 N 
ATOM     83  C   UNL A   1      42.669  43.171  34.744  1.00  0.00     0.005 C 
ATOM     84  C   UNL A   1      43.479  43.201  32.324  1.00  0.00     0.119 C 
ATOM     85  C   UNL A   1      42.275  43.195  33.271  1.00  0.00     0.022 C 
BRANCH  82  86
ATOM     86  C   UNL A   1      44.147  40.902  31.960  1.00  0.00     0.134 A 
ATOM     87  C   UNL A   1      43.410  40.898  30.764  1.00  0.00     0.076 A 
ATOM     88  N   UNL A   1      44.576  39.745  32.485  1.00  0.00    -0.211 NA
ATOM     89  C   UNL A   1      43.150  39.682  30.127  1.00  0.00     0.076 A 
ATOM     90  C   UNL A   1      44.257  38.601  31.839  1.00  0.00     0.162 A 
ATOM     91  N   UNL A   1      43.569  38.522  30.678  1.00  0.00    -0.228 NA
BRANCH  89  92
ATOM     92  C   UNL A   1      42.477  39.530  28.791  1.00  0.00     0.000 A 
ATOM     93  C   UNL A   1      42.690  38.393  27.998  1.00  0.00     0.010 A 
ATOM     94  C   UNL A   1      41.683  40.529  28.188  1.00  0.00     0.010 A 
ATOM     95  C   UNL A   1      42.145  38.278  26.702  1.00  0.00     0.001 A 
ATOM     96  C   UNL A   1      41.175  40.449  26.886  1.00  0.00     0.001 A 
ATOM     97  C   UNL A   1      41.401  39.312  26.140  1.00  0.00     0.000 A 
ENDBRANCH  89  92
BRANCH  90  98
ATOM     98  C   UNL A   1      44.649  37.329  32.470  1.00  0.00     0.021 A 
ATOM     99  C   UNL A   1      43.737  36.608  33.262  1.00  0.00     0.012 A 
ATOM    100  C   UNL A   1      45.934  36.783  32.297  1.00  0.00     0.032 A 
ATOM    101  C   UNL A   1      44.088  35.387  33.851  1.00  0.00     0.002 A 
ATOM    102  C   UNL A   1      46.289  35.574  32.905  1.00  0.00     0.041 A 
ATOM    103  C   UNL A   1      45.368  34.869  33.671  1.00  0.00     0.020 A 
ATOM    104  Cl  UNL A   1      47.881  34.950  32.701  1.00  0.00    -0.084 Cl
ENDBRANCH  90  98
ENDBRANCH  82  86
ENDBRANCH  78  80
ENDBRANCH  77  78
ENDBRANCH  76  77
ENDBRANCH  75  76
ENDBRANCH  74  75
ENDBRANCH  73  74
ENDBRANCH   1  73
TORSDOF 23
ENDMDL
