MODEL 1
REMARK VINA RESULT:      -8.9      0.000      0.000
REMARK SMILES CC(C)C[C@H](NC(=O)[C@@H](NC(=O)[C@H](C)NC(=O)CNC(=O)OCc1ccccc1)C(C)C)C(=O)OCCOCCOCCOC(=O)c1ccc(-c2c3nc(c(-c4cccc(S(=O)(=O)[O-])c4F)c4ccc([nH]4)c(-c4cccc(S(=O)(=O)[O-])c4F)c4nc(c(-c5cccc(S(=O)(=O)[O-])c5F)c5ccc2[nH]5)C=C4)C=C3)cc1
REMARK SMILES IDX 36 1 35 2 33 3 34 4 5 5 4 6 2 7 1 8 3 9 6 10 7 11 8 13 9 14
REMARK SMILES IDX 10 15 11 16 12 18 13 19 14 20 15 21 16 22 17 24 18 25 19 26
REMARK SMILES IDX 20 27 21 29 22 30 23 31 24 32 25 33 29 34 26 35 28 36 27 37
REMARK SMILES IDX 30 38 31 39 32 40 37 41 38 42 39 43 40 44 41 45 42 46 43 47
REMARK SMILES IDX 44 48 45 49 46 50 47 51 48 52 109 53 49 54 108 55 50 56
REMARK SMILES IDX 51 57 52 58 102 59 53 60 107 61 101 62 103 63 54 64 106 65
REMARK SMILES IDX 100 66 99 67 55 69 87 70 67 71 86 72 68 73 71 74 85 75
REMARK SMILES IDX 104 76 69 77 70 78 84 80 105 81 72 82 56 83 57 84 65 85
REMARK SMILES IDX 58 86 60 87 66 88 59 89 61 90 62 91 63 92 64 93 88 94 89 95
REMARK SMILES IDX 97 96 90 97 92 98 98 99 91 100 93 101 94 102 95 103 96 104
REMARK SMILES IDX 73 105 74 106 82 107 75 108 77 109 83 110 76 111 78 112
REMARK SMILES IDX 79 113 80 114 81 115
REMARK H PARENT 6 12 10 17 15 23 19 28 103 68 71 79
REMARK Flexibility Score: inf
ROOT
ATOM      1  C   UNL A   1      39.588  21.892  25.894  1.00  0.00     0.261 C 
ENDROOT
BRANCH   1   2
ATOM      2  O   UNL A   1      38.158  21.798  26.075  1.00  0.00    -0.462 OA
BRANCH   2   3
ATOM      3  C   UNL A   1      37.552  20.885  25.284  1.00  0.00     0.328 C 
ATOM      4  O   UNL A   1      38.165  19.995  24.704  1.00  0.00    -0.250 OA
BRANCH   3   5
ATOM      5  C   UNL A   1      36.036  21.118  25.091  1.00  0.00     0.192 C 
BRANCH   5   6
ATOM      6  C   UNL A   1      35.344  19.765  24.907  1.00  0.00     0.040 C 
BRANCH   6   7
ATOM      7  C   UNL A   1      33.811  19.698  24.805  1.00  0.00    -0.015 C 
ATOM      8  C   UNL A   1      33.307  18.645  23.807  1.00  0.00     0.007 C 
ATOM      9  C   UNL A   1      33.248  19.382  26.193  1.00  0.00     0.007 C 
ENDBRANCH   6   7
ENDBRANCH   5   6
BRANCH   5  10
ATOM     10  N   UNL A   1      35.655  22.072  24.019  1.00  0.00    -0.341 N 
ATOM     11  C   UNL A   1      34.683  23.013  23.842  1.00  0.00     0.243 C 
ATOM     12  H   UNL A   1      36.255  22.010  23.241  1.00  0.00     0.164 HD
ATOM     13  O   UNL A   1      34.927  23.838  22.948  1.00  0.00    -0.273 OA
BRANCH  11  14
ATOM     14  C   UNL A   1      33.333  23.185  24.644  1.00  0.00     0.174 C 
BRANCH  14  15
ATOM     15  N   UNL A   1      33.284  24.325  25.580  1.00  0.00    -0.342 N 
ATOM     16  C   UNL A   1      32.788  25.587  25.658  1.00  0.00     0.242 C 
ATOM     17  H   UNL A   1      33.765  24.101  26.409  1.00  0.00     0.164 HD
ATOM     18  O   UNL A   1      32.931  26.112  26.774  1.00  0.00    -0.273 OA
BRANCH  16  19
ATOM     19  C   UNL A   1      32.030  26.344  24.534  1.00  0.00     0.168 C 
ATOM     20  C   UNL A   1      30.627  25.892  24.177  1.00  0.00     0.041 C 
BRANCH  19  21
ATOM     21  N   UNL A   1      32.804  26.296  23.285  1.00  0.00    -0.343 N 
ATOM     22  C   UNL A   1      33.258  27.243  22.429  1.00  0.00     0.240 C 
ATOM     23  H   UNL A   1      33.042  25.382  23.012  1.00  0.00     0.164 HD
ATOM     24  O   UNL A   1      33.855  26.834  21.426  1.00  0.00    -0.273 OA
BRANCH  22  25
ATOM     25  C   UNL A   1      33.238  28.740  22.736  1.00  0.00     0.219 C 
BRANCH  25  26
ATOM     26  N   UNL A   1      32.080  29.269  23.419  1.00  0.00    -0.312 N 
ATOM     27  C   UNL A   1      32.069  29.825  24.667  1.00  0.00     0.407 C 
ATOM     28  H   UNL A   1      31.221  29.224  22.941  1.00  0.00     0.167 HD
ATOM     29  O   UNL A   1      31.030  30.109  25.219  1.00  0.00    -0.225 OA
BRANCH  27  30
ATOM     30  O   UNL A   1      33.316  29.955  25.186  1.00  0.00    -0.445 OA
BRANCH  30  31
ATOM     31  C   UNL A   1      33.551  29.345  26.463  1.00  0.00     0.270 C 
BRANCH  31  32
ATOM     32  C   UNL A   1      34.616  29.994  27.314  1.00  0.00    -0.011 A 
ATOM     33  C   UNL A   1      35.662  29.264  27.894  1.00  0.00     0.007 A 
ATOM     34  C   UNL A   1      34.570  31.382  27.514  1.00  0.00     0.007 A 
ATOM     35  C   UNL A   1      36.672  29.913  28.603  1.00  0.00     0.000 A 
ATOM     36  C   UNL A   1      35.571  32.028  28.241  1.00  0.00     0.000 A 
ATOM     37  C   UNL A   1      36.628  31.294  28.774  1.00  0.00     0.000 A 
ENDBRANCH  31  32
ENDBRANCH  30  31
ENDBRANCH  27  30
ENDBRANCH  25  26
ENDBRANCH  22  25
ENDBRANCH  19  21
ENDBRANCH  16  19
ENDBRANCH  14  15
BRANCH  14  38
ATOM     38  C   UNL A   1      32.016  22.795  23.902  1.00  0.00     0.015 C 
ATOM     39  C   UNL A   1      32.215  21.817  22.736  1.00  0.00     0.010 C 
ATOM     40  C   UNL A   1      30.972  22.153  24.827  1.00  0.00     0.010 C 
ENDBRANCH  14  38
ENDBRANCH  11  14
ENDBRANCH   5  10
ENDBRANCH   3   5
ENDBRANCH   2   3
ENDBRANCH   1   2
BRANCH   1  41
ATOM     41  C   UNL A   1      40.470  21.104  26.883  1.00  0.00     0.202 C 
BRANCH  41  42
ATOM     42  O   UNL A   1      41.837  21.002  26.512  1.00  0.00    -0.376 OA
BRANCH  42  43
ATOM     43  C   UNL A   1      42.386  19.696  26.618  1.00  0.00     0.188 C 
BRANCH  43  44
ATOM     44  C   UNL A   1      43.137  19.222  25.362  1.00  0.00     0.188 C 
BRANCH  44  45
ATOM     45  O   UNL A   1      44.291  18.404  25.476  1.00  0.00    -0.376 OA
BRANCH  45  46
ATOM     46  C   UNL A   1      45.569  19.019  25.358  1.00  0.00     0.202 C 
BRANCH  46  47
ATOM     47  C   UNL A   1      45.885  20.002  24.208  1.00  0.00     0.261 C 
BRANCH  47  48
ATOM     48  O   UNL A   1      46.143  21.364  24.582  1.00  0.00    -0.460 OA
BRANCH  48  49
ATOM     49  C   UNL A   1      45.261  22.281  24.107  1.00  0.00     0.338 C 
ATOM     50  O   UNL A   1      44.463  22.127  23.199  1.00  0.00    -0.246 OA
BRANCH  49  51
ATOM     51  C   UNL A   1      45.234  23.453  25.015  1.00  0.00     0.060 A 
ATOM     52  C   UNL A   1      46.411  23.768  25.714  1.00  0.00     0.016 A 
ATOM     53  C   UNL A   1      44.085  24.223  25.192  1.00  0.00     0.016 A 
ATOM     54  C   UNL A   1      46.440  24.840  26.604  1.00  0.00     0.010 A 
ATOM     55  C   UNL A   1      44.102  25.273  26.120  1.00  0.00     0.010 A 
ATOM     56  C   UNL A   1      45.269  25.564  26.851  1.00  0.00    -0.014 A 
BRANCH  56  57
ATOM     57  C   UNL A   1      45.205  26.452  28.038  1.00  0.00     0.031 A 
ATOM     58  C   UNL A   1      45.406  27.928  27.825  1.00  0.00     0.074 A 
ATOM     59  C   UNL A   1      44.973  25.975  29.273  1.00  0.00     0.049 A 
ATOM     60  N   UNL A   1      45.452  28.896  28.701  1.00  0.00    -0.248 NA
ATOM     61  C   UNL A   1      45.579  28.370  26.430  1.00  0.00     0.031 C 
ATOM     62  C   UNL A   1      44.737  24.573  29.612  1.00  0.00     0.029 A 
ATOM     63  N   UNL A   1      44.927  26.627  30.482  1.00  0.00    -0.354 N 
ATOM     64  C   UNL A   1      45.694  30.053  27.971  1.00  0.00     0.074 A 
ATOM     65  C   UNL A   1      45.786  29.669  26.580  1.00  0.00     0.031 C 
ATOM     66  C   UNL A   1      44.613  24.464  30.947  1.00  0.00     0.029 A 
ATOM     67  C   UNL A   1      44.785  25.782  31.557  1.00  0.00     0.049 A 
ATOM     68  H   UNL A   1      44.991  27.606  30.569  1.00  0.00     0.167 HD
ATOM     69  C   UNL A   1      45.822  31.326  28.415  1.00  0.00     0.034 A 
ATOM     70  C   UNL A   1      44.820  26.042  32.881  1.00  0.00     0.034 A 
ATOM     71  C   UNL A   1      45.718  31.713  29.794  1.00  0.00     0.049 A 
ATOM     72  C   UNL A   1      45.000  27.464  33.353  1.00  0.00     0.074 A 
ATOM     73  C   UNL A   1      45.794  32.983  30.337  1.00  0.00     0.029 A 
ATOM     74  N   UNL A   1      45.533  30.836  30.849  1.00  0.00    -0.354 N 
ATOM     75  N   UNL A   1      45.116  28.562  32.647  1.00  0.00    -0.248 NA
ATOM     76  C   UNL A   1      45.021  27.685  34.809  1.00  0.00     0.031 C 
ATOM     77  C   UNL A   1      45.681  32.870  31.726  1.00  0.00     0.029 A 
ATOM     78  C   UNL A   1      45.505  31.533  32.045  1.00  0.00     0.049 A 
ATOM     79  H   UNL A   1      45.437  29.859  30.762  1.00  0.00     0.167 HD
ATOM     80  C   UNL A   1      45.188  29.605  33.567  1.00  0.00     0.074 A 
ATOM     81  C   UNL A   1      45.083  29.008  34.881  1.00  0.00     0.031 C 
ATOM     82  C   UNL A   1      45.340  30.934  33.344  1.00  0.00     0.034 A 
BRANCH  69  83
ATOM     83  C   UNL A   1      46.080  32.396  27.389  1.00  0.00     0.023 A 
ATOM     84  C   UNL A   1      44.995  33.010  26.732  1.00  0.00     0.012 A 
ATOM     85  C   UNL A   1      47.392  32.824  27.110  1.00  0.00     0.148 A 
ATOM     86  C   UNL A   1      45.213  34.014  25.789  1.00  0.00     0.002 A 
ATOM     87  C   UNL A   1      47.599  33.855  26.202  1.00  0.00     0.091 A 
ATOM     88  F   UNL A   1      48.410  32.207  27.725  1.00  0.00    -0.205 F 
ATOM     89  C   UNL A   1      46.513  34.443  25.533  1.00  0.00     0.022 A 
BRANCH  87  90
ATOM     90  S   UNL A   1      49.228  34.529  25.861  1.00  0.00     0.127 S 
ATOM     91  O   UNL A   1      49.981  33.323  25.519  1.00  0.00    -0.237 OA
ATOM     92  O   UNL A   1      48.961  35.422  24.733  1.00  0.00    -0.237 OA
ATOM     93  O   UNL A   1      49.648  35.203  27.083  1.00  0.00    -0.744 OA
ENDBRANCH  87  90
ENDBRANCH  69  83
BRANCH  70  94
ATOM     94  C   UNL A   1      44.668  24.931  33.865  1.00  0.00     0.023 A 
ATOM     95  C   UNL A   1      43.415  24.701  34.466  1.00  0.00     0.012 A 
ATOM     96  C   UNL A   1      45.755  24.103  34.204  1.00  0.00     0.148 A 
ATOM     97  C   UNL A   1      43.255  23.685  35.410  1.00  0.00     0.002 A 
ATOM     98  C   UNL A   1      45.576  23.058  35.103  1.00  0.00     0.091 A 
ATOM     99  F   UNL A   1      46.943  24.351  33.637  1.00  0.00    -0.205 F 
ATOM    100  C   UNL A   1      44.331  22.858  35.721  1.00  0.00     0.022 A 
BRANCH  98 101
ATOM    101  S   UNL A   1      46.871  21.870  35.469  1.00  0.00     0.127 S 
ATOM    102  O   UNL A   1      47.041  21.204  34.181  1.00  0.00    -0.237 OA
ATOM    103  O   UNL A   1      47.978  22.744  35.863  1.00  0.00    -0.237 OA
ATOM    104  O   UNL A   1      46.350  21.040  36.547  1.00  0.00    -0.744 OA
ENDBRANCH  98 101
ENDBRANCH  70  94
BRANCH  82 105
ATOM    105  C   UNL A   1      45.360  31.854  34.538  1.00  0.00     0.023 A 
ATOM    106  C   UNL A   1      46.587  32.202  35.138  1.00  0.00     0.012 A 
ATOM    107  C   UNL A   1      44.170  32.444  35.009  1.00  0.00     0.148 A 
ATOM    108  C   UNL A   1      46.624  33.098  36.206  1.00  0.00     0.002 A 
ATOM    109  C   UNL A   1      44.220  33.373  36.041  1.00  0.00     0.091 A 
ATOM    110  F   UNL A   1      43.011  32.088  34.436  1.00  0.00    -0.205 F 
ATOM    111  C   UNL A   1      45.445  33.692  36.649  1.00  0.00     0.022 A 
BRANCH 109 112
ATOM    112  S   UNL A   1      42.765  34.261  36.609  1.00  0.00     0.127 S 
ATOM    113  O   UNL A   1      41.924  33.171  37.103  1.00  0.00    -0.237 OA
ATOM    114  O   UNL A   1      43.316  35.126  37.653  1.00  0.00    -0.237 OA
ATOM    115  O   UNL A   1      42.249  34.971  35.447  1.00  0.00    -0.744 OA
ENDBRANCH 109 112
ENDBRANCH  82 105
ENDBRANCH  56  57
ENDBRANCH  49  51
ENDBRANCH  48  49
ENDBRANCH  47  48
ENDBRANCH  46  47
ENDBRANCH  45  46
ENDBRANCH  44  45
ENDBRANCH  43  44
ENDBRANCH  42  43
ENDBRANCH  41  42
ENDBRANCH   1  41
TORSDOF 33
ENDMDL
MODEL 2
REMARK VINA RESULT:      -8.3      3.923      5.664
REMARK SMILES CC(C)C[C@H](NC(=O)[C@@H](NC(=O)[C@H](C)NC(=O)CNC(=O)OCc1ccccc1)C(C)C)C(=O)OCCOCCOCCOC(=O)c1ccc(-c2c3nc(c(-c4cccc(S(=O)(=O)[O-])c4F)c4ccc([nH]4)c(-c4cccc(S(=O)(=O)[O-])c4F)c4nc(c(-c5cccc(S(=O)(=O)[O-])c5F)c5ccc2[nH]5)C=C4)C=C3)cc1
REMARK SMILES IDX 36 1 35 2 33 3 34 4 5 5 4 6 2 7 1 8 3 9 6 10 7 11 8 13 9 14
REMARK SMILES IDX 10 15 11 16 12 18 13 19 14 20 15 21 16 22 17 24 18 25 19 26
REMARK SMILES IDX 20 27 21 29 22 30 23 31 24 32 25 33 29 34 26 35 28 36 27 37
REMARK SMILES IDX 30 38 31 39 32 40 37 41 38 42 39 43 40 44 41 45 42 46 43 47
REMARK SMILES IDX 44 48 45 49 46 50 47 51 48 52 109 53 49 54 108 55 50 56
REMARK SMILES IDX 51 57 52 58 102 59 53 60 107 61 101 62 103 63 54 64 106 65
REMARK SMILES IDX 100 66 99 67 55 69 87 70 67 71 86 72 68 73 71 74 85 75
REMARK SMILES IDX 104 76 69 77 70 78 84 80 105 81 72 82 56 83 57 84 65 85
REMARK SMILES IDX 58 86 60 87 66 88 59 89 61 90 62 91 63 92 64 93 88 94 89 95
REMARK SMILES IDX 97 96 90 97 92 98 98 99 91 100 93 101 94 102 95 103 96 104
REMARK SMILES IDX 73 105 74 106 82 107 75 108 77 109 83 110 76 111 78 112
REMARK SMILES IDX 79 113 80 114 81 115
REMARK H PARENT 6 12 10 17 15 23 19 28 103 68 71 79
REMARK Flexibility Score: inf
ROOT
ATOM      1  C   UNL A   1      37.689  22.528  25.460  1.00  0.00     0.261 C 
ENDROOT
BRANCH   1   2
ATOM      2  O   UNL A   1      36.299  22.157  25.582  1.00  0.00    -0.462 OA
BRANCH   2   3
ATOM      3  C   UNL A   1      35.466  23.186  25.855  1.00  0.00     0.328 C 
ATOM      4  O   UNL A   1      35.866  24.292  26.202  1.00  0.00    -0.250 OA
BRANCH   3   5
ATOM      5  C   UNL A   1      33.964  22.822  25.793  1.00  0.00     0.192 C 
BRANCH   5   6
ATOM      6  C   UNL A   1      33.616  22.393  24.365  1.00  0.00     0.040 C 
BRANCH   6   7
ATOM      7  C   UNL A   1      32.465  21.401  24.126  1.00  0.00    -0.015 C 
ATOM      8  C   UNL A   1      32.131  21.195  22.641  1.00  0.00     0.007 C 
ATOM      9  C   UNL A   1      32.851  20.055  24.743  1.00  0.00     0.007 C 
ENDBRANCH   6   7
ENDBRANCH   5   6
BRANCH   5  10
ATOM     10  N   UNL A   1      33.023  23.855  26.294  1.00  0.00    -0.341 N 
ATOM     11  C   UNL A   1      32.070  24.663  25.746  1.00  0.00     0.243 C 
ATOM     12  H   UNL A   1      33.107  23.990  27.266  1.00  0.00     0.164 HD
ATOM     13  O   UNL A   1      31.265  25.132  26.565  1.00  0.00    -0.273 OA
BRANCH  11  14
ATOM     14  C   UNL A   1      31.865  25.038  24.226  1.00  0.00     0.174 C 
BRANCH  14  15
ATOM     15  N   UNL A   1      30.650  25.816  23.916  1.00  0.00    -0.342 N 
ATOM     16  C   UNL A   1      30.188  27.092  23.973  1.00  0.00     0.242 C 
ATOM     17  H   UNL A   1      29.953  25.222  23.554  1.00  0.00     0.164 HD
ATOM     18  O   UNL A   1      29.073  27.245  23.451  1.00  0.00    -0.273 OA
BRANCH  16  19
ATOM     19  C   UNL A   1      30.951  28.316  24.548  1.00  0.00     0.168 C 
ATOM     20  C   UNL A   1      32.223  28.767  23.855  1.00  0.00     0.041 C 
BRANCH  19  21
ATOM     21  N   UNL A   1      31.317  28.068  25.951  1.00  0.00    -0.343 N 
ATOM     22  C   UNL A   1      32.355  28.457  26.730  1.00  0.00     0.240 C 
ATOM     23  H   UNL A   1      30.670  27.499  26.424  1.00  0.00     0.164 HD
ATOM     24  O   UNL A   1      32.368  28.017  27.885  1.00  0.00    -0.273 OA
BRANCH  22  25
ATOM     25  C   UNL A   1      33.363  29.531  26.320  1.00  0.00     0.219 C 
BRANCH  25  26
ATOM     26  N   UNL A   1      33.286  30.811  26.985  1.00  0.00    -0.312 N 
ATOM     27  C   UNL A   1      34.273  31.385  27.735  1.00  0.00     0.407 C 
ATOM     28  H   UNL A   1      32.447  31.315  26.888  1.00  0.00     0.167 HD
ATOM     29  O   UNL A   1      34.071  32.393  28.374  1.00  0.00    -0.225 OA
BRANCH  27  30
ATOM     30  O   UNL A   1      35.428  30.674  27.703  1.00  0.00    -0.445 OA
BRANCH  30  31
ATOM     31  C   UNL A   1      35.985  30.288  28.967  1.00  0.00     0.270 C 
BRANCH  31  32
ATOM     32  C   UNL A   1      37.324  29.594  28.910  1.00  0.00    -0.011 A 
ATOM     33  C   UNL A   1      37.830  28.847  29.982  1.00  0.00     0.007 A 
ATOM     34  C   UNL A   1      38.082  29.680  27.732  1.00  0.00     0.007 A 
ATOM     35  C   UNL A   1      39.033  28.152  29.858  1.00  0.00     0.000 A 
ATOM     36  C   UNL A   1      39.295  29.001  27.616  1.00  0.00     0.000 A 
ATOM     37  C   UNL A   1      39.763  28.227  28.675  1.00  0.00     0.000 A 
ENDBRANCH  31  32
ENDBRANCH  30  31
ENDBRANCH  27  30
ENDBRANCH  25  26
ENDBRANCH  22  25
ENDBRANCH  19  21
ENDBRANCH  16  19
ENDBRANCH  14  15
BRANCH  14  38
ATOM     38  C   UNL A   1      33.150  25.330  23.390  1.00  0.00     0.015 C 
ATOM     39  C   UNL A   1      32.877  25.753  21.939  1.00  0.00     0.010 C 
ATOM     40  C   UNL A   1      34.028  26.433  24.000  1.00  0.00     0.010 C 
ENDBRANCH  14  38
ENDBRANCH  11  14
ENDBRANCH   5  10
ENDBRANCH   3   5
ENDBRANCH   2   3
ENDBRANCH   1   2
BRANCH   1  41
ATOM     41  C   UNL A   1      38.733  21.432  25.753  1.00  0.00     0.202 C 
BRANCH  41  42
ATOM     42  O   UNL A   1      40.028  21.915  26.080  1.00  0.00    -0.376 OA
BRANCH  42  43
ATOM     43  C   UNL A   1      40.586  21.364  27.265  1.00  0.00     0.188 C 
BRANCH  43  44
ATOM     44  C   UNL A   1      42.056  21.745  27.508  1.00  0.00     0.188 C 
BRANCH  44  45
ATOM     45  O   UNL A   1      42.581  22.959  26.996  1.00  0.00    -0.376 OA
BRANCH  45  46
ATOM     46  C   UNL A   1      43.597  22.891  26.000  1.00  0.00     0.202 C 
BRANCH  46  47
ATOM     47  C   UNL A   1      45.037  23.369  26.289  1.00  0.00     0.261 C 
BRANCH  47  48
ATOM     48  O   UNL A   1      45.194  24.751  26.646  1.00  0.00    -0.460 OA
BRANCH  48  49
ATOM     49  C   UNL A   1      45.840  25.524  25.735  1.00  0.00     0.338 C 
ATOM     50  O   UNL A   1      46.253  25.176  24.641  1.00  0.00    -0.246 OA
BRANCH  49  51
ATOM     51  C   UNL A   1      45.773  26.943  26.158  1.00  0.00     0.060 A 
ATOM     52  C   UNL A   1      46.535  27.332  27.271  1.00  0.00     0.016 A 
ATOM     53  C   UNL A   1      44.976  27.875  25.492  1.00  0.00     0.016 A 
ATOM     54  C   UNL A   1      46.492  28.646  27.735  1.00  0.00     0.010 A 
ATOM     55  C   UNL A   1      44.899  29.184  25.986  1.00  0.00     0.010 A 
ATOM     56  C   UNL A   1      45.631  29.564  27.126  1.00  0.00    -0.014 A 
BRANCH  56  57
ATOM     57  C   UNL A   1      45.317  30.834  27.825  1.00  0.00     0.031 A 
ATOM     58  C   UNL A   1      46.176  32.034  27.528  1.00  0.00     0.074 A 
ATOM     59  C   UNL A   1      44.299  30.934  28.699  1.00  0.00     0.049 A 
ATOM     60  N   UNL A   1      46.140  33.231  28.048  1.00  0.00    -0.248 NA
ATOM     61  C   UNL A   1      47.219  31.853  26.503  1.00  0.00     0.031 C 
ATOM     62  C   UNL A   1      43.378  29.858  29.056  1.00  0.00     0.029 A 
ATOM     63  N   UNL A   1      43.892  31.997  29.469  1.00  0.00    -0.354 N 
ATOM     64  C   UNL A   1      47.174  33.935  27.442  1.00  0.00     0.074 A 
ATOM     65  C   UNL A   1      47.819  33.032  26.516  1.00  0.00     0.031 C 
ATOM     66  C   UNL A   1      42.538  30.304  30.008  1.00  0.00     0.029 A 
ATOM     67  C   UNL A   1      42.878  31.686  30.343  1.00  0.00     0.049 A 
ATOM     68  H   UNL A   1      44.289  32.896  29.401  1.00  0.00     0.167 HD
ATOM     69  C   UNL A   1      47.550  35.222  27.633  1.00  0.00     0.034 A 
ATOM     70  C   UNL A   1      42.312  32.424  31.321  1.00  0.00     0.034 A 
ATOM     71  C   UNL A   1      46.903  36.125  28.541  1.00  0.00     0.049 A 
ATOM     72  C   UNL A   1      42.772  33.845  31.538  1.00  0.00     0.074 A 
ATOM     73  C   UNL A   1      47.187  37.460  28.774  1.00  0.00     0.029 A 
ATOM     74  N   UNL A   1      45.854  35.786  29.380  1.00  0.00    -0.354 N 
ATOM     75  N   UNL A   1      43.676  34.532  30.882  1.00  0.00    -0.248 NA
ATOM     76  C   UNL A   1      42.111  34.603  32.614  1.00  0.00     0.031 C 
ATOM     77  C   UNL A   1      46.325  37.920  29.775  1.00  0.00     0.029 A 
ATOM     78  C   UNL A   1      45.484  36.881  30.142  1.00  0.00     0.049 A 
ATOM     79  H   UNL A   1      45.433  34.897  29.427  1.00  0.00     0.167 HD
ATOM     80  C   UNL A   1      43.667  35.808  31.438  1.00  0.00     0.074 A 
ATOM     81  C   UNL A   1      42.654  35.805  32.472  1.00  0.00     0.031 C 
ATOM     82  C   UNL A   1      44.435  36.882  31.128  1.00  0.00     0.034 A 
BRANCH  69  83
ATOM     83  C   UNL A   1      48.716  35.730  26.828  1.00  0.00     0.023 A 
ATOM     84  C   UNL A   1      48.490  36.336  25.575  1.00  0.00     0.012 A 
ATOM     85  C   UNL A   1      50.028  35.648  27.332  1.00  0.00     0.148 A 
ATOM     86  C   UNL A   1      49.556  36.826  24.822  1.00  0.00     0.002 A 
ATOM     87  C   UNL A   1      51.080  36.178  26.596  1.00  0.00     0.091 A 
ATOM     88  F   UNL A   1      50.222  35.043  28.512  1.00  0.00    -0.205 F 
ATOM     89  C   UNL A   1      50.848  36.756  25.338  1.00  0.00     0.022 A 
BRANCH  87  90
ATOM     90  S   UNL A   1      52.769  36.206  27.207  1.00  0.00     0.127 S 
ATOM     91  O   UNL A   1      53.450  36.959  26.155  1.00  0.00    -0.237 OA
ATOM     92  O   UNL A   1      52.625  36.921  28.475  1.00  0.00    -0.237 OA
ATOM     93  O   UNL A   1      53.171  34.812  27.338  1.00  0.00    -0.744 OA
ENDBRANCH  87  90
ENDBRANCH  69  83
BRANCH  70  94
ATOM     94  C   UNL A   1      41.231  31.841  32.167  1.00  0.00     0.023 A 
ATOM     95  C   UNL A   1      39.916  31.771  31.666  1.00  0.00     0.012 A 
ATOM     96  C   UNL A   1      41.499  31.355  33.461  1.00  0.00     0.148 A 
ATOM     97  C   UNL A   1      38.883  31.255  32.450  1.00  0.00     0.002 A 
ATOM     98  C   UNL A   1      40.477  30.791  34.215  1.00  0.00     0.091 A 
ATOM     99  F   UNL A   1      42.752  31.449  33.927  1.00  0.00    -0.205 F 
ATOM    100  C   UNL A   1      39.164  30.756  33.719  1.00  0.00     0.022 A 
BRANCH  98 101
ATOM    101  S   UNL A   1      40.770  30.015  35.808  1.00  0.00     0.127 S 
ATOM    102  O   UNL A   1      39.411  29.719  36.252  1.00  0.00    -0.237 OA
ATOM    103  O   UNL A   1      41.564  28.844  35.430  1.00  0.00    -0.237 OA
ATOM    104  O   UNL A   1      41.494  31.001  36.599  1.00  0.00    -0.744 OA
ENDBRANCH  98 101
ENDBRANCH  70  94
BRANCH  82 105
ATOM    105  C   UNL A   1      44.193  38.166  31.881  1.00  0.00     0.023 A 
ATOM    106  C   UNL A   1      44.789  38.365  33.141  1.00  0.00     0.012 A 
ATOM    107  C   UNL A   1      43.447  39.210  31.297  1.00  0.00     0.148 A 
ATOM    108  C   UNL A   1      44.621  39.572  33.822  1.00  0.00     0.002 A 
ATOM    109  C   UNL A   1      43.324  40.426  31.958  1.00  0.00     0.091 A 
ATOM    110  F   UNL A   1      42.874  38.995  30.103  1.00  0.00    -0.205 F 
ATOM    111  C   UNL A   1      43.901  40.604  33.227  1.00  0.00     0.022 A 
BRANCH 109 112
ATOM    112  S   UNL A   1      42.499  41.842  31.224  1.00  0.00     0.127 S 
ATOM    113  O   UNL A   1      43.286  42.050  30.009  1.00  0.00    -0.237 OA
ATOM    114  O   UNL A   1      41.147  41.332  30.995  1.00  0.00    -0.237 OA
ATOM    115  O   UNL A   1      42.581  42.910  32.211  1.00  0.00    -0.744 OA
ENDBRANCH 109 112
ENDBRANCH  82 105
ENDBRANCH  56  57
ENDBRANCH  49  51
ENDBRANCH  48  49
ENDBRANCH  47  48
ENDBRANCH  46  47
ENDBRANCH  45  46
ENDBRANCH  44  45
ENDBRANCH  43  44
ENDBRANCH  42  43
ENDBRANCH  41  42
ENDBRANCH   1  41
TORSDOF 33
ENDMDL
MODEL 3
REMARK VINA RESULT:      -7.2      2.868      3.977
REMARK SMILES CC(C)C[C@H](NC(=O)[C@@H](NC(=O)[C@H](C)NC(=O)CNC(=O)OCc1ccccc1)C(C)C)C(=O)OCCOCCOCCOC(=O)c1ccc(-c2c3nc(c(-c4cccc(S(=O)(=O)[O-])c4F)c4ccc([nH]4)c(-c4cccc(S(=O)(=O)[O-])c4F)c4nc(c(-c5cccc(S(=O)(=O)[O-])c5F)c5ccc2[nH]5)C=C4)C=C3)cc1
REMARK SMILES IDX 36 1 35 2 33 3 34 4 5 5 4 6 2 7 1 8 3 9 6 10 7 11 8 13 9 14
REMARK SMILES IDX 10 15 11 16 12 18 13 19 14 20 15 21 16 22 17 24 18 25 19 26
REMARK SMILES IDX 20 27 21 29 22 30 23 31 24 32 25 33 29 34 26 35 28 36 27 37
REMARK SMILES IDX 30 38 31 39 32 40 37 41 38 42 39 43 40 44 41 45 42 46 43 47
REMARK SMILES IDX 44 48 45 49 46 50 47 51 48 52 109 53 49 54 108 55 50 56
REMARK SMILES IDX 51 57 52 58 102 59 53 60 107 61 101 62 103 63 54 64 106 65
REMARK SMILES IDX 100 66 99 67 55 69 87 70 67 71 86 72 68 73 71 74 85 75
REMARK SMILES IDX 104 76 69 77 70 78 84 80 105 81 72 82 56 83 57 84 65 85
REMARK SMILES IDX 58 86 60 87 66 88 59 89 61 90 62 91 63 92 64 93 88 94 89 95
REMARK SMILES IDX 97 96 90 97 92 98 98 99 91 100 93 101 94 102 95 103 96 104
REMARK SMILES IDX 73 105 74 106 82 107 75 108 77 109 83 110 76 111 78 112
REMARK SMILES IDX 79 113 80 114 81 115
REMARK H PARENT 6 12 10 17 15 23 19 28 103 68 71 79
REMARK Flexibility Score: inf
ROOT
ATOM      1  C   UNL A   1      37.627  22.332  25.359  1.00  0.00     0.261 C 
ENDROOT
BRANCH   1   2
ATOM      2  O   UNL A   1      36.221  22.005  25.323  1.00  0.00    -0.462 OA
BRANCH   2   3
ATOM      3  C   UNL A   1      35.398  23.032  25.631  1.00  0.00     0.328 C 
ATOM      4  O   UNL A   1      35.809  24.124  26.008  1.00  0.00    -0.250 OA
BRANCH   3   5
ATOM      5  C   UNL A   1      33.893  22.682  25.565  1.00  0.00     0.192 C 
BRANCH   5   6
ATOM      6  C   UNL A   1      33.533  22.302  24.127  1.00  0.00     0.040 C 
BRANCH   6   7
ATOM      7  C   UNL A   1      32.370  21.330  23.862  1.00  0.00    -0.015 C 
ATOM      8  C   UNL A   1      31.955  21.257  22.385  1.00  0.00     0.007 C 
ATOM      9  C   UNL A   1      32.788  19.936  24.335  1.00  0.00     0.007 C 
ENDBRANCH   6   7
ENDBRANCH   5   6
BRANCH   5  10
ATOM     10  N   UNL A   1      32.963  23.707  26.104  1.00  0.00    -0.341 N 
ATOM     11  C   UNL A   1      32.069  24.594  25.579  1.00  0.00     0.243 C 
ATOM     12  H   UNL A   1      33.000  23.758  27.086  1.00  0.00     0.164 HD
ATOM     13  O   UNL A   1      31.238  25.025  26.393  1.00  0.00    -0.273 OA
BRANCH  11  14
ATOM     14  C   UNL A   1      31.957  25.099  24.087  1.00  0.00     0.174 C 
BRANCH  14  15
ATOM     15  N   UNL A   1      30.741  25.870  23.761  1.00  0.00    -0.342 N 
ATOM     16  C   UNL A   1      30.247  27.130  23.868  1.00  0.00     0.242 C 
ATOM     17  H   UNL A   1      30.077  25.284  23.330  1.00  0.00     0.164 HD
ATOM     18  O   UNL A   1      29.156  27.290  23.299  1.00  0.00    -0.273 OA
BRANCH  16  19
ATOM     19  C   UNL A   1      30.951  28.333  24.552  1.00  0.00     0.168 C 
ATOM     20  C   UNL A   1      32.268  28.822  23.979  1.00  0.00     0.041 C 
BRANCH  19  21
ATOM     21  N   UNL A   1      31.210  28.028  25.967  1.00  0.00    -0.343 N 
ATOM     22  C   UNL A   1      32.222  28.323  26.818  1.00  0.00     0.240 C 
ATOM     23  H   UNL A   1      30.496  27.497  26.385  1.00  0.00     0.164 HD
ATOM     24  O   UNL A   1      32.131  27.857  27.959  1.00  0.00    -0.273 OA
BRANCH  22  25
ATOM     25  C   UNL A   1      33.327  29.330  26.499  1.00  0.00     0.219 C 
BRANCH  25  26
ATOM     26  N   UNL A   1      33.232  30.642  27.096  1.00  0.00    -0.312 N 
ATOM     27  C   UNL A   1      34.239  31.305  27.739  1.00  0.00     0.407 C 
ATOM     28  H   UNL A   1      32.363  31.099  27.034  1.00  0.00     0.167 HD
ATOM     29  O   UNL A   1      34.031  32.338  28.335  1.00  0.00    -0.225 OA
BRANCH  27  30
ATOM     30  O   UNL A   1      35.424  30.648  27.660  1.00  0.00    -0.445 OA
BRANCH  30  31
ATOM     31  C   UNL A   1      35.968  30.148  28.889  1.00  0.00     0.270 C 
BRANCH  31  32
ATOM     32  C   UNL A   1      37.313  29.470  28.784  1.00  0.00    -0.011 A 
ATOM     33  C   UNL A   1      37.788  28.588  29.763  1.00  0.00     0.007 A 
ATOM     34  C   UNL A   1      38.108  29.714  27.653  1.00  0.00     0.007 A 
ATOM     35  C   UNL A   1      38.998  27.917  29.587  1.00  0.00     0.000 A 
ATOM     36  C   UNL A   1      39.327  29.058  27.488  1.00  0.00     0.000 A 
ATOM     37  C   UNL A   1      39.765  28.150  28.449  1.00  0.00     0.000 A 
ENDBRANCH  31  32
ENDBRANCH  30  31
ENDBRANCH  27  30
ENDBRANCH  25  26
ENDBRANCH  22  25
ENDBRANCH  19  21
ENDBRANCH  16  19
ENDBRANCH  14  15
BRANCH  14  38
ATOM     38  C   UNL A   1      33.286  25.502  23.375  1.00  0.00     0.015 C 
ATOM     39  C   UNL A   1      33.093  26.148  21.996  1.00  0.00     0.010 C 
ATOM     40  C   UNL A   1      34.135  26.485  24.195  1.00  0.00     0.010 C 
ENDBRANCH  14  38
ENDBRANCH  11  14
ENDBRANCH   5  10
ENDBRANCH   3   5
ENDBRANCH   2   3
ENDBRANCH   1   2
BRANCH   1  41
ATOM     41  C   UNL A   1      38.617  21.153  25.408  1.00  0.00     0.202 C 
BRANCH  41  42
ATOM     42  O   UNL A   1      39.907  21.478  25.907  1.00  0.00    -0.376 OA
BRANCH  42  43
ATOM     43  C   UNL A   1      40.395  20.601  26.912  1.00  0.00     0.188 C 
BRANCH  43  44
ATOM     44  C   UNL A   1      41.928  20.570  27.035  1.00  0.00     0.188 C 
BRANCH  44  45
ATOM     45  O   UNL A   1      42.711  21.659  26.574  1.00  0.00    -0.376 OA
BRANCH  45  46
ATOM     46  C   UNL A   1      43.461  21.493  25.375  1.00  0.00     0.202 C 
BRANCH  46  47
ATOM     47  C   UNL A   1      44.997  21.666  25.360  1.00  0.00     0.261 C 
BRANCH  47  48
ATOM     48  O   UNL A   1      45.511  22.879  25.932  1.00  0.00    -0.460 OA
BRANCH  48  49
ATOM     49  C   UNL A   1      45.999  23.785  25.046  1.00  0.00     0.338 C 
ATOM     50  O   UNL A   1      46.266  23.592  23.873  1.00  0.00    -0.246 OA
BRANCH  49  51
ATOM     51  C   UNL A   1      45.945  25.139  25.649  1.00  0.00     0.060 A 
ATOM     52  C   UNL A   1      46.756  25.391  26.767  1.00  0.00     0.016 A 
ATOM     53  C   UNL A   1      45.115  26.140  25.143  1.00  0.00     0.016 A 
ATOM     54  C   UNL A   1      46.728  26.635  27.396  1.00  0.00     0.010 A 
ATOM     55  C   UNL A   1      45.055  27.375  25.802  1.00  0.00     0.010 A 
ATOM     56  C   UNL A   1      45.837  27.615  26.947  1.00  0.00    -0.014 A 
BRANCH  56  57
ATOM     57  C   UNL A   1      45.550  28.783  27.816  1.00  0.00     0.031 A 
ATOM     58  C   UNL A   1      46.315  30.054  27.563  1.00  0.00     0.074 A 
ATOM     59  C   UNL A   1      44.637  28.730  28.802  1.00  0.00     0.049 A 
ATOM     60  N   UNL A   1      46.287  31.185  28.216  1.00  0.00    -0.248 NA
ATOM     61  C   UNL A   1      47.239  30.043  26.415  1.00  0.00     0.031 C 
ATOM     62  C   UNL A   1      43.812  27.572  29.135  1.00  0.00     0.029 A 
ATOM     63  N   UNL A   1      44.275  29.681  29.727  1.00  0.00    -0.354 N 
ATOM     64  C   UNL A   1      47.211  32.007  27.583  1.00  0.00     0.074 A 
ATOM     65  C   UNL A   1      47.785  31.247  26.495  1.00  0.00     0.031 C 
ATOM     66  C   UNL A   1      43.068  27.865  30.217  1.00  0.00     0.029 A 
ATOM     67  C   UNL A   1      43.383  29.221  30.667  1.00  0.00     0.049 A 
ATOM     68  H   UNL A   1      44.622  30.602  29.717  1.00  0.00     0.167 HD
ATOM     69  C   UNL A   1      47.550  33.285  27.874  1.00  0.00     0.034 A 
ATOM     70  C   UNL A   1      42.902  29.817  31.778  1.00  0.00     0.034 A 
ATOM     71  C   UNL A   1      46.973  34.048  28.945  1.00  0.00     0.049 A 
ATOM     72  C   UNL A   1      43.321  31.230  32.102  1.00  0.00     0.074 A 
ATOM     73  C   UNL A   1      47.222  35.364  29.294  1.00  0.00     0.029 A 
ATOM     74  N   UNL A   1      46.044  33.563  29.850  1.00  0.00    -0.354 N 
ATOM     75  N   UNL A   1      44.111  32.033  31.431  1.00  0.00    -0.248 NA
ATOM     76  C   UNL A   1      42.756  31.829  33.322  1.00  0.00     0.031 C 
ATOM     77  C   UNL A   1      46.462  35.665  30.428  1.00  0.00     0.029 A 
ATOM     78  C   UNL A   1      45.717  34.546  30.767  1.00  0.00     0.049 A 
ATOM     79  H   UNL A   1      45.671  32.651  29.843  1.00  0.00     0.167 HD
ATOM     80  C   UNL A   1      44.110  33.240  32.126  1.00  0.00     0.074 A 
ATOM     81  C   UNL A   1      43.226  33.068  33.258  1.00  0.00     0.031 C 
ATOM     82  C   UNL A   1      44.790  34.383  31.856  1.00  0.00     0.034 A 
BRANCH  69  83
ATOM     83  C   UNL A   1      48.591  33.942  27.009  1.00  0.00     0.023 A 
ATOM     84  C   UNL A   1      48.197  34.644  25.852  1.00  0.00     0.012 A 
ATOM     85  C   UNL A   1      49.953  33.901  27.365  1.00  0.00     0.148 A 
ATOM     86  C   UNL A   1      49.146  35.271  25.045  1.00  0.00     0.002 A 
ATOM     87  C   UNL A   1      50.888  34.566  26.581  1.00  0.00     0.091 A 
ATOM     88  F   UNL A   1      50.308  33.204  28.453  1.00  0.00    -0.205 F 
ATOM     89  C   UNL A   1      50.489  35.241  25.417  1.00  0.00     0.022 A 
BRANCH  87  90
ATOM     90  S   UNL A   1      52.628  34.649  27.016  1.00  0.00     0.127 S 
ATOM     91  O   UNL A   1      53.082  35.774  26.199  1.00  0.00    -0.237 OA
ATOM     92  O   UNL A   1      52.573  34.921  28.453  1.00  0.00    -0.237 OA
ATOM     93  O   UNL A   1      53.193  33.353  26.665  1.00  0.00    -0.744 OA
ENDBRANCH  87  90
ENDBRANCH  69  83
BRANCH  70  94
ATOM     94  C   UNL A   1      41.953  29.086  32.666  1.00  0.00     0.023 A 
ATOM     95  C   UNL A   1      40.568  29.167  32.422  1.00  0.00     0.012 A 
ATOM     96  C   UNL A   1      42.415  28.311  33.748  1.00  0.00     0.148 A 
ATOM     97  C   UNL A   1      39.659  28.515  33.257  1.00  0.00     0.002 A 
ATOM     98  C   UNL A   1      41.509  27.619  34.541  1.00  0.00     0.091 A 
ATOM     99  F   UNL A   1      43.735  28.264  33.975  1.00  0.00    -0.205 F 
ATOM    100  C   UNL A   1      40.129  27.733  34.309  1.00  0.00     0.022 A 
BRANCH  98 101
ATOM    101  S   UNL A   1      42.029  26.493  35.840  1.00  0.00     0.127 S 
ATOM    102  O   UNL A   1      40.774  25.829  36.182  1.00  0.00    -0.237 OA
ATOM    103  O   UNL A   1      43.001  25.654  35.139  1.00  0.00    -0.237 OA
ATOM    104  O   UNL A   1      42.604  27.334  36.882  1.00  0.00    -0.744 OA
ENDBRANCH  98 101
ENDBRANCH  70  94
BRANCH  82 105
ATOM    105  C   UNL A   1      44.579  35.563  32.771  1.00  0.00     0.023 A 
ATOM    106  C   UNL A   1      43.568  36.501  32.486  1.00  0.00     0.012 A 
ATOM    107  C   UNL A   1      45.326  35.691  33.960  1.00  0.00     0.148 A 
ATOM    108  C   UNL A   1      43.324  37.565  33.355  1.00  0.00     0.002 A 
ATOM    109  C   UNL A   1      45.044  36.725  34.845  1.00  0.00     0.091 A 
ATOM    110  F   UNL A   1      46.294  34.796  34.205  1.00  0.00    -0.205 F 
ATOM    111  C   UNL A   1      44.052  37.670  34.538  1.00  0.00     0.022 A 
BRANCH 109 112
ATOM    112  S   UNL A   1      45.863  36.880  36.436  1.00  0.00     0.127 S 
ATOM    113  O   UNL A   1      44.848  37.576  37.227  1.00  0.00    -0.237 OA
ATOM    114  O   UNL A   1      46.077  35.483  36.814  1.00  0.00    -0.237 OA
ATOM    115  O   UNL A   1      47.085  37.632  36.187  1.00  0.00    -0.744 OA
ENDBRANCH 109 112
ENDBRANCH  82 105
ENDBRANCH  56  57
ENDBRANCH  49  51
ENDBRANCH  48  49
ENDBRANCH  47  48
ENDBRANCH  46  47
ENDBRANCH  45  46
ENDBRANCH  44  45
ENDBRANCH  43  44
ENDBRANCH  42  43
ENDBRANCH  41  42
ENDBRANCH   1  41
TORSDOF 33
ENDMDL
