MODEL 1
REMARK VINA RESULT:      -9.2      0.000      0.000
REMARK SMILES CCC(C)(C)[C@H]1CC[C@H](C(=O)OCCOCCOCCOC(=O)c2ccc(-c3c4nc(c(-c5cccc(S(=O)(=O)[O-])c5F)c5ccc([nH]5)c(-c5cccc(S(=O)(=O)[O-])c5F)c5nc(c(-c6cccc(S(=O)(=O)[O-])c6F)c6ccc3[nH]6)C=C5)C=C4)cc2)[C@H](SC[C@@H](C)CO)C1
REMARK SMILES IDX 16 1 15 2 14 3 13 4 12 5 10 6 11 7 9 8 6 9 7 10 94 11 8 12
REMARK SMILES IDX 87 13 3 14 4 15 5 16 2 17 1 18 88 19 89 20 90 21 91 22 92 23
REMARK SMILES IDX 93 24 17 26 18 27 19 28 20 29 21 30 22 31 23 32 24 33 25 34
REMARK SMILES IDX 86 35 26 36 85 37 27 38 28 39 29 40 79 41 30 42 84 43 78 44
REMARK SMILES IDX 80 45 31 46 83 47 77 48 76 49 32 51 64 52 44 53 63 54 45 55
REMARK SMILES IDX 48 56 62 57 81 58 46 59 47 60 61 62 82 63 49 64 33 65 34 66
REMARK SMILES IDX 42 67 35 68 37 69 43 70 36 71 38 72 39 73 40 74 41 75 65 76
REMARK SMILES IDX 66 77 74 78 67 79 69 80 75 81 68 82 70 83 71 84 72 85 73 86
REMARK SMILES IDX 50 87 51 88 59 89 52 90 54 91 60 92 53 93 55 94 56 95 57 96
REMARK SMILES IDX 58 97
REMARK H PARENT 93 25 80 50 48 61
REMARK Flexibility Score: inf
ROOT
ATOM      1  C   UNL A   1      39.886  21.668  26.512  1.00  0.00     0.188 C 
ENDROOT
BRANCH   1   2
ATOM      2  O   UNL A   1      39.727  23.078  26.477  1.00  0.00    -0.376 OA
BRANCH   2   3
ATOM      3  C   UNL A   1      38.411  23.604  26.464  1.00  0.00     0.202 C 
BRANCH   3   4
ATOM      4  C   UNL A   1      37.396  23.030  25.471  1.00  0.00     0.261 C 
BRANCH   4   5
ATOM      5  O   UNL A   1      36.038  22.748  25.899  1.00  0.00    -0.463 OA
BRANCH   5   6
ATOM      6  C   UNL A   1      35.043  23.155  25.057  1.00  0.00     0.310 C 
ATOM      7  O   UNL A   1      35.006  22.870  23.865  1.00  0.00    -0.252 OA
BRANCH   6   8
ATOM      8  C   UNL A   1      34.002  24.069  25.681  1.00  0.00     0.112 C 
ATOM      9  C   UNL A   1      32.032  25.790  24.076  1.00  0.00    -0.004 C 
ATOM     10  C   UNL A   1      33.541  26.101  24.166  1.00  0.00     0.005 C 
ATOM     11  C   UNL A   1      31.873  24.261  24.221  1.00  0.00     0.019 C 
ATOM     12  C   UNL A   1      34.184  25.587  25.448  1.00  0.00     0.017 C 
ATOM     13  C   UNL A   1      32.545  23.642  25.461  1.00  0.00     0.061 C 
BRANCH   9  14
ATOM     14  C   UNL A   1      31.027  26.726  24.893  1.00  0.00    -0.033 C 
ATOM     15  C   UNL A   1      29.586  26.200  24.663  1.00  0.00     0.011 C 
ATOM     16  C   UNL A   1      31.048  28.165  24.310  1.00  0.00     0.011 C 
BRANCH  14  17
ATOM     17  C   UNL A   1      31.263  26.879  26.427  1.00  0.00     0.003 C 
ATOM     18  C   UNL A   1      31.881  28.182  26.935  1.00  0.00     0.004 C 
ENDBRANCH  14  17
ENDBRANCH   9  14
BRANCH  13  19
ATOM     19  S   UNL A   1      31.966  21.909  25.822  1.00  0.00    -0.157 SA
BRANCH  19  20
ATOM     20  C   UNL A   1      32.114  20.928  24.285  1.00  0.00     0.075 C 
BRANCH  20  21
ATOM     21  C   UNL A   1      32.709  19.511  24.390  1.00  0.00     0.021 C 
ATOM     22  C   UNL A   1      32.494  18.641  23.157  1.00  0.00     0.011 C 
BRANCH  21  23
ATOM     23  C   UNL A   1      34.218  19.562  24.693  1.00  0.00     0.160 C 
BRANCH  23  24
ATOM     24  O   UNL A   1      34.775  18.264  24.821  1.00  0.00    -0.396 OA
ATOM     25  H   UNL A   1      35.738  18.333  24.906  1.00  0.00     0.210 HD
ENDBRANCH  23  24
ENDBRANCH  21  23
ENDBRANCH  20  21
ENDBRANCH  19  20
ENDBRANCH  13  19
ENDBRANCH   6   8
ENDBRANCH   5   6
ENDBRANCH   4   5
ENDBRANCH   3   4
ENDBRANCH   2   3
ENDBRANCH   1   2
BRANCH   1  26
ATOM     26  C   UNL A   1      40.896  21.100  27.520  1.00  0.00     0.188 C 
BRANCH  26  27
ATOM     27  O   UNL A   1      40.921  19.692  27.612  1.00  0.00    -0.376 OA
BRANCH  27  28
ATOM     28  C   UNL A   1      42.181  19.063  27.483  1.00  0.00     0.202 C 
BRANCH  28  29
ATOM     29  C   UNL A   1      42.572  18.479  26.115  1.00  0.00     0.261 C 
BRANCH  29  30
ATOM     30  O   UNL A   1      42.853  19.412  25.055  1.00  0.00    -0.460 OA
BRANCH  30  31
ATOM     31  C   UNL A   1      44.105  19.929  24.951  1.00  0.00     0.338 C 
ATOM     32  O   UNL A   1      45.041  19.435  24.365  1.00  0.00    -0.246 OA
BRANCH  31  33
ATOM     33  C   UNL A   1      44.035  21.346  25.427  1.00  0.00     0.060 A 
ATOM     34  C   UNL A   1      43.519  22.329  24.565  1.00  0.00     0.016 A 
ATOM     35  C   UNL A   1      44.388  21.688  26.735  1.00  0.00     0.016 A 
ATOM     36  C   UNL A   1      43.387  23.653  24.998  1.00  0.00     0.010 A 
ATOM     37  C   UNL A   1      44.279  23.018  27.157  1.00  0.00     0.010 A 
ATOM     38  C   UNL A   1      43.814  24.016  26.280  1.00  0.00    -0.014 A 
BRANCH  38  39
ATOM     39  C   UNL A   1      44.023  25.448  26.623  1.00  0.00     0.031 A 
ATOM     40  C   UNL A   1      45.407  26.015  26.436  1.00  0.00     0.074 A 
ATOM     41  C   UNL A   1      43.041  26.233  27.105  1.00  0.00     0.049 A 
ATOM     42  N   UNL A   1      45.874  27.197  26.740  1.00  0.00    -0.248 NA
ATOM     43  C   UNL A   1      46.401  25.114  25.826  1.00  0.00     0.031 C 
ATOM     44  C   UNL A   1      41.654  25.828  27.319  1.00  0.00     0.029 A 
ATOM     45  N   UNL A   1      43.081  27.541  27.534  1.00  0.00    -0.354 N 
ATOM     46  C   UNL A   1      47.219  27.171  26.395  1.00  0.00     0.074 A 
ATOM     47  C   UNL A   1      47.498  25.854  25.868  1.00  0.00     0.031 C 
ATOM     48  C   UNL A   1      40.984  26.853  27.878  1.00  0.00     0.029 A 
ATOM     49  C   UNL A   1      41.898  27.976  28.087  1.00  0.00     0.049 A 
ATOM     50  H   UNL A   1      43.879  28.111  27.453  1.00  0.00     0.167 HD
ATOM     51  C   UNL A   1      48.144  28.155  26.493  1.00  0.00     0.034 A 
ATOM     52  C   UNL A   1      41.600  29.132  28.717  1.00  0.00     0.034 A 
ATOM     53  C   UNL A   1      47.873  29.468  27.008  1.00  0.00     0.049 A 
ATOM     54  C   UNL A   1      42.657  30.202  28.854  1.00  0.00     0.074 A 
ATOM     55  C   UNL A   1      48.737  30.543  27.114  1.00  0.00     0.029 A 
ATOM     56  N   UNL A   1      46.654  29.881  27.520  1.00  0.00    -0.354 N 
ATOM     57  N   UNL A   1      43.898  30.201  28.428  1.00  0.00    -0.248 NA
ATOM     58  C   UNL A   1      42.264  31.447  29.534  1.00  0.00     0.031 C 
ATOM     59  C   UNL A   1      48.051  31.597  27.724  1.00  0.00     0.029 A 
ATOM     60  C   UNL A   1      46.746  31.192  27.956  1.00  0.00     0.049 A 
ATOM     61  H   UNL A   1      45.844  29.326  27.567  1.00  0.00     0.167 HD
ATOM     62  C   UNL A   1      44.416  31.452  28.751  1.00  0.00     0.074 A 
ATOM     63  C   UNL A   1      43.351  32.192  29.392  1.00  0.00     0.031 C 
ATOM     64  C   UNL A   1      45.665  31.941  28.543  1.00  0.00     0.034 A 
BRANCH  51  65
ATOM     65  C   UNL A   1      49.541  27.845  26.023  1.00  0.00     0.023 A 
ATOM     66  C   UNL A   1      49.901  28.090  24.682  1.00  0.00     0.012 A 
ATOM     67  C   UNL A   1      50.508  27.350  26.919  1.00  0.00     0.148 A 
ATOM     68  C   UNL A   1      51.191  27.812  24.231  1.00  0.00     0.002 A 
ATOM     69  C   UNL A   1      51.805  27.124  26.475  1.00  0.00     0.091 A 
ATOM     70  F   UNL A   1      50.139  27.101  28.184  1.00  0.00    -0.205 F 
ATOM     71  C   UNL A   1      52.144  27.342  25.130  1.00  0.00     0.022 A 
BRANCH  69  72
ATOM     72  S   UNL A   1      53.125  26.594  27.570  1.00  0.00     0.127 S 
ATOM     73  O   UNL A   1      52.438  26.545  28.860  1.00  0.00    -0.237 OA
ATOM     74  O   UNL A   1      53.476  25.287  27.015  1.00  0.00    -0.237 OA
ATOM     75  O   UNL A   1      54.170  27.604  27.459  1.00  0.00    -0.744 OA
ENDBRANCH  69  72
ENDBRANCH  51  65
BRANCH  52  76
ATOM     76  C   UNL A   1      40.229  29.356  29.268  1.00  0.00     0.023 A 
ATOM     77  C   UNL A   1      39.224  29.898  28.442  1.00  0.00     0.012 A 
ATOM     78  C   UNL A   1      39.924  29.050  30.608  1.00  0.00     0.148 A 
ATOM     79  C   UNL A   1      37.951  30.161  28.950  1.00  0.00     0.002 A 
ATOM     80  C   UNL A   1      38.638  29.260  31.092  1.00  0.00     0.091 A 
ATOM     81  F   UNL A   1      40.899  28.556  31.384  1.00  0.00    -0.205 F 
ATOM     82  C   UNL A   1      37.654  29.833  30.270  1.00  0.00     0.022 A 
BRANCH  80  83
ATOM     83  S   UNL A   1      38.132  28.765  32.743  1.00  0.00     0.127 S 
ATOM     84  O   UNL A   1      39.129  29.433  33.575  1.00  0.00    -0.237 OA
ATOM     85  O   UNL A   1      36.784  29.327  32.824  1.00  0.00    -0.237 OA
ATOM     86  O   UNL A   1      38.179  27.310  32.750  1.00  0.00    -0.744 OA
ENDBRANCH  80  83
ENDBRANCH  52  76
BRANCH  64  87
ATOM     87  C   UNL A   1      45.950  33.363  28.958  1.00  0.00     0.023 A 
ATOM     88  C   UNL A   1      46.341  33.653  30.280  1.00  0.00     0.012 A 
ATOM     89  C   UNL A   1      45.908  34.405  28.008  1.00  0.00     0.148 A 
ATOM     90  C   UNL A   1      46.652  34.960  30.658  1.00  0.00     0.002 A 
ATOM     91  C   UNL A   1      46.271  35.695  28.377  1.00  0.00     0.091 A 
ATOM     92  F   UNL A   1      45.522  34.114  26.757  1.00  0.00    -0.205 F 
ATOM     93  C   UNL A   1      46.629  35.977  29.705  1.00  0.00     0.022 A 
BRANCH  91  94
ATOM     94  S   UNL A   1      46.368  37.047  27.198  1.00  0.00     0.127 S 
ATOM     95  O   UNL A   1      47.295  37.959  27.867  1.00  0.00    -0.237 OA
ATOM     96  O   UNL A   1      46.914  36.384  26.013  1.00  0.00    -0.237 OA
ATOM     97  O   UNL A   1      45.008  37.544  27.042  1.00  0.00    -0.744 OA
ENDBRANCH  91  94
ENDBRANCH  64  87
ENDBRANCH  38  39
ENDBRANCH  31  33
ENDBRANCH  30  31
ENDBRANCH  29  30
ENDBRANCH  28  29
ENDBRANCH  27  28
ENDBRANCH  26  27
ENDBRANCH   1  26
TORSDOF 27
ENDMDL
MODEL 2
REMARK VINA RESULT:      -9.2      5.173      8.711
REMARK SMILES CCC(C)(C)[C@H]1CC[C@H](C(=O)OCCOCCOCCOC(=O)c2ccc(-c3c4nc(c(-c5cccc(S(=O)(=O)[O-])c5F)c5ccc([nH]5)c(-c5cccc(S(=O)(=O)[O-])c5F)c5nc(c(-c6cccc(S(=O)(=O)[O-])c6F)c6ccc3[nH]6)C=C5)C=C4)cc2)[C@H](SC[C@@H](C)CO)C1
REMARK SMILES IDX 16 1 15 2 14 3 13 4 12 5 10 6 11 7 9 8 6 9 7 10 94 11 8 12
REMARK SMILES IDX 87 13 3 14 4 15 5 16 2 17 1 18 88 19 89 20 90 21 91 22 92 23
REMARK SMILES IDX 93 24 17 26 18 27 19 28 20 29 21 30 22 31 23 32 24 33 25 34
REMARK SMILES IDX 86 35 26 36 85 37 27 38 28 39 29 40 79 41 30 42 84 43 78 44
REMARK SMILES IDX 80 45 31 46 83 47 77 48 76 49 32 51 64 52 44 53 63 54 45 55
REMARK SMILES IDX 48 56 62 57 81 58 46 59 47 60 61 62 82 63 49 64 33 65 34 66
REMARK SMILES IDX 42 67 35 68 37 69 43 70 36 71 38 72 39 73 40 74 41 75 65 76
REMARK SMILES IDX 66 77 74 78 67 79 69 80 75 81 68 82 70 83 71 84 72 85 73 86
REMARK SMILES IDX 50 87 51 88 59 89 52 90 54 91 60 92 53 93 55 94 56 95 57 96
REMARK SMILES IDX 58 97
REMARK H PARENT 93 25 80 50 48 61
REMARK Flexibility Score: inf
ROOT
ATOM      1  C   UNL A   1      31.372  26.509  22.085  1.00  0.00     0.188 C 
ENDROOT
BRANCH   1   2
ATOM      2  O   UNL A   1      30.388  27.144  22.886  1.00  0.00    -0.376 OA
BRANCH   2   3
ATOM      3  C   UNL A   1      29.710  26.366  23.858  1.00  0.00     0.202 C 
BRANCH   3   4
ATOM      4  C   UNL A   1      30.285  25.000  24.242  1.00  0.00     0.261 C 
BRANCH   4   5
ATOM      5  O   UNL A   1      31.262  24.896  25.311  1.00  0.00    -0.463 OA
BRANCH   5   6
ATOM      6  C   UNL A   1      31.840  23.671  25.483  1.00  0.00     0.310 C 
ATOM      7  O   UNL A   1      31.380  22.802  26.217  1.00  0.00    -0.252 OA
BRANCH   6   8
ATOM      8  C   UNL A   1      33.159  23.471  24.757  1.00  0.00     0.112 C 
ATOM      9  C   UNL A   1      35.666  22.248  26.038  1.00  0.00    -0.004 C 
ATOM     10  C   UNL A   1      35.141  23.656  26.392  1.00  0.00     0.005 C 
ATOM     11  C   UNL A   1      34.444  21.398  25.625  1.00  0.00     0.019 C 
ATOM     12  C   UNL A   1      34.360  24.307  25.258  1.00  0.00     0.017 C 
ATOM     13  C   UNL A   1      33.558  22.007  24.523  1.00  0.00     0.061 C 
BRANCH   9  14
ATOM     14  C   UNL A   1      36.984  22.146  25.141  1.00  0.00    -0.033 C 
ATOM     15  C   UNL A   1      38.131  22.876  25.886  1.00  0.00     0.011 C 
ATOM     16  C   UNL A   1      36.784  22.923  23.811  1.00  0.00     0.011 C 
BRANCH  14  17
ATOM     17  C   UNL A   1      37.478  20.722  24.736  1.00  0.00     0.003 C 
ATOM     18  C   UNL A   1      38.672  20.132  25.488  1.00  0.00     0.004 C 
ENDBRANCH  14  17
ENDBRANCH   9  14
BRANCH  13  19
ATOM     19  S   UNL A   1      32.381  20.780  23.764  1.00  0.00    -0.157 SA
BRANCH  19  20
ATOM     20  C   UNL A   1      32.607  19.175  24.614  1.00  0.00     0.075 C 
BRANCH  20  21
ATOM     21  C   UNL A   1      32.724  17.910  23.744  1.00  0.00     0.021 C 
ATOM     22  C   UNL A   1      32.441  18.131  22.263  1.00  0.00     0.011 C 
BRANCH  21  23
ATOM     23  C   UNL A   1      34.117  17.266  23.882  1.00  0.00     0.160 C 
BRANCH  23  24
ATOM     24  O   UNL A   1      34.998  18.073  24.645  1.00  0.00    -0.396 OA
ATOM     25  H   UNL A   1      35.219  18.873  24.144  1.00  0.00     0.210 HD
ENDBRANCH  23  24
ENDBRANCH  21  23
ENDBRANCH  20  21
ENDBRANCH  19  20
ENDBRANCH  13  19
ENDBRANCH   6   8
ENDBRANCH   5   6
ENDBRANCH   4   5
ENDBRANCH   3   4
ENDBRANCH   2   3
ENDBRANCH   1   2
BRANCH   1  26
ATOM     26  C   UNL A   1      32.837  26.897  22.332  1.00  0.00     0.188 C 
BRANCH  26  27
ATOM     27  O   UNL A   1      33.184  27.089  23.686  1.00  0.00    -0.376 OA
BRANCH  27  28
ATOM     28  C   UNL A   1      33.551  28.400  24.075  1.00  0.00     0.202 C 
BRANCH  28  29
ATOM     29  C   UNL A   1      32.838  29.032  25.282  1.00  0.00     0.261 C 
BRANCH  29  30
ATOM     30  O   UNL A   1      33.207  30.377  25.636  1.00  0.00    -0.460 OA
BRANCH  30  31
ATOM     31  C   UNL A   1      33.149  30.753  26.940  1.00  0.00     0.338 C 
ATOM     32  O   UNL A   1      32.147  30.911  27.600  1.00  0.00    -0.246 OA
BRANCH  31  33
ATOM     33  C   UNL A   1      34.535  30.640  27.491  1.00  0.00     0.060 A 
ATOM     34  C   UNL A   1      35.092  29.363  27.677  1.00  0.00     0.016 A 
ATOM     35  C   UNL A   1      35.310  31.775  27.737  1.00  0.00     0.016 A 
ATOM     36  C   UNL A   1      36.406  29.221  28.137  1.00  0.00     0.010 A 
ATOM     37  C   UNL A   1      36.616  31.632  28.223  1.00  0.00     0.010 A 
ATOM     38  C   UNL A   1      37.160  30.356  28.462  1.00  0.00    -0.014 A 
BRANCH  38  39
ATOM     39  C   UNL A   1      38.394  30.227  29.281  1.00  0.00     0.031 A 
ATOM     40  C   UNL A   1      39.513  29.383  28.726  1.00  0.00     0.074 A 
ATOM     41  C   UNL A   1      38.533  30.811  30.486  1.00  0.00     0.049 A 
ATOM     42  N   UNL A   1      40.649  29.038  29.273  1.00  0.00    -0.248 NA
ATOM     43  C   UNL A   1      39.314  28.850  27.368  1.00  0.00     0.031 C 
ATOM     44  C   UNL A   1      37.546  31.668  31.137  1.00  0.00     0.029 A 
ATOM     45  N   UNL A   1      39.566  30.737  31.393  1.00  0.00    -0.354 N 
ATOM     46  C   UNL A   1      41.282  28.222  28.345  1.00  0.00     0.074 A 
ATOM     47  C   UNL A   1      40.400  28.112  27.204  1.00  0.00     0.031 C 
ATOM     48  C   UNL A   1      38.002  32.008  32.357  1.00  0.00     0.029 A 
ATOM     49  C   UNL A   1      39.299  31.371  32.585  1.00  0.00     0.049 A 
ATOM     50  H   UNL A   1      40.415  30.275  31.208  1.00  0.00     0.167 HD
ATOM     51  C   UNL A   1      42.493  27.623  28.422  1.00  0.00     0.034 A 
ATOM     52  C   UNL A   1      40.005  31.404  33.736  1.00  0.00     0.034 A 
ATOM     53  C   UNL A   1      43.378  27.733  29.548  1.00  0.00     0.049 A 
ATOM     54  C   UNL A   1      41.336  30.693  33.816  1.00  0.00     0.074 A 
ATOM     55  C   UNL A   1      44.641  27.191  29.703  1.00  0.00     0.029 A 
ATOM     56  N   UNL A   1      43.088  28.416  30.717  1.00  0.00    -0.354 N 
ATOM     57  N   UNL A   1      41.968  30.011  32.892  1.00  0.00    -0.248 NA
ATOM     58  C   UNL A   1      42.064  30.783  35.092  1.00  0.00     0.031 C 
ATOM     59  C   UNL A   1      45.102  27.515  30.982  1.00  0.00     0.029 A 
ATOM     60  C   UNL A   1      44.143  28.299  31.606  1.00  0.00     0.049 A 
ATOM     61  H   UNL A   1      42.256  28.911  30.891  1.00  0.00     0.167 HD
ATOM     62  C   UNL A   1      43.180  29.627  33.459  1.00  0.00     0.074 A 
ATOM     63  C   UNL A   1      43.203  30.169  34.801  1.00  0.00     0.031 C 
ATOM     64  C   UNL A   1      44.182  28.886  32.920  1.00  0.00     0.034 A 
BRANCH  51  65
ATOM     65  C   UNL A   1      42.935  26.795  27.243  1.00  0.00     0.023 A 
ATOM     66  C   UNL A   1      43.638  27.403  26.183  1.00  0.00     0.012 A 
ATOM     67  C   UNL A   1      42.691  25.409  27.206  1.00  0.00     0.148 A 
ATOM     68  C   UNL A   1      44.058  26.651  25.087  1.00  0.00     0.002 A 
ATOM     69  C   UNL A   1      43.157  24.657  26.135  1.00  0.00     0.091 A 
ATOM     70  F   UNL A   1      41.999  24.854  28.212  1.00  0.00    -0.205 F 
ATOM     71  C   UNL A   1      43.828  25.278  25.069  1.00  0.00     0.022 A 
BRANCH  69  72
ATOM     72  S   UNL A   1      42.982  22.872  26.054  1.00  0.00     0.127 S 
ATOM     73  O   UNL A   1      43.836  22.441  27.160  1.00  0.00    -0.237 OA
ATOM     74  O   UNL A   1      41.549  22.695  26.286  1.00  0.00    -0.237 OA
ATOM     75  O   UNL A   1      43.438  22.482  24.727  1.00  0.00    -0.744 OA
ENDBRANCH  69  72
ENDBRANCH  51  65
BRANCH  52  76
ATOM     76  C   UNL A   1      39.477  32.146  34.920  1.00  0.00     0.023 A 
ATOM     77  C   UNL A   1      38.499  31.550  35.741  1.00  0.00     0.012 A 
ATOM     78  C   UNL A   1      39.929  33.445  35.224  1.00  0.00     0.148 A 
ATOM     79  C   UNL A   1      37.958  32.246  36.823  1.00  0.00     0.002 A 
ATOM     80  C   UNL A   1      39.427  34.110  36.337  1.00  0.00     0.091 A 
ATOM     81  F   UNL A   1      40.842  34.005  34.419  1.00  0.00    -0.205 F 
ATOM     82  C   UNL A   1      38.428  33.520  37.128  1.00  0.00     0.022 A 
BRANCH  80  83
ATOM     83  S   UNL A   1      40.052  35.707  36.873  1.00  0.00     0.127 S 
ATOM     84  O   UNL A   1      41.493  35.473  36.893  1.00  0.00    -0.237 OA
ATOM     85  O   UNL A   1      39.584  36.586  35.802  1.00  0.00    -0.237 OA
ATOM     86  O   UNL A   1      39.437  35.956  38.169  1.00  0.00    -0.744 OA
ENDBRANCH  80  83
ENDBRANCH  52  76
BRANCH  64  87
ATOM     87  C   UNL A   1      45.420  28.654  33.750  1.00  0.00     0.023 A 
ATOM     88  C   UNL A   1      46.434  29.630  33.802  1.00  0.00     0.012 A 
ATOM     89  C   UNL A   1      45.536  27.497  34.549  1.00  0.00     0.148 A 
ATOM     90  C   UNL A   1      47.560  29.442  34.605  1.00  0.00     0.002 A 
ATOM     91  C   UNL A   1      46.634  27.342  35.388  1.00  0.00     0.091 A 
ATOM     92  F   UNL A   1      44.567  26.573  34.479  1.00  0.00    -0.205 F 
ATOM     93  C   UNL A   1      47.653  28.306  35.406  1.00  0.00     0.022 A 
BRANCH  91  94
ATOM     94  S   UNL A   1      46.791  25.962  36.527  1.00  0.00     0.127 S 
ATOM     95  O   UNL A   1      48.220  25.995  36.839  1.00  0.00    -0.237 OA
ATOM     96  O   UNL A   1      45.918  26.369  37.628  1.00  0.00    -0.237 OA
ATOM     97  O   UNL A   1      46.339  24.784  35.800  1.00  0.00    -0.744 OA
ENDBRANCH  91  94
ENDBRANCH  64  87
ENDBRANCH  38  39
ENDBRANCH  31  33
ENDBRANCH  30  31
ENDBRANCH  29  30
ENDBRANCH  28  29
ENDBRANCH  27  28
ENDBRANCH  26  27
ENDBRANCH   1  26
TORSDOF 27
ENDMDL
MODEL 3
REMARK VINA RESULT:      -9.1      4.989     10.013
REMARK SMILES CCC(C)(C)[C@H]1CC[C@H](C(=O)OCCOCCOCCOC(=O)c2ccc(-c3c4nc(c(-c5cccc(S(=O)(=O)[O-])c5F)c5ccc([nH]5)c(-c5cccc(S(=O)(=O)[O-])c5F)c5nc(c(-c6cccc(S(=O)(=O)[O-])c6F)c6ccc3[nH]6)C=C5)C=C4)cc2)[C@H](SC[C@@H](C)CO)C1
REMARK SMILES IDX 16 1 15 2 14 3 13 4 12 5 10 6 11 7 9 8 6 9 7 10 94 11 8 12
REMARK SMILES IDX 87 13 3 14 4 15 5 16 2 17 1 18 88 19 89 20 90 21 91 22 92 23
REMARK SMILES IDX 93 24 17 26 18 27 19 28 20 29 21 30 22 31 23 32 24 33 25 34
REMARK SMILES IDX 86 35 26 36 85 37 27 38 28 39 29 40 79 41 30 42 84 43 78 44
REMARK SMILES IDX 80 45 31 46 83 47 77 48 76 49 32 51 64 52 44 53 63 54 45 55
REMARK SMILES IDX 48 56 62 57 81 58 46 59 47 60 61 62 82 63 49 64 33 65 34 66
REMARK SMILES IDX 42 67 35 68 37 69 43 70 36 71 38 72 39 73 40 74 41 75 65 76
REMARK SMILES IDX 66 77 74 78 67 79 69 80 75 81 68 82 70 83 71 84 72 85 73 86
REMARK SMILES IDX 50 87 51 88 59 89 52 90 54 91 60 92 53 93 55 94 56 95 57 96
REMARK SMILES IDX 58 97
REMARK H PARENT 93 25 80 50 48 61
REMARK Flexibility Score: inf
ROOT
ATOM      1  C   UNL A   1      31.012  28.046  23.397  1.00  0.00     0.188 C 
ENDROOT
BRANCH   1   2
ATOM      2  O   UNL A   1      29.690  27.530  23.393  1.00  0.00    -0.376 OA
BRANCH   2   3
ATOM      3  C   UNL A   1      29.459  26.273  24.004  1.00  0.00     0.202 C 
BRANCH   3   4
ATOM      4  C   UNL A   1      30.612  25.268  24.086  1.00  0.00     0.261 C 
BRANCH   4   5
ATOM      5  O   UNL A   1      31.148  24.880  25.378  1.00  0.00    -0.463 OA
BRANCH   5   6
ATOM      6  C   UNL A   1      31.803  23.683  25.424  1.00  0.00     0.310 C 
ATOM      7  O   UNL A   1      31.337  22.675  25.944  1.00  0.00    -0.252 OA
BRANCH   6   8
ATOM      8  C   UNL A   1      33.210  23.693  24.850  1.00  0.00     0.112 C 
ATOM      9  C   UNL A   1      35.557  22.086  26.001  1.00  0.00    -0.004 C 
ATOM     10  C   UNL A   1      34.959  23.324  26.703  1.00  0.00     0.005 C 
ATOM     11  C   UNL A   1      34.418  21.430  25.190  1.00  0.00     0.019 C 
ATOM     12  C   UNL A   1      34.316  24.310  25.736  1.00  0.00     0.017 C 
ATOM     13  C   UNL A   1      33.669  22.368  24.227  1.00  0.00     0.061 C 
BRANCH   9  14
ATOM     14  C   UNL A   1      36.982  22.242  25.295  1.00  0.00    -0.033 C 
ATOM     15  C   UNL A   1      36.819  23.207  24.092  1.00  0.00     0.011 C 
ATOM     16  C   UNL A   1      37.427  20.884  24.688  1.00  0.00     0.011 C 
BRANCH  14  17
ATOM     17  C   UNL A   1      38.176  22.733  26.171  1.00  0.00     0.003 C 
ATOM     18  C   UNL A   1      38.523  24.222  26.149  1.00  0.00     0.004 C 
ENDBRANCH  14  17
ENDBRANCH   9  14
BRANCH  13  19
ATOM     19  S   UNL A   1      32.627  21.459  22.978  1.00  0.00    -0.157 SA
BRANCH  19  20
ATOM     20  C   UNL A   1      32.015  19.922  23.759  1.00  0.00     0.075 C 
BRANCH  20  21
ATOM     21  C   UNL A   1      33.021  18.775  23.974  1.00  0.00     0.021 C 
ATOM     22  C   UNL A   1      33.053  18.217  25.392  1.00  0.00     0.011 C 
BRANCH  21  23
ATOM     23  C   UNL A   1      32.756  17.611  23.000  1.00  0.00     0.160 C 
BRANCH  23  24
ATOM     24  O   UNL A   1      31.953  18.014  21.903  1.00  0.00    -0.396 OA
ATOM     25  H   UNL A   1      31.998  17.343  21.205  1.00  0.00     0.210 HD
ENDBRANCH  23  24
ENDBRANCH  21  23
ENDBRANCH  20  21
ENDBRANCH  19  20
ENDBRANCH  13  19
ENDBRANCH   6   8
ENDBRANCH   5   6
ENDBRANCH   4   5
ENDBRANCH   3   4
ENDBRANCH   2   3
ENDBRANCH   1   2
BRANCH   1  26
ATOM     26  C   UNL A   1      31.369  29.055  24.499  1.00  0.00     0.188 C 
BRANCH  26  27
ATOM     27  O   UNL A   1      32.737  29.391  24.580  1.00  0.00    -0.376 OA
BRANCH  27  28
ATOM     28  C   UNL A   1      33.337  29.335  25.860  1.00  0.00     0.202 C 
BRANCH  28  29
ATOM     29  C   UNL A   1      33.089  30.498  26.836  1.00  0.00     0.261 C 
BRANCH  29  30
ATOM     30  O   UNL A   1      33.984  30.620  27.958  1.00  0.00    -0.460 OA
BRANCH  30  31
ATOM     31  C   UNL A   1      34.975  31.547  27.909  1.00  0.00     0.338 C 
ATOM     32  O   UNL A   1      34.859  32.708  27.589  1.00  0.00    -0.246 OA
BRANCH  31  33
ATOM     33  C   UNL A   1      36.161  30.958  28.605  1.00  0.00     0.060 A 
ATOM     34  C   UNL A   1      37.408  31.596  28.484  1.00  0.00     0.016 A 
ATOM     35  C   UNL A   1      36.031  29.846  29.439  1.00  0.00     0.016 A 
ATOM     36  C   UNL A   1      38.526  31.104  29.167  1.00  0.00     0.010 A 
ATOM     37  C   UNL A   1      37.156  29.339  30.101  1.00  0.00     0.010 A 
ATOM     38  C   UNL A   1      38.419  29.943  29.940  1.00  0.00    -0.014 A 
BRANCH  38  39
ATOM     39  C   UNL A   1      39.640  29.209  30.365  1.00  0.00     0.031 A 
ATOM     40  C   UNL A   1      40.375  29.724  31.577  1.00  0.00     0.074 A 
ATOM     41  C   UNL A   1      40.113  28.134  29.706  1.00  0.00     0.049 A 
ATOM     42  N   UNL A   1      41.505  29.326  32.100  1.00  0.00    -0.248 NA
ATOM     43  C   UNL A   1      39.746  30.850  32.289  1.00  0.00     0.031 C 
ATOM     44  C   UNL A   1      39.498  27.516  28.534  1.00  0.00     0.029 A 
ATOM     45  N   UNL A   1      41.253  27.393  29.920  1.00  0.00    -0.354 N 
ATOM     46  C   UNL A   1      41.740  30.172  33.176  1.00  0.00     0.074 A 
ATOM     47  C   UNL A   1      40.643  31.113  33.226  1.00  0.00     0.031 C 
ATOM     48  C   UNL A   1      40.288  26.514  28.107  1.00  0.00     0.029 A 
ATOM     49  C   UNL A   1      41.477  26.436  28.956  1.00  0.00     0.049 A 
ATOM     50  H   UNL A   1      41.850  27.532  30.690  1.00  0.00     0.167 HD
ATOM     51  C   UNL A   1      42.769  30.166  34.056  1.00  0.00     0.034 A 
ATOM     52  C   UNL A   1      42.535  25.620  28.764  1.00  0.00     0.034 A 
ATOM     53  C   UNL A   1      43.858  29.231  34.018  1.00  0.00     0.049 A 
ATOM     54  C   UNL A   1      43.693  25.657  29.734  1.00  0.00     0.074 A 
ATOM     55  C   UNL A   1      44.928  29.124  34.888  1.00  0.00     0.029 A 
ATOM     56  N   UNL A   1      44.028  28.254  33.051  1.00  0.00    -0.354 N 
ATOM     57  N   UNL A   1      43.852  26.393  30.808  1.00  0.00    -0.248 NA
ATOM     58  C   UNL A   1      44.806  24.728  29.480  1.00  0.00     0.031 C 
ATOM     59  C   UNL A   1      45.766  28.105  34.427  1.00  0.00     0.029 A 
ATOM     60  C   UNL A   1      45.193  27.547  33.295  1.00  0.00     0.049 A 
ATOM     61  H   UNL A   1      43.413  28.087  32.302  1.00  0.00     0.167 HD
ATOM     62  C   UNL A   1      45.056  25.989  31.376  1.00  0.00     0.074 A 
ATOM     63  C   UNL A   1      45.579  24.930  30.539  1.00  0.00     0.031 C 
ATOM     64  C   UNL A   1      45.679  26.458  32.488  1.00  0.00     0.034 A 
BRANCH  51  65
ATOM     65  C   UNL A   1      42.758  31.207  35.145  1.00  0.00     0.023 A 
ATOM     66  C   UNL A   1      42.232  30.889  36.414  1.00  0.00     0.012 A 
ATOM     67  C   UNL A   1      43.305  32.485  34.923  1.00  0.00     0.148 A 
ATOM     68  C   UNL A   1      42.218  31.839  37.434  1.00  0.00     0.002 A 
ATOM     69  C   UNL A   1      43.333  33.410  35.960  1.00  0.00     0.091 A 
ATOM     70  F   UNL A   1      43.777  32.776  33.703  1.00  0.00    -0.205 F 
ATOM     71  C   UNL A   1      42.778  33.093  37.211  1.00  0.00     0.022 A 
BRANCH  69  72
ATOM     72  S   UNL A   1      44.103  35.023  35.799  1.00  0.00     0.127 S 
ATOM     73  O   UNL A   1      45.521  34.670  35.741  1.00  0.00    -0.237 OA
ATOM     74  O   UNL A   1      43.543  35.505  34.537  1.00  0.00    -0.237 OA
ATOM     75  O   UNL A   1      43.698  35.782  36.974  1.00  0.00    -0.744 OA
ENDBRANCH  69  72
ENDBRANCH  51  65
BRANCH  52  76
ATOM     76  C   UNL A   1      42.556  24.677  27.606  1.00  0.00     0.023 A 
ATOM     77  C   UNL A   1      43.005  25.125  26.348  1.00  0.00     0.012 A 
ATOM     78  C   UNL A   1      42.117  23.346  27.743  1.00  0.00     0.148 A 
ATOM     79  C   UNL A   1      42.987  24.274  25.241  1.00  0.00     0.002 A 
ATOM     80  C   UNL A   1      42.155  22.487  26.650  1.00  0.00     0.091 A 
ATOM     81  F   UNL A   1      41.671  22.945  28.941  1.00  0.00    -0.205 F 
ATOM     82  C   UNL A   1      42.572  22.954  25.393  1.00  0.00     0.022 A 
BRANCH  80  83
ATOM     83  S   UNL A   1      41.747  20.742  26.776  1.00  0.00     0.127 S 
ATOM     84  O   UNL A   1      42.145  20.246  25.461  1.00  0.00    -0.237 OA
ATOM     85  O   UNL A   1      42.605  20.314  27.882  1.00  0.00    -0.237 OA
ATOM     86  O   UNL A   1      40.321  20.690  27.064  1.00  0.00    -0.744 OA
ENDBRANCH  80  83
ENDBRANCH  52  76
BRANCH  64  87
ATOM     87  C   UNL A   1      46.971  25.802  32.909  1.00  0.00     0.023 A 
ATOM     88  C   UNL A   1      48.207  26.342  32.504  1.00  0.00     0.012 A 
ATOM     89  C   UNL A   1      46.956  24.692  33.780  1.00  0.00     0.148 A 
ATOM     90  C   UNL A   1      49.406  25.768  32.929  1.00  0.00     0.002 A 
ATOM     91  C   UNL A   1      48.153  24.159  34.243  1.00  0.00     0.091 A 
ATOM     92  F   UNL A   1      45.770  24.183  34.146  1.00  0.00    -0.205 F 
ATOM     93  C   UNL A   1      49.379  24.687  33.807  1.00  0.00     0.022 A 
BRANCH  91  94
ATOM     94  S   UNL A   1      48.216  22.832  35.452  1.00  0.00     0.127 S 
ATOM     95  O   UNL A   1      47.613  23.467  36.623  1.00  0.00    -0.237 OA
ATOM     96  O   UNL A   1      47.388  21.802  34.823  1.00  0.00    -0.237 OA
ATOM     97  O   UNL A   1      49.622  22.478  35.590  1.00  0.00    -0.744 OA
ENDBRANCH  91  94
ENDBRANCH  64  87
ENDBRANCH  38  39
ENDBRANCH  31  33
ENDBRANCH  30  31
ENDBRANCH  29  30
ENDBRANCH  28  29
ENDBRANCH  27  28
ENDBRANCH  26  27
ENDBRANCH   1  26
TORSDOF 27
ENDMDL
