MODEL 1
REMARK VINA RESULT:     -10.2      0.000      0.000
REMARK SMILES CCN(CC)C(=O)N1CCC[C@H](C(=O)N[C@H](C(=O)OCCOCCOCCOC(=O)c2ccc(-c3c4nc(c(-c5cccc(S(=O)(=O)[O-])c5F)c5ccc([nH]5)c(-c5cccc(S(=O)(=O)[O-])c5F)c5nc(c(-c6cccc(S(=O)(=O)[O-])c6F)c6ccc3[nH]6)C=C5)C=C4)cc2)C(C)(C)C)C1
REMARK SMILES IDX 23 1 22 2 21 3 20 4 19 5 17 6 18 7 16 8 15 9 13 10 14 11
REMARK SMILES IDX 12 13 8 14 9 15 98 16 10 17 11 18 6 19 3 20 7 21 2 22 1 23
REMARK SMILES IDX 4 24 5 25 94 26 95 27 96 28 97 29 24 30 25 31 26 32 27 33
REMARK SMILES IDX 28 34 29 35 30 36 31 37 32 38 93 39 33 40 92 41 34 42 35 43
REMARK SMILES IDX 36 44 86 45 37 46 91 47 85 48 87 49 38 50 90 51 84 52 83 53
REMARK SMILES IDX 39 55 71 56 51 57 70 58 52 59 55 60 69 61 88 62 53 63 54 64
REMARK SMILES IDX 68 66 89 67 56 68 40 69 41 70 49 71 42 72 44 73 50 74 43 75
REMARK SMILES IDX 45 76 46 77 47 78 48 79 72 80 73 81 81 82 74 83 76 84 82 85
REMARK SMILES IDX 75 86 77 87 78 88 79 89 80 90 57 91 58 92 66 93 59 94 61 95
REMARK SMILES IDX 67 96 60 97 62 98 63 99 64 100 65 101
REMARK H PARENT 15 12 87 54 55 65
REMARK Flexibility Score: inf
ROOT
ATOM      1  C   UNL A   1      34.877  31.256  27.635  1.00  0.00     0.188 C 
ENDROOT
BRANCH   1   2
ATOM      2  O   UNL A   1      35.566  30.054  27.333  1.00  0.00    -0.376 OA
BRANCH   2   3
ATOM      3  C   UNL A   1      34.765  28.885  27.227  1.00  0.00     0.202 C 
BRANCH   3   4
ATOM      4  C   UNL A   1      33.239  29.049  27.256  1.00  0.00     0.261 C 
BRANCH   4   5
ATOM      5  O   UNL A   1      32.554  28.458  26.133  1.00  0.00    -0.462 OA
BRANCH   5   6
ATOM      6  C   UNL A   1      31.604  27.524  26.405  1.00  0.00     0.329 C 
ATOM      7  O   UNL A   1      30.925  27.536  27.427  1.00  0.00    -0.250 OA
BRANCH   6   8
ATOM      8  C   UNL A   1      31.580  26.363  25.351  1.00  0.00     0.197 C 
BRANCH   8   9
ATOM      9  N   UNL A   1      31.184  25.036  25.847  1.00  0.00    -0.342 N 
ATOM     10  C   UNL A   1      31.744  23.805  25.776  1.00  0.00     0.225 C 
ATOM     11  O   UNL A   1      31.004  22.862  26.094  1.00  0.00    -0.275 OA
ATOM     12  H   UNL A   1      30.328  25.044  26.334  1.00  0.00     0.164 HD
BRANCH  10  13
ATOM     13  C   UNL A   1      33.192  23.490  25.407  1.00  0.00     0.098 C 
ATOM     14  N   UNL A   1      33.465  21.235  24.375  1.00  0.00    -0.324 N 
ATOM     15  C   UNL A   1      34.442  20.792  25.350  1.00  0.00     0.121 C 
ATOM     16  C   UNL A   1      33.354  22.663  24.148  1.00  0.00     0.134 C 
ATOM     17  C   UNL A   1      34.376  21.573  26.658  1.00  0.00     0.022 C 
ATOM     18  C   UNL A   1      34.181  23.079  26.493  1.00  0.00     0.017 C 
BRANCH  14  19
ATOM     19  C   UNL A   1      32.745  20.315  23.634  1.00  0.00     0.320 C 
ATOM     20  N   UNL A   1      32.723  19.022  24.117  1.00  0.00    -0.325 N 
ATOM     21  O   UNL A   1      32.187  20.666  22.601  1.00  0.00    -0.248 OA
BRANCH  20  22
ATOM     22  C   UNL A   1      32.563  17.839  23.256  1.00  0.00     0.118 C 
ATOM     23  C   UNL A   1      33.827  17.121  22.823  1.00  0.00     0.027 C 
ENDBRANCH  20  22
BRANCH  20  24
ATOM     24  C   UNL A   1      32.770  18.779  25.551  1.00  0.00     0.118 C 
ATOM     25  C   UNL A   1      32.599  17.320  25.869  1.00  0.00     0.027 C 
ENDBRANCH  20  24
ENDBRANCH  14  19
ENDBRANCH  10  13
ENDBRANCH   8   9
BRANCH   8  26
ATOM     26  C   UNL A   1      30.648  26.763  24.153  1.00  0.00    -0.007 C 
ATOM     27  C   UNL A   1      31.194  26.147  22.849  1.00  0.00     0.013 C 
ATOM     28  C   UNL A   1      29.195  26.261  24.330  1.00  0.00     0.013 C 
ATOM     29  C   UNL A   1      30.570  28.298  24.015  1.00  0.00     0.013 C 
ENDBRANCH   8  26
ENDBRANCH   6   8
ENDBRANCH   5   6
ENDBRANCH   4   5
ENDBRANCH   3   4
ENDBRANCH   2   3
ENDBRANCH   1   2
BRANCH   1  30
ATOM     30  C   UNL A   1      35.784  32.413  28.079  1.00  0.00     0.188 C 
BRANCH  30  31
ATOM     31  O   UNL A   1      35.317  33.749  28.001  1.00  0.00    -0.376 OA
BRANCH  31  32
ATOM     32  C   UNL A   1      33.921  33.961  28.148  1.00  0.00     0.202 C 
BRANCH  32  33
ATOM     33  C   UNL A   1      33.407  35.135  29.008  1.00  0.00     0.261 C 
BRANCH  33  34
ATOM     34  O   UNL A   1      32.672  34.806  30.209  1.00  0.00    -0.460 OA
BRANCH  34  35
ATOM     35  C   UNL A   1      32.945  35.566  31.299  1.00  0.00     0.338 C 
ATOM     36  O   UNL A   1      32.353  36.595  31.629  1.00  0.00    -0.246 OA
BRANCH  35  37
ATOM     37  C   UNL A   1      33.955  34.933  32.186  1.00  0.00     0.060 A 
ATOM     38  C   UNL A   1      35.165  35.603  32.404  1.00  0.00     0.016 A 
ATOM     39  C   UNL A   1      33.781  33.648  32.713  1.00  0.00     0.016 A 
ATOM     40  C   UNL A   1      36.203  34.975  33.107  1.00  0.00     0.010 A 
ATOM     41  C   UNL A   1      34.836  33.012  33.404  1.00  0.00     0.010 A 
ATOM     42  C   UNL A   1      36.068  33.655  33.593  1.00  0.00    -0.014 A 
BRANCH  42  43
ATOM     43  C   UNL A   1      37.282  32.942  34.120  1.00  0.00     0.031 A 
ATOM     44  C   UNL A   1      37.972  31.979  33.193  1.00  0.00     0.074 A 
ATOM     45  C   UNL A   1      37.801  33.105  35.359  1.00  0.00     0.049 A 
ATOM     46  N   UNL A   1      39.079  31.311  33.371  1.00  0.00    -0.248 NA
ATOM     47  C   UNL A   1      37.273  31.676  31.935  1.00  0.00     0.031 C 
ATOM     48  C   UNL A   1      37.177  33.844  36.448  1.00  0.00     0.029 A 
ATOM     49  N   UNL A   1      39.022  32.738  35.892  1.00  0.00    -0.354 N 
ATOM     50  C   UNL A   1      39.155  30.430  32.302  1.00  0.00     0.074 A 
ATOM     51  C   UNL A   1      38.026  30.709  31.440  1.00  0.00     0.031 C 
ATOM     52  C   UNL A   1      38.090  34.085  37.405  1.00  0.00     0.029 A 
ATOM     53  C   UNL A   1      39.315  33.356  37.096  1.00  0.00     0.049 A 
ATOM     54  H   UNL A   1      39.627  32.095  35.456  1.00  0.00     0.167 HD
ATOM     55  C   UNL A   1      40.038  29.428  32.092  1.00  0.00     0.034 A 
ATOM     56  C   UNL A   1      40.423  33.321  37.873  1.00  0.00     0.034 A 
ATOM     57  C   UNL A   1      41.127  29.107  32.971  1.00  0.00     0.049 A 
ATOM     58  C   UNL A   1      41.484  32.304  37.538  1.00  0.00     0.074 A 
ATOM     59  C   UNL A   1      42.054  28.088  32.852  1.00  0.00     0.029 A 
ATOM     60  N   UNL A   1      41.422  29.780  34.146  1.00  0.00    -0.354 N 
ATOM     61  N   UNL A   1      41.572  31.521  36.491  1.00  0.00    -0.248 NA
ATOM     62  C   UNL A   1      42.560  32.108  38.524  1.00  0.00     0.031 C 
ATOM     63  C   UNL A   1      42.896  28.130  33.968  1.00  0.00     0.029 A 
ATOM     64  C   UNL A   1      42.526  29.208  34.754  1.00  0.00     0.049 A 
ATOM     65  H   UNL A   1      40.920  30.551  34.497  1.00  0.00     0.167 HD
ATOM     66  C   UNL A   1      42.688  30.723  36.705  1.00  0.00     0.074 A 
ATOM     67  C   UNL A   1      43.288  31.163  37.946  1.00  0.00     0.031 C 
ATOM     68  C   UNL A   1      43.144  29.685  35.964  1.00  0.00     0.034 A 
BRANCH  55  69
ATOM     69  C   UNL A   1      39.796  28.562  30.886  1.00  0.00     0.023 A 
ATOM     70  C   UNL A   1      38.990  27.412  30.993  1.00  0.00     0.012 A 
ATOM     71  C   UNL A   1      40.396  28.881  29.652  1.00  0.00     0.148 A 
ATOM     72  C   UNL A   1      38.826  26.562  29.901  1.00  0.00     0.002 A 
ATOM     73  C   UNL A   1      40.184  28.059  28.555  1.00  0.00     0.091 A 
ATOM     74  F   UNL A   1      41.184  29.963  29.584  1.00  0.00    -0.205 F 
ATOM     75  C   UNL A   1      39.415  26.890  28.682  1.00  0.00     0.022 A 
BRANCH  73  76
ATOM     76  S   UNL A   1      40.835  28.433  26.926  1.00  0.00     0.127 S 
ATOM     77  O   UNL A   1      39.809  29.333  26.397  1.00  0.00    -0.237 OA
ATOM     78  O   UNL A   1      42.106  29.080  27.248  1.00  0.00    -0.237 OA
ATOM     79  O   UNL A   1      40.957  27.157  26.235  1.00  0.00    -0.744 OA
ENDBRANCH  73  76
ENDBRANCH  55  69
BRANCH  56  80
ATOM     80  C   UNL A   1      40.595  34.205  39.077  1.00  0.00     0.023 A 
ATOM     81  C   UNL A   1      41.560  35.238  39.057  1.00  0.00     0.012 A 
ATOM     82  C   UNL A   1      39.844  34.022  40.251  1.00  0.00     0.148 A 
ATOM     83  C   UNL A   1      41.785  36.043  40.181  1.00  0.00     0.002 A 
ATOM     84  C   UNL A   1      39.999  34.890  41.327  1.00  0.00     0.091 A 
ATOM     85  F   UNL A   1      38.993  32.989  40.310  1.00  0.00    -0.205 F 
ATOM     86  C   UNL A   1      40.987  35.883  41.308  1.00  0.00     0.022 A 
BRANCH  84  87
ATOM     87  S   UNL A   1      38.868  34.866  42.722  1.00  0.00     0.127 S 
ATOM     88  O   UNL A   1      37.596  35.189  42.084  1.00  0.00    -0.237 OA
ATOM     89  O   UNL A   1      38.994  33.486  43.192  1.00  0.00    -0.237 OA
ATOM     90  O   UNL A   1      39.392  35.859  43.651  1.00  0.00    -0.744 OA
ENDBRANCH  84  87
ENDBRANCH  56  80
BRANCH  68  91
ATOM     91  C   UNL A   1      44.384  28.978  36.438  1.00  0.00     0.023 A 
ATOM     92  C   UNL A   1      45.657  29.543  36.222  1.00  0.00     0.012 A 
ATOM     93  C   UNL A   1      44.272  27.781  37.170  1.00  0.00     0.148 A 
ATOM     94  C   UNL A   1      46.802  28.908  36.704  1.00  0.00     0.002 A 
ATOM     95  C   UNL A   1      45.410  27.184  37.692  1.00  0.00     0.091 A 
ATOM     96  F   UNL A   1      43.052  27.250  37.341  1.00  0.00    -0.205 F 
ATOM     97  C   UNL A   1      46.678  27.737  37.449  1.00  0.00     0.022 A 
BRANCH  95  98
ATOM     98  S   UNL A   1      45.330  25.731  38.745  1.00  0.00     0.127 S 
ATOM     99  O   UNL A   1      46.746  25.447  38.968  1.00  0.00    -0.237 OA
ATOM    100  O   UNL A   1      44.616  26.239  39.917  1.00  0.00    -0.237 OA
ATOM    101  O   UNL A   1      44.603  24.724  37.984  1.00  0.00    -0.744 OA
ENDBRANCH  95  98
ENDBRANCH  68  91
ENDBRANCH  42  43
ENDBRANCH  35  37
ENDBRANCH  34  35
ENDBRANCH  33  34
ENDBRANCH  32  33
ENDBRANCH  31  32
ENDBRANCH  30  31
ENDBRANCH   1  30
TORSDOF 26
ENDMDL
MODEL 2
REMARK VINA RESULT:     -10.0      2.279      7.745
REMARK SMILES CCN(CC)C(=O)N1CCC[C@H](C(=O)N[C@H](C(=O)OCCOCCOCCOC(=O)c2ccc(-c3c4nc(c(-c5cccc(S(=O)(=O)[O-])c5F)c5ccc([nH]5)c(-c5cccc(S(=O)(=O)[O-])c5F)c5nc(c(-c6cccc(S(=O)(=O)[O-])c6F)c6ccc3[nH]6)C=C5)C=C4)cc2)C(C)(C)C)C1
REMARK SMILES IDX 23 1 22 2 21 3 20 4 19 5 17 6 18 7 16 8 15 9 13 10 14 11
REMARK SMILES IDX 12 13 8 14 9 15 98 16 10 17 11 18 6 19 3 20 7 21 2 22 1 23
REMARK SMILES IDX 4 24 5 25 94 26 95 27 96 28 97 29 24 30 25 31 26 32 27 33
REMARK SMILES IDX 28 34 29 35 30 36 31 37 32 38 93 39 33 40 92 41 34 42 35 43
REMARK SMILES IDX 36 44 86 45 37 46 91 47 85 48 87 49 38 50 90 51 84 52 83 53
REMARK SMILES IDX 39 55 71 56 51 57 70 58 52 59 55 60 69 61 88 62 53 63 54 64
REMARK SMILES IDX 68 66 89 67 56 68 40 69 41 70 49 71 42 72 44 73 50 74 43 75
REMARK SMILES IDX 45 76 46 77 47 78 48 79 72 80 73 81 81 82 74 83 76 84 82 85
REMARK SMILES IDX 75 86 77 87 78 88 79 89 80 90 57 91 58 92 66 93 59 94 61 95
REMARK SMILES IDX 67 96 60 97 62 98 63 99 64 100 65 101
REMARK H PARENT 15 12 87 54 55 65
REMARK Flexibility Score: inf
ROOT
ATOM      1  C   UNL A   1      34.755  32.186  28.056  1.00  0.00     0.188 C 
ENDROOT
BRANCH   1   2
ATOM      2  O   UNL A   1      35.521  30.993  28.068  1.00  0.00    -0.376 OA
BRANCH   2   3
ATOM      3  C   UNL A   1      34.827  29.802  27.722  1.00  0.00     0.202 C 
BRANCH   3   4
ATOM      4  C   UNL A   1      33.463  29.935  27.028  1.00  0.00     0.261 C 
BRANCH   4   5
ATOM      5  O   UNL A   1      33.442  29.473  25.662  1.00  0.00    -0.462 OA
BRANCH   5   6
ATOM      6  C   UNL A   1      32.223  29.295  25.086  1.00  0.00     0.329 C 
ATOM      7  O   UNL A   1      31.282  30.062  25.256  1.00  0.00    -0.250 OA
BRANCH   6   8
ATOM      8  C   UNL A   1      32.116  27.935  24.311  1.00  0.00     0.197 C 
BRANCH   8   9
ATOM      9  N   UNL A   1      30.788  27.305  24.274  1.00  0.00    -0.342 N 
ATOM     10  C   UNL A   1      30.250  26.219  24.880  1.00  0.00     0.225 C 
ATOM     11  O   UNL A   1      29.164  25.834  24.421  1.00  0.00    -0.275 OA
ATOM     12  H   UNL A   1      30.153  27.772  23.684  1.00  0.00     0.164 HD
BRANCH  10  13
ATOM     13  C   UNL A   1      30.823  25.481  26.088  1.00  0.00     0.098 C 
ATOM     14  N   UNL A   1      32.555  23.797  25.469  1.00  0.00    -0.324 N 
ATOM     15  C   UNL A   1      31.866  22.696  26.112  1.00  0.00     0.121 C 
ATOM     16  C   UNL A   1      32.293  25.131  25.972  1.00  0.00     0.134 C 
ATOM     17  C   UNL A   1      30.373  22.951  26.292  1.00  0.00     0.022 C 
ATOM     18  C   UNL A   1      30.019  24.365  26.749  1.00  0.00     0.017 C 
BRANCH  14  19
ATOM     19  C   UNL A   1      33.494  23.556  24.481  1.00  0.00     0.320 C 
ATOM     20  N   UNL A   1      34.815  23.530  24.883  1.00  0.00    -0.325 N 
ATOM     21  O   UNL A   1      33.132  23.398  23.321  1.00  0.00    -0.248 OA
BRANCH  20  22
ATOM     22  C   UNL A   1      35.937  23.883  23.999  1.00  0.00     0.118 C 
ATOM     23  C   UNL A   1      36.547  22.765  23.174  1.00  0.00     0.027 C 
ENDBRANCH  20  22
BRANCH  20  24
ATOM     24  C   UNL A   1      35.162  23.053  26.213  1.00  0.00     0.118 C 
ATOM     25  C   UNL A   1      35.507  21.590  26.202  1.00  0.00     0.027 C 
ENDBRANCH  20  24
ENDBRANCH  14  19
ENDBRANCH  10  13
ENDBRANCH   8   9
BRANCH   8  26
ATOM     26  C   UNL A   1      32.634  28.128  22.841  1.00  0.00    -0.007 C 
ATOM     27  C   UNL A   1      31.710  29.112  22.096  1.00  0.00     0.013 C 
ATOM     28  C   UNL A   1      34.069  28.703  22.783  1.00  0.00     0.013 C 
ATOM     29  C   UNL A   1      32.671  26.777  22.098  1.00  0.00     0.013 C 
ENDBRANCH   8  26
ENDBRANCH   6   8
ENDBRANCH   5   6
ENDBRANCH   4   5
ENDBRANCH   3   4
ENDBRANCH   2   3
ENDBRANCH   1   2
BRANCH   1  30
ATOM     30  C   UNL A   1      35.566  33.464  28.318  1.00  0.00     0.188 C 
BRANCH  30  31
ATOM     31  O   UNL A   1      34.929  34.729  28.273  1.00  0.00    -0.376 OA
BRANCH  31  32
ATOM     32  C   UNL A   1      33.536  34.767  28.542  1.00  0.00     0.202 C 
BRANCH  32  33
ATOM     33  C   UNL A   1      32.989  35.711  29.634  1.00  0.00     0.261 C 
BRANCH  33  34
ATOM     34  O   UNL A   1      32.553  35.108  30.875  1.00  0.00    -0.460 OA
BRANCH  34  35
ATOM     35  C   UNL A   1      33.345  35.330  31.954  1.00  0.00     0.338 C 
ATOM     36  O   UNL A   1      33.028  35.958  32.965  1.00  0.00    -0.246 OA
BRANCH  35  37
ATOM     37  C   UNL A   1      34.626  34.581  31.874  1.00  0.00     0.060 A 
ATOM     38  C   UNL A   1      34.590  33.185  31.980  1.00  0.00     0.016 A 
ATOM     39  C   UNL A   1      35.864  35.230  31.809  1.00  0.00     0.016 A 
ATOM     40  C   UNL A   1      35.784  32.453  32.064  1.00  0.00     0.010 A 
ATOM     41  C   UNL A   1      37.063  34.491  31.912  1.00  0.00     0.010 A 
ATOM     42  C   UNL A   1      37.042  33.097  32.063  1.00  0.00    -0.014 A 
BRANCH  42  43
ATOM     43  C   UNL A   1      38.272  32.299  32.398  1.00  0.00     0.031 A 
ATOM     44  C   UNL A   1      38.788  32.389  33.807  1.00  0.00     0.074 A 
ATOM     45  C   UNL A   1      38.941  31.504  31.530  1.00  0.00     0.049 A 
ATOM     46  N   UNL A   1      39.770  31.737  34.370  1.00  0.00    -0.248 NA
ATOM     47  C   UNL A   1      38.162  33.408  34.663  1.00  0.00     0.031 C 
ATOM     48  C   UNL A   1      38.707  31.431  30.095  1.00  0.00     0.029 A 
ATOM     49  N   UNL A   1      39.900  30.532  31.739  1.00  0.00    -0.354 N 
ATOM     50  C   UNL A   1      39.951  32.339  35.607  1.00  0.00     0.074 A 
ATOM     51  C   UNL A   1      38.924  33.351  35.742  1.00  0.00     0.031 C 
ATOM     52  C   UNL A   1      39.298  30.329  29.602  1.00  0.00     0.029 A 
ATOM     53  C   UNL A   1      40.117  29.716  30.641  1.00  0.00     0.049 A 
ATOM     54  H   UNL A   1      40.386  30.429  32.589  1.00  0.00     0.167 HD
ATOM     55  C   UNL A   1      40.927  32.126  36.517  1.00  0.00     0.034 A 
ATOM     56  C   UNL A   1      40.899  28.623  30.479  1.00  0.00     0.034 A 
ATOM     57  C   UNL A   1      41.984  31.165  36.365  1.00  0.00     0.049 A 
ATOM     58  C   UNL A   1      41.881  28.294  31.575  1.00  0.00     0.074 A 
ATOM     59  C   UNL A   1      43.034  30.902  37.225  1.00  0.00     0.029 A 
ATOM     60  N   UNL A   1      42.142  30.327  35.273  1.00  0.00    -0.354 N 
ATOM     61  N   UNL A   1      41.999  28.833  32.763  1.00  0.00    -0.248 NA
ATOM     62  C   UNL A   1      42.888  27.259  31.284  1.00  0.00     0.031 C 
ATOM     63  C   UNL A   1      43.842  29.921  36.641  1.00  0.00     0.029 A 
ATOM     64  C   UNL A   1      43.264  29.536  35.443  1.00  0.00     0.049 A 
ATOM     65  H   UNL A   1      41.544  30.299  34.491  1.00  0.00     0.167 HD
ATOM     66  C   UNL A   1      43.105  28.229  33.347  1.00  0.00     0.074 A 
ATOM     67  C   UNL A   1      43.582  27.231  32.413  1.00  0.00     0.031 C 
ATOM     68  C   UNL A   1      43.702  28.513  34.529  1.00  0.00     0.034 A 
BRANCH  55  69
ATOM     69  C   UNL A   1      40.924  33.019  37.727  1.00  0.00     0.023 A 
ATOM     70  C   UNL A   1      40.098  32.715  38.827  1.00  0.00     0.012 A 
ATOM     71  C   UNL A   1      41.723  34.178  37.755  1.00  0.00     0.148 A 
ATOM     72  C   UNL A   1      40.030  33.579  39.918  1.00  0.00     0.002 A 
ATOM     73  C   UNL A   1      41.690  35.006  38.868  1.00  0.00     0.091 A 
ATOM     74  F   UNL A   1      42.477  34.463  36.683  1.00  0.00    -0.205 F 
ATOM     75  C   UNL A   1      40.831  34.719  39.941  1.00  0.00     0.022 A 
BRANCH  73  76
ATOM     76  S   UNL A   1      42.738  36.454  39.028  1.00  0.00     0.127 S 
ATOM     77  O   UNL A   1      42.140  37.125  40.183  1.00  0.00    -0.237 OA
ATOM     78  O   UNL A   1      44.047  35.854  39.280  1.00  0.00    -0.237 OA
ATOM     79  O   UNL A   1      42.629  37.174  37.766  1.00  0.00    -0.744 OA
ENDBRANCH  73  76
ENDBRANCH  55  69
BRANCH  56  80
ATOM     80  C   UNL A   1      40.865  27.780  29.235  1.00  0.00     0.023 A 
ATOM     81  C   UNL A   1      39.930  26.724  29.128  1.00  0.00     0.012 A 
ATOM     82  C   UNL A   1      41.759  27.983  28.170  1.00  0.00     0.148 A 
ATOM     83  C   UNL A   1      39.909  25.885  28.007  1.00  0.00     0.002 A 
ATOM     84  C   UNL A   1      41.665  27.213  27.015  1.00  0.00     0.091 A 
ATOM     85  F   UNL A   1      42.706  28.923  28.302  1.00  0.00    -0.205 F 
ATOM     86  C   UNL A   1      40.762  26.145  26.940  1.00  0.00     0.022 A 
BRANCH  84  87
ATOM     87  S   UNL A   1      42.593  27.626  25.534  1.00  0.00     0.127 S 
ATOM     88  O   UNL A   1      43.961  27.674  26.039  1.00  0.00    -0.237 OA
ATOM     89  O   UNL A   1      42.293  26.492  24.661  1.00  0.00    -0.237 OA
ATOM     90  O   UNL A   1      42.032  28.891  25.077  1.00  0.00    -0.744 OA
ENDBRANCH  84  87
ENDBRANCH  56  80
BRANCH  68  91
ATOM     91  C   UNL A   1      44.907  27.702  34.917  1.00  0.00     0.023 A 
ATOM     92  C   UNL A   1      46.207  28.183  34.660  1.00  0.00     0.012 A 
ATOM     93  C   UNL A   1      44.742  26.488  35.610  1.00  0.00     0.148 A 
ATOM     94  C   UNL A   1      47.324  27.449  35.063  1.00  0.00     0.002 A 
ATOM     95  C   UNL A   1      45.856  25.791  36.054  1.00  0.00     0.091 A 
ATOM     96  F   UNL A   1      43.496  26.038  35.820  1.00  0.00    -0.205 F 
ATOM     97  C   UNL A   1      47.149  26.262  35.770  1.00  0.00     0.022 A 
BRANCH  95  98
ATOM     98  S   UNL A   1      45.719  24.307  37.056  1.00  0.00     0.127 S 
ATOM     99  O   UNL A   1      47.122  23.995  37.321  1.00  0.00    -0.237 OA
ATOM    100  O   UNL A   1      44.970  24.788  38.217  1.00  0.00    -0.237 OA
ATOM    101  O   UNL A   1      45.007  23.335  36.238  1.00  0.00    -0.744 OA
ENDBRANCH  95  98
ENDBRANCH  68  91
ENDBRANCH  42  43
ENDBRANCH  35  37
ENDBRANCH  34  35
ENDBRANCH  33  34
ENDBRANCH  32  33
ENDBRANCH  31  32
ENDBRANCH  30  31
ENDBRANCH   1  30
TORSDOF 26
ENDMDL
MODEL 3
REMARK VINA RESULT:      -9.2      3.280     10.202
REMARK SMILES CCN(CC)C(=O)N1CCC[C@H](C(=O)N[C@H](C(=O)OCCOCCOCCOC(=O)c2ccc(-c3c4nc(c(-c5cccc(S(=O)(=O)[O-])c5F)c5ccc([nH]5)c(-c5cccc(S(=O)(=O)[O-])c5F)c5nc(c(-c6cccc(S(=O)(=O)[O-])c6F)c6ccc3[nH]6)C=C5)C=C4)cc2)C(C)(C)C)C1
REMARK SMILES IDX 23 1 22 2 21 3 20 4 19 5 17 6 18 7 16 8 15 9 13 10 14 11
REMARK SMILES IDX 12 13 8 14 9 15 98 16 10 17 11 18 6 19 3 20 7 21 2 22 1 23
REMARK SMILES IDX 4 24 5 25 94 26 95 27 96 28 97 29 24 30 25 31 26 32 27 33
REMARK SMILES IDX 28 34 29 35 30 36 31 37 32 38 93 39 33 40 92 41 34 42 35 43
REMARK SMILES IDX 36 44 86 45 37 46 91 47 85 48 87 49 38 50 90 51 84 52 83 53
REMARK SMILES IDX 39 55 71 56 51 57 70 58 52 59 55 60 69 61 88 62 53 63 54 64
REMARK SMILES IDX 68 66 89 67 56 68 40 69 41 70 49 71 42 72 44 73 50 74 43 75
REMARK SMILES IDX 45 76 46 77 47 78 48 79 72 80 73 81 81 82 74 83 76 84 82 85
REMARK SMILES IDX 75 86 77 87 78 88 79 89 80 90 57 91 58 92 66 93 59 94 61 95
REMARK SMILES IDX 67 96 60 97 62 98 63 99 64 100 65 101
REMARK H PARENT 15 12 87 54 55 65
REMARK Flexibility Score: inf
ROOT
ATOM      1  C   UNL A   1      39.474  19.983  25.399  1.00  0.00     0.188 C 
ENDROOT
BRANCH   1   2
ATOM      2  O   UNL A   1      38.787  21.124  25.883  1.00  0.00    -0.376 OA
BRANCH   2   3
ATOM      3  C   UNL A   1      37.707  21.588  25.083  1.00  0.00     0.202 C 
BRANCH   3   4
ATOM      4  C   UNL A   1      36.687  22.540  25.727  1.00  0.00     0.261 C 
BRANCH   4   5
ATOM      5  O   UNL A   1      35.331  22.358  25.272  1.00  0.00    -0.462 OA
BRANCH   5   6
ATOM      6  C   UNL A   1      34.471  21.729  26.117  1.00  0.00     0.329 C 
ATOM      7  O   UNL A   1      34.769  21.413  27.264  1.00  0.00    -0.250 OA
BRANCH   6   8
ATOM      8  C   UNL A   1      33.126  21.326  25.419  1.00  0.00     0.197 C 
BRANCH   8   9
ATOM      9  N   UNL A   1      32.644  22.222  24.357  1.00  0.00    -0.342 N 
ATOM     10  C   UNL A   1      31.869  23.333  24.350  1.00  0.00     0.225 C 
ATOM     11  O   UNL A   1      31.459  23.691  23.236  1.00  0.00    -0.275 OA
ATOM     12  H   UNL A   1      32.951  21.959  23.459  1.00  0.00     0.164 HD
BRANCH  10  13
ATOM     13  C   UNL A   1      31.515  24.196  25.559  1.00  0.00     0.098 C 
ATOM     14  N   UNL A   1      30.516  26.393  24.927  1.00  0.00    -0.324 N 
ATOM     15  C   UNL A   1      31.504  27.169  25.650  1.00  0.00     0.121 C 
ATOM     16  C   UNL A   1      30.268  25.040  25.386  1.00  0.00     0.134 C 
ATOM     17  C   UNL A   1      32.802  26.405  25.892  1.00  0.00     0.022 C 
ATOM     18  C   UNL A   1      32.614  24.946  26.305  1.00  0.00     0.017 C 
BRANCH  14  19
ATOM     19  C   UNL A   1      29.781  26.968  23.905  1.00  0.00     0.320 C 
ATOM     20  N   UNL A   1      30.497  27.665  22.953  1.00  0.00    -0.325 N 
ATOM     21  O   UNL A   1      28.560  26.856  23.894  1.00  0.00    -0.248 OA
BRANCH  20  22
ATOM     22  C   UNL A   1      29.939  28.789  22.184  1.00  0.00     0.118 C 
ATOM     23  C   UNL A   1      29.129  29.818  22.950  1.00  0.00     0.027 C 
ENDBRANCH  20  22
BRANCH  20  24
ATOM     24  C   UNL A   1      31.844  27.243  22.601  1.00  0.00     0.118 C 
ATOM     25  C   UNL A   1      31.834  26.249  21.474  1.00  0.00     0.027 C 
ENDBRANCH  20  24
ENDBRANCH  14  19
ENDBRANCH  10  13
ENDBRANCH   8   9
BRANCH   8  26
ATOM     26  C   UNL A   1      33.251  19.870  24.845  1.00  0.00    -0.007 C 
ATOM     27  C   UNL A   1      34.739  19.519  24.652  1.00  0.00     0.013 C 
ATOM     28  C   UNL A   1      32.640  18.802  25.783  1.00  0.00     0.013 C 
ATOM     29  C   UNL A   1      32.505  19.751  23.499  1.00  0.00     0.013 C 
ENDBRANCH   8  26
ENDBRANCH   6   8
ENDBRANCH   5   6
ENDBRANCH   4   5
ENDBRANCH   3   4
ENDBRANCH   2   3
ENDBRANCH   1   2
BRANCH   1  30
ATOM     30  C   UNL A   1      40.683  19.563  26.248  1.00  0.00     0.188 C 
BRANCH  30  31
ATOM     31  O   UNL A   1      41.806  18.958  25.630  1.00  0.00    -0.376 OA
BRANCH  31  32
ATOM     32  C   UNL A   1      42.954  19.768  25.429  1.00  0.00     0.202 C 
BRANCH  32  33
ATOM     33  C   UNL A   1      43.129  21.070  26.239  1.00  0.00     0.261 C 
BRANCH  33  34
ATOM     34  O   UNL A   1      44.058  22.053  25.725  1.00  0.00    -0.460 OA
BRANCH  34  35
ATOM     35  C   UNL A   1      43.517  23.233  25.331  1.00  0.00     0.338 C 
ATOM     36  O   UNL A   1      43.084  23.489  24.206  1.00  0.00    -0.246 OA
BRANCH  35  37
ATOM     37  C   UNL A   1      43.336  24.174  26.467  1.00  0.00     0.060 A 
ATOM     38  C   UNL A   1      42.904  23.662  27.696  1.00  0.00     0.016 A 
ATOM     39  C   UNL A   1      43.476  25.558  26.314  1.00  0.00     0.016 A 
ATOM     40  C   UNL A   1      42.575  24.531  28.746  1.00  0.00     0.010 A 
ATOM     41  C   UNL A   1      43.127  26.430  27.368  1.00  0.00     0.010 A 
ATOM     42  C   UNL A   1      42.651  25.934  28.590  1.00  0.00    -0.014 A 
BRANCH  42  43
ATOM     43  C   UNL A   1      42.060  26.820  29.651  1.00  0.00     0.031 A 
ATOM     44  C   UNL A   1      42.915  27.123  30.850  1.00  0.00     0.074 A 
ATOM     45  C   UNL A   1      40.822  27.368  29.604  1.00  0.00     0.049 A 
ATOM     46  N   UNL A   1      42.677  27.924  31.853  1.00  0.00    -0.248 NA
ATOM     47  C   UNL A   1      44.166  26.357  30.965  1.00  0.00     0.031 C 
ATOM     48  C   UNL A   1      39.791  27.048  28.628  1.00  0.00     0.029 A 
ATOM     49  N   UNL A   1      40.246  28.382  30.345  1.00  0.00    -0.354 N 
ATOM     50  C   UNL A   1      43.690  27.680  32.769  1.00  0.00     0.074 A 
ATOM     51  C   UNL A   1      44.589  26.720  32.164  1.00  0.00     0.031 C 
ATOM     52  C   UNL A   1      38.833  27.990  28.665  1.00  0.00     0.029 A 
ATOM     53  C   UNL A   1      39.075  28.878  29.796  1.00  0.00     0.049 A 
ATOM     54  H   UNL A   1      40.632  28.720  31.185  1.00  0.00     0.167 HD
ATOM     55  C   UNL A   1      43.825  28.153  34.029  1.00  0.00     0.034 A 
ATOM     56  C   UNL A   1      38.277  29.905  30.171  1.00  0.00     0.034 A 
ATOM     57  C   UNL A   1      42.907  29.061  34.657  1.00  0.00     0.049 A 
ATOM     58  C   UNL A   1      38.532  30.538  31.516  1.00  0.00     0.074 A 
ATOM     59  C   UNL A   1      42.949  29.569  35.943  1.00  0.00     0.029 A 
ATOM     60  N   UNL A   1      41.769  29.579  34.060  1.00  0.00    -0.354 N 
ATOM     61  N   UNL A   1      39.529  30.341  32.342  1.00  0.00    -0.248 NA
ATOM     62  C   UNL A   1      37.516  31.479  32.016  1.00  0.00     0.031 C 
ATOM     63  C   UNL A   1      41.822  30.375  36.131  1.00  0.00     0.029 A 
ATOM     64  C   UNL A   1      41.108  30.412  34.946  1.00  0.00     0.049 A 
ATOM     65  H   UNL A   1      41.474  29.382  33.142  1.00  0.00     0.167 HD
ATOM     66  C   UNL A   1      39.248  31.104  33.467  1.00  0.00     0.074 A 
ATOM     67  C   UNL A   1      38.023  31.825  33.192  1.00  0.00     0.031 C 
ATOM     68  C   UNL A   1      39.917  31.162  34.643  1.00  0.00     0.034 A 
BRANCH  55  69
ATOM     69  C   UNL A   1      44.981  27.617  34.826  1.00  0.00     0.023 A 
ATOM     70  C   UNL A   1      46.257  28.203  34.702  1.00  0.00     0.012 A 
ATOM     71  C   UNL A   1      44.803  26.510  35.679  1.00  0.00     0.148 A 
ATOM     72  C   UNL A   1      47.350  27.663  35.377  1.00  0.00     0.002 A 
ATOM     73  C   UNL A   1      45.886  26.011  36.389  1.00  0.00     0.091 A 
ATOM     74  F   UNL A   1      43.587  25.951  35.756  1.00  0.00    -0.205 F 
ATOM     75  C   UNL A   1      47.162  26.574  36.226  1.00  0.00     0.022 A 
BRANCH  73  76
ATOM     76  S   UNL A   1      45.734  24.663  37.563  1.00  0.00     0.127 S 
ATOM     77  O   UNL A   1      45.051  23.648  36.760  1.00  0.00    -0.237 OA
ATOM     78  O   UNL A   1      47.134  24.363  37.863  1.00  0.00    -0.237 OA
ATOM     79  O   UNL A   1      44.967  25.187  38.685  1.00  0.00    -0.744 OA
ENDBRANCH  73  76
ENDBRANCH  55  69
BRANCH  56  80
ATOM     80  C   UNL A   1      37.125  30.382  29.332  1.00  0.00     0.023 A 
ATOM     81  C   UNL A   1      36.328  29.444  28.635  1.00  0.00     0.012 A 
ATOM     82  C   UNL A   1      36.821  31.746  29.185  1.00  0.00     0.148 A 
ATOM     83  C   UNL A   1      35.283  29.857  27.801  1.00  0.00     0.002 A 
ATOM     84  C   UNL A   1      35.718  32.146  28.438  1.00  0.00     0.091 A 
ATOM     85  F   UNL A   1      37.626  32.645  29.769  1.00  0.00    -0.205 F 
ATOM     86  C   UNL A   1      34.963  31.208  27.721  1.00  0.00     0.022 A 
BRANCH  84  87
ATOM     87  S   UNL A   1      35.135  33.844  28.460  1.00  0.00     0.127 S 
ATOM     88  O   UNL A   1      34.156  33.813  29.543  1.00  0.00    -0.237 OA
ATOM     89  O   UNL A   1      36.362  34.584  28.755  1.00  0.00    -0.237 OA
ATOM     90  O   UNL A   1      34.606  34.080  27.123  1.00  0.00    -0.744 OA
ENDBRANCH  84  87
ENDBRANCH  56  80
BRANCH  68  91
ATOM     91  C   UNL A   1      39.379  32.075  35.711  1.00  0.00     0.023 A 
ATOM     92  C   UNL A   1      38.344  31.644  36.566  1.00  0.00     0.012 A 
ATOM     93  C   UNL A   1      39.961  33.340  35.910  1.00  0.00     0.148 A 
ATOM     94  C   UNL A   1      37.879  32.477  37.585  1.00  0.00     0.002 A 
ATOM     95  C   UNL A   1      39.530  34.140  36.958  1.00  0.00     0.091 A 
ATOM     96  F   UNL A   1      40.927  33.737  35.067  1.00  0.00    -0.205 F 
ATOM     97  C   UNL A   1      38.480  33.717  37.790  1.00  0.00     0.022 A 
BRANCH  95  98
ATOM     98  S   UNL A   1      40.316  35.706  37.351  1.00  0.00     0.127 S 
ATOM     99  O   UNL A   1      39.663  36.611  36.408  1.00  0.00    -0.237 OA
ATOM    100  O   UNL A   1      39.934  35.900  38.750  1.00  0.00    -0.237 OA
ATOM    101  O   UNL A   1      41.742  35.504  37.137  1.00  0.00    -0.744 OA
ENDBRANCH  95  98
ENDBRANCH  68  91
ENDBRANCH  42  43
ENDBRANCH  35  37
ENDBRANCH  34  35
ENDBRANCH  33  34
ENDBRANCH  32  33
ENDBRANCH  31  32
ENDBRANCH  30  31
ENDBRANCH   1  30
TORSDOF 26
ENDMDL
