MODEL 1
REMARK VINA RESULT:     -10.8      0.000      0.000
REMARK SMILES COc1ccc(C(=O)OCCOCCOCCOC(=O)c2ccc(-c3c4nc(c(-c5cccc(S(=O)(=O)[O-])c5F)c5ccc([nH]5)c(-c5cccc(S(=O)(=O)[O-])c5F)c5nc(c(-c6cccc(S(=O)(=O)[O-])c6F)c6ccc3[nH]6)C=C5)C=C4)cc2)cc1NC(=O)c1ccccc1[N+](=O)[O-]
REMARK SMILES IDX 13 1 12 2 11 3 10 4 9 5 7 6 8 7 6 8 3 9 4 10 85 11 5 12
REMARK SMILES IDX 84 13 2 14 1 15 86 16 87 17 88 19 89 20 90 21 94 22 91 23
REMARK SMILES IDX 93 24 92 25 95 26 96 27 97 28 14 29 15 30 16 31 17 32 18 33
REMARK SMILES IDX 19 34 20 35 21 36 22 37 83 38 23 39 82 40 24 41 25 42 26 43
REMARK SMILES IDX 76 44 27 45 81 46 75 47 77 48 28 49 80 50 74 51 73 52 29 54
REMARK SMILES IDX 61 55 41 56 60 57 42 58 45 59 59 60 78 61 43 62 44 63 58 65
REMARK SMILES IDX 79 66 46 67 30 68 31 69 39 70 32 71 34 72 40 73 33 74 35 75
REMARK SMILES IDX 36 76 37 77 38 78 62 79 63 80 71 81 64 82 66 83 72 84 65 85
REMARK SMILES IDX 67 86 68 87 69 88 70 89 47 90 48 91 56 92 49 93 51 94 57 95
REMARK SMILES IDX 50 96 52 97 53 98 54 99 55 100
REMARK H PARENT 86 18 77 53 45 64
REMARK Flexibility Score: inf
ROOT
ATOM      1  C   UNL A   1      40.433  22.380  27.629  1.00  0.00     0.188 C 
ENDROOT
BRANCH   1   2
ATOM      2  O   UNL A   1      39.327  23.150  27.201  1.00  0.00    -0.376 OA
BRANCH   2   3
ATOM      3  C   UNL A   1      38.596  22.792  26.042  1.00  0.00     0.202 C 
BRANCH   3   4
ATOM      4  C   UNL A   1      37.140  23.218  25.845  1.00  0.00     0.261 C 
BRANCH   4   5
ATOM      5  O   UNL A   1      36.480  22.571  24.751  1.00  0.00    -0.460 OA
BRANCH   5   6
ATOM      6  C   UNL A   1      35.431  23.249  24.213  1.00  0.00     0.338 C 
ATOM      7  O   UNL A   1      35.398  23.770  23.110  1.00  0.00    -0.246 OA
BRANCH   6   8
ATOM      8  C   UNL A   1      34.262  23.220  25.129  1.00  0.00     0.062 A 
ATOM      9  C   UNL A   1      31.951  23.204  26.666  1.00  0.00     0.142 A 
ATOM     10  C   UNL A   1      32.408  22.014  26.092  1.00  0.00     0.049 A 
ATOM     11  C   UNL A   1      32.648  24.412  26.495  1.00  0.00     0.084 A 
ATOM     12  C   UNL A   1      33.538  22.035  25.275  1.00  0.00     0.019 A 
ATOM     13  C   UNL A   1      33.860  24.371  25.820  1.00  0.00     0.045 A 
BRANCH   9  14
ATOM     14  O   UNL A   1      30.823  23.158  27.446  1.00  0.00    -0.495 OA
ATOM     15  C   UNL A   1      29.726  22.568  26.745  1.00  0.00     0.278 C 
ENDBRANCH   9  14
BRANCH  11  16
ATOM     16  N   UNL A   1      32.030  25.595  26.948  1.00  0.00    -0.319 N 
ATOM     17  C   UNL A   1      31.714  26.798  26.359  1.00  0.00     0.262 C 
ATOM     18  H   UNL A   1      31.765  25.552  27.896  1.00  0.00     0.170 HD
ATOM     19  O   UNL A   1      31.083  27.645  26.990  1.00  0.00    -0.269 OA
BRANCH  17  20
ATOM     20  C   UNL A   1      32.180  27.175  25.014  1.00  0.00     0.117 A 
ATOM     21  C   UNL A   1      33.388  27.890  24.989  1.00  0.00     0.021 A 
ATOM     22  C   UNL A   1      31.563  26.834  23.804  1.00  0.00     0.282 A 
ATOM     23  C   UNL A   1      34.016  28.177  23.777  1.00  0.00     0.001 A 
ATOM     24  C   UNL A   1      32.212  27.096  22.584  1.00  0.00     0.086 A 
ATOM     25  C   UNL A   1      33.443  27.755  22.577  1.00  0.00     0.007 A 
BRANCH  22  26
ATOM     26  N   UNL A   1      30.290  26.123  23.771  1.00  0.00     0.063 N 
ATOM     27  O   UNL A   1      29.264  26.811  23.668  1.00  0.00    -0.258 OA
ATOM     28  O   UNL A   1      30.308  24.892  23.867  1.00  0.00    -0.258 OA
ENDBRANCH  22  26
ENDBRANCH  17  20
ENDBRANCH  11  16
ENDBRANCH   6   8
ENDBRANCH   5   6
ENDBRANCH   4   5
ENDBRANCH   3   4
ENDBRANCH   2   3
ENDBRANCH   1   2
BRANCH   1  29
ATOM     29  C   UNL A   1      40.762  21.039  26.940  1.00  0.00     0.188 C 
BRANCH  29  30
ATOM     30  O   UNL A   1      41.545  20.984  25.763  1.00  0.00    -0.376 OA
BRANCH  30  31
ATOM     31  C   UNL A   1      42.927  20.686  25.863  1.00  0.00     0.202 C 
BRANCH  31  32
ATOM     32  C   UNL A   1      44.000  21.619  25.283  1.00  0.00     0.261 C 
BRANCH  32  33
ATOM     33  O   UNL A   1      43.506  22.818  24.675  1.00  0.00    -0.460 OA
BRANCH  33  34
ATOM     34  C   UNL A   1      44.295  23.911  24.830  1.00  0.00     0.338 C 
ATOM     35  O   UNL A   1      45.325  24.166  24.229  1.00  0.00    -0.246 OA
BRANCH  34  36
ATOM     36  C   UNL A   1      43.609  24.887  25.700  1.00  0.00     0.060 A 
ATOM     37  C   UNL A   1      44.304  26.049  26.069  1.00  0.00     0.016 A 
ATOM     38  C   UNL A   1      42.314  24.656  26.164  1.00  0.00     0.016 A 
ATOM     39  C   UNL A   1      43.713  26.973  26.929  1.00  0.00     0.010 A 
ATOM     40  C   UNL A   1      41.734  25.571  27.047  1.00  0.00     0.010 A 
ATOM     41  C   UNL A   1      42.442  26.716  27.457  1.00  0.00    -0.014 A 
BRANCH  41  42
ATOM     42  C   UNL A   1      41.934  27.539  28.579  1.00  0.00     0.031 A 
ATOM     43  C   UNL A   1      42.696  27.529  29.874  1.00  0.00     0.074 A 
ATOM     44  C   UNL A   1      40.804  28.259  28.465  1.00  0.00     0.049 A 
ATOM     45  N   UNL A   1      42.419  28.123  31.005  1.00  0.00    -0.248 NA
ATOM     46  C   UNL A   1      43.935  26.733  29.898  1.00  0.00     0.031 C 
ATOM     47  C   UNL A   1      39.972  28.341  27.267  1.00  0.00     0.029 A 
ATOM     48  N   UNL A   1      40.144  29.026  29.393  1.00  0.00    -0.354 N 
ATOM     49  C   UNL A   1      43.427  27.748  31.884  1.00  0.00     0.074 A 
ATOM     50  C   UNL A   1      44.318  26.870  31.158  1.00  0.00     0.031 C 
ATOM     51  C   UNL A   1      38.883  29.078  27.548  1.00  0.00     0.029 A 
ATOM     52  C   UNL A   1      38.934  29.501  28.948  1.00  0.00     0.049 A 
ATOM     53  H   UNL A   1      40.503  29.218  30.289  1.00  0.00     0.167 HD
ATOM     54  C   UNL A   1      43.602  28.108  33.177  1.00  0.00     0.034 A 
ATOM     55  C   UNL A   1      37.965  30.171  29.605  1.00  0.00     0.034 A 
ATOM     56  C   UNL A   1      42.723  28.989  33.895  1.00  0.00     0.049 A 
ATOM     57  C   UNL A   1      38.175  30.555  31.047  1.00  0.00     0.074 A 
ATOM     58  C   UNL A   1      42.852  29.467  35.187  1.00  0.00     0.029 A 
ATOM     59  N   UNL A   1      41.539  29.507  33.393  1.00  0.00    -0.354 N 
ATOM     60  N   UNL A   1      39.204  30.316  31.824  1.00  0.00    -0.248 NA
ATOM     61  C   UNL A   1      37.106  31.331  31.693  1.00  0.00     0.031 C 
ATOM     62  C   UNL A   1      41.728  30.248  35.477  1.00  0.00     0.029 A 
ATOM     63  C   UNL A   1      40.917  30.283  34.355  1.00  0.00     0.049 A 
ATOM     64  H   UNL A   1      41.193  29.345  32.486  1.00  0.00     0.167 HD
ATOM     65  C   UNL A   1      38.921  30.936  33.038  1.00  0.00     0.074 A 
ATOM     66  C   UNL A   1      37.633  31.579  32.886  1.00  0.00     0.031 C 
ATOM     67  C   UNL A   1      39.656  30.960  34.179  1.00  0.00     0.034 A 
BRANCH  54  68
ATOM     68  C   UNL A   1      44.805  27.553  33.891  1.00  0.00     0.023 A 
ATOM     69  C   UNL A   1      46.024  28.261  33.864  1.00  0.00     0.012 A 
ATOM     70  C   UNL A   1      44.723  26.344  34.608  1.00  0.00     0.148 A 
ATOM     71  C   UNL A   1      47.152  27.756  34.509  1.00  0.00     0.002 A 
ATOM     72  C   UNL A   1      45.840  25.870  35.285  1.00  0.00     0.091 A 
ATOM     73  F   UNL A   1      43.564  25.670  34.599  1.00  0.00    -0.205 F 
ATOM     74  C   UNL A   1      47.058  26.567  35.226  1.00  0.00     0.022 A 
BRANCH  72  75
ATOM     75  S   UNL A   1      45.792  24.388  36.299  1.00  0.00     0.127 S 
ATOM     76  O   UNL A   1      46.549  23.445  35.478  1.00  0.00    -0.237 OA
ATOM     77  O   UNL A   1      46.477  24.823  37.517  1.00  0.00    -0.237 OA
ATOM     78  O   UNL A   1      44.382  24.074  36.480  1.00  0.00    -0.744 OA
ENDBRANCH  72  75
ENDBRANCH  54  68
BRANCH  55  79
ATOM     79  C   UNL A   1      36.709  30.536  28.890  1.00  0.00     0.023 A 
ATOM     80  C   UNL A   1      35.912  29.527  28.317  1.00  0.00     0.012 A 
ATOM     81  C   UNL A   1      36.288  31.878  28.806  1.00  0.00     0.148 A 
ATOM     82  C   UNL A   1      34.729  29.850  27.652  1.00  0.00     0.002 A 
ATOM     83  C   UNL A   1      35.082  32.188  28.190  1.00  0.00     0.091 A 
ATOM     84  F   UNL A   1      37.072  32.824  29.343  1.00  0.00    -0.205 F 
ATOM     85  C   UNL A   1      34.308  31.177  27.598  1.00  0.00     0.022 A 
BRANCH  83  86
ATOM     86  S   UNL A   1      34.401  33.850  28.179  1.00  0.00     0.127 S 
ATOM     87  O   UNL A   1      33.025  33.606  27.752  1.00  0.00    -0.237 OA
ATOM     88  O   UNL A   1      34.551  34.244  29.580  1.00  0.00    -0.237 OA
ATOM     89  O   UNL A   1      35.225  34.609  27.249  1.00  0.00    -0.744 OA
ENDBRANCH  83  86
ENDBRANCH  55  79
BRANCH  67  90
ATOM     90  C   UNL A   1      39.110  31.730  35.355  1.00  0.00     0.023 A 
ATOM     91  C   UNL A   1      38.246  31.096  36.269  1.00  0.00     0.012 A 
ATOM     92  C   UNL A   1      39.524  33.055  35.601  1.00  0.00     0.148 A 
ATOM     93  C   UNL A   1      37.779  31.777  37.392  1.00  0.00     0.002 A 
ATOM     94  C   UNL A   1      39.093  33.712  36.748  1.00  0.00     0.091 A 
ATOM     95  F   UNL A   1      40.332  33.649  34.711  1.00  0.00    -0.205 F 
ATOM     96  C   UNL A   1      38.211  33.079  37.639  1.00  0.00     0.022 A 
BRANCH  94  97
ATOM     97  S   UNL A   1      39.676  35.351  37.195  1.00  0.00     0.127 S 
ATOM     98  O   UNL A   1      38.983  35.579  38.462  1.00  0.00    -0.237 OA
ATOM     99  O   UNL A   1      41.120  35.146  37.319  1.00  0.00    -0.237 OA
ATOM    100  O   UNL A   1      39.284  36.228  36.100  1.00  0.00    -0.744 OA
ENDBRANCH  94  97
ENDBRANCH  67  90
ENDBRANCH  41  42
ENDBRANCH  34  36
ENDBRANCH  33  34
ENDBRANCH  32  33
ENDBRANCH  31  32
ENDBRANCH  30  31
ENDBRANCH  29  30
ENDBRANCH   1  29
TORSDOF 24
ENDMDL
MODEL 2
REMARK VINA RESULT:     -10.4      5.064      6.668
REMARK SMILES COc1ccc(C(=O)OCCOCCOCCOC(=O)c2ccc(-c3c4nc(c(-c5cccc(S(=O)(=O)[O-])c5F)c5ccc([nH]5)c(-c5cccc(S(=O)(=O)[O-])c5F)c5nc(c(-c6cccc(S(=O)(=O)[O-])c6F)c6ccc3[nH]6)C=C5)C=C4)cc2)cc1NC(=O)c1ccccc1[N+](=O)[O-]
REMARK SMILES IDX 13 1 12 2 11 3 10 4 9 5 7 6 8 7 6 8 3 9 4 10 85 11 5 12
REMARK SMILES IDX 84 13 2 14 1 15 86 16 87 17 88 19 89 20 90 21 94 22 91 23
REMARK SMILES IDX 93 24 92 25 95 26 96 27 97 28 14 29 15 30 16 31 17 32 18 33
REMARK SMILES IDX 19 34 20 35 21 36 22 37 83 38 23 39 82 40 24 41 25 42 26 43
REMARK SMILES IDX 76 44 27 45 81 46 75 47 77 48 28 49 80 50 74 51 73 52 29 54
REMARK SMILES IDX 61 55 41 56 60 57 42 58 45 59 59 60 78 61 43 62 44 63 58 65
REMARK SMILES IDX 79 66 46 67 30 68 31 69 39 70 32 71 34 72 40 73 33 74 35 75
REMARK SMILES IDX 36 76 37 77 38 78 62 79 63 80 71 81 64 82 66 83 72 84 65 85
REMARK SMILES IDX 67 86 68 87 69 88 70 89 47 90 48 91 56 92 49 93 51 94 57 95
REMARK SMILES IDX 50 96 52 97 53 98 54 99 55 100
REMARK H PARENT 86 18 77 53 45 64
REMARK Flexibility Score: inf
ROOT
ATOM      1  C   UNL A   1      41.322  21.857  27.379  1.00  0.00     0.188 C 
ENDROOT
BRANCH   1   2
ATOM      2  O   UNL A   1      40.023  22.383  27.566  1.00  0.00    -0.376 OA
BRANCH   2   3
ATOM      3  C   UNL A   1      39.393  23.140  26.548  1.00  0.00     0.202 C 
BRANCH   3   4
ATOM      4  C   UNL A   1      38.172  22.612  25.793  1.00  0.00     0.261 C 
BRANCH   4   5
ATOM      5  O   UNL A   1      37.137  23.582  25.596  1.00  0.00    -0.460 OA
BRANCH   5   6
ATOM      6  C   UNL A   1      36.094  23.181  24.820  1.00  0.00     0.338 C 
ATOM      7  O   UNL A   1      36.172  22.662  23.719  1.00  0.00    -0.246 OA
BRANCH   6   8
ATOM      8  C   UNL A   1      34.804  23.393  25.525  1.00  0.00     0.062 A 
ATOM      9  C   UNL A   1      32.332  23.591  26.771  1.00  0.00     0.142 A 
ATOM     10  C   UNL A   1      33.407  23.019  27.456  1.00  0.00     0.049 A 
ATOM     11  C   UNL A   1      32.479  24.086  25.463  1.00  0.00     0.084 A 
ATOM     12  C   UNL A   1      34.633  22.870  26.808  1.00  0.00     0.019 A 
ATOM     13  C   UNL A   1      33.750  24.080  24.907  1.00  0.00     0.045 A 
BRANCH   9  14
ATOM     14  O   UNL A   1      31.131  23.703  27.423  1.00  0.00    -0.495 OA
ATOM     15  C   UNL A   1      30.157  22.805  26.886  1.00  0.00     0.278 C 
ENDBRANCH   9  14
BRANCH  11  16
ATOM     16  N   UNL A   1      31.312  24.479  24.776  1.00  0.00    -0.319 N 
ATOM     17  C   UNL A   1      31.021  25.482  23.880  1.00  0.00     0.262 C 
ATOM     18  H   UNL A   1      30.535  23.910  24.981  1.00  0.00     0.170 HD
ATOM     19  O   UNL A   1      29.905  25.539  23.362  1.00  0.00    -0.269 OA
BRANCH  17  20
ATOM     20  C   UNL A   1      31.959  26.572  23.568  1.00  0.00     0.117 A 
ATOM     21  C   UNL A   1      32.097  27.537  24.578  1.00  0.00     0.021 A 
ATOM     22  C   UNL A   1      32.738  26.680  22.409  1.00  0.00     0.282 A 
ATOM     23  C   UNL A   1      33.063  28.538  24.473  1.00  0.00     0.001 A 
ATOM     24  C   UNL A   1      33.733  27.670  22.319  1.00  0.00     0.086 A 
ATOM     25  C   UNL A   1      33.899  28.587  23.358  1.00  0.00     0.007 A 
BRANCH  22  26
ATOM     26  N   UNL A   1      32.611  25.726  21.312  1.00  0.00     0.063 N 
ATOM     27  O   UNL A   1      31.799  26.003  20.418  1.00  0.00    -0.258 OA
ATOM     28  O   UNL A   1      33.298  24.700  21.350  1.00  0.00    -0.258 OA
ENDBRANCH  22  26
ENDBRANCH  17  20
ENDBRANCH  11  16
ENDBRANCH   6   8
ENDBRANCH   5   6
ENDBRANCH   4   5
ENDBRANCH   3   4
ENDBRANCH   2   3
ENDBRANCH   1   2
BRANCH   1  29
ATOM     29  C   UNL A   1      41.515  20.462  26.746  1.00  0.00     0.188 C 
BRANCH  29  30
ATOM     30  O   UNL A   1      41.912  19.346  27.519  1.00  0.00    -0.376 OA
BRANCH  30  31
ATOM     31  C   UNL A   1      42.853  18.431  26.983  1.00  0.00     0.202 C 
BRANCH  31  32
ATOM     32  C   UNL A   1      43.369  18.553  25.543  1.00  0.00     0.261 C 
BRANCH  32  33
ATOM     33  O   UNL A   1      44.656  19.169  25.403  1.00  0.00    -0.460 OA
BRANCH  33  34
ATOM     34  C   UNL A   1      44.748  20.094  24.415  1.00  0.00     0.338 C 
ATOM     35  O   UNL A   1      44.778  19.887  23.214  1.00  0.00    -0.246 OA
BRANCH  34  36
ATOM     36  C   UNL A   1      44.592  21.443  24.996  1.00  0.00     0.060 A 
ATOM     37  C   UNL A   1      44.052  22.454  24.187  1.00  0.00     0.016 A 
ATOM     38  C   UNL A   1      44.990  21.716  26.304  1.00  0.00     0.016 A 
ATOM     39  C   UNL A   1      43.932  23.753  24.678  1.00  0.00     0.010 A 
ATOM     40  C   UNL A   1      44.893  23.025  26.786  1.00  0.00     0.010 A 
ATOM     41  C   UNL A   1      44.393  24.053  25.965  1.00  0.00    -0.014 A 
BRANCH  41  42
ATOM     42  C   UNL A   1      44.533  25.467  26.383  1.00  0.00     0.031 A 
ATOM     43  C   UNL A   1      45.895  26.100  26.318  1.00  0.00     0.074 A 
ATOM     44  C   UNL A   1      43.481  26.171  26.838  1.00  0.00     0.049 A 
ATOM     45  N   UNL A   1      46.271  27.299  26.679  1.00  0.00    -0.248 NA
ATOM     46  C   UNL A   1      46.981  25.262  25.783  1.00  0.00     0.031 C 
ATOM     47  C   UNL A   1      42.116  25.668  26.957  1.00  0.00     0.029 A 
ATOM     48  N   UNL A   1      43.416  27.454  27.322  1.00  0.00    -0.354 N 
ATOM     49  C   UNL A   1      47.640  27.349  26.446  1.00  0.00     0.074 A 
ATOM     50  C   UNL A   1      48.029  26.059  25.921  1.00  0.00     0.031 C 
ATOM     51  C   UNL A   1      41.353  26.617  27.528  1.00  0.00     0.029 A 
ATOM     52  C   UNL A   1      42.183  27.784  27.831  1.00  0.00     0.049 A 
ATOM     53  H   UNL A   1      44.178  28.077  27.306  1.00  0.00     0.167 HD
ATOM     54  C   UNL A   1      48.496  28.379  26.643  1.00  0.00     0.034 A 
ATOM     55  C   UNL A   1      41.779  28.887  28.494  1.00  0.00     0.034 A 
ATOM     56  C   UNL A   1      48.107  29.665  27.155  1.00  0.00     0.049 A 
ATOM     57  C   UNL A   1      42.750  30.019  28.711  1.00  0.00     0.074 A 
ATOM     58  C   UNL A   1      48.889  30.793  27.327  1.00  0.00     0.029 A 
ATOM     59  N   UNL A   1      46.835  29.987  27.599  1.00  0.00    -0.354 N 
ATOM     60  N   UNL A   1      44.008  30.108  28.353  1.00  0.00    -0.248 NA
ATOM     61  C   UNL A   1      42.237  31.217  29.392  1.00  0.00     0.031 C 
ATOM     62  C   UNL A   1      48.095  31.789  27.906  1.00  0.00     0.029 A 
ATOM     63  C   UNL A   1      46.812  31.291  28.064  1.00  0.00     0.049 A 
ATOM     64  H   UNL A   1      46.062  29.378  27.586  1.00  0.00     0.167 HD
ATOM     65  C   UNL A   1      44.428  31.379  28.738  1.00  0.00     0.074 A 
ATOM     66  C   UNL A   1      43.283  32.031  29.337  1.00  0.00     0.031 C 
ATOM     67  C   UNL A   1      45.654  31.949  28.616  1.00  0.00     0.034 A 
BRANCH  54  68
ATOM     68  C   UNL A   1      49.941  28.153  26.287  1.00  0.00     0.023 A 
ATOM     69  C   UNL A   1      50.353  28.246  24.943  1.00  0.00     0.012 A 
ATOM     70  C   UNL A   1      50.893  27.873  27.286  1.00  0.00     0.148 A 
ATOM     71  C   UNL A   1      51.685  28.027  24.593  1.00  0.00     0.002 A 
ATOM     72  C   UNL A   1      52.226  27.700  26.934  1.00  0.00     0.091 A 
ATOM     73  F   UNL A   1      50.477  27.760  28.555  1.00  0.00    -0.205 F 
ATOM     74  C   UNL A   1      52.622  27.764  25.588  1.00  0.00     0.022 A 
BRANCH  72  75
ATOM     75  S   UNL A   1      53.516  27.434  28.156  1.00  0.00     0.127 S 
ATOM     76  O   UNL A   1      53.058  26.207  28.805  1.00  0.00    -0.237 OA
ATOM     77  O   UNL A   1      54.706  27.275  27.319  1.00  0.00    -0.237 OA
ATOM     78  O   UNL A   1      53.523  28.625  28.994  1.00  0.00    -0.744 OA
ENDBRANCH  72  75
ENDBRANCH  54  68
BRANCH  55  79
ATOM     79  C   UNL A   1      40.375  28.977  28.986  1.00  0.00     0.023 A 
ATOM     80  C   UNL A   1      39.326  29.184  28.072  1.00  0.00     0.012 A 
ATOM     81  C   UNL A   1      40.078  28.828  30.355  1.00  0.00     0.148 A 
ATOM     82  C   UNL A   1      38.005  29.262  28.514  1.00  0.00     0.002 A 
ATOM     83  C   UNL A   1      38.756  28.853  30.783  1.00  0.00     0.091 A 
ATOM     84  F   UNL A   1      41.095  28.651  31.210  1.00  0.00    -0.205 F 
ATOM     85  C   UNL A   1      37.718  29.086  29.866  1.00  0.00     0.022 A 
BRANCH  83  86
ATOM     86  S   UNL A   1      38.284  28.514  32.482  1.00  0.00     0.127 S 
ATOM     87  O   UNL A   1      36.896  28.970  32.503  1.00  0.00    -0.237 OA
ATOM     88  O   UNL A   1      38.456  27.063  32.557  1.00  0.00    -0.237 OA
ATOM     89  O   UNL A   1      39.210  29.273  33.309  1.00  0.00    -0.744 OA
ENDBRANCH  83  86
ENDBRANCH  55  79
BRANCH  67  90
ATOM     90  C   UNL A   1      45.828  33.363  29.111  1.00  0.00     0.023 A 
ATOM     91  C   UNL A   1      46.344  33.597  30.401  1.00  0.00     0.012 A 
ATOM     92  C   UNL A   1      45.563  34.458  28.264  1.00  0.00     0.148 A 
ATOM     93  C   UNL A   1      46.564  34.898  30.851  1.00  0.00     0.002 A 
ATOM     94  C   UNL A   1      45.831  35.751  28.701  1.00  0.00     0.091 A 
ATOM     95  F   UNL A   1      45.056  34.218  27.046  1.00  0.00    -0.205 F 
ATOM     96  C   UNL A   1      46.320  35.973  29.998  1.00  0.00     0.022 A 
BRANCH  94  97
ATOM     97  S   UNL A   1      45.639  37.186  27.638  1.00  0.00     0.127 S 
ATOM     98  O   UNL A   1      46.761  37.025  26.715  1.00  0.00    -0.237 OA
ATOM     99  O   UNL A   1      44.322  36.958  27.041  1.00  0.00    -0.237 OA
ATOM    100  O   UNL A   1      45.710  38.346  28.514  1.00  0.00    -0.744 OA
ENDBRANCH  94  97
ENDBRANCH  67  90
ENDBRANCH  41  42
ENDBRANCH  34  36
ENDBRANCH  33  34
ENDBRANCH  32  33
ENDBRANCH  31  32
ENDBRANCH  30  31
ENDBRANCH  29  30
ENDBRANCH   1  29
TORSDOF 24
ENDMDL
MODEL 3
REMARK VINA RESULT:     -10.0      4.400      5.547
REMARK SMILES COc1ccc(C(=O)OCCOCCOCCOC(=O)c2ccc(-c3c4nc(c(-c5cccc(S(=O)(=O)[O-])c5F)c5ccc([nH]5)c(-c5cccc(S(=O)(=O)[O-])c5F)c5nc(c(-c6cccc(S(=O)(=O)[O-])c6F)c6ccc3[nH]6)C=C5)C=C4)cc2)cc1NC(=O)c1ccccc1[N+](=O)[O-]
REMARK SMILES IDX 13 1 12 2 11 3 10 4 9 5 7 6 8 7 6 8 3 9 4 10 85 11 5 12
REMARK SMILES IDX 84 13 2 14 1 15 86 16 87 17 88 19 89 20 90 21 94 22 91 23
REMARK SMILES IDX 93 24 92 25 95 26 96 27 97 28 14 29 15 30 16 31 17 32 18 33
REMARK SMILES IDX 19 34 20 35 21 36 22 37 83 38 23 39 82 40 24 41 25 42 26 43
REMARK SMILES IDX 76 44 27 45 81 46 75 47 77 48 28 49 80 50 74 51 73 52 29 54
REMARK SMILES IDX 61 55 41 56 60 57 42 58 45 59 59 60 78 61 43 62 44 63 58 65
REMARK SMILES IDX 79 66 46 67 30 68 31 69 39 70 32 71 34 72 40 73 33 74 35 75
REMARK SMILES IDX 36 76 37 77 38 78 62 79 63 80 71 81 64 82 66 83 72 84 65 85
REMARK SMILES IDX 67 86 68 87 69 88 70 89 47 90 48 91 56 92 49 93 51 94 57 95
REMARK SMILES IDX 50 96 52 97 53 98 54 99 55 100
REMARK H PARENT 86 18 77 53 45 64
REMARK Flexibility Score: inf
ROOT
ATOM      1  C   UNL A   1      38.787  22.495  26.212  1.00  0.00     0.188 C 
ENDROOT
BRANCH   1   2
ATOM      2  O   UNL A   1      38.075  21.754  25.241  1.00  0.00    -0.376 OA
BRANCH   2   3
ATOM      3  C   UNL A   1      36.687  21.959  25.043  1.00  0.00     0.202 C 
BRANCH   3   4
ATOM      4  C   UNL A   1      35.649  20.939  25.516  1.00  0.00     0.261 C 
BRANCH   4   5
ATOM      5  O   UNL A   1      34.294  21.396  25.427  1.00  0.00    -0.460 OA
BRANCH   5   6
ATOM      6  C   UNL A   1      34.098  22.712  25.706  1.00  0.00     0.338 C 
ATOM      7  O   UNL A   1      34.474  23.302  26.705  1.00  0.00    -0.246 OA
BRANCH   6   8
ATOM      8  C   UNL A   1      33.407  23.389  24.578  1.00  0.00     0.062 A 
ATOM      9  C   UNL A   1      32.164  24.845  22.569  1.00  0.00     0.142 A 
ATOM     10  C   UNL A   1      33.526  24.546  22.465  1.00  0.00     0.049 A 
ATOM     11  C   UNL A   1      31.403  24.410  23.666  1.00  0.00     0.084 A 
ATOM     12  C   UNL A   1      34.160  23.863  23.502  1.00  0.00     0.019 A 
ATOM     13  C   UNL A   1      32.019  23.586  24.598  1.00  0.00     0.045 A 
BRANCH   9  14
ATOM     14  O   UNL A   1      31.571  25.540  21.545  1.00  0.00    -0.495 OA
ATOM     15  C   UNL A   1      32.533  25.976  20.583  1.00  0.00     0.278 C 
ENDBRANCH   9  14
BRANCH  11  16
ATOM     16  N   UNL A   1      30.088  24.903  23.789  1.00  0.00    -0.319 N 
ATOM     17  C   UNL A   1      29.549  26.106  24.187  1.00  0.00     0.262 C 
ATOM     18  H   UNL A   1      29.403  24.243  23.534  1.00  0.00     0.170 HD
ATOM     19  O   UNL A   1      28.334  26.290  24.113  1.00  0.00    -0.269 OA
BRANCH  17  20
ATOM     20  C   UNL A   1      30.352  27.178  24.797  1.00  0.00     0.117 A 
ATOM     21  C   UNL A   1      30.944  26.844  26.026  1.00  0.00     0.021 A 
ATOM     22  C   UNL A   1      30.608  28.435  24.235  1.00  0.00     0.282 A 
ATOM     23  C   UNL A   1      31.849  27.713  26.635  1.00  0.00     0.001 A 
ATOM     24  C   UNL A   1      31.546  29.297  24.834  1.00  0.00     0.086 A 
ATOM     25  C   UNL A   1      32.172  28.925  26.025  1.00  0.00     0.007 A 
BRANCH  22  26
ATOM     26  N   UNL A   1      29.993  28.849  22.979  1.00  0.00     0.063 N 
ATOM     27  O   UNL A   1      30.656  28.680  21.945  1.00  0.00    -0.258 OA
ATOM     28  O   UNL A   1      28.868  29.357  23.021  1.00  0.00    -0.258 OA
ENDBRANCH  22  26
ENDBRANCH  17  20
ENDBRANCH  11  16
ENDBRANCH   6   8
ENDBRANCH   5   6
ENDBRANCH   4   5
ENDBRANCH   3   4
ENDBRANCH   2   3
ENDBRANCH   1   2
BRANCH   1  29
ATOM     29  C   UNL A   1      40.214  22.074  26.623  1.00  0.00     0.188 C 
BRANCH  29  30
ATOM     30  O   UNL A   1      40.439  21.077  27.601  1.00  0.00    -0.376 OA
BRANCH  30  31
ATOM     31  C   UNL A   1      41.285  19.982  27.294  1.00  0.00     0.202 C 
BRANCH  31  32
ATOM     32  C   UNL A   1      41.961  19.843  25.922  1.00  0.00     0.261 C 
BRANCH  32  33
ATOM     33  O   UNL A   1      43.394  19.826  25.944  1.00  0.00    -0.460 OA
BRANCH  33  34
ATOM     34  C   UNL A   1      43.994  20.771  25.175  1.00  0.00     0.338 C 
ATOM     35  O   UNL A   1      44.497  20.613  24.076  1.00  0.00    -0.246 OA
BRANCH  34  36
ATOM     36  C   UNL A   1      43.764  22.101  25.773  1.00  0.00     0.060 A 
ATOM     37  C   UNL A   1      43.392  23.154  24.923  1.00  0.00     0.016 A 
ATOM     38  C   UNL A   1      43.934  22.318  27.140  1.00  0.00     0.016 A 
ATOM     39  C   UNL A   1      43.212  24.437  25.436  1.00  0.00     0.010 A 
ATOM     40  C   UNL A   1      43.779  23.611  27.649  1.00  0.00     0.010 A 
ATOM     41  C   UNL A   1      43.449  24.680  26.794  1.00  0.00    -0.014 A 
BRANCH  41  42
ATOM     42  C   UNL A   1      43.540  26.074  27.285  1.00  0.00     0.031 A 
ATOM     43  C   UNL A   1      44.897  26.715  27.369  1.00  0.00     0.074 A 
ATOM     44  C   UNL A   1      42.447  26.753  27.677  1.00  0.00     0.049 A 
ATOM     45  N   UNL A   1      45.231  27.897  27.814  1.00  0.00    -0.248 NA
ATOM     46  C   UNL A   1      46.033  25.906  26.894  1.00  0.00     0.031 C 
ATOM     47  C   UNL A   1      41.080  26.239  27.653  1.00  0.00     0.029 A 
ATOM     48  N   UNL A   1      42.330  28.013  28.210  1.00  0.00    -0.354 N 
ATOM     49  C   UNL A   1      46.614  27.964  27.705  1.00  0.00     0.074 A 
ATOM     50  C   UNL A   1      47.059  26.700  27.159  1.00  0.00     0.031 C 
ATOM     51  C   UNL A   1      40.264  27.159  28.197  1.00  0.00     0.029 A 
ATOM     52  C   UNL A   1      41.054  28.315  28.623  1.00  0.00     0.049 A 
ATOM     53  H   UNL A   1      43.085  28.639  28.289  1.00  0.00     0.167 HD
ATOM     54  C   UNL A   1      47.442  28.987  28.022  1.00  0.00     0.034 A 
ATOM     55  C   UNL A   1      40.585  29.385  29.296  1.00  0.00     0.034 A 
ATOM     56  C   UNL A   1      47.000  30.247  28.554  1.00  0.00     0.049 A 
ATOM     57  C   UNL A   1      41.524  30.510  29.648  1.00  0.00     0.074 A 
ATOM     58  C   UNL A   1      47.754  31.369  28.844  1.00  0.00     0.029 A 
ATOM     59  N   UNL A   1      45.691  30.544  28.899  1.00  0.00    -0.354 N 
ATOM     60  N   UNL A   1      42.809  30.620  29.406  1.00  0.00    -0.248 NA
ATOM     61  C   UNL A   1      40.944  31.674  30.334  1.00  0.00     0.031 C 
ATOM     62  C   UNL A   1      46.905  32.335  29.395  1.00  0.00     0.029 A 
ATOM     63  C   UNL A   1      45.617  31.825  29.417  1.00  0.00     0.049 A 
ATOM     64  H   UNL A   1      44.927  29.933  28.791  1.00  0.00     0.167 HD
ATOM     65  C   UNL A   1      43.183  31.874  29.882  1.00  0.00     0.074 A 
ATOM     66  C   UNL A   1      41.985  32.494  30.407  1.00  0.00     0.031 C 
ATOM     67  C   UNL A   1      44.410  32.454  29.894  1.00  0.00     0.034 A 
BRANCH  54  68
ATOM     68  C   UNL A   1      48.914  28.784  27.784  1.00  0.00     0.023 A 
ATOM     69  C   UNL A   1      49.492  29.205  26.570  1.00  0.00     0.012 A 
ATOM     70  C   UNL A   1      49.728  28.197  28.772  1.00  0.00     0.148 A 
ATOM     71  C   UNL A   1      50.852  29.012  26.327  1.00  0.00     0.002 A 
ATOM     72  C   UNL A   1      51.090  28.049  28.540  1.00  0.00     0.091 A 
ATOM     73  F   UNL A   1      49.155  27.776  29.909  1.00  0.00    -0.205 F 
ATOM     74  C   UNL A   1      51.652  28.444  27.314  1.00  0.00     0.022 A 
BRANCH  72  75
ATOM     75  S   UNL A   1      52.212  27.398  29.783  1.00  0.00     0.127 S 
ATOM     76  O   UNL A   1      51.451  26.263  30.301  1.00  0.00    -0.237 OA
ATOM     77  O   UNL A   1      53.383  27.035  28.984  1.00  0.00    -0.237 OA
ATOM     78  O   UNL A   1      52.439  28.486  30.724  1.00  0.00    -0.744 OA
ENDBRANCH  72  75
ENDBRANCH  54  68
BRANCH  55  79
ATOM     79  C   UNL A   1      39.143  29.447  29.667  1.00  0.00     0.023 A 
ATOM     80  C   UNL A   1      38.731  29.025  30.945  1.00  0.00     0.012 A 
ATOM     81  C   UNL A   1      38.185  29.953  28.766  1.00  0.00     0.148 A 
ATOM     82  C   UNL A   1      37.386  29.084  31.312  1.00  0.00     0.002 A 
ATOM     83  C   UNL A   1      36.856  30.060  29.157  1.00  0.00     0.091 A 
ATOM     84  F   UNL A   1      38.597  30.332  27.548  1.00  0.00    -0.205 F 
ATOM     85  C   UNL A   1      36.451  29.612  30.425  1.00  0.00     0.022 A 
BRANCH  83  86
ATOM     86  S   UNL A   1      35.606  30.838  28.128  1.00  0.00     0.127 S 
ATOM     87  O   UNL A   1      35.399  29.827  27.094  1.00  0.00    -0.237 OA
ATOM     88  O   UNL A   1      34.497  30.992  29.070  1.00  0.00    -0.237 OA
ATOM     89  O   UNL A   1      36.191  32.092  27.676  1.00  0.00    -0.744 OA
ENDBRANCH  83  86
ENDBRANCH  55  79
BRANCH  67  90
ATOM     90  C   UNL A   1      44.529  33.844  30.464  1.00  0.00     0.023 A 
ATOM     91  C   UNL A   1      44.933  34.022  31.802  1.00  0.00     0.012 A 
ATOM     92  C   UNL A   1      44.326  34.976  29.648  1.00  0.00     0.148 A 
ATOM     93  C   UNL A   1      45.103  35.303  32.327  1.00  0.00     0.002 A 
ATOM     94  C   UNL A   1      44.544  36.248  30.164  1.00  0.00     0.091 A 
ATOM     95  F   UNL A   1      43.924  34.788  28.382  1.00  0.00    -0.205 F 
ATOM     96  C   UNL A   1      44.921  36.415  31.506  1.00  0.00     0.022 A 
BRANCH  94  97
ATOM     97  S   UNL A   1      44.429  37.729  29.153  1.00  0.00     0.127 S 
ATOM     98  O   UNL A   1      45.387  37.439  28.089  1.00  0.00    -0.237 OA
ATOM     99  O   UNL A   1      43.027  37.711  28.733  1.00  0.00    -0.237 OA
ATOM    100  O   UNL A   1      44.780  38.839  30.028  1.00  0.00    -0.744 OA
ENDBRANCH  94  97
ENDBRANCH  67  90
ENDBRANCH  41  42
ENDBRANCH  34  36
ENDBRANCH  33  34
ENDBRANCH  32  33
ENDBRANCH  31  32
ENDBRANCH  30  31
ENDBRANCH  29  30
ENDBRANCH   1  29
TORSDOF 24
ENDMDL
