MODEL 1
REMARK VINA RESULT:     -10.0      0.000      0.000
REMARK SMILES CCC1(C(=O)N[C@H]2C=C[C@H](C(=O)OCCOCCOCCOC(=O)c3ccc(-c4c5nc(c(-c6cccc(S(=O)(=O)[O-])c6F)c6ccc([nH]6)c(-c6cccc(S(=O)(=O)[O-])c6F)c6nc(c(-c7cccc(S(=O)(=O)[O-])c7F)c7ccc4[nH]7)C=C6)C=C5)cc3)C2)CC[NH2+]CC1
REMARK SMILES IDX 17 1 16 2 15 3 14 4 13 5 11 6 12 7 10 8 7 9 8 10 88 11 9 12
REMARK SMILES IDX 6 13 4 14 5 15 3 17 89 18 93 19 90 20 92 21 91 22 2 25 1 26
REMARK SMILES IDX 18 27 19 28 20 29 21 30 22 31 23 32 24 33 25 34 26 35 87 36
REMARK SMILES IDX 27 37 86 38 28 39 29 40 30 41 80 42 31 43 85 44 79 45 81 46
REMARK SMILES IDX 32 47 84 48 78 49 77 50 33 52 65 53 45 54 64 55 46 56 49 57
REMARK SMILES IDX 63 58 82 59 47 60 48 61 62 63 83 64 50 65 34 66 35 67 43 68
REMARK SMILES IDX 36 69 38 70 44 71 37 72 39 73 40 74 41 75 42 76 66 77 67 78
REMARK SMILES IDX 75 79 68 80 70 81 76 82 69 83 71 84 72 85 73 86 74 87 51 88
REMARK SMILES IDX 52 89 60 90 53 91 55 92 61 93 54 94 56 95 57 96 58 97 59 98
REMARK H PARENT 6 16 91 23 91 24 81 51 49 62
REMARK Flexibility Score: inf
ROOT
ATOM      1  C   UNL A   1      34.403  29.441  27.426  1.00  0.00     0.188 C 
ENDROOT
BRANCH   1   2
ATOM      2  O   UNL A   1      33.833  28.187  27.090  1.00  0.00    -0.376 OA
BRANCH   2   3
ATOM      3  C   UNL A   1      32.438  28.061  27.319  1.00  0.00     0.202 C 
BRANCH   3   4
ATOM      4  C   UNL A   1      31.640  27.498  26.140  1.00  0.00     0.261 C 
BRANCH   4   5
ATOM      5  O   UNL A   1      31.439  28.418  25.050  1.00  0.00    -0.463 OA
BRANCH   5   6
ATOM      6  C   UNL A   1      31.189  27.936  23.799  1.00  0.00     0.312 C 
ATOM      7  O   UNL A   1      30.646  28.573  22.907  1.00  0.00    -0.252 OA
BRANCH   6   8
ATOM      8  C   UNL A   1      31.688  26.488  23.727  1.00  0.00     0.124 C 
ATOM      9  C   UNL A   1      33.608  25.404  22.597  1.00  0.00     0.106 C 
ATOM     10  C   UNL A   1      32.310  25.047  21.962  1.00  0.00    -0.006 C 
ATOM     11  C   UNL A   1      33.223  26.365  23.717  1.00  0.00     0.048 C 
ATOM     12  C   UNL A   1      31.278  25.695  22.522  1.00  0.00    -0.014 C 
BRANCH   9  13
ATOM     13  N   UNL A   1      34.465  24.248  22.859  1.00  0.00    -0.349 N 
ATOM     14  C   UNL A   1      34.570  23.134  23.624  1.00  0.00     0.227 C 
ATOM     15  O   UNL A   1      35.562  22.438  23.357  1.00  0.00    -0.274 OA
ATOM     16  H   UNL A   1      35.248  24.296  22.264  1.00  0.00     0.164 HD
BRANCH  14  17
ATOM     17  C   UNL A   1      33.655  22.722  24.801  1.00  0.00     0.060 C 
ATOM     18  C   UNL A   1      33.822  23.778  25.931  1.00  0.00     0.078 C 
ATOM     19  C   UNL A   1      32.203  22.563  24.328  1.00  0.00     0.078 C 
ATOM     20  C   UNL A   1      32.642  23.850  26.900  1.00  0.00     0.261 C 
ATOM     21  C   UNL A   1      31.179  22.620  25.449  1.00  0.00     0.261 C 
ATOM     22  N   UNL A   1      31.353  23.851  26.213  1.00  0.00    -0.346 N 
ATOM     23  H   UNL A   1      31.313  24.649  25.578  1.00  0.00     0.346 HD
ATOM     24  H   UNL A   1      30.610  23.916  26.908  1.00  0.00     0.346 HD
BRANCH  17  25
ATOM     25  C   UNL A   1      34.158  21.368  25.429  1.00  0.00     0.014 C 
ATOM     26  C   UNL A   1      33.409  20.103  25.028  1.00  0.00     0.005 C 
ENDBRANCH  17  25
ENDBRANCH  14  17
ENDBRANCH   9  13
ENDBRANCH   6   8
ENDBRANCH   5   6
ENDBRANCH   4   5
ENDBRANCH   3   4
ENDBRANCH   2   3
ENDBRANCH   1   2
BRANCH   1  27
ATOM     27  C   UNL A   1      33.629  30.641  26.835  1.00  0.00     0.188 C 
BRANCH  27  28
ATOM     28  O   UNL A   1      32.293  30.925  27.240  1.00  0.00    -0.376 OA
BRANCH  28  29
ATOM     29  C   UNL A   1      31.671  32.119  26.801  1.00  0.00     0.202 C 
BRANCH  29  30
ATOM     30  C   UNL A   1      32.442  33.437  26.954  1.00  0.00     0.261 C 
BRANCH  30  31
ATOM     31  O   UNL A   1      32.492  33.986  28.282  1.00  0.00    -0.460 OA
BRANCH  31  32
ATOM     32  C   UNL A   1      33.614  34.683  28.592  1.00  0.00     0.338 C 
ATOM     33  O   UNL A   1      33.714  35.891  28.720  1.00  0.00    -0.246 OA
BRANCH  32  34
ATOM     34  C   UNL A   1      34.721  33.751  28.917  1.00  0.00     0.060 A 
ATOM     35  C   UNL A   1      34.426  32.596  29.654  1.00  0.00     0.016 A 
ATOM     36  C   UNL A   1      36.043  34.041  28.572  1.00  0.00     0.016 A 
ATOM     37  C   UNL A   1      35.450  31.743  30.074  1.00  0.00     0.010 A 
ATOM     38  C   UNL A   1      37.071  33.194  29.012  1.00  0.00     0.010 A 
ATOM     39  C   UNL A   1      36.785  32.057  29.790  1.00  0.00    -0.014 A 
BRANCH  39  40
ATOM     40  C   UNL A   1      37.889  31.290  30.427  1.00  0.00     0.031 A 
ATOM     41  C   UNL A   1      38.297  31.632  31.838  1.00  0.00     0.074 A 
ATOM     42  C   UNL A   1      38.535  30.311  29.768  1.00  0.00     0.049 A 
ATOM     43  N   UNL A   1      39.274  31.148  32.561  1.00  0.00    -0.248 NA
ATOM     44  C   UNL A   1      37.495  32.660  32.521  1.00  0.00     0.031 C 
ATOM     45  C   UNL A   1      38.233  29.864  28.409  1.00  0.00     0.029 A 
ATOM     46  N   UNL A   1      39.604  29.534  30.148  1.00  0.00    -0.354 N 
ATOM     47  C   UNL A   1      39.224  31.831  33.772  1.00  0.00     0.074 A 
ATOM     48  C   UNL A   1      38.126  32.769  33.681  1.00  0.00     0.031 C 
ATOM     49  C   UNL A   1      39.116  28.913  28.057  1.00  0.00     0.029 A 
ATOM     50  C   UNL A   1      40.065  28.706  29.150  1.00  0.00     0.049 A 
ATOM     51  H   UNL A   1      40.002  29.567  31.047  1.00  0.00     0.167 HD
ATOM     52  C   UNL A   1      40.011  31.684  34.865  1.00  0.00     0.034 A 
ATOM     53  C   UNL A   1      41.145  27.898  29.113  1.00  0.00     0.034 A 
ATOM     54  C   UNL A   1      41.097  30.746  34.964  1.00  0.00     0.049 A 
ATOM     55  C   UNL A   1      42.037  27.790  30.326  1.00  0.00     0.074 A 
ATOM     56  C   UNL A   1      41.929  30.506  36.043  1.00  0.00     0.029 A 
ATOM     57  N   UNL A   1      41.513  29.905  33.945  1.00  0.00    -0.354 N 
ATOM     58  N   UNL A   1      41.918  28.370  31.495  1.00  0.00    -0.248 NA
ATOM     59  C   UNL A   1      43.199  26.893  30.220  1.00  0.00     0.031 C 
ATOM     60  C   UNL A   1      42.871  29.544  35.664  1.00  0.00     0.029 A 
ATOM     61  C   UNL A   1      42.600  29.155  34.363  1.00  0.00     0.049 A 
ATOM     62  H   UNL A   1      41.098  29.849  33.054  1.00  0.00     0.167 HD
ATOM     63  C   UNL A   1      42.962  27.877  32.275  1.00  0.00     0.074 A 
ATOM     64  C   UNL A   1      43.693  26.939  31.450  1.00  0.00     0.031 C 
ATOM     65  C   UNL A   1      43.289  28.181  33.556  1.00  0.00     0.034 A 
BRANCH  52  66
ATOM     66  C   UNL A   1      39.716  32.557  36.059  1.00  0.00     0.023 A 
ATOM     67  C   UNL A   1      40.352  33.809  36.183  1.00  0.00     0.012 A 
ATOM     68  C   UNL A   1      38.771  32.163  37.026  1.00  0.00     0.148 A 
ATOM     69  C   UNL A   1      40.078  34.639  37.269  1.00  0.00     0.002 A 
ATOM     70  C   UNL A   1      38.470  33.016  38.081  1.00  0.00     0.091 A 
ATOM     71  F   UNL A   1      38.191  30.961  36.900  1.00  0.00    -0.205 F 
ATOM     72  C   UNL A   1      39.131  34.248  38.211  1.00  0.00     0.022 A 
BRANCH  70  73
ATOM     73  S   UNL A   1      37.210  32.638  39.304  1.00  0.00     0.127 S 
ATOM     74  O   UNL A   1      37.714  31.387  39.871  1.00  0.00    -0.237 OA
ATOM     75  O   UNL A   1      37.296  33.791  40.200  1.00  0.00    -0.237 OA
ATOM     76  O   UNL A   1      35.957  32.529  38.572  1.00  0.00    -0.744 OA
ENDBRANCH  70  73
ENDBRANCH  52  66
BRANCH  53  77
ATOM     77  C   UNL A   1      41.441  27.100  27.888  1.00  0.00     0.023 A 
ATOM     78  C   UNL A   1      41.995  27.737  26.760  1.00  0.00     0.012 A 
ATOM     79  C   UNL A   1      41.170  25.719  27.831  1.00  0.00     0.148 A 
ATOM     80  C   UNL A   1      42.243  27.021  25.588  1.00  0.00     0.002 A 
ATOM     81  C   UNL A   1      41.471  25.000  26.680  1.00  0.00     0.091 A 
ATOM     82  F   UNL A   1      40.626  25.135  28.908  1.00  0.00    -0.205 F 
ATOM     83  C   UNL A   1      41.990  25.652  25.551  1.00  0.00     0.022 A 
BRANCH  81  84
ATOM     84  S   UNL A   1      41.290  23.216  26.579  1.00  0.00     0.127 S 
ATOM     85  O   UNL A   1      39.862  23.075  26.305  1.00  0.00    -0.237 OA
ATOM     86  O   UNL A   1      42.169  22.891  25.455  1.00  0.00    -0.237 OA
ATOM     87  O   UNL A   1      41.740  22.700  27.865  1.00  0.00    -0.744 OA
ENDBRANCH  81  84
ENDBRANCH  53  77
BRANCH  65  88
ATOM     88  C   UNL A   1      44.460  27.463  34.178  1.00  0.00     0.023 A 
ATOM     89  C   UNL A   1      45.754  28.015  34.098  1.00  0.00     0.012 A 
ATOM     90  C   UNL A   1      44.263  26.276  34.916  1.00  0.00     0.148 A 
ATOM     91  C   UNL A   1      46.836  27.383  34.714  1.00  0.00     0.002 A 
ATOM     92  C   UNL A   1      45.336  25.681  35.569  1.00  0.00     0.091 A 
ATOM     93  F   UNL A   1      43.028  25.756  34.969  1.00  0.00    -0.205 F 
ATOM     94  C   UNL A   1      46.625  26.225  35.457  1.00  0.00     0.022 A 
BRANCH  92  95
ATOM     95  S   UNL A   1      45.144  24.244  36.630  1.00  0.00     0.127 S 
ATOM     96  O   UNL A   1      46.521  24.007  37.063  1.00  0.00    -0.237 OA
ATOM     97  O   UNL A   1      44.255  24.748  37.677  1.00  0.00    -0.237 OA
ATOM     98  O   UNL A   1      44.565  23.199  35.796  1.00  0.00    -0.744 OA
ENDBRANCH  92  95
ENDBRANCH  65  88
ENDBRANCH  39  40
ENDBRANCH  32  34
ENDBRANCH  31  32
ENDBRANCH  30  31
ENDBRANCH  29  30
ENDBRANCH  28  29
ENDBRANCH  27  28
ENDBRANCH   1  27
TORSDOF 23
ENDMDL
MODEL 2
REMARK VINA RESULT:      -9.9      1.850      7.726
REMARK SMILES CCC1(C(=O)N[C@H]2C=C[C@H](C(=O)OCCOCCOCCOC(=O)c3ccc(-c4c5nc(c(-c6cccc(S(=O)(=O)[O-])c6F)c6ccc([nH]6)c(-c6cccc(S(=O)(=O)[O-])c6F)c6nc(c(-c7cccc(S(=O)(=O)[O-])c7F)c7ccc4[nH]7)C=C6)C=C5)cc3)C2)CC[NH2+]CC1
REMARK SMILES IDX 17 1 16 2 15 3 14 4 13 5 11 6 12 7 10 8 7 9 8 10 88 11 9 12
REMARK SMILES IDX 6 13 4 14 5 15 3 17 89 18 93 19 90 20 92 21 91 22 2 25 1 26
REMARK SMILES IDX 18 27 19 28 20 29 21 30 22 31 23 32 24 33 25 34 26 35 87 36
REMARK SMILES IDX 27 37 86 38 28 39 29 40 30 41 80 42 31 43 85 44 79 45 81 46
REMARK SMILES IDX 32 47 84 48 78 49 77 50 33 52 65 53 45 54 64 55 46 56 49 57
REMARK SMILES IDX 63 58 82 59 47 60 48 61 62 63 83 64 50 65 34 66 35 67 43 68
REMARK SMILES IDX 36 69 38 70 44 71 37 72 39 73 40 74 41 75 42 76 66 77 67 78
REMARK SMILES IDX 75 79 68 80 70 81 76 82 69 83 71 84 72 85 73 86 74 87 51 88
REMARK SMILES IDX 52 89 60 90 53 91 55 92 61 93 54 94 56 95 57 96 58 97 59 98
REMARK H PARENT 6 16 91 23 91 24 81 51 49 62
REMARK Flexibility Score: inf
ROOT
ATOM      1  C   UNL A   1      34.791  29.263  27.255  1.00  0.00     0.188 C 
ENDROOT
BRANCH   1   2
ATOM      2  O   UNL A   1      33.632  28.790  26.589  1.00  0.00    -0.376 OA
BRANCH   2   3
ATOM      3  C   UNL A   1      32.538  28.443  27.424  1.00  0.00     0.202 C 
BRANCH   3   4
ATOM      4  C   UNL A   1      31.405  27.688  26.724  1.00  0.00     0.261 C 
BRANCH   4   5
ATOM      5  O   UNL A   1      31.632  27.414  25.328  1.00  0.00    -0.463 OA
BRANCH   5   6
ATOM      6  C   UNL A   1      30.839  26.514  24.680  1.00  0.00     0.312 C 
ATOM      7  O   UNL A   1      29.638  26.653  24.500  1.00  0.00    -0.252 OA
BRANCH   6   8
ATOM      8  C   UNL A   1      31.706  25.325  24.247  1.00  0.00     0.124 C 
ATOM      9  C   UNL A   1      34.111  25.082  23.702  1.00  0.00     0.106 C 
ATOM     10  C   UNL A   1      33.248  24.963  22.494  1.00  0.00    -0.006 C 
ATOM     11  C   UNL A   1      33.128  25.353  24.837  1.00  0.00     0.048 C 
ATOM     12  C   UNL A   1      31.953  25.173  22.776  1.00  0.00    -0.014 C 
BRANCH   9  13
ATOM     13  N   UNL A   1      35.110  24.019  23.808  1.00  0.00    -0.349 N 
ATOM     14  C   UNL A   1      35.258  22.701  24.084  1.00  0.00     0.227 C 
ATOM     15  O   UNL A   1      36.423  22.293  23.962  1.00  0.00    -0.274 OA
ATOM     16  H   UNL A   1      35.996  24.399  23.607  1.00  0.00     0.164 HD
BRANCH  14  17
ATOM     17  C   UNL A   1      34.169  21.728  24.597  1.00  0.00     0.060 C 
ATOM     18  C   UNL A   1      33.035  21.674  23.533  1.00  0.00     0.078 C 
ATOM     19  C   UNL A   1      34.775  20.352  24.909  1.00  0.00     0.078 C 
ATOM     20  C   UNL A   1      32.181  20.407  23.593  1.00  0.00     0.261 C 
ATOM     21  C   UNL A   1      33.756  19.227  24.966  1.00  0.00     0.261 C 
ATOM     22  N   UNL A   1      32.987  19.196  23.727  1.00  0.00    -0.346 N 
ATOM     23  H   UNL A   1      33.628  19.131  22.936  1.00  0.00     0.346 HD
ATOM     24  H   UNL A   1      32.365  18.388  23.745  1.00  0.00     0.346 HD
BRANCH  17  25
ATOM     25  C   UNL A   1      33.489  22.312  25.891  1.00  0.00     0.014 C 
ATOM     26  C   UNL A   1      34.340  22.359  27.155  1.00  0.00     0.005 C 
ENDBRANCH  17  25
ENDBRANCH  14  17
ENDBRANCH   9  13
ENDBRANCH   6   8
ENDBRANCH   5   6
ENDBRANCH   4   5
ENDBRANCH   3   4
ENDBRANCH   2   3
ENDBRANCH   1   2
BRANCH   1  27
ATOM     27  C   UNL A   1      34.842  30.803  27.373  1.00  0.00     0.188 C 
BRANCH  27  28
ATOM     28  O   UNL A   1      33.880  31.513  28.147  1.00  0.00    -0.376 OA
BRANCH  28  29
ATOM     29  C   UNL A   1      32.833  32.206  27.493  1.00  0.00     0.202 C 
BRANCH  29  30
ATOM     30  C   UNL A   1      32.906  33.738  27.430  1.00  0.00     0.261 C 
BRANCH  30  31
ATOM     31  O   UNL A   1      32.443  34.438  28.597  1.00  0.00    -0.460 OA
BRANCH  31  32
ATOM     32  C   UNL A   1      33.357  35.228  29.215  1.00  0.00     0.338 C 
ATOM     33  O   UNL A   1      33.241  36.411  29.481  1.00  0.00    -0.246 OA
BRANCH  32  34
ATOM     34  C   UNL A   1      34.504  34.412  29.683  1.00  0.00     0.060 A 
ATOM     35  C   UNL A   1      34.310  33.550  30.771  1.00  0.00     0.016 A 
ATOM     36  C   UNL A   1      35.773  34.544  29.114  1.00  0.00     0.016 A 
ATOM     37  C   UNL A   1      35.385  32.841  31.314  1.00  0.00     0.010 A 
ATOM     38  C   UNL A   1      36.854  33.847  29.672  1.00  0.00     0.010 A 
ATOM     39  C   UNL A   1      36.674  33.015  30.793  1.00  0.00    -0.014 A 
BRANCH  39  40
ATOM     40  C   UNL A   1      37.853  32.453  31.504  1.00  0.00     0.031 A 
ATOM     41  C   UNL A   1      38.596  31.295  30.887  1.00  0.00     0.074 A 
ATOM     42  C   UNL A   1      38.259  32.948  32.688  1.00  0.00     0.049 A 
ATOM     43  N   UNL A   1      39.599  30.604  31.363  1.00  0.00    -0.248 NA
ATOM     44  C   UNL A   1      38.141  30.859  29.557  1.00  0.00     0.031 C 
ATOM     45  C   UNL A   1      37.647  34.076  33.389  1.00  0.00     0.029 A 
ATOM     46  N   UNL A   1      39.271  32.541  33.525  1.00  0.00    -0.354 N 
ATOM     47  C   UNL A   1      39.878  29.634  30.406  1.00  0.00     0.074 A 
ATOM     48  C   UNL A   1      38.931  29.821  29.328  1.00  0.00     0.031 C 
ATOM     49  C   UNL A   1      38.276  34.251  34.564  1.00  0.00     0.029 A 
ATOM     50  C   UNL A   1      39.312  33.231  34.716  1.00  0.00     0.049 A 
ATOM     51  H   UNL A   1      39.905  31.825  33.296  1.00  0.00     0.167 HD
ATOM     52  C   UNL A   1      40.841  28.680  30.416  1.00  0.00     0.034 A 
ATOM     53  C   UNL A   1      40.077  33.041  35.811  1.00  0.00     0.034 A 
ATOM     54  C   UNL A   1      41.792  28.496  31.480  1.00  0.00     0.049 A 
ATOM     55  C   UNL A   1      41.108  31.939  35.818  1.00  0.00     0.074 A 
ATOM     56  C   UNL A   1      42.822  27.577  31.562  1.00  0.00     0.029 A 
ATOM     57  N   UNL A   1      41.820  29.233  32.653  1.00  0.00    -0.354 N 
ATOM     58  N   UNL A   1      41.424  31.094  34.868  1.00  0.00    -0.248 NA
ATOM     59  C   UNL A   1      41.908  31.783  37.044  1.00  0.00     0.031 C 
ATOM     60  C   UNL A   1      43.452  27.735  32.801  1.00  0.00     0.029 A 
ATOM     61  C   UNL A   1      42.840  28.780  33.473  1.00  0.00     0.049 A 
ATOM     62  H   UNL A   1      41.205  29.970  32.872  1.00  0.00     0.167 HD
ATOM     63  C   UNL A   1      42.483  30.337  35.363  1.00  0.00     0.074 A 
ATOM     64  C   UNL A   1      42.766  30.836  36.692  1.00  0.00     0.031 C 
ATOM     65  C   UNL A   1      43.154  29.317  34.772  1.00  0.00     0.034 A 
BRANCH  52  66
ATOM     66  C   UNL A   1      40.926  27.761  29.224  1.00  0.00     0.023 A 
ATOM     67  C   UNL A   1      40.117  26.608  29.172  1.00  0.00     0.012 A 
ATOM     68  C   UNL A   1      41.762  28.068  28.133  1.00  0.00     0.148 A 
ATOM     69  C   UNL A   1      40.165  25.756  28.069  1.00  0.00     0.002 A 
ATOM     70  C   UNL A   1      41.771  27.239  27.017  1.00  0.00     0.091 A 
ATOM     71  F   UNL A   1      42.537  29.160  28.209  1.00  0.00    -0.205 F 
ATOM     72  C   UNL A   1      40.983  26.077  26.989  1.00  0.00     0.022 A 
BRANCH  70  73
ATOM     73  S   UNL A   1      42.732  27.605  25.545  1.00  0.00     0.127 S 
ATOM     74  O   UNL A   1      44.094  27.617  26.076  1.00  0.00    -0.237 OA
ATOM     75  O   UNL A   1      42.423  26.461  24.686  1.00  0.00    -0.237 OA
ATOM     76  O   UNL A   1      42.244  28.884  25.052  1.00  0.00    -0.744 OA
ENDBRANCH  70  73
ENDBRANCH  52  66
BRANCH  53  77
ATOM     77  C   UNL A   1      39.918  33.930  36.998  1.00  0.00     0.023 A 
ATOM     78  C   UNL A   1      40.450  35.234  36.967  1.00  0.00     0.012 A 
ATOM     79  C   UNL A   1      39.253  33.489  38.159  1.00  0.00     0.148 A 
ATOM     80  C   UNL A   1      40.352  36.070  38.080  1.00  0.00     0.002 A 
ATOM     81  C   UNL A   1      39.110  34.346  39.244  1.00  0.00     0.091 A 
ATOM     82  F   UNL A   1      38.770  32.239  38.176  1.00  0.00    -0.205 F 
ATOM     83  C   UNL A   1      39.674  35.630  39.213  1.00  0.00     0.022 A 
BRANCH  81  84
ATOM     84  S   UNL A   1      38.153  33.911  40.700  1.00  0.00     0.127 S 
ATOM     85  O   UNL A   1      39.045  32.970  41.374  1.00  0.00    -0.237 OA
ATOM     86  O   UNL A   1      38.010  35.208  41.362  1.00  0.00    -0.237 OA
ATOM     87  O   UNL A   1      36.906  33.349  40.200  1.00  0.00    -0.744 OA
ENDBRANCH  81  84
ENDBRANCH  53  77
BRANCH  65  88
ATOM     88  C   UNL A   1      44.299  28.691  35.528  1.00  0.00     0.023 A 
ATOM     89  C   UNL A   1      45.610  29.181  35.362  1.00  0.00     0.012 A 
ATOM     90  C   UNL A   1      44.062  27.665  36.468  1.00  0.00     0.148 A 
ATOM     91  C   UNL A   1      46.669  28.641  36.094  1.00  0.00     0.002 A 
ATOM     92  C   UNL A   1      45.113  27.169  37.230  1.00  0.00     0.091 A 
ATOM     93  F   UNL A   1      42.812  27.200  36.602  1.00  0.00    -0.205 F 
ATOM     94  C   UNL A   1      46.418  27.646  37.034  1.00  0.00     0.022 A 
BRANCH  92  95
ATOM     95  S   UNL A   1      44.872  25.956  38.534  1.00  0.00     0.127 S 
ATOM     96  O   UNL A   1      44.074  26.710  39.500  1.00  0.00    -0.237 OA
ATOM     97  O   UNL A   1      44.143  24.895  37.839  1.00  0.00    -0.237 OA
ATOM     98  O   UNL A   1      46.205  25.579  38.986  1.00  0.00    -0.744 OA
ENDBRANCH  92  95
ENDBRANCH  65  88
ENDBRANCH  39  40
ENDBRANCH  32  34
ENDBRANCH  31  32
ENDBRANCH  30  31
ENDBRANCH  29  30
ENDBRANCH  28  29
ENDBRANCH  27  28
ENDBRANCH   1  27
TORSDOF 23
ENDMDL
MODEL 3
REMARK VINA RESULT:      -9.8      2.244      7.774
REMARK SMILES CCC1(C(=O)N[C@H]2C=C[C@H](C(=O)OCCOCCOCCOC(=O)c3ccc(-c4c5nc(c(-c6cccc(S(=O)(=O)[O-])c6F)c6ccc([nH]6)c(-c6cccc(S(=O)(=O)[O-])c6F)c6nc(c(-c7cccc(S(=O)(=O)[O-])c7F)c7ccc4[nH]7)C=C6)C=C5)cc3)C2)CC[NH2+]CC1
REMARK SMILES IDX 17 1 16 2 15 3 14 4 13 5 11 6 12 7 10 8 7 9 8 10 88 11 9 12
REMARK SMILES IDX 6 13 4 14 5 15 3 17 89 18 93 19 90 20 92 21 91 22 2 25 1 26
REMARK SMILES IDX 18 27 19 28 20 29 21 30 22 31 23 32 24 33 25 34 26 35 87 36
REMARK SMILES IDX 27 37 86 38 28 39 29 40 30 41 80 42 31 43 85 44 79 45 81 46
REMARK SMILES IDX 32 47 84 48 78 49 77 50 33 52 65 53 45 54 64 55 46 56 49 57
REMARK SMILES IDX 63 58 82 59 47 60 48 61 62 63 83 64 50 65 34 66 35 67 43 68
REMARK SMILES IDX 36 69 38 70 44 71 37 72 39 73 40 74 41 75 42 76 66 77 67 78
REMARK SMILES IDX 75 79 68 80 70 81 76 82 69 83 71 84 72 85 73 86 74 87 51 88
REMARK SMILES IDX 52 89 60 90 53 91 55 92 61 93 54 94 56 95 57 96 58 97 59 98
REMARK H PARENT 6 16 91 23 91 24 81 51 49 62
REMARK Flexibility Score: inf
ROOT
ATOM      1  C   UNL A   1      35.207  29.635  27.388  1.00  0.00     0.188 C 
ENDROOT
BRANCH   1   2
ATOM      2  O   UNL A   1      34.279  28.844  26.666  1.00  0.00    -0.376 OA
BRANCH   2   3
ATOM      3  C   UNL A   1      33.186  28.336  27.415  1.00  0.00     0.202 C 
BRANCH   3   4
ATOM      4  C   UNL A   1      31.827  28.425  26.715  1.00  0.00     0.261 C 
BRANCH   4   5
ATOM      5  O   UNL A   1      31.832  29.157  25.474  1.00  0.00    -0.463 OA
BRANCH   5   6
ATOM      6  C   UNL A   1      31.173  28.652  24.392  1.00  0.00     0.312 C 
ATOM      7  O   UNL A   1      30.613  29.331  23.543  1.00  0.00    -0.252 OA
BRANCH   6   8
ATOM      8  C   UNL A   1      31.251  27.121  24.446  1.00  0.00     0.124 C 
ATOM      9  C   UNL A   1      31.188  25.352  22.712  1.00  0.00     0.106 C 
ATOM     10  C   UNL A   1      29.948  25.373  23.537  1.00  0.00    -0.006 C 
ATOM     11  C   UNL A   1      32.023  26.502  23.266  1.00  0.00     0.048 C 
ATOM     12  C   UNL A   1      29.948  26.380  24.423  1.00  0.00    -0.014 C 
BRANCH   9  13
ATOM     13  N   UNL A   1      31.758  24.015  22.555  1.00  0.00    -0.349 N 
ATOM     14  C   UNL A   1      32.540  23.095  23.172  1.00  0.00     0.227 C 
ATOM     15  O   UNL A   1      32.650  22.032  22.543  1.00  0.00    -0.274 OA
ATOM     16  H   UNL A   1      31.471  23.650  21.686  1.00  0.00     0.164 HD
BRANCH  14  17
ATOM     17  C   UNL A   1      33.337  23.280  24.485  1.00  0.00     0.060 C 
ATOM     18  C   UNL A   1      33.939  21.900  24.878  1.00  0.00     0.078 C 
ATOM     19  C   UNL A   1      34.394  24.382  24.327  1.00  0.00     0.078 C 
ATOM     20  C   UNL A   1      35.160  21.989  25.794  1.00  0.00     0.261 C 
ATOM     21  C   UNL A   1      35.506  24.324  25.361  1.00  0.00     0.261 C 
ATOM     22  N   UNL A   1      36.118  22.999  25.352  1.00  0.00    -0.346 N 
ATOM     23  H   UNL A   1      36.426  22.778  24.404  1.00  0.00     0.346 HD
ATOM     24  H   UNL A   1      36.914  23.000  25.990  1.00  0.00     0.346 HD
BRANCH  17  25
ATOM     25  C   UNL A   1      32.359  23.650  25.663  1.00  0.00     0.014 C 
ATOM     26  C   UNL A   1      31.135  22.761  25.847  1.00  0.00     0.005 C 
ENDBRANCH  17  25
ENDBRANCH  14  17
ENDBRANCH   9  13
ENDBRANCH   6   8
ENDBRANCH   5   6
ENDBRANCH   4   5
ENDBRANCH   3   4
ENDBRANCH   2   3
ENDBRANCH   1   2
BRANCH   1  27
ATOM     27  C   UNL A   1      34.743  31.096  27.584  1.00  0.00     0.188 C 
BRANCH  27  28
ATOM     28  O   UNL A   1      33.470  31.393  28.146  1.00  0.00    -0.376 OA
BRANCH  28  29
ATOM     29  C   UNL A   1      32.567  32.220  27.433  1.00  0.00     0.202 C 
BRANCH  29  30
ATOM     30  C   UNL A   1      32.778  33.739  27.488  1.00  0.00     0.261 C 
BRANCH  30  31
ATOM     31  O   UNL A   1      32.390  34.383  28.714  1.00  0.00    -0.460 OA
BRANCH  31  32
ATOM     32  C   UNL A   1      33.334  35.166  29.296  1.00  0.00     0.338 C 
ATOM     33  O   UNL A   1      33.239  36.351  29.561  1.00  0.00    -0.246 OA
BRANCH  32  34
ATOM     34  C   UNL A   1      34.489  34.340  29.724  1.00  0.00     0.060 A 
ATOM     35  C   UNL A   1      34.309  33.439  30.783  1.00  0.00     0.016 A 
ATOM     36  C   UNL A   1      35.752  34.499  29.149  1.00  0.00     0.016 A 
ATOM     37  C   UNL A   1      35.393  32.717  31.290  1.00  0.00     0.010 A 
ATOM     38  C   UNL A   1      36.842  33.789  29.672  1.00  0.00     0.010 A 
ATOM     39  C   UNL A   1      36.676  32.917  30.764  1.00  0.00    -0.014 A 
BRANCH  39  40
ATOM     40  C   UNL A   1      37.865  32.336  31.445  1.00  0.00     0.031 A 
ATOM     41  C   UNL A   1      38.584  31.179  30.800  1.00  0.00     0.074 A 
ATOM     42  C   UNL A   1      38.299  32.814  32.626  1.00  0.00     0.049 A 
ATOM     43  N   UNL A   1      39.590  30.474  31.247  1.00  0.00    -0.248 NA
ATOM     44  C   UNL A   1      38.098  30.763  29.475  1.00  0.00     0.031 C 
ATOM     45  C   UNL A   1      37.712  33.938  33.352  1.00  0.00     0.029 A 
ATOM     46  N   UNL A   1      39.324  32.388  33.437  1.00  0.00    -0.354 N 
ATOM     47  C   UNL A   1      39.842  29.512  30.273  1.00  0.00     0.074 A 
ATOM     48  C   UNL A   1      38.874  29.720  29.217  1.00  0.00     0.031 C 
ATOM     49  C   UNL A   1      38.366  34.095  34.516  1.00  0.00     0.029 A 
ATOM     50  C   UNL A   1      39.396  33.064  34.634  1.00  0.00     0.049 A 
ATOM     51  H   UNL A   1      39.947  31.669  33.187  1.00  0.00     0.167 HD
ATOM     52  C   UNL A   1      40.796  28.550  30.252  1.00  0.00     0.034 A 
ATOM     53  C   UNL A   1      40.181  32.855  35.711  1.00  0.00     0.034 A 
ATOM     54  C   UNL A   1      41.766  28.346  31.295  1.00  0.00     0.049 A 
ATOM     55  C   UNL A   1      41.202  31.744  35.685  1.00  0.00     0.074 A 
ATOM     56  C   UNL A   1      42.790  27.417  31.345  1.00  0.00     0.029 A 
ATOM     57  N   UNL A   1      41.825  29.069  32.475  1.00  0.00    -0.354 N 
ATOM     58  N   UNL A   1      41.491  30.907  34.719  1.00  0.00    -0.248 NA
ATOM     59  C   UNL A   1      42.026  31.567  36.893  1.00  0.00     0.031 C 
ATOM     60  C   UNL A   1      43.447  27.555  32.573  1.00  0.00     0.029 A 
ATOM     61  C   UNL A   1      42.858  28.598  33.269  1.00  0.00     0.049 A 
ATOM     62  H   UNL A   1      41.221  29.808  32.716  1.00  0.00     0.167 HD
ATOM     63  C   UNL A   1      42.553  30.135  35.183  1.00  0.00     0.074 A 
ATOM     64  C   UNL A   1      42.868  30.616  36.512  1.00  0.00     0.031 C 
ATOM     65  C   UNL A   1      43.203  29.116  34.568  1.00  0.00     0.034 A 
BRANCH  52  66
ATOM     66  C   UNL A   1      40.848  27.645  29.048  1.00  0.00     0.023 A 
ATOM     67  C   UNL A   1      39.959  26.555  28.955  1.00  0.00     0.012 A 
ATOM     68  C   UNL A   1      41.735  27.905  27.986  1.00  0.00     0.148 A 
ATOM     69  C   UNL A   1      39.977  25.717  27.841  1.00  0.00     0.002 A 
ATOM     70  C   UNL A   1      41.716  27.093  26.858  1.00  0.00     0.091 A 
ATOM     71  F   UNL A   1      42.585  28.936  28.101  1.00  0.00    -0.205 F 
ATOM     72  C   UNL A   1      40.847  25.992  26.789  1.00  0.00     0.022 A 
BRANCH  70  73
ATOM     73  S   UNL A   1      42.743  27.408  25.419  1.00  0.00     0.127 S 
ATOM     74  O   UNL A   1      44.052  27.633  26.033  1.00  0.00    -0.237 OA
ATOM     75  O   UNL A   1      42.626  26.152  24.678  1.00  0.00    -0.237 OA
ATOM     76  O   UNL A   1      42.161  28.564  24.753  1.00  0.00    -0.744 OA
ENDBRANCH  70  73
ENDBRANCH  52  66
BRANCH  53  77
ATOM     77  C   UNL A   1      40.054  33.731  36.912  1.00  0.00     0.023 A 
ATOM     78  C   UNL A   1      39.034  33.480  37.851  1.00  0.00     0.012 A 
ATOM     79  C   UNL A   1      40.930  34.813  37.124  1.00  0.00     0.148 A 
ATOM     80  C   UNL A   1      38.868  34.311  38.961  1.00  0.00     0.002 A 
ATOM     81  C   UNL A   1      40.794  35.603  38.260  1.00  0.00     0.091 A 
ATOM     82  F   UNL A   1      41.882  35.046  36.210  1.00  0.00    -0.205 F 
ATOM     83  C   UNL A   1      39.754  35.365  39.170  1.00  0.00     0.022 A 
BRANCH  81  84
ATOM     84  S   UNL A   1      41.957  36.908  38.674  1.00  0.00     0.127 S 
ATOM     85  O   UNL A   1      42.895  36.206  39.547  1.00  0.00    -0.237 OA
ATOM     86  O   UNL A   1      42.487  37.265  37.358  1.00  0.00    -0.237 OA
ATOM     87  O   UNL A   1      41.167  37.953  39.310  1.00  0.00    -0.744 OA
ENDBRANCH  81  84
ENDBRANCH  53  77
BRANCH  65  88
ATOM     88  C   UNL A   1      44.358  28.471  35.292  1.00  0.00     0.023 A 
ATOM     89  C   UNL A   1      45.683  28.821  34.966  1.00  0.00     0.012 A 
ATOM     90  C   UNL A   1      44.124  27.576  36.357  1.00  0.00     0.148 A 
ATOM     91  C   UNL A   1      46.757  28.267  35.665  1.00  0.00     0.002 A 
ATOM     92  C   UNL A   1      45.197  27.068  37.082  1.00  0.00     0.091 A 
ATOM     93  F   UNL A   1      42.858  27.242  36.644  1.00  0.00    -0.205 F 
ATOM     94  C   UNL A   1      46.514  27.402  36.728  1.00  0.00     0.022 A 
BRANCH  92  95
ATOM     95  S   UNL A   1      44.978  26.025  38.529  1.00  0.00     0.127 S 
ATOM     96  O   UNL A   1      46.232  25.273  38.546  1.00  0.00    -0.237 OA
ATOM     97  O   UNL A   1      44.844  27.010  39.603  1.00  0.00    -0.237 OA
ATOM     98  O   UNL A   1      43.780  25.234  38.279  1.00  0.00    -0.744 OA
ENDBRANCH  92  95
ENDBRANCH  65  88
ENDBRANCH  39  40
ENDBRANCH  32  34
ENDBRANCH  31  32
ENDBRANCH  30  31
ENDBRANCH  29  30
ENDBRANCH  28  29
ENDBRANCH  27  28
ENDBRANCH   1  27
TORSDOF 23
ENDMDL
