MODEL 1
REMARK VINA RESULT:      -9.8      0.000      0.000
REMARK SMILES NC(=O)c1c(-c2ccc(Cl)cc2)csc1NC(=O)[C@H]1[C@@H](C(=O)OCCOCCOCCOC(=O)c2ccc(-c3c4nc(c(-c5cccc(S(=O)(=O)[O-])c5F)c5ccc([nH]5)c(-c5cccc(S(=O)(=O)[O-])c5F)c5nc(c(-c6cccc(S(=O)(=O)[O-])c6F)c6ccc3[nH]6)C=C5)C=C4)cc2)[C@@H]2CC[C@H]1O2
REMARK SMILES IDX 27 1 26 2 25 3 24 4 23 5 21 6 22 7 20 8 19 9 101 10 98 11
REMARK SMILES IDX 100 12 102 13 99 14 17 15 16 16 18 18 15 19 4 20 5 21 13 22
REMARK SMILES IDX 14 23 2 24 1 25 3 28 6 29 7 30 12 31 8 32 11 33 9 34 10 35
REMARK SMILES IDX 28 36 29 37 30 38 31 39 32 40 33 41 34 42 35 43 36 44 97 45
REMARK SMILES IDX 37 46 96 47 38 48 39 49 40 50 90 51 41 52 95 53 89 54 91 55
REMARK SMILES IDX 42 56 94 57 88 58 87 59 43 61 75 62 55 63 74 64 56 65 59 66
REMARK SMILES IDX 73 67 92 68 57 69 58 70 72 72 93 73 60 74 44 75 45 76 53 77
REMARK SMILES IDX 46 78 48 79 54 80 47 81 49 82 50 83 51 84 52 85 76 86 77 87
REMARK SMILES IDX 85 88 78 89 80 90 86 91 79 92 81 93 82 94 83 95 84 96 61 97
REMARK SMILES IDX 62 98 70 99 63 100 65 101 71 102 64 103 66 104 67 105 68 106
REMARK SMILES IDX 69 107
REMARK H PARENT 16 17 1 26 1 27 91 60 59 71
REMARK Flexibility Score: inf
ROOT
ATOM      1  C   UNL A   1      35.268  22.396  25.676  1.00  0.00     0.188 C 
ENDROOT
BRANCH   1   2
ATOM      2  O   UNL A   1      34.097  22.876  26.314  1.00  0.00    -0.376 OA
BRANCH   2   3
ATOM      3  C   UNL A   1      33.781  24.243  26.082  1.00  0.00     0.202 C 
BRANCH   3   4
ATOM      4  C   UNL A   1      32.368  24.673  26.502  1.00  0.00     0.261 C 
BRANCH   4   5
ATOM      5  O   UNL A   1      32.126  26.088  26.381  1.00  0.00    -0.463 OA
BRANCH   5   6
ATOM      6  C   UNL A   1      31.484  26.545  25.267  1.00  0.00     0.312 C 
ATOM      7  O   UNL A   1      30.272  26.602  25.169  1.00  0.00    -0.252 OA
BRANCH   6   8
ATOM      8  C   UNL A   1      32.515  27.159  24.322  1.00  0.00     0.143 C 
ATOM      9  C   UNL A   1      32.659  28.685  24.199  1.00  0.00     0.124 C 
ATOM     10  C   UNL A   1      32.692  28.857  22.689  1.00  0.00     0.132 C 
ATOM     11  C   UNL A   1      32.307  26.730  22.857  1.00  0.00     0.133 C 
ATOM     12  C   UNL A   1      33.932  28.244  22.031  1.00  0.00     0.035 C 
ATOM     13  O   UNL A   1      31.692  27.896  22.273  1.00  0.00    -0.373 OA
ATOM     14  C   UNL A   1      33.627  26.750  22.086  1.00  0.00     0.036 C 
BRANCH   9  15
ATOM     15  C   UNL A   1      31.711  29.525  25.069  1.00  0.00     0.231 C 
ATOM     16  N   UNL A   1      32.086  30.460  25.988  1.00  0.00    -0.317 N 
ATOM     17  H   UNL A   1      31.447  31.201  26.094  1.00  0.00     0.170 HD
ATOM     18  O   UNL A   1      30.506  29.480  24.781  1.00  0.00    -0.274 OA
BRANCH  16  19
ATOM     19  C   UNL A   1      33.197  30.550  26.792  1.00  0.00     0.108 A 
ATOM     20  C   UNL A   1      33.692  31.641  27.501  1.00  0.00     0.082 A 
ATOM     21  C   UNL A   1      34.965  31.274  28.100  1.00  0.00     0.007 A 
ATOM     22  C   UNL A   1      35.263  29.938  27.902  1.00  0.00     0.076 A 
ATOM     23  S   UNL A   1      33.850  29.117  27.442  1.00  0.00    -0.125 S 
BRANCH  20  24
ATOM     24  C   UNL A   1      32.959  32.901  27.591  1.00  0.00     0.252 C 
ATOM     25  N   UNL A   1      33.596  33.956  28.174  1.00  0.00    -0.365 N 
ATOM     26  H   UNL A   1      33.138  34.824  28.256  1.00  0.00     0.159 HD
ATOM     27  H   UNL A   1      34.514  33.850  28.515  1.00  0.00     0.159 HD
ATOM     28  O   UNL A   1      31.808  33.036  27.191  1.00  0.00    -0.269 OA
ENDBRANCH  20  24
BRANCH  21  29
ATOM     29  C   UNL A   1      35.749  31.952  29.113  1.00  0.00    -0.017 A 
ATOM     30  C   UNL A   1      35.498  31.803  30.478  1.00  0.00     0.010 A 
ATOM     31  C   UNL A   1      36.667  32.908  28.659  1.00  0.00     0.010 A 
ATOM     32  C   UNL A   1      36.166  32.627  31.388  1.00  0.00     0.021 A 
ATOM     33  C   UNL A   1      37.320  33.735  29.564  1.00  0.00     0.021 A 
ATOM     34  C   UNL A   1      37.064  33.594  30.925  1.00  0.00     0.041 A 
ATOM     35  Cl  UNL A   1      37.845  34.644  32.041  1.00  0.00    -0.084 Cl
ENDBRANCH  21  29
ENDBRANCH  16  19
ENDBRANCH   9  15
ENDBRANCH   6   8
ENDBRANCH   5   6
ENDBRANCH   4   5
ENDBRANCH   3   4
ENDBRANCH   2   3
ENDBRANCH   1   2
BRANCH   1  36
ATOM     36  C   UNL A   1      36.208  23.519  25.182  1.00  0.00     0.188 C 
BRANCH  36  37
ATOM     37  O   UNL A   1      37.603  23.468  25.438  1.00  0.00    -0.376 OA
BRANCH  37  38
ATOM     38  C   UNL A   1      38.181  22.227  25.812  1.00  0.00     0.202 C 
BRANCH  38  39
ATOM     39  C   UNL A   1      39.560  22.218  26.490  1.00  0.00     0.261 C 
BRANCH  39  40
ATOM     40  O   UNL A   1      40.044  20.933  26.918  1.00  0.00    -0.460 OA
BRANCH  40  41
ATOM     41  C   UNL A   1      41.219  20.537  26.362  1.00  0.00     0.338 C 
ATOM     42  O   UNL A   1      41.408  19.543  25.688  1.00  0.00    -0.246 OA
BRANCH  41  43
ATOM     43  C   UNL A   1      42.247  21.594  26.519  1.00  0.00     0.060 A 
ATOM     44  C   UNL A   1      42.763  21.828  27.802  1.00  0.00     0.016 A 
ATOM     45  C   UNL A   1      42.631  22.404  25.452  1.00  0.00     0.016 A 
ATOM     46  C   UNL A   1      43.630  22.897  28.031  1.00  0.00     0.010 A 
ATOM     47  C   UNL A   1      43.483  23.493  25.687  1.00  0.00     0.010 A 
ATOM     48  C   UNL A   1      43.954  23.768  26.985  1.00  0.00    -0.014 A 
BRANCH  48  49
ATOM     49  C   UNL A   1      44.612  25.064  27.294  1.00  0.00     0.031 A 
ATOM     50  C   UNL A   1      43.783  26.170  27.898  1.00  0.00     0.074 A 
ATOM     51  C   UNL A   1      45.924  25.259  27.071  1.00  0.00     0.049 A 
ATOM     52  N   UNL A   1      44.131  27.388  28.221  1.00  0.00    -0.248 NA
ATOM     53  C   UNL A   1      42.370  25.858  28.170  1.00  0.00     0.031 C 
ATOM     54  C   UNL A   1      46.841  24.272  26.503  1.00  0.00     0.029 A 
ATOM     55  N   UNL A   1      46.707  26.370  27.273  1.00  0.00    -0.354 N 
ATOM     56  C   UNL A   1      42.981  27.994  28.714  1.00  0.00     0.074 A 
ATOM     57  C   UNL A   1      41.919  27.016  28.628  1.00  0.00     0.031 C 
ATOM     58  C   UNL A   1      48.054  24.837  26.363  1.00  0.00     0.029 A 
ATOM     59  C   UNL A   1      47.994  26.227  26.812  1.00  0.00     0.049 A 
ATOM     60  H   UNL A   1      46.376  27.190  27.706  1.00  0.00     0.167 HD
ATOM     61  C   UNL A   1      42.821  29.244  29.213  1.00  0.00     0.034 A 
ATOM     62  C   UNL A   1      48.999  27.122  26.737  1.00  0.00     0.034 A 
ATOM     63  C   UNL A   1      43.876  30.219  29.305  1.00  0.00     0.049 A 
ATOM     64  C   UNL A   1      48.793  28.515  27.276  1.00  0.00     0.074 A 
ATOM     65  C   UNL A   1      43.815  31.507  29.807  1.00  0.00     0.029 A 
ATOM     66  N   UNL A   1      45.180  30.017  28.881  1.00  0.00    -0.354 N 
ATOM     67  N   UNL A   1      47.724  29.042  27.824  1.00  0.00    -0.248 NA
ATOM     68  C   UNL A   1      49.948  29.425  27.227  1.00  0.00     0.031 C 
ATOM     69  C   UNL A   1      45.078  32.092  29.666  1.00  0.00     0.029 A 
ATOM     70  C   UNL A   1      45.935  31.155  29.112  1.00  0.00     0.049 A 
ATOM     71  H   UNL A   1      45.519  29.187  28.475  1.00  0.00     0.167 HD
ATOM     72  C   UNL A   1      48.090  30.326  28.222  1.00  0.00     0.074 A 
ATOM     73  C   UNL A   1      49.486  30.487  27.871  1.00  0.00     0.031 C 
ATOM     74  C   UNL A   1      47.337  31.287  28.812  1.00  0.00     0.034 A 
BRANCH  61  75
ATOM     75  C   UNL A   1      41.456  29.619  29.728  1.00  0.00     0.023 A 
ATOM     76  C   UNL A   1      40.464  30.046  28.821  1.00  0.00     0.012 A 
ATOM     77  C   UNL A   1      41.136  29.499  31.095  1.00  0.00     0.148 A 
ATOM     78  C   UNL A   1      39.186  30.380  29.270  1.00  0.00     0.002 A 
ATOM     79  C   UNL A   1      39.847  29.788  31.527  1.00  0.00     0.091 A 
ATOM     80  F   UNL A   1      42.098  29.110  31.945  1.00  0.00    -0.205 F 
ATOM     81  C   UNL A   1      38.876  30.241  30.619  1.00  0.00     0.022 A 
BRANCH  79  82
ATOM     82  S   UNL A   1      39.321  29.566  33.231  1.00  0.00     0.127 S 
ATOM     83  O   UNL A   1      38.073  30.328  33.256  1.00  0.00    -0.237 OA
ATOM     84  O   UNL A   1      39.150  28.114  33.311  1.00  0.00    -0.237 OA
ATOM     85  O   UNL A   1      40.394  30.100  34.057  1.00  0.00    -0.744 OA
ENDBRANCH  79  82
ENDBRANCH  61  75
BRANCH  62  86
ATOM     86  C   UNL A   1      50.308  26.729  26.139  1.00  0.00     0.023 A 
ATOM     87  C   UNL A   1      51.228  25.977  26.895  1.00  0.00     0.012 A 
ATOM     88  C   UNL A   1      50.648  27.111  24.828  1.00  0.00     0.148 A 
ATOM     89  C   UNL A   1      52.479  25.648  26.368  1.00  0.00     0.002 A 
ATOM     90  C   UNL A   1      51.871  26.733  24.290  1.00  0.00     0.091 A 
ATOM     91  F   UNL A   1      49.766  27.846  24.133  1.00  0.00    -0.205 F 
ATOM     92  C   UNL A   1      52.796  26.015  25.063  1.00  0.00     0.022 A 
BRANCH  90  93
ATOM     93  S   UNL A   1      52.315  27.070  22.582  1.00  0.00     0.127 S 
ATOM     94  O   UNL A   1      51.037  26.891  21.899  1.00  0.00    -0.237 OA
ATOM     95  O   UNL A   1      52.785  28.454  22.658  1.00  0.00    -0.237 OA
ATOM     96  O   UNL A   1      53.352  26.102  22.248  1.00  0.00    -0.744 OA
ENDBRANCH  90  93
ENDBRANCH  62  86
BRANCH  74  97
ATOM     97  C   UNL A   1      48.016  32.583  29.178  1.00  0.00     0.023 A 
ATOM     98  C   UNL A   1      48.708  32.703  30.401  1.00  0.00     0.012 A 
ATOM     99  C   UNL A   1      48.008  33.673  28.284  1.00  0.00     0.148 A 
ATOM    100  C   UNL A   1      49.336  33.899  30.747  1.00  0.00     0.002 A 
ATOM    101  C   UNL A   1      48.681  34.844  28.613  1.00  0.00     0.091 A 
ATOM    102  F   UNL A   1      47.331  33.551  27.132  1.00  0.00    -0.205 F 
ATOM    103  C   UNL A   1      49.332  34.964  29.851  1.00  0.00     0.022 A 
BRANCH 101 104
ATOM    104  S   UNL A   1      48.808  36.229  27.477  1.00  0.00     0.127 S 
ATOM    105  O   UNL A   1      47.408  36.622  27.325  1.00  0.00    -0.237 OA
ATOM    106  O   UNL A   1      49.629  37.177  28.231  1.00  0.00    -0.237 OA
ATOM    107  O   UNL A   1      49.447  35.704  26.277  1.00  0.00    -0.744 OA
ENDBRANCH 101 104
ENDBRANCH  74  97
ENDBRANCH  48  49
ENDBRANCH  41  43
ENDBRANCH  40  41
ENDBRANCH  39  40
ENDBRANCH  38  39
ENDBRANCH  37  38
ENDBRANCH  36  37
ENDBRANCH   1  36
TORSDOF 24
ENDMDL
MODEL 2
REMARK VINA RESULT:      -9.7      3.707      8.036
REMARK SMILES NC(=O)c1c(-c2ccc(Cl)cc2)csc1NC(=O)[C@H]1[C@@H](C(=O)OCCOCCOCCOC(=O)c2ccc(-c3c4nc(c(-c5cccc(S(=O)(=O)[O-])c5F)c5ccc([nH]5)c(-c5cccc(S(=O)(=O)[O-])c5F)c5nc(c(-c6cccc(S(=O)(=O)[O-])c6F)c6ccc3[nH]6)C=C5)C=C4)cc2)[C@@H]2CC[C@H]1O2
REMARK SMILES IDX 27 1 26 2 25 3 24 4 23 5 21 6 22 7 20 8 19 9 101 10 98 11
REMARK SMILES IDX 100 12 102 13 99 14 17 15 16 16 18 18 15 19 4 20 5 21 13 22
REMARK SMILES IDX 14 23 2 24 1 25 3 28 6 29 7 30 12 31 8 32 11 33 9 34 10 35
REMARK SMILES IDX 28 36 29 37 30 38 31 39 32 40 33 41 34 42 35 43 36 44 97 45
REMARK SMILES IDX 37 46 96 47 38 48 39 49 40 50 90 51 41 52 95 53 89 54 91 55
REMARK SMILES IDX 42 56 94 57 88 58 87 59 43 61 75 62 55 63 74 64 56 65 59 66
REMARK SMILES IDX 73 67 92 68 57 69 58 70 72 72 93 73 60 74 44 75 45 76 53 77
REMARK SMILES IDX 46 78 48 79 54 80 47 81 49 82 50 83 51 84 52 85 76 86 77 87
REMARK SMILES IDX 85 88 78 89 80 90 86 91 79 92 81 93 82 94 83 95 84 96 61 97
REMARK SMILES IDX 62 98 70 99 63 100 65 101 71 102 64 103 66 104 67 105 68 106
REMARK SMILES IDX 69 107
REMARK H PARENT 16 17 1 26 1 27 91 60 59 71
REMARK Flexibility Score: inf
ROOT
ATOM      1  C   UNL A   1      34.152  28.626  26.530  1.00  0.00     0.188 C 
ENDROOT
BRANCH   1   2
ATOM      2  O   UNL A   1      32.953  28.161  27.126  1.00  0.00    -0.376 OA
BRANCH   2   3
ATOM      3  C   UNL A   1      32.338  27.046  26.494  1.00  0.00     0.202 C 
BRANCH   3   4
ATOM      4  C   UNL A   1      33.277  25.877  26.160  1.00  0.00     0.261 C 
BRANCH   4   5
ATOM      5  O   UNL A   1      32.711  24.578  26.423  1.00  0.00    -0.463 OA
BRANCH   5   6
ATOM      6  C   UNL A   1      33.557  23.517  26.565  1.00  0.00     0.312 C 
ATOM      7  O   UNL A   1      33.312  22.556  27.272  1.00  0.00    -0.252 OA
BRANCH   6   8
ATOM      8  C   UNL A   1      34.686  23.646  25.546  1.00  0.00     0.143 C 
ATOM      9  C   UNL A   1      34.492  23.181  24.093  1.00  0.00     0.124 C 
ATOM     10  C   UNL A   1      35.766  22.383  23.867  1.00  0.00     0.132 C 
ATOM     11  C   UNL A   1      35.958  22.885  25.967  1.00  0.00     0.133 C 
ATOM     12  C   UNL A   1      37.036  23.240  23.887  1.00  0.00     0.035 C 
ATOM     13  O   UNL A   1      35.906  21.706  25.139  1.00  0.00    -0.373 OA
ATOM     14  C   UNL A   1      37.209  23.533  25.376  1.00  0.00     0.036 C 
BRANCH   9  15
ATOM     15  C   UNL A   1      33.117  22.586  23.753  1.00  0.00     0.231 C 
ATOM     16  N   UNL A   1      32.168  23.165  22.964  1.00  0.00    -0.317 N 
ATOM     17  H   UNL A   1      31.607  22.524  22.470  1.00  0.00     0.170 HD
ATOM     18  O   UNL A   1      32.929  21.402  24.072  1.00  0.00    -0.274 OA
BRANCH  16  19
ATOM     19  C   UNL A   1      31.856  24.484  22.736  1.00  0.00     0.108 A 
ATOM     20  C   UNL A   1      30.900  25.288  23.350  1.00  0.00     0.082 A 
ATOM     21  C   UNL A   1      30.863  26.575  22.674  1.00  0.00     0.007 A 
ATOM     22  C   UNL A   1      31.847  26.679  21.708  1.00  0.00     0.076 A 
ATOM     23  S   UNL A   1      33.013  25.474  21.972  1.00  0.00    -0.125 S 
BRANCH  20  24
ATOM     24  C   UNL A   1      30.131  24.830  24.503  1.00  0.00     0.252 C 
ATOM     25  N   UNL A   1      29.214  25.693  25.028  1.00  0.00    -0.365 N 
ATOM     26  H   UNL A   1      28.674  25.423  25.806  1.00  0.00     0.159 HD
ATOM     27  H   UNL A   1      29.093  26.585  24.630  1.00  0.00     0.159 HD
ATOM     28  O   UNL A   1      30.289  23.729  25.020  1.00  0.00    -0.269 OA
ENDBRANCH  20  24
BRANCH  21  29
ATOM     29  C   UNL A   1      30.232  27.818  23.069  1.00  0.00    -0.017 A 
ATOM     30  C   UNL A   1      28.949  28.173  22.648  1.00  0.00     0.010 A 
ATOM     31  C   UNL A   1      31.034  28.737  23.758  1.00  0.00     0.010 A 
ATOM     32  C   UNL A   1      28.478  29.462  22.911  1.00  0.00     0.021 A 
ATOM     33  C   UNL A   1      30.568  30.021  24.007  1.00  0.00     0.021 A 
ATOM     34  C   UNL A   1      29.293  30.381  23.579  1.00  0.00     0.041 A 
ATOM     35  Cl  UNL A   1      28.733  31.984  23.854  1.00  0.00    -0.084 Cl
ENDBRANCH  21  29
ENDBRANCH  16  19
ENDBRANCH   9  15
ENDBRANCH   6   8
ENDBRANCH   5   6
ENDBRANCH   4   5
ENDBRANCH   3   4
ENDBRANCH   2   3
ENDBRANCH   1   2
BRANCH   1  36
ATOM     36  C   UNL A   1      34.739  29.879  27.218  1.00  0.00     0.188 C 
BRANCH  36  37
ATOM     37  O   UNL A   1      33.891  30.849  27.813  1.00  0.00    -0.376 OA
BRANCH  37  38
ATOM     38  C   UNL A   1      34.447  32.098  28.193  1.00  0.00     0.202 C 
BRANCH  38  39
ATOM     39  C   UNL A   1      34.159  32.650  29.598  1.00  0.00     0.261 C 
BRANCH  39  40
ATOM     40  O   UNL A   1      35.296  33.150  30.324  1.00  0.00    -0.460 OA
BRANCH  40  41
ATOM     41  C   UNL A   1      35.806  32.309  31.262  1.00  0.00     0.338 C 
ATOM     42  O   UNL A   1      35.207  31.800  32.188  1.00  0.00    -0.246 OA
BRANCH  41  43
ATOM     43  C   UNL A   1      37.192  31.920  30.906  1.00  0.00     0.060 A 
ATOM     44  C   UNL A   1      38.152  31.884  31.929  1.00  0.00     0.016 A 
ATOM     45  C   UNL A   1      37.569  31.686  29.584  1.00  0.00     0.016 A 
ATOM     46  C   UNL A   1      39.495  31.655  31.629  1.00  0.00     0.010 A 
ATOM     47  C   UNL A   1      38.923  31.480  29.281  1.00  0.00     0.010 A 
ATOM     48  C   UNL A   1      39.897  31.505  30.297  1.00  0.00    -0.014 A 
BRANCH  48  49
ATOM     49  C   UNL A   1      41.343  31.577  29.960  1.00  0.00     0.031 A 
ATOM     50  C   UNL A   1      42.001  32.932  29.882  1.00  0.00     0.074 A 
ATOM     51  C   UNL A   1      42.072  30.466  29.749  1.00  0.00     0.049 A 
ATOM     52  N   UNL A   1      43.234  33.240  29.576  1.00  0.00    -0.248 NA
ATOM     53  C   UNL A   1      41.149  34.093  30.188  1.00  0.00     0.031 C 
ATOM     54  C   UNL A   1      41.564  29.097  29.803  1.00  0.00     0.029 A 
ATOM     55  N   UNL A   1      43.398  30.322  29.419  1.00  0.00    -0.354 N 
ATOM     56  C   UNL A   1      43.303  34.628  29.633  1.00  0.00     0.074 A 
ATOM     57  C   UNL A   1      41.982  35.103  29.981  1.00  0.00     0.031 C 
ATOM     58  C   UNL A   1      42.558  28.252  29.475  1.00  0.00     0.029 A 
ATOM     59  C   UNL A   1      43.764  29.020  29.169  1.00  0.00     0.049 A 
ATOM     60  H   UNL A   1      44.025  31.079  29.365  1.00  0.00     0.167 HD
ATOM     61  C   UNL A   1      44.371  35.438  29.433  1.00  0.00     0.034 A 
ATOM     62  C   UNL A   1      44.928  28.511  28.720  1.00  0.00     0.034 A 
ATOM     63  C   UNL A   1      45.688  34.970  29.092  1.00  0.00     0.049 A 
ATOM     64  C   UNL A   1      46.097  29.433  28.481  1.00  0.00     0.074 A 
ATOM     65  C   UNL A   1      46.837  35.713  28.882  1.00  0.00     0.029 A 
ATOM     66  N   UNL A   1      46.032  33.641  28.904  1.00  0.00    -0.354 N 
ATOM     67  N   UNL A   1      46.170  30.735  28.629  1.00  0.00    -0.248 NA
ATOM     68  C   UNL A   1      47.359  28.810  28.055  1.00  0.00     0.031 C 
ATOM     69  C   UNL A   1      47.871  34.832  28.546  1.00  0.00     0.029 A 
ATOM     70  C   UNL A   1      47.376  33.539  28.584  1.00  0.00     0.049 A 
ATOM     71  H   UNL A   1      45.412  32.881  28.986  1.00  0.00     0.167 HD
ATOM     72  C   UNL A   1      47.492  31.078  28.356  1.00  0.00     0.074 A 
ATOM     73  C   UNL A   1      48.189  29.844  28.056  1.00  0.00     0.031 C 
ATOM     74  C   UNL A   1      48.074  32.303  28.343  1.00  0.00     0.034 A 
BRANCH  61  75
ATOM     75  C   UNL A   1      44.163  36.920  29.610  1.00  0.00     0.023 A 
ATOM     76  C   UNL A   1      44.338  37.500  30.883  1.00  0.00     0.012 A 
ATOM     77  C   UNL A   1      43.849  37.746  28.512  1.00  0.00     0.148 A 
ATOM     78  C   UNL A   1      44.172  38.872  31.068  1.00  0.00     0.002 A 
ATOM     79  C   UNL A   1      43.731  39.118  28.696  1.00  0.00     0.091 A 
ATOM     80  F   UNL A   1      43.667  37.173  27.313  1.00  0.00    -0.205 F 
ATOM     81  C   UNL A   1      43.878  39.681  29.974  1.00  0.00     0.022 A 
BRANCH  79  82
ATOM     82  S   UNL A   1      43.434  40.258  27.339  1.00  0.00     0.127 S 
ATOM     83  O   UNL A   1      41.992  40.110  27.140  1.00  0.00    -0.237 OA
ATOM     84  O   UNL A   1      43.840  41.538  27.920  1.00  0.00    -0.237 OA
ATOM     85  O   UNL A   1      44.264  39.797  26.236  1.00  0.00    -0.744 OA
ENDBRANCH  79  82
ENDBRANCH  61  75
BRANCH  62  86
ATOM     86  C   UNL A   1      45.060  27.045  28.477  1.00  0.00     0.023 A 
ATOM     87  C   UNL A   1      45.348  26.179  29.549  1.00  0.00     0.012 A 
ATOM     88  C   UNL A   1      44.914  26.511  27.183  1.00  0.00     0.148 A 
ATOM     89  C   UNL A   1      45.527  24.812  29.328  1.00  0.00     0.002 A 
ATOM     90  C   UNL A   1      45.038  25.143  26.979  1.00  0.00     0.091 A 
ATOM     91  F   UNL A   1      44.661  27.356  26.172  1.00  0.00    -0.205 F 
ATOM     92  C   UNL A   1      45.361  24.292  28.047  1.00  0.00     0.022 A 
BRANCH  90  93
ATOM     93  S   UNL A   1      44.734  24.377  25.383  1.00  0.00     0.127 S 
ATOM     94  O   UNL A   1      43.411  24.898  25.048  1.00  0.00    -0.237 OA
ATOM     95  O   UNL A   1      45.830  24.913  24.575  1.00  0.00    -0.237 OA
ATOM     96  O   UNL A   1      44.807  22.940  25.616  1.00  0.00    -0.744 OA
ENDBRANCH  90  93
ENDBRANCH  62  86
BRANCH  74  97
ATOM     97  C   UNL A   1      49.553  32.374  28.057  1.00  0.00     0.023 A 
ATOM     98  C   UNL A   1      50.488  32.074  29.068  1.00  0.00     0.012 A 
ATOM     99  C   UNL A   1      50.017  32.693  26.764  1.00  0.00     0.148 A 
ATOM    100  C   UNL A   1      51.858  32.140  28.811  1.00  0.00     0.002 A 
ATOM    101  C   UNL A   1      51.382  32.705  26.502  1.00  0.00     0.091 A 
ATOM    102  F   UNL A   1      49.117  32.993  25.816  1.00  0.00    -0.205 F 
ATOM    103  C   UNL A   1      52.304  32.445  27.528  1.00  0.00     0.022 A 
BRANCH 101 104
ATOM    104  S   UNL A   1      52.040  32.992  24.855  1.00  0.00     0.127 S 
ATOM    105  O   UNL A   1      53.469  33.141  25.126  1.00  0.00    -0.237 OA
ATOM    106  O   UNL A   1      51.678  31.759  24.155  1.00  0.00    -0.237 OA
ATOM    107  O   UNL A   1      51.367  34.184  24.358  1.00  0.00    -0.744 OA
ENDBRANCH 101 104
ENDBRANCH  74  97
ENDBRANCH  48  49
ENDBRANCH  41  43
ENDBRANCH  40  41
ENDBRANCH  39  40
ENDBRANCH  38  39
ENDBRANCH  37  38
ENDBRANCH  36  37
ENDBRANCH   1  36
TORSDOF 24
ENDMDL
MODEL 3
REMARK VINA RESULT:      -9.7      7.688     13.681
REMARK SMILES NC(=O)c1c(-c2ccc(Cl)cc2)csc1NC(=O)[C@H]1[C@@H](C(=O)OCCOCCOCCOC(=O)c2ccc(-c3c4nc(c(-c5cccc(S(=O)(=O)[O-])c5F)c5ccc([nH]5)c(-c5cccc(S(=O)(=O)[O-])c5F)c5nc(c(-c6cccc(S(=O)(=O)[O-])c6F)c6ccc3[nH]6)C=C5)C=C4)cc2)[C@@H]2CC[C@H]1O2
REMARK SMILES IDX 27 1 26 2 25 3 24 4 23 5 21 6 22 7 20 8 19 9 101 10 98 11
REMARK SMILES IDX 100 12 102 13 99 14 17 15 16 16 18 18 15 19 4 20 5 21 13 22
REMARK SMILES IDX 14 23 2 24 1 25 3 28 6 29 7 30 12 31 8 32 11 33 9 34 10 35
REMARK SMILES IDX 28 36 29 37 30 38 31 39 32 40 33 41 34 42 35 43 36 44 97 45
REMARK SMILES IDX 37 46 96 47 38 48 39 49 40 50 90 51 41 52 95 53 89 54 91 55
REMARK SMILES IDX 42 56 94 57 88 58 87 59 43 61 75 62 55 63 74 64 56 65 59 66
REMARK SMILES IDX 73 67 92 68 57 69 58 70 72 72 93 73 60 74 44 75 45 76 53 77
REMARK SMILES IDX 46 78 48 79 54 80 47 81 49 82 50 83 51 84 52 85 76 86 77 87
REMARK SMILES IDX 85 88 78 89 80 90 86 91 79 92 81 93 82 94 83 95 84 96 61 97
REMARK SMILES IDX 62 98 70 99 63 100 65 101 71 102 64 103 66 104 67 105 68 106
REMARK SMILES IDX 69 107
REMARK H PARENT 16 17 1 26 1 27 91 60 59 71
REMARK Flexibility Score: inf
ROOT
ATOM      1  C   UNL A   1      34.068  28.448  26.698  1.00  0.00     0.188 C 
ENDROOT
BRANCH   1   2
ATOM      2  O   UNL A   1      32.873  28.043  27.345  1.00  0.00    -0.376 OA
BRANCH   2   3
ATOM      3  C   UNL A   1      32.110  27.050  26.672  1.00  0.00     0.202 C 
BRANCH   3   4
ATOM      4  C   UNL A   1      32.890  25.799  26.240  1.00  0.00     0.261 C 
BRANCH   4   5
ATOM      5  O   UNL A   1      32.250  24.558  26.596  1.00  0.00    -0.463 OA
BRANCH   5   6
ATOM      6  C   UNL A   1      32.847  23.388  26.226  1.00  0.00     0.312 C 
ATOM      7  O   UNL A   1      32.299  22.304  26.300  1.00  0.00    -0.252 OA
BRANCH   6   8
ATOM      8  C   UNL A   1      34.164  23.709  25.521  1.00  0.00     0.143 C 
ATOM      9  C   UNL A   1      34.400  23.281  24.064  1.00  0.00     0.124 C 
ATOM     10  C   UNL A   1      35.790  22.670  24.158  1.00  0.00     0.132 C 
ATOM     11  C   UNL A   1      35.386  23.108  26.243  1.00  0.00     0.133 C 
ATOM     12  C   UNL A   1      36.882  23.688  24.499  1.00  0.00     0.035 C 
ATOM     13  O   UNL A   1      35.704  21.967  25.421  1.00  0.00    -0.373 OA
ATOM     14  C   UNL A   1      36.641  23.941  25.985  1.00  0.00     0.036 C 
BRANCH   9  15
ATOM     15  C   UNL A   1      33.248  22.521  23.388  1.00  0.00     0.231 C 
ATOM     16  N   UNL A   1      32.166  23.084  22.779  1.00  0.00    -0.317 N 
ATOM     17  H   UNL A   1      31.807  22.561  22.028  1.00  0.00     0.170 HD
ATOM     18  O   UNL A   1      33.408  21.302  23.221  1.00  0.00    -0.274 OA
BRANCH  16  19
ATOM     19  C   UNL A   1      31.489  24.255  23.030  1.00  0.00     0.108 A 
ATOM     20  C   UNL A   1      31.612  25.498  22.418  1.00  0.00     0.082 A 
ATOM     21  C   UNL A   1      30.769  26.453  23.119  1.00  0.00     0.007 A 
ATOM     22  C   UNL A   1      30.008  25.846  24.101  1.00  0.00     0.076 A 
ATOM     23  S   UNL A   1      29.987  24.170  23.830  1.00  0.00    -0.125 S 
BRANCH  20  24
ATOM     24  C   UNL A   1      32.458  25.702  21.244  1.00  0.00     0.252 C 
ATOM     25  N   UNL A   1      31.868  25.586  20.020  1.00  0.00    -0.365 N 
ATOM     26  H   UNL A   1      32.402  25.716  19.203  1.00  0.00     0.159 HD
ATOM     27  H   UNL A   1      30.910  25.371  19.953  1.00  0.00     0.159 HD
ATOM     28  O   UNL A   1      33.658  25.947  21.317  1.00  0.00    -0.269 OA
ENDBRANCH  20  24
BRANCH  21  29
ATOM     29  C   UNL A   1      30.361  27.790  22.739  1.00  0.00    -0.017 A 
ATOM     30  C   UNL A   1      31.279  28.782  22.388  1.00  0.00     0.010 A 
ATOM     31  C   UNL A   1      29.006  28.103  22.907  1.00  0.00     0.010 A 
ATOM     32  C   UNL A   1      30.831  30.095  22.216  1.00  0.00     0.021 A 
ATOM     33  C   UNL A   1      28.565  29.411  22.748  1.00  0.00     0.021 A 
ATOM     34  C   UNL A   1      29.480  30.403  22.408  1.00  0.00     0.041 A 
ATOM     35  Cl  UNL A   1      28.940  32.028  22.249  1.00  0.00    -0.084 Cl
ENDBRANCH  21  29
ENDBRANCH  16  19
ENDBRANCH   9  15
ENDBRANCH   6   8
ENDBRANCH   5   6
ENDBRANCH   4   5
ENDBRANCH   3   4
ENDBRANCH   2   3
ENDBRANCH   1   2
BRANCH   1  36
ATOM     36  C   UNL A   1      34.397  29.945  26.890  1.00  0.00     0.188 C 
BRANCH  36  37
ATOM     37  O   UNL A   1      33.707  30.726  27.854  1.00  0.00    -0.376 OA
BRANCH  37  38
ATOM     38  C   UNL A   1      34.013  32.108  27.955  1.00  0.00     0.202 C 
BRANCH  38  39
ATOM     39  C   UNL A   1      35.173  32.554  28.859  1.00  0.00     0.261 C 
BRANCH  39  40
ATOM     40  O   UNL A   1      35.047  32.228  30.255  1.00  0.00    -0.460 OA
BRANCH  40  41
ATOM     41  C   UNL A   1      34.632  33.245  31.057  1.00  0.00     0.338 C 
ATOM     42  O   UNL A   1      33.671  33.967  30.879  1.00  0.00    -0.246 OA
BRANCH  41  43
ATOM     43  C   UNL A   1      35.408  33.254  32.320  1.00  0.00     0.060 A 
ATOM     44  C   UNL A   1      35.360  34.409  33.116  1.00  0.00     0.016 A 
ATOM     45  C   UNL A   1      36.240  32.193  32.675  1.00  0.00     0.016 A 
ATOM     46  C   UNL A   1      36.174  34.524  34.243  1.00  0.00     0.010 A 
ATOM     47  C   UNL A   1      37.075  32.319  33.795  1.00  0.00     0.010 A 
ATOM     48  C   UNL A   1      37.075  33.501  34.560  1.00  0.00    -0.014 A 
BRANCH  48  49
ATOM     49  C   UNL A   1      38.145  33.757  35.560  1.00  0.00     0.031 A 
ATOM     50  C   UNL A   1      39.471  34.292  35.079  1.00  0.00     0.074 A 
ATOM     51  C   UNL A   1      37.946  33.545  36.874  1.00  0.00     0.049 A 
ATOM     52  N   UNL A   1      40.554  34.560  35.760  1.00  0.00    -0.248 NA
ATOM     53  C   UNL A   1      39.587  34.556  33.636  1.00  0.00     0.031 C 
ATOM     54  C   UNL A   1      36.712  33.041  37.472  1.00  0.00     0.029 A 
ATOM     55  N   UNL A   1      38.798  33.706  37.940  1.00  0.00    -0.354 N 
ATOM     56  C   UNL A   1      41.487  35.005  34.829  1.00  0.00     0.074 A 
ATOM     57  C   UNL A   1      40.848  34.950  33.533  1.00  0.00     0.031 C 
ATOM     58  C   UNL A   1      36.900  32.893  38.796  1.00  0.00     0.029 A 
ATOM     59  C   UNL A   1      38.270  33.273  39.134  1.00  0.00     0.049 A 
ATOM     60  H   UNL A   1      39.699  34.092  37.856  1.00  0.00     0.167 HD
ATOM     61  C   UNL A   1      42.755  35.439  35.032  1.00  0.00     0.034 A 
ATOM     62  C   UNL A   1      38.837  33.170  40.352  1.00  0.00     0.034 A 
ATOM     63  C   UNL A   1      43.392  35.500  36.320  1.00  0.00     0.049 A 
ATOM     64  C   UNL A   1      40.258  33.637  40.551  1.00  0.00     0.074 A 
ATOM     65  C   UNL A   1      44.669  35.937  36.628  1.00  0.00     0.029 A 
ATOM     66  N   UNL A   1      42.806  35.108  37.513  1.00  0.00    -0.354 N 
ATOM     67  N   UNL A   1      41.094  34.141  39.675  1.00  0.00    -0.248 NA
ATOM     68  C   UNL A   1      40.797  33.561  41.917  1.00  0.00     0.031 C 
ATOM     69  C   UNL A   1      44.862  35.788  38.006  1.00  0.00     0.029 A 
ATOM     70  C   UNL A   1      43.693  35.295  38.561  1.00  0.00     0.049 A 
ATOM     71  H   UNL A   1      41.894  34.748  37.602  1.00  0.00     0.167 HD
ATOM     72  C   UNL A   1      42.240  34.481  40.391  1.00  0.00     0.074 A 
ATOM     73  C   UNL A   1      41.979  34.145  41.776  1.00  0.00     0.031 C 
ATOM     74  C   UNL A   1      43.405  35.011  39.943  1.00  0.00     0.034 A 
BRANCH  61  75
ATOM     75  C   UNL A   1      43.528  35.913  33.829  1.00  0.00     0.023 A 
ATOM     76  C   UNL A   1      44.330  34.999  33.114  1.00  0.00     0.012 A 
ATOM     77  C   UNL A   1      43.423  37.242  33.374  1.00  0.00     0.148 A 
ATOM     78  C   UNL A   1      45.040  35.408  31.985  1.00  0.00     0.002 A 
ATOM     79  C   UNL A   1      44.097  37.630  32.222  1.00  0.00     0.091 A 
ATOM     80  F   UNL A   1      42.673  38.102  34.079  1.00  0.00    -0.205 F 
ATOM     81  C   UNL A   1      44.915  36.719  31.535  1.00  0.00     0.022 A 
BRANCH  79  82
ATOM     82  S   UNL A   1      43.941  39.273  31.512  1.00  0.00     0.127 S 
ATOM     83  O   UNL A   1      42.990  39.901  32.428  1.00  0.00    -0.237 OA
ATOM     84  O   UNL A   1      45.310  39.781  31.612  1.00  0.00    -0.237 OA
ATOM     85  O   UNL A   1      43.460  39.081  30.151  1.00  0.00    -0.744 OA
ENDBRANCH  79  82
ENDBRANCH  61  75
BRANCH  62  86
ATOM     86  C   UNL A   1      38.058  32.614  41.496  1.00  0.00     0.023 A 
ATOM     87  C   UNL A   1      38.213  31.262  41.860  1.00  0.00     0.012 A 
ATOM     88  C   UNL A   1      37.155  33.418  42.215  1.00  0.00     0.148 A 
ATOM     89  C   UNL A   1      37.452  30.713  42.894  1.00  0.00     0.002 A 
ATOM     90  C   UNL A   1      36.442  32.881  43.279  1.00  0.00     0.091 A 
ATOM     91  F   UNL A   1      37.006  34.697  41.839  1.00  0.00    -0.205 F 
ATOM     92  C   UNL A   1      36.575  31.524  43.610  1.00  0.00     0.022 A 
BRANCH  90  93
ATOM     93  S   UNL A   1      35.373  33.879  44.323  1.00  0.00     0.127 S 
ATOM     94  O   UNL A   1      35.169  32.998  45.470  1.00  0.00    -0.237 OA
ATOM     95  O   UNL A   1      36.214  35.048  44.586  1.00  0.00    -0.237 OA
ATOM     96  O   UNL A   1      34.190  34.158  43.520  1.00  0.00    -0.744 OA
ENDBRANCH  90  93
ENDBRANCH  62  86
BRANCH  74  97
ATOM     97  C   UNL A   1      44.471  35.324  40.963  1.00  0.00     0.023 A 
ATOM     98  C   UNL A   1      44.513  36.590  41.583  1.00  0.00     0.012 A 
ATOM     99  C   UNL A   1      45.408  34.342  41.342  1.00  0.00     0.148 A 
ATOM    100  C   UNL A   1      45.497  36.887  42.525  1.00  0.00     0.002 A 
ATOM    101  C   UNL A   1      46.354  34.628  42.320  1.00  0.00     0.091 A 
ATOM    102  F   UNL A   1      45.368  33.148  40.732  1.00  0.00    -0.205 F 
ATOM    103  C   UNL A   1      46.410  35.906  42.901  1.00  0.00     0.022 A 
BRANCH 101 104
ATOM    104  S   UNL A   1      47.505  33.393  42.934  1.00  0.00     0.127 S 
ATOM    105  O   UNL A   1      46.597  32.372  43.455  1.00  0.00    -0.237 OA
ATOM    106  O   UNL A   1      48.224  33.006  41.720  1.00  0.00    -0.237 OA
ATOM    107  O   UNL A   1      48.325  34.071  43.929  1.00  0.00    -0.744 OA
ENDBRANCH 101 104
ENDBRANCH  74  97
ENDBRANCH  48  49
ENDBRANCH  41  43
ENDBRANCH  40  41
ENDBRANCH  39  40
ENDBRANCH  38  39
ENDBRANCH  37  38
ENDBRANCH  36  37
ENDBRANCH   1  36
TORSDOF 24
ENDMDL
