MODEL 1
REMARK VINA RESULT:     -11.2      0.000      0.000
REMARK SMILES Cc1cc(-c2cncc(C(=O)OCCOCCOCCOC(=O)c3ccc(-c4c5nc(c(-c6cccc(S(=O)(=O)[O-])c6F)c6ccc([nH]6)c(-c6cccc(S(=O)(=O)[O-])c6F)c6nc(c(-c7cccc(S(=O)(=O)[O-])c7F)c7ccc4[nH]7)C=C6)C=C5)cc3)c2)ccc1F
REMARK SMILES IDX 17 1 16 2 15 3 14 4 13 5 12 6 10 7 11 8 9 9 5 10 6 11 87 12
REMARK SMILES IDX 7 13 8 14 4 15 1 16 2 17 3 18 90 19 89 20 91 21 88 22 18 23
REMARK SMILES IDX 19 24 20 25 21 26 22 27 23 28 24 29 25 30 86 31 26 32 85 33
REMARK SMILES IDX 27 34 28 35 29 36 79 37 30 38 84 39 78 40 80 41 31 42 83 43
REMARK SMILES IDX 77 44 76 45 32 47 64 48 44 49 63 50 45 51 48 52 62 53 81 54
REMARK SMILES IDX 46 55 47 56 61 58 82 59 49 60 33 61 34 62 42 63 35 64 37 65
REMARK SMILES IDX 43 66 36 67 38 68 39 69 40 70 41 71 65 72 66 73 74 74 67 75
REMARK SMILES IDX 69 76 75 77 68 78 70 79 71 80 72 81 73 82 50 83 51 84 59 85
REMARK SMILES IDX 52 86 54 87 60 88 53 89 55 90 56 91 57 92 58 93
REMARK H PARENT 80 46 48 57
REMARK Flexibility Score: inf
ROOT
ATOM      1  C   UNL A   1      32.468  30.670  26.417  1.00  0.00     0.188 C 
ENDROOT
BRANCH   1   2
ATOM      2  C   UNL A   1      32.601  29.208  25.918  1.00  0.00     0.188 C 
BRANCH   2   3
ATOM      3  O   UNL A   1      31.541  28.480  25.313  1.00  0.00    -0.376 OA
BRANCH   3   4
ATOM      4  C   UNL A   1      31.470  28.394  23.904  1.00  0.00     0.202 C 
BRANCH   4   5
ATOM      5  C   UNL A   1      31.765  27.025  23.278  1.00  0.00     0.261 C 
BRANCH   5   6
ATOM      6  O   UNL A   1      32.704  26.222  24.012  1.00  0.00    -0.460 OA
BRANCH   6   7
ATOM      7  C   UNL A   1      33.206  25.144  23.348  1.00  0.00     0.339 C 
ATOM      8  O   UNL A   1      33.817  25.141  22.311  1.00  0.00    -0.246 OA
BRANCH   7   9
ATOM      9  C   UNL A   1      33.020  23.932  24.178  1.00  0.00     0.079 A 
ATOM     10  C   UNL A   1      32.869  21.534  24.524  1.00  0.00     0.001 A 
ATOM     11  C   UNL A   1      32.602  21.828  25.865  1.00  0.00     0.119 A 
ATOM     12  C   UNL A   1      33.044  22.634  23.667  1.00  0.00     0.027 A 
ATOM     13  N   UNL A   1      32.556  23.079  26.389  1.00  0.00    -0.263 NA
ATOM     14  C   UNL A   1      32.785  24.102  25.534  1.00  0.00     0.126 A 
BRANCH  10  15
ATOM     15  C   UNL A   1      33.060  20.151  24.057  1.00  0.00    -0.016 A 
ATOM     16  C   UNL A   1      35.318  17.188  24.931  1.00  0.00     0.047 C 
ATOM     17  C   UNL A   1      34.248  18.012  24.287  1.00  0.00    -0.015 A 
ATOM     18  C   UNL A   1      34.060  19.352  24.649  1.00  0.00     0.015 A 
ATOM     19  C   UNL A   1      33.412  17.462  23.316  1.00  0.00     0.126 A 
ATOM     20  C   UNL A   1      32.421  18.224  22.707  1.00  0.00     0.040 A 
ATOM     21  F   UNL A   1      33.556  16.175  22.968  1.00  0.00    -0.207 F 
ATOM     22  C   UNL A   1      32.248  19.564  23.072  1.00  0.00     0.012 A 
ENDBRANCH  10  15
ENDBRANCH   7   9
ENDBRANCH   6   7
ENDBRANCH   5   6
ENDBRANCH   4   5
ENDBRANCH   3   4
ENDBRANCH   2   3
ENDBRANCH   1   2
BRANCH   1  23
ATOM     23  O   UNL A   1      33.411  31.095  27.396  1.00  0.00    -0.376 OA
BRANCH  23  24
ATOM     24  C   UNL A   1      33.256  32.455  27.820  1.00  0.00     0.202 C 
BRANCH  24  25
ATOM     25  C   UNL A   1      34.536  32.973  28.486  1.00  0.00     0.261 C 
BRANCH  25  26
ATOM     26  O   UNL A   1      34.901  32.199  29.631  1.00  0.00    -0.460 OA
BRANCH  26  27
ATOM     27  C   UNL A   1      36.217  31.926  29.639  1.00  0.00     0.338 C 
ATOM     28  O   UNL A   1      37.139  32.666  29.920  1.00  0.00    -0.246 OA
BRANCH  27  29
ATOM     29  C   UNL A   1      36.459  30.539  29.287  1.00  0.00     0.060 A 
ATOM     30  C   UNL A   1      36.520  29.638  30.367  1.00  0.00     0.016 A 
ATOM     31  C   UNL A   1      37.107  30.344  28.076  1.00  0.00     0.016 A 
ATOM     32  C   UNL A   1      37.503  28.681  30.357  1.00  0.00     0.010 A 
ATOM     33  C   UNL A   1      38.111  29.418  28.084  1.00  0.00     0.010 A 
ATOM     34  C   UNL A   1      38.372  28.715  29.276  1.00  0.00    -0.014 A 
BRANCH  34  35
ATOM     35  C   UNL A   1      39.757  28.339  29.425  1.00  0.00     0.031 A 
ATOM     36  C   UNL A   1      40.169  26.990  29.028  1.00  0.00     0.074 A 
ATOM     37  C   UNL A   1      40.636  29.334  29.702  1.00  0.00     0.049 A 
ATOM     38  N   UNL A   1      41.288  26.458  29.360  1.00  0.00    -0.248 NA
ATOM     39  C   UNL A   1      39.315  26.100  28.242  1.00  0.00     0.031 C 
ATOM     40  C   UNL A   1      42.072  29.315  29.452  1.00  0.00     0.029 A 
ATOM     41  N   UNL A   1      40.450  30.549  30.367  1.00  0.00    -0.354 N 
ATOM     42  C   UNL A   1      41.459  25.362  28.555  1.00  0.00     0.074 A 
ATOM     43  C   UNL A   1      40.166  25.108  27.964  1.00  0.00     0.031 C 
ATOM     44  C   UNL A   1      42.655  30.271  30.195  1.00  0.00     0.029 A 
ATOM     45  C   UNL A   1      41.630  30.795  31.081  1.00  0.00     0.049 A 
ATOM     46  H   UNL A   1      39.648  31.119  30.339  1.00  0.00     0.167 HD
ATOM     47  C   UNL A   1      42.717  24.890  28.341  1.00  0.00     0.034 A 
ATOM     48  C   UNL A   1      41.726  30.792  32.447  1.00  0.00     0.034 A 
ATOM     49  C   UNL A   1      43.701  25.672  29.076  1.00  0.00     0.049 A 
ATOM     50  C   UNL A   1      42.725  29.755  32.946  1.00  0.00     0.074 A 
ATOM     51  C   UNL A   1      44.522  26.725  28.708  1.00  0.00     0.029 A 
ATOM     52  N   UNL A   1      43.675  25.662  30.464  1.00  0.00    -0.354 N 
ATOM     53  N   UNL A   1      43.035  28.676  32.278  1.00  0.00    -0.248 NA
ATOM     54  C   UNL A   1      43.442  29.839  34.215  1.00  0.00     0.031 C 
ATOM     55  C   UNL A   1      44.954  27.381  29.888  1.00  0.00     0.029 A 
ATOM     56  C   UNL A   1      44.412  26.712  30.970  1.00  0.00     0.049 A 
ATOM     57  H   UNL A   1      43.196  24.999  31.011  1.00  0.00     0.167 HD
ATOM     58  C   UNL A   1      44.016  27.981  32.944  1.00  0.00     0.074 A 
ATOM     59  C   UNL A   1      44.214  28.736  34.167  1.00  0.00     0.031 C 
ATOM     60  C   UNL A   1      44.594  26.863  32.409  1.00  0.00     0.034 A 
BRANCH  47  61
ATOM     61  C   UNL A   1      43.034  23.914  27.240  1.00  0.00     0.023 A 
ATOM     62  C   UNL A   1      43.895  24.252  26.175  1.00  0.00     0.012 A 
ATOM     63  C   UNL A   1      42.500  22.608  27.231  1.00  0.00     0.148 A 
ATOM     64  C   UNL A   1      44.302  23.312  25.220  1.00  0.00     0.002 A 
ATOM     65  C   UNL A   1      42.862  21.689  26.247  1.00  0.00     0.091 A 
ATOM     66  F   UNL A   1      41.644  22.221  28.184  1.00  0.00    -0.205 F 
ATOM     67  C   UNL A   1      43.786  22.024  25.256  1.00  0.00     0.022 A 
BRANCH  65  68
ATOM     68  S   UNL A   1      42.099  20.064  26.252  1.00  0.00     0.127 S 
ATOM     69  O   UNL A   1      42.686  19.422  25.081  1.00  0.00    -0.237 OA
ATOM     70  O   UNL A   1      42.476  19.527  27.556  1.00  0.00    -0.237 OA
ATOM     71  O   UNL A   1      40.672  20.365  26.121  1.00  0.00    -0.744 OA
ENDBRANCH  65  68
ENDBRANCH  47  61
BRANCH  48  72
ATOM     72  C   UNL A   1      40.472  31.169  33.160  1.00  0.00     0.023 A 
ATOM     73  C   UNL A   1      39.566  30.174  33.566  1.00  0.00     0.012 A 
ATOM     74  C   UNL A   1      40.027  32.508  33.089  1.00  0.00     0.148 A 
ATOM     75  C   UNL A   1      38.220  30.492  33.788  1.00  0.00     0.002 A 
ATOM     76  C   UNL A   1      38.681  32.812  33.280  1.00  0.00     0.091 A 
ATOM     77  F   UNL A   1      40.914  33.463  32.769  1.00  0.00    -0.205 F 
ATOM     78  C   UNL A   1      37.769  31.801  33.607  1.00  0.00     0.022 A 
BRANCH  76  79
ATOM     79  S   UNL A   1      38.083  34.484  32.969  1.00  0.00     0.127 S 
ATOM     80  O   UNL A   1      36.643  34.277  32.838  1.00  0.00    -0.237 OA
ATOM     81  O   UNL A   1      38.515  35.245  34.136  1.00  0.00    -0.237 OA
ATOM     82  O   UNL A   1      38.748  34.856  31.717  1.00  0.00    -0.744 OA
ENDBRANCH  76  79
ENDBRANCH  48  72
BRANCH  60  83
ATOM     83  C   UNL A   1      45.487  25.838  33.089  1.00  0.00     0.023 A 
ATOM     84  C   UNL A   1      46.895  25.972  32.915  1.00  0.00     0.012 A 
ATOM     85  C   UNL A   1      45.060  24.693  33.772  1.00  0.00     0.148 A 
ATOM     86  C   UNL A   1      47.815  25.019  33.351  1.00  0.00     0.002 A 
ATOM     87  C   UNL A   1      45.991  23.789  34.297  1.00  0.00     0.091 A 
ATOM     88  F   UNL A   1      43.756  24.415  33.882  1.00  0.00    -0.205 F 
ATOM     89  C   UNL A   1      47.362  23.925  34.062  1.00  0.00     0.022 A 
BRANCH  87  90
ATOM     90  S   UNL A   1      45.406  22.478  35.374  1.00  0.00     0.127 S 
ATOM     91  O   UNL A   1      46.631  21.738  35.664  1.00  0.00    -0.237 OA
ATOM     92  O   UNL A   1      44.804  23.201  36.489  1.00  0.00    -0.237 OA
ATOM     93  O   UNL A   1      44.448  21.751  34.539  1.00  0.00    -0.744 OA
ENDBRANCH  87  90
ENDBRANCH  60  83
ENDBRANCH  34  35
ENDBRANCH  27  29
ENDBRANCH  26  27
ENDBRANCH  25  26
ENDBRANCH  24  25
ENDBRANCH  23  24
ENDBRANCH   1  23
TORSDOF 21
ENDMDL
MODEL 2
REMARK VINA RESULT:     -10.0      2.253      2.603
REMARK SMILES Cc1cc(-c2cncc(C(=O)OCCOCCOCCOC(=O)c3ccc(-c4c5nc(c(-c6cccc(S(=O)(=O)[O-])c6F)c6ccc([nH]6)c(-c6cccc(S(=O)(=O)[O-])c6F)c6nc(c(-c7cccc(S(=O)(=O)[O-])c7F)c7ccc4[nH]7)C=C6)C=C5)cc3)c2)ccc1F
REMARK SMILES IDX 17 1 16 2 15 3 14 4 13 5 12 6 10 7 11 8 9 9 5 10 6 11 87 12
REMARK SMILES IDX 7 13 8 14 4 15 1 16 2 17 3 18 90 19 89 20 91 21 88 22 18 23
REMARK SMILES IDX 19 24 20 25 21 26 22 27 23 28 24 29 25 30 86 31 26 32 85 33
REMARK SMILES IDX 27 34 28 35 29 36 79 37 30 38 84 39 78 40 80 41 31 42 83 43
REMARK SMILES IDX 77 44 76 45 32 47 64 48 44 49 63 50 45 51 48 52 62 53 81 54
REMARK SMILES IDX 46 55 47 56 61 58 82 59 49 60 33 61 34 62 42 63 35 64 37 65
REMARK SMILES IDX 43 66 36 67 38 68 39 69 40 70 41 71 65 72 66 73 74 74 67 75
REMARK SMILES IDX 69 76 75 77 68 78 70 79 71 80 72 81 73 82 50 83 51 84 59 85
REMARK SMILES IDX 52 86 54 87 60 88 53 89 55 90 56 91 57 92 58 93
REMARK H PARENT 80 46 48 57
REMARK Flexibility Score: inf
ROOT
ATOM      1  C   UNL A   1      33.047  31.648  27.000  1.00  0.00     0.188 C 
ENDROOT
BRANCH   1   2
ATOM      2  C   UNL A   1      32.626  30.165  26.828  1.00  0.00     0.188 C 
BRANCH   2   3
ATOM      3  O   UNL A   1      31.422  29.754  26.195  1.00  0.00    -0.376 OA
BRANCH   3   4
ATOM      4  C   UNL A   1      31.485  28.942  25.040  1.00  0.00     0.202 C 
BRANCH   4   5
ATOM      5  C   UNL A   1      31.364  27.427  25.250  1.00  0.00     0.261 C 
BRANCH   5   6
ATOM      6  O   UNL A   1      32.171  26.635  24.363  1.00  0.00    -0.460 OA
BRANCH   6   7
ATOM      7  C   UNL A   1      31.659  25.418  24.026  1.00  0.00     0.339 C 
ATOM      8  O   UNL A   1      30.670  25.194  23.376  1.00  0.00    -0.246 OA
BRANCH   7   9
ATOM      9  C   UNL A   1      32.597  24.358  24.460  1.00  0.00     0.079 A 
ATOM     10  C   UNL A   1      33.216  22.058  24.924  1.00  0.00     0.001 A 
ATOM     11  C   UNL A   1      34.452  22.562  25.342  1.00  0.00     0.119 A 
ATOM     12  C   UNL A   1      32.264  23.004  24.509  1.00  0.00     0.027 A 
ATOM     13  N   UNL A   1      34.800  23.873  25.321  1.00  0.00    -0.263 NA
ATOM     14  C   UNL A   1      33.868  24.740  24.863  1.00  0.00     0.126 A 
BRANCH  10  15
ATOM     15  C   UNL A   1      32.963  20.611  24.824  1.00  0.00    -0.016 A 
ATOM     16  C   UNL A   1      32.310  18.070  22.038  1.00  0.00     0.047 C 
ATOM     17  C   UNL A   1      32.550  18.655  23.395  1.00  0.00    -0.015 A 
ATOM     18  C   UNL A   1      32.737  20.033  23.557  1.00  0.00     0.015 A 
ATOM     19  C   UNL A   1      32.596  17.840  24.524  1.00  0.00     0.126 A 
ATOM     20  C   UNL A   1      32.809  18.377  25.788  1.00  0.00     0.040 A 
ATOM     21  F   UNL A   1      32.443  16.514  24.392  1.00  0.00    -0.207 F 
ATOM     22  C   UNL A   1      32.988  19.757  25.939  1.00  0.00     0.012 A 
ENDBRANCH  10  15
ENDBRANCH   7   9
ENDBRANCH   6   7
ENDBRANCH   5   6
ENDBRANCH   4   5
ENDBRANCH   3   4
ENDBRANCH   2   3
ENDBRANCH   1   2
BRANCH   1  23
ATOM     23  O   UNL A   1      33.980  31.927  28.038  1.00  0.00    -0.376 OA
BRANCH  23  24
ATOM     24  C   UNL A   1      33.923  33.264  28.546  1.00  0.00     0.202 C 
BRANCH  24  25
ATOM     25  C   UNL A   1      35.257  33.670  29.183  1.00  0.00     0.261 C 
BRANCH  25  26
ATOM     26  O   UNL A   1      35.461  33.049  30.454  1.00  0.00    -0.460 OA
BRANCH  26  27
ATOM     27  C   UNL A   1      36.718  32.591  30.581  1.00  0.00     0.338 C 
ATOM     28  O   UNL A   1      37.666  33.127  31.119  1.00  0.00    -0.246 OA
BRANCH  27  29
ATOM     29  C   UNL A   1      36.847  31.267  29.998  1.00  0.00     0.060 A 
ATOM     30  C   UNL A   1      37.005  30.211  30.915  1.00  0.00     0.016 A 
ATOM     31  C   UNL A   1      37.322  31.242  28.695  1.00  0.00     0.016 A 
ATOM     32  C   UNL A   1      37.932  29.240  30.631  1.00  0.00     0.010 A 
ATOM     33  C   UNL A   1      38.274  30.298  28.431  1.00  0.00     0.010 A 
ATOM     34  C   UNL A   1      38.654  29.415  29.459  1.00  0.00    -0.014 A 
BRANCH  34  35
ATOM     35  C   UNL A   1      40.028  28.984  29.362  1.00  0.00     0.031 A 
ATOM     36  C   UNL A   1      40.305  27.584  29.029  1.00  0.00     0.074 A 
ATOM     37  C   UNL A   1      40.976  29.953  29.352  1.00  0.00     0.049 A 
ATOM     38  N   UNL A   1      41.452  27.028  29.180  1.00  0.00    -0.248 NA
ATOM     39  C   UNL A   1      39.280  26.669  28.527  1.00  0.00     0.031 C 
ATOM     40  C   UNL A   1      42.328  29.837  28.820  1.00  0.00     0.029 A 
ATOM     41  N   UNL A   1      40.969  31.233  29.914  1.00  0.00    -0.354 N 
ATOM     42  C   UNL A   1      41.418  25.854  28.473  1.00  0.00     0.074 A 
ATOM     43  C   UNL A   1      40.023  25.613  28.185  1.00  0.00     0.031 C 
ATOM     44  C   UNL A   1      43.081  30.826  29.328  1.00  0.00     0.029 A 
ATOM     45  C   UNL A   1      42.279  31.483  30.345  1.00  0.00     0.049 A 
ATOM     46  H   UNL A   1      40.197  31.839  29.990  1.00  0.00     0.167 HD
ATOM     47  C   UNL A   1      42.589  25.300  28.058  1.00  0.00     0.034 A 
ATOM     48  C   UNL A   1      42.655  31.603  31.656  1.00  0.00     0.034 A 
ATOM     49  C   UNL A   1      43.728  26.094  28.495  1.00  0.00     0.049 A 
ATOM     50  C   UNL A   1      43.702  30.567  32.046  1.00  0.00     0.074 A 
ATOM     51  C   UNL A   1      44.488  27.065  27.863  1.00  0.00     0.029 A 
ATOM     52  N   UNL A   1      43.989  26.216  29.853  1.00  0.00    -0.354 N 
ATOM     53  N   UNL A   1      43.833  29.415  31.442  1.00  0.00    -0.248 NA
ATOM     54  C   UNL A   1      44.668  30.731  33.128  1.00  0.00     0.031 C 
ATOM     55  C   UNL A   1      45.175  27.805  28.857  1.00  0.00     0.029 A 
ATOM     56  C   UNL A   1      44.847  27.269  30.090  1.00  0.00     0.049 A 
ATOM     57  H   UNL A   1      43.612  25.632  30.551  1.00  0.00     0.167 HD
ATOM     58  C   UNL A   1      44.908  28.735  31.963  1.00  0.00     0.074 A 
ATOM     59  C   UNL A   1      45.378  29.590  33.037  1.00  0.00     0.031 C 
ATOM     60  C   UNL A   1      45.327  27.544  31.439  1.00  0.00     0.034 A 
BRANCH  47  61
ATOM     61  C   UNL A   1      42.641  24.210  27.022  1.00  0.00     0.023 A 
ATOM     62  C   UNL A   1      43.230  24.418  25.756  1.00  0.00     0.012 A 
ATOM     63  C   UNL A   1      42.118  22.924  27.272  1.00  0.00     0.148 A 
ATOM     64  C   UNL A   1      43.403  23.377  24.836  1.00  0.00     0.002 A 
ATOM     65  C   UNL A   1      42.242  21.901  26.332  1.00  0.00     0.091 A 
ATOM     66  F   UNL A   1      41.508  22.656  28.432  1.00  0.00    -0.205 F 
ATOM     67  C   UNL A   1      42.909  22.112  25.124  1.00  0.00     0.022 A 
BRANCH  65  68
ATOM     68  S   UNL A   1      41.500  20.304  26.682  1.00  0.00     0.127 S 
ATOM     69  O   UNL A   1      41.837  19.520  25.498  1.00  0.00    -0.237 OA
ATOM     70  O   UNL A   1      42.138  19.913  27.935  1.00  0.00    -0.237 OA
ATOM     71  O   UNL A   1      40.076  20.618  26.810  1.00  0.00    -0.744 OA
ENDBRANCH  65  68
ENDBRANCH  47  61
BRANCH  48  72
ATOM     72  C   UNL A   1      41.588  32.109  32.566  1.00  0.00     0.023 A 
ATOM     73  C   UNL A   1      41.589  33.455  32.974  1.00  0.00     0.012 A 
ATOM     74  C   UNL A   1      40.822  31.175  33.299  1.00  0.00     0.148 A 
ATOM     75  C   UNL A   1      40.931  33.837  34.150  1.00  0.00     0.002 A 
ATOM     76  C   UNL A   1      40.197  31.556  34.485  1.00  0.00     0.091 A 
ATOM     77  F   UNL A   1      40.769  29.907  32.865  1.00  0.00    -0.205 F 
ATOM     78  C   UNL A   1      40.269  32.884  34.926  1.00  0.00     0.022 A 
BRANCH  76  79
ATOM     79  S   UNL A   1      39.412  30.313  35.528  1.00  0.00     0.127 S 
ATOM     80  O   UNL A   1      40.524  29.418  35.833  1.00  0.00    -0.237 OA
ATOM     81  O   UNL A   1      38.878  31.073  36.653  1.00  0.00    -0.237 OA
ATOM     82  O   UNL A   1      38.395  29.725  34.652  1.00  0.00    -0.744 OA
ENDBRANCH  76  79
ENDBRANCH  48  72
BRANCH  60  83
ATOM     83  C   UNL A   1      46.308  26.542  32.024  1.00  0.00     0.023 A 
ATOM     84  C   UNL A   1      45.862  25.744  33.118  1.00  0.00     0.012 A 
ATOM     85  C   UNL A   1      47.658  26.406  31.678  1.00  0.00     0.148 A 
ATOM     86  C   UNL A   1      46.703  24.901  33.845  1.00  0.00     0.002 A 
ATOM     87  C   UNL A   1      48.475  25.484  32.343  1.00  0.00     0.091 A 
ATOM     88  F   UNL A   1      48.201  27.196  30.745  1.00  0.00    -0.205 F 
ATOM     89  C   UNL A   1      48.017  24.757  33.447  1.00  0.00     0.022 A 
BRANCH  87  90
ATOM     90  S   UNL A   1      50.120  25.169  31.701  1.00  0.00     0.127 S 
ATOM     91  O   UNL A   1      50.869  26.335  32.164  1.00  0.00    -0.237 OA
ATOM     92  O   UNL A   1      50.477  23.888  32.300  1.00  0.00    -0.237 OA
ATOM     93  O   UNL A   1      49.918  25.122  30.252  1.00  0.00    -0.744 OA
ENDBRANCH  87  90
ENDBRANCH  60  83
ENDBRANCH  34  35
ENDBRANCH  27  29
ENDBRANCH  26  27
ENDBRANCH  25  26
ENDBRANCH  24  25
ENDBRANCH  23  24
ENDBRANCH   1  23
TORSDOF 21
ENDMDL
MODEL 3
REMARK VINA RESULT:      -9.9      6.613     14.673
REMARK SMILES Cc1cc(-c2cncc(C(=O)OCCOCCOCCOC(=O)c3ccc(-c4c5nc(c(-c6cccc(S(=O)(=O)[O-])c6F)c6ccc([nH]6)c(-c6cccc(S(=O)(=O)[O-])c6F)c6nc(c(-c7cccc(S(=O)(=O)[O-])c7F)c7ccc4[nH]7)C=C6)C=C5)cc3)c2)ccc1F
REMARK SMILES IDX 17 1 16 2 15 3 14 4 13 5 12 6 10 7 11 8 9 9 5 10 6 11 87 12
REMARK SMILES IDX 7 13 8 14 4 15 1 16 2 17 3 18 90 19 89 20 91 21 88 22 18 23
REMARK SMILES IDX 19 24 20 25 21 26 22 27 23 28 24 29 25 30 86 31 26 32 85 33
REMARK SMILES IDX 27 34 28 35 29 36 79 37 30 38 84 39 78 40 80 41 31 42 83 43
REMARK SMILES IDX 77 44 76 45 32 47 64 48 44 49 63 50 45 51 48 52 62 53 81 54
REMARK SMILES IDX 46 55 47 56 61 58 82 59 49 60 33 61 34 62 42 63 35 64 37 65
REMARK SMILES IDX 43 66 36 67 38 68 39 69 40 70 41 71 65 72 66 73 74 74 67 75
REMARK SMILES IDX 69 76 75 77 68 78 70 79 71 80 72 81 73 82 50 83 51 84 59 85
REMARK SMILES IDX 52 86 54 87 60 88 53 89 55 90 56 91 57 92 58 93
REMARK H PARENT 80 46 48 57
REMARK Flexibility Score: inf
ROOT
ATOM      1  C   UNL A   1      54.934  22.734  35.286  1.00  0.00     0.188 C 
ENDROOT
BRANCH   1   2
ATOM      2  C   UNL A   1      54.344  21.401  35.812  1.00  0.00     0.188 C 
BRANCH   2   3
ATOM      3  O   UNL A   1      54.396  20.176  35.092  1.00  0.00    -0.376 OA
BRANCH   3   4
ATOM      4  C   UNL A   1      53.216  19.415  34.925  1.00  0.00     0.202 C 
BRANCH   4   5
ATOM      5  C   UNL A   1      51.884  20.154  35.106  1.00  0.00     0.261 C 
BRANCH   5   6
ATOM      6  O   UNL A   1      50.955  19.985  34.023  1.00  0.00    -0.460 OA
BRANCH   6   7
ATOM      7  C   UNL A   1      50.235  21.091  33.684  1.00  0.00     0.339 C 
ATOM      8  O   UNL A   1      50.539  21.951  32.897  1.00  0.00    -0.246 OA
BRANCH   7   9
ATOM      9  C   UNL A   1      48.905  21.023  34.330  1.00  0.00     0.079 A 
ATOM     10  C   UNL A   1      47.170  21.821  35.828  1.00  0.00     0.001 A 
ATOM     11  C   UNL A   1      46.438  20.691  35.448  1.00  0.00     0.119 A 
ATOM     12  C   UNL A   1      48.452  21.951  35.268  1.00  0.00     0.027 A 
ATOM     13  N   UNL A   1      46.856  19.763  34.552  1.00  0.00    -0.263 NA
ATOM     14  C   UNL A   1      48.075  19.961  34.000  1.00  0.00     0.126 A 
BRANCH  10  15
ATOM     15  C   UNL A   1      46.590  22.869  36.685  1.00  0.00    -0.016 A 
ATOM     16  C   UNL A   1      46.006  26.645  36.480  1.00  0.00     0.047 C 
ATOM     17  C   UNL A   1      45.995  25.234  36.980  1.00  0.00    -0.015 A 
ATOM     18  C   UNL A   1      46.585  24.206  36.236  1.00  0.00     0.015 A 
ATOM     19  C   UNL A   1      45.392  24.915  38.195  1.00  0.00     0.126 A 
ATOM     20  C   UNL A   1      45.385  23.608  38.671  1.00  0.00     0.040 A 
ATOM     21  F   UNL A   1      44.799  25.878  38.916  1.00  0.00    -0.207 F 
ATOM     22  C   UNL A   1      45.985  22.590  37.922  1.00  0.00     0.012 A 
ENDBRANCH  10  15
ENDBRANCH   7   9
ENDBRANCH   6   7
ENDBRANCH   5   6
ENDBRANCH   4   5
ENDBRANCH   3   4
ENDBRANCH   2   3
ENDBRANCH   1   2
BRANCH   1  23
ATOM     23  O   UNL A   1      54.117  23.892  35.433  1.00  0.00    -0.376 OA
BRANCH  23  24
ATOM     24  C   UNL A   1      52.811  23.635  35.961  1.00  0.00     0.202 C 
BRANCH  24  25
ATOM     25  C   UNL A   1      51.734  24.357  35.143  1.00  0.00     0.261 C 
BRANCH  25  26
ATOM     26  O   UNL A   1      52.193  24.710  33.837  1.00  0.00    -0.460 OA
BRANCH  26  27
ATOM     27  C   UNL A   1      52.207  26.044  33.666  1.00  0.00     0.338 C 
ATOM     28  O   UNL A   1      52.449  26.907  34.486  1.00  0.00    -0.246 OA
BRANCH  27  29
ATOM     29  C   UNL A   1      51.918  26.390  32.286  1.00  0.00     0.060 A 
ATOM     30  C   UNL A   1      51.402  27.683  32.079  1.00  0.00     0.016 A 
ATOM     31  C   UNL A   1      51.672  25.313  31.448  1.00  0.00     0.016 A 
ATOM     32  C   UNL A   1      50.363  27.832  31.196  1.00  0.00     0.010 A 
ATOM     33  C   UNL A   1      50.610  25.453  30.600  1.00  0.00     0.010 A 
ATOM     34  C   UNL A   1      49.896  26.666  30.606  1.00  0.00    -0.014 A 
BRANCH  34  35
ATOM     35  C   UNL A   1      48.500  26.508  30.277  1.00  0.00     0.031 A 
ATOM     36  C   UNL A   1      47.620  25.838  31.238  1.00  0.00     0.074 A 
ATOM     37  C   UNL A   1      48.040  27.199  29.205  1.00  0.00     0.049 A 
ATOM     38  N   UNL A   1      46.448  25.403  30.950  1.00  0.00    -0.248 NA
ATOM     39  C   UNL A   1      48.017  25.562  32.619  1.00  0.00     0.031 C 
ATOM     40  C   UNL A   1      46.656  27.574  28.944  1.00  0.00     0.029 A 
ATOM     41  N   UNL A   1      48.705  27.631  28.052  1.00  0.00    -0.354 N 
ATOM     42  C   UNL A   1      45.817  25.148  32.141  1.00  0.00     0.074 A 
ATOM     43  C   UNL A   1      46.860  25.146  33.140  1.00  0.00     0.031 C 
ATOM     44  C   UNL A   1      46.528  27.884  27.643  1.00  0.00     0.029 A 
ATOM     45  C   UNL A   1      47.782  27.528  27.002  1.00  0.00     0.049 A 
ATOM     46  H   UNL A   1      49.636  27.944  27.992  1.00  0.00     0.167 HD
ATOM     47  C   UNL A   1      44.457  25.138  32.178  1.00  0.00     0.034 A 
ATOM     48  C   UNL A   1      47.886  26.646  25.961  1.00  0.00     0.034 A 
ATOM     49  C   UNL A   1      43.896  25.387  30.858  1.00  0.00     0.049 A 
ATOM     50  C   UNL A   1      46.686  25.709  25.886  1.00  0.00     0.074 A 
ATOM     51  C   UNL A   1      43.418  26.535  30.247  1.00  0.00     0.029 A 
ATOM     52  N   UNL A   1      44.115  24.465  29.843  1.00  0.00    -0.354 N 
ATOM     53  N   UNL A   1      45.950  25.400  26.921  1.00  0.00    -0.248 NA
ATOM     54  C   UNL A   1      46.223  25.051  24.668  1.00  0.00     0.031 C 
ATOM     55  C   UNL A   1      43.395  26.313  28.848  1.00  0.00     0.029 A 
ATOM     56  C   UNL A   1      43.839  25.024  28.613  1.00  0.00     0.049 A 
ATOM     57  H   UNL A   1      44.425  23.541  29.982  1.00  0.00     0.167 HD
ATOM     58  C   UNL A   1      44.902  24.604  26.526  1.00  0.00     0.074 A 
ATOM     59  C   UNL A   1      45.136  24.389  25.110  1.00  0.00     0.031 C 
ATOM     60  C   UNL A   1      43.922  24.220  27.400  1.00  0.00     0.034 A 
BRANCH  47  61
ATOM     61  C   UNL A   1      43.687  25.189  33.470  1.00  0.00     0.023 A 
ATOM     62  C   UNL A   1      43.442  24.029  34.233  1.00  0.00     0.012 A 
ATOM     63  C   UNL A   1      43.190  26.403  33.989  1.00  0.00     0.148 A 
ATOM     64  C   UNL A   1      42.845  24.082  35.498  1.00  0.00     0.002 A 
ATOM     65  C   UNL A   1      42.545  26.448  35.225  1.00  0.00     0.091 A 
ATOM     66  F   UNL A   1      43.345  27.545  33.307  1.00  0.00    -0.205 F 
ATOM     67  C   UNL A   1      42.396  25.296  35.999  1.00  0.00     0.022 A 
BRANCH  65  68
ATOM     68  S   UNL A   1      41.877  28.012  35.801  1.00  0.00     0.127 S 
ATOM     69  O   UNL A   1      41.143  27.631  37.003  1.00  0.00    -0.237 OA
ATOM     70  O   UNL A   1      43.072  28.829  35.990  1.00  0.00    -0.237 OA
ATOM     71  O   UNL A   1      41.029  28.442  34.689  1.00  0.00    -0.744 OA
ENDBRANCH  65  68
ENDBRANCH  47  61
BRANCH  48  72
ATOM     72  C   UNL A   1      49.282  26.259  25.609  1.00  0.00     0.023 A 
ATOM     73  C   UNL A   1      50.059  25.517  26.516  1.00  0.00     0.012 A 
ATOM     74  C   UNL A   1      49.931  26.944  24.557  1.00  0.00     0.148 A 
ATOM     75  C   UNL A   1      51.457  25.551  26.442  1.00  0.00     0.002 A 
ATOM     76  C   UNL A   1      51.322  26.999  24.507  1.00  0.00     0.091 A 
ATOM     77  F   UNL A   1      49.180  27.592  23.654  1.00  0.00    -0.205 F 
ATOM     78  C   UNL A   1      52.089  26.321  25.464  1.00  0.00     0.022 A 
BRANCH  76  79
ATOM     79  S   UNL A   1      52.139  28.056  23.298  1.00  0.00     0.127 S 
ATOM     80  O   UNL A   1      51.577  29.368  23.604  1.00  0.00    -0.237 OA
ATOM     81  O   UNL A   1      53.561  27.891  23.576  1.00  0.00    -0.237 OA
ATOM     82  O   UNL A   1      51.701  27.505  22.012  1.00  0.00    -0.744 OA
ENDBRANCH  76  79
ENDBRANCH  48  72
BRANCH  60  83
ATOM     83  C   UNL A   1      42.851  23.157  27.218  1.00  0.00     0.023 A 
ATOM     84  C   UNL A   1      41.514  23.500  27.577  1.00  0.00     0.012 A 
ATOM     85  C   UNL A   1      43.062  21.824  26.848  1.00  0.00     0.148 A 
ATOM     86  C   UNL A   1      40.468  22.578  27.607  1.00  0.00     0.002 A 
ATOM     87  C   UNL A   1      41.991  20.925  26.780  1.00  0.00     0.091 A 
ATOM     88  F   UNL A   1      44.300  21.375  26.609  1.00  0.00    -0.205 F 
ATOM     89  C   UNL A   1      40.704  21.282  27.191  1.00  0.00     0.022 A 
BRANCH  87  90
ATOM     90  S   UNL A   1      42.270  19.304  26.064  1.00  0.00     0.127 S 
ATOM     91  O   UNL A   1      43.084  19.613  24.891  1.00  0.00    -0.237 OA
ATOM     92  O   UNL A   1      42.931  18.570  27.138  1.00  0.00    -0.237 OA
ATOM     93  O   UNL A   1      40.921  18.831  25.751  1.00  0.00    -0.744 OA
ENDBRANCH  87  90
ENDBRANCH  60  83
ENDBRANCH  34  35
ENDBRANCH  27  29
ENDBRANCH  26  27
ENDBRANCH  25  26
ENDBRANCH  24  25
ENDBRANCH  23  24
ENDBRANCH   1  23
TORSDOF 21
ENDMDL
