MODEL 1
REMARK VINA RESULT:     -11.1      0.000      0.000
REMARK SMILES C[C@@H]1CCc2nc(NC(=O)[C@H]3CC=CC[C@@H]3C(=O)OCCOCCOCCOC(=O)c3ccc(-c4c5nc(c(-c6cccc(S(=O)(=O)[O-])c6F)c6ccc([nH]6)c(-c6cccc(S(=O)(=O)[O-])c6F)c6nc(c(-c7cccc(S(=O)(=O)[O-])c7F)c7ccc4[nH]7)C=C6)C=C5)cc3)sc2C1
REMARK SMILES IDX 24 1 23 2 22 3 21 4 20 5 19 6 17 7 18 8 16 9 11 10 12 11
REMARK SMILES IDX 13 12 15 13 14 14 9 15 8 16 10 18 7 19 1 20 2 21 3 22 96 23
REMARK SMILES IDX 4 24 95 25 5 26 94 27 6 28 25 29 26 30 27 31 28 32 29 33
REMARK SMILES IDX 30 34 31 35 32 36 93 37 33 38 92 39 34 40 35 41 36 42 86 43
REMARK SMILES IDX 37 44 91 45 85 46 87 47 38 48 90 49 84 50 83 51 39 53 71 54
REMARK SMILES IDX 51 55 70 56 52 57 55 58 69 59 88 60 53 61 54 62 68 64 89 65
REMARK SMILES IDX 56 66 40 67 41 68 49 69 42 70 44 71 50 72 43 73 45 74 46 75
REMARK SMILES IDX 47 76 48 77 72 78 73 79 81 80 74 81 76 82 82 83 75 84 77 85
REMARK SMILES IDX 78 86 79 87 80 88 57 89 58 90 66 91 59 92 61 93 67 94 60 95
REMARK SMILES IDX 62 96 63 97 64 98 65 99
REMARK H PARENT 8 17 87 52 55 63
REMARK Flexibility Score: inf
ROOT
ATOM      1  C   UNL A   1      41.431  19.984  26.907  1.00  0.00     0.188 C 
ENDROOT
BRANCH   1   2
ATOM      2  C   UNL A   1      40.529  21.227  27.084  1.00  0.00     0.188 C 
BRANCH   2   3
ATOM      3  O   UNL A   1      39.736  21.569  25.971  1.00  0.00    -0.376 OA
BRANCH   3   4
ATOM      4  C   UNL A   1      38.687  22.509  26.144  1.00  0.00     0.202 C 
BRANCH   4   5
ATOM      5  C   UNL A   1      37.456  22.626  25.203  1.00  0.00     0.261 C 
BRANCH   5   6
ATOM      6  O   UNL A   1      36.209  22.911  25.865  1.00  0.00    -0.463 OA
BRANCH   6   7
ATOM      7  C   UNL A   1      35.323  21.921  26.077  1.00  0.00     0.310 C 
ATOM      8  O   UNL A   1      34.865  21.665  27.189  1.00  0.00    -0.252 OA
BRANCH   7   9
ATOM      9  C   UNL A   1      34.660  21.393  24.784  1.00  0.00     0.116 C 
ATOM     10  C   UNL A   1      33.149  21.491  24.417  1.00  0.00     0.097 C 
ATOM     11  C   UNL A   1      32.282  20.206  24.524  1.00  0.00     0.041 C 
ATOM     12  C   UNL A   1      33.016  18.914  24.610  1.00  0.00    -0.030 C 
ATOM     13  C   UNL A   1      35.267  19.987  24.667  1.00  0.00     0.043 C 
ATOM     14  C   UNL A   1      34.345  18.820  24.673  1.00  0.00    -0.030 C 
BRANCH  10  15
ATOM     15  C   UNL A   1      32.760  22.186  23.056  1.00  0.00     0.230 C 
ATOM     16  N   UNL A   1      33.110  23.464  22.692  1.00  0.00    -0.302 N 
ATOM     17  H   UNL A   1      33.424  23.556  21.763  1.00  0.00     0.172 HD
ATOM     18  O   UNL A   1      32.295  21.469  22.158  1.00  0.00    -0.274 OA
BRANCH  16  19
ATOM     19  C   UNL A   1      33.095  24.630  23.407  1.00  0.00     0.189 A 
ATOM     20  C   UNL A   1      31.660  29.416  25.064  1.00  0.00     0.008 C 
ATOM     21  C   UNL A   1      31.565  28.232  26.027  1.00  0.00    -0.009 C 
ATOM     22  C   UNL A   1      32.892  27.878  26.766  1.00  0.00     0.010 C 
ATOM     23  C   UNL A   1      31.013  27.031  25.273  1.00  0.00     0.052 C 
ATOM     24  C   UNL A   1      33.964  27.045  25.989  1.00  0.00     0.058 C 
ATOM     25  C   UNL A   1      32.092  26.387  24.503  1.00  0.00     0.030 A 
ATOM     26  C   UNL A   1      33.367  26.156  24.952  1.00  0.00     0.057 A 
ATOM     27  S   UNL A   1      32.105  25.917  22.871  1.00  0.00    -0.101 S 
ATOM     28  N   UNL A   1      33.953  25.050  24.327  1.00  0.00    -0.225 NA
ENDBRANCH  16  19
ENDBRANCH  10  15
ENDBRANCH   7   9
ENDBRANCH   6   7
ENDBRANCH   5   6
ENDBRANCH   4   5
ENDBRANCH   3   4
ENDBRANCH   2   3
ENDBRANCH   1   2
BRANCH   1  29
ATOM     29  O   UNL A   1      41.869  19.559  25.628  1.00  0.00    -0.376 OA
BRANCH  29  30
ATOM     30  C   UNL A   1      43.119  18.920  25.439  1.00  0.00     0.202 C 
BRANCH  30  31
ATOM     31  C   UNL A   1      44.267  19.578  24.689  1.00  0.00     0.261 C 
BRANCH  31  32
ATOM     32  O   UNL A   1      44.754  20.760  25.283  1.00  0.00    -0.460 OA
BRANCH  32  33
ATOM     33  C   UNL A   1      44.311  21.879  24.700  1.00  0.00     0.338 C 
ATOM     34  O   UNL A   1      44.529  22.262  23.537  1.00  0.00    -0.246 OA
BRANCH  33  35
ATOM     35  C   UNL A   1      43.566  22.658  25.668  1.00  0.00     0.060 A 
ATOM     36  C   UNL A   1      42.726  23.655  25.167  1.00  0.00     0.016 A 
ATOM     37  C   UNL A   1      44.039  22.643  26.987  1.00  0.00     0.016 A 
ATOM     38  C   UNL A   1      42.588  24.795  25.913  1.00  0.00     0.010 A 
ATOM     39  C   UNL A   1      43.924  23.791  27.715  1.00  0.00     0.010 A 
ATOM     40  C   UNL A   1      43.291  24.879  27.118  1.00  0.00    -0.014 A 
BRANCH  40  41
ATOM     41  C   UNL A   1      43.307  26.146  27.804  1.00  0.00     0.031 A 
ATOM     42  C   UNL A   1      44.537  26.909  27.520  1.00  0.00     0.074 A 
ATOM     43  C   UNL A   1      42.234  26.571  28.499  1.00  0.00     0.049 A 
ATOM     44  N   UNL A   1      45.469  27.237  28.349  1.00  0.00    -0.248 NA
ATOM     45  C   UNL A   1      44.878  27.144  26.105  1.00  0.00     0.031 C 
ATOM     46  C   UNL A   1      40.903  25.953  28.550  1.00  0.00     0.029 A 
ATOM     47  N   UNL A   1      42.055  27.740  29.167  1.00  0.00    -0.354 N 
ATOM     48  C   UNL A   1      46.375  27.968  27.588  1.00  0.00     0.074 A 
ATOM     49  C   UNL A   1      46.104  27.653  26.214  1.00  0.00     0.031 C 
ATOM     50  C   UNL A   1      40.007  26.876  28.964  1.00  0.00     0.029 A 
ATOM     51  C   UNL A   1      40.717  28.096  29.308  1.00  0.00     0.049 A 
ATOM     52  H   UNL A   1      42.798  28.282  29.518  1.00  0.00     0.167 HD
ATOM     53  C   UNL A   1      47.038  29.022  28.133  1.00  0.00     0.034 A 
ATOM     54  C   UNL A   1      40.239  29.339  29.567  1.00  0.00     0.034 A 
ATOM     55  C   UNL A   1      47.029  28.953  29.574  1.00  0.00     0.049 A 
ATOM     56  C   UNL A   1      41.367  30.147  30.092  1.00  0.00     0.074 A 
ATOM     57  C   UNL A   1      47.431  28.015  30.504  1.00  0.00     0.029 A 
ATOM     58  N   UNL A   1      46.174  29.804  30.232  1.00  0.00    -0.354 N 
ATOM     59  N   UNL A   1      41.930  29.938  31.247  1.00  0.00    -0.248 NA
ATOM     60  C   UNL A   1      42.162  30.906  29.137  1.00  0.00     0.031 C 
ATOM     61  C   UNL A   1      46.456  28.081  31.541  1.00  0.00     0.029 A 
ATOM     62  C   UNL A   1      45.553  29.097  31.223  1.00  0.00     0.049 A 
ATOM     63  H   UNL A   1      46.036  30.756  30.025  1.00  0.00     0.167 HD
ATOM     64  C   UNL A   1      43.287  30.108  31.002  1.00  0.00     0.074 A 
ATOM     65  C   UNL A   1      43.357  30.817  29.725  1.00  0.00     0.031 C 
ATOM     66  C   UNL A   1      44.219  29.391  31.697  1.00  0.00     0.034 A 
BRANCH  53  67
ATOM     67  C   UNL A   1      47.301  30.322  27.401  1.00  0.00     0.023 A 
ATOM     68  C   UNL A   1      48.619  30.822  27.458  1.00  0.00     0.012 A 
ATOM     69  C   UNL A   1      46.303  31.208  26.926  1.00  0.00     0.148 A 
ATOM     70  C   UNL A   1      48.914  32.152  27.140  1.00  0.00     0.002 A 
ATOM     71  C   UNL A   1      46.614  32.504  26.534  1.00  0.00     0.091 A 
ATOM     72  F   UNL A   1      45.014  30.868  26.966  1.00  0.00    -0.205 F 
ATOM     73  C   UNL A   1      47.911  32.993  26.677  1.00  0.00     0.022 A 
BRANCH  71  74
ATOM     74  S   UNL A   1      45.360  33.615  25.880  1.00  0.00     0.127 S 
ATOM     75  O   UNL A   1      44.620  32.725  24.989  1.00  0.00    -0.237 OA
ATOM     76  O   UNL A   1      44.650  34.008  27.096  1.00  0.00    -0.237 OA
ATOM     77  O   UNL A   1      46.089  34.702  25.237  1.00  0.00    -0.744 OA
ENDBRANCH  71  74
ENDBRANCH  53  67
BRANCH  54  78
ATOM     78  C   UNL A   1      38.974  29.976  29.129  1.00  0.00     0.023 A 
ATOM     79  C   UNL A   1      38.378  29.569  27.918  1.00  0.00     0.012 A 
ATOM     80  C   UNL A   1      38.210  30.772  30.011  1.00  0.00     0.148 A 
ATOM     81  C   UNL A   1      37.055  29.914  27.612  1.00  0.00     0.002 A 
ATOM     82  C   UNL A   1      36.900  31.123  29.698  1.00  0.00     0.091 A 
ATOM     83  F   UNL A   1      38.729  31.102  31.201  1.00  0.00    -0.205 F 
ATOM     84  C   UNL A   1      36.315  30.684  28.504  1.00  0.00     0.022 A 
BRANCH  82  85
ATOM     85  S   UNL A   1      35.880  32.097  30.813  1.00  0.00     0.127 S 
ATOM     86  O   UNL A   1      36.606  33.367  30.859  1.00  0.00    -0.237 OA
ATOM     87  O   UNL A   1      34.609  32.144  30.096  1.00  0.00    -0.237 OA
ATOM     88  O   UNL A   1      35.867  31.371  32.077  1.00  0.00    -0.744 OA
ENDBRANCH  82  85
ENDBRANCH  54  78
BRANCH  66  89
ATOM     89  C   UNL A   1      43.767  28.647  32.927  1.00  0.00     0.023 A 
ATOM     90  C   UNL A   1      43.454  27.272  32.919  1.00  0.00     0.012 A 
ATOM     91  C   UNL A   1      43.812  29.326  34.156  1.00  0.00     0.148 A 
ATOM     92  C   UNL A   1      43.163  26.599  34.109  1.00  0.00     0.002 A 
ATOM     93  C   UNL A   1      43.571  28.644  35.340  1.00  0.00     0.091 A 
ATOM     94  F   UNL A   1      44.112  30.634  34.147  1.00  0.00    -0.205 F 
ATOM     95  C   UNL A   1      43.235  27.282  35.322  1.00  0.00     0.022 A 
BRANCH  93  96
ATOM     96  S   UNL A   1      43.776  29.451  36.928  1.00  0.00     0.127 S 
ATOM     97  O   UNL A   1      43.986  28.315  37.823  1.00  0.00    -0.237 OA
ATOM     98  O   UNL A   1      44.959  30.287  36.710  1.00  0.00    -0.237 OA
ATOM     99  O   UNL A   1      42.550  30.210  37.146  1.00  0.00    -0.744 OA
ENDBRANCH  93  96
ENDBRANCH  66  89
ENDBRANCH  40  41
ENDBRANCH  33  35
ENDBRANCH  32  33
ENDBRANCH  31  32
ENDBRANCH  30  31
ENDBRANCH  29  30
ENDBRANCH   1  29
TORSDOF 22
ENDMDL
MODEL 2
REMARK VINA RESULT:     -11.1      3.274      4.901
REMARK SMILES C[C@@H]1CCc2nc(NC(=O)[C@H]3CC=CC[C@@H]3C(=O)OCCOCCOCCOC(=O)c3ccc(-c4c5nc(c(-c6cccc(S(=O)(=O)[O-])c6F)c6ccc([nH]6)c(-c6cccc(S(=O)(=O)[O-])c6F)c6nc(c(-c7cccc(S(=O)(=O)[O-])c7F)c7ccc4[nH]7)C=C6)C=C5)cc3)sc2C1
REMARK SMILES IDX 24 1 23 2 22 3 21 4 20 5 19 6 17 7 18 8 16 9 11 10 12 11
REMARK SMILES IDX 13 12 15 13 14 14 9 15 8 16 10 18 7 19 1 20 2 21 3 22 96 23
REMARK SMILES IDX 4 24 95 25 5 26 94 27 6 28 25 29 26 30 27 31 28 32 29 33
REMARK SMILES IDX 30 34 31 35 32 36 93 37 33 38 92 39 34 40 35 41 36 42 86 43
REMARK SMILES IDX 37 44 91 45 85 46 87 47 38 48 90 49 84 50 83 51 39 53 71 54
REMARK SMILES IDX 51 55 70 56 52 57 55 58 69 59 88 60 53 61 54 62 68 64 89 65
REMARK SMILES IDX 56 66 40 67 41 68 49 69 42 70 44 71 50 72 43 73 45 74 46 75
REMARK SMILES IDX 47 76 48 77 72 78 73 79 81 80 74 81 76 82 82 83 75 84 77 85
REMARK SMILES IDX 78 86 79 87 80 88 57 89 58 90 66 91 59 92 61 93 67 94 60 95
REMARK SMILES IDX 62 96 63 97 64 98 65 99
REMARK H PARENT 8 17 87 52 55 63
REMARK Flexibility Score: inf
ROOT
ATOM      1  C   UNL A   1      37.363  21.873  25.391  1.00  0.00     0.188 C 
ENDROOT
BRANCH   1   2
ATOM      2  C   UNL A   1      36.683  20.524  25.063  1.00  0.00     0.188 C 
BRANCH   2   3
ATOM      3  O   UNL A   1      35.275  20.527  25.091  1.00  0.00    -0.376 OA
BRANCH   3   4
ATOM      4  C   UNL A   1      34.605  21.691  25.553  1.00  0.00     0.202 C 
BRANCH   4   5
ATOM      5  C   UNL A   1      33.319  21.669  26.425  1.00  0.00     0.261 C 
BRANCH   5   6
ATOM      6  O   UNL A   1      32.177  22.324  25.841  1.00  0.00    -0.463 OA
BRANCH   6   7
ATOM      7  C   UNL A   1      31.740  23.489  26.355  1.00  0.00     0.310 C 
ATOM      8  O   UNL A   1      31.480  23.635  27.548  1.00  0.00    -0.252 OA
BRANCH   7   9
ATOM      9  C   UNL A   1      31.947  24.698  25.415  1.00  0.00     0.116 C 
ATOM     10  C   UNL A   1      33.231  25.016  24.591  1.00  0.00     0.097 C 
ATOM     11  C   UNL A   1      34.156  26.162  25.085  1.00  0.00     0.041 C 
ATOM     12  C   UNL A   1      33.574  27.105  26.080  1.00  0.00    -0.030 C 
ATOM     13  C   UNL A   1      31.422  25.860  26.271  1.00  0.00     0.043 C 
ATOM     14  C   UNL A   1      32.357  26.968  26.605  1.00  0.00    -0.030 C 
BRANCH  10  15
ATOM     15  C   UNL A   1      33.086  25.193  23.031  1.00  0.00     0.230 C 
ATOM     16  N   UNL A   1      32.616  26.321  22.402  1.00  0.00    -0.302 N 
ATOM     17  H   UNL A   1      33.135  26.598  21.613  1.00  0.00     0.172 HD
ATOM     18  O   UNL A   1      33.633  24.349  22.304  1.00  0.00    -0.274 OA
BRANCH  16  19
ATOM     19  C   UNL A   1      31.546  27.121  22.692  1.00  0.00     0.189 A 
ATOM     20  C   UNL A   1      28.698  31.445  23.644  1.00  0.00     0.008 C 
ATOM     21  C   UNL A   1      28.371  30.589  22.420  1.00  0.00    -0.009 C 
ATOM     22  C   UNL A   1      27.443  29.367  22.702  1.00  0.00     0.010 C 
ATOM     23  C   UNL A   1      29.673  30.156  21.763  1.00  0.00     0.052 C 
ATOM     24  C   UNL A   1      28.090  28.082  23.317  1.00  0.00     0.058 C 
ATOM     25  C   UNL A   1      30.237  29.002  22.486  1.00  0.00     0.030 A 
ATOM     26  C   UNL A   1      29.527  27.926  22.952  1.00  0.00     0.057 A 
ATOM     27  S   UNL A   1      31.820  28.770  23.055  1.00  0.00    -0.101 S 
ATOM     28  N   UNL A   1      30.309  26.768  23.019  1.00  0.00    -0.225 NA
ENDBRANCH  16  19
ENDBRANCH  10  15
ENDBRANCH   7   9
ENDBRANCH   6   7
ENDBRANCH   5   6
ENDBRANCH   4   5
ENDBRANCH   3   4
ENDBRANCH   2   3
ENDBRANCH   1   2
BRANCH   1  29
ATOM     29  O   UNL A   1      38.721  21.944  25.791  1.00  0.00    -0.376 OA
BRANCH  29  30
ATOM     30  C   UNL A   1      39.274  23.120  26.354  1.00  0.00     0.202 C 
BRANCH  30  31
ATOM     31  C   UNL A   1      40.340  23.082  27.439  1.00  0.00     0.261 C 
BRANCH  31  32
ATOM     32  O   UNL A   1      41.558  23.698  27.084  1.00  0.00    -0.460 OA
BRANCH  32  33
ATOM     33  C   UNL A   1      41.425  24.969  26.689  1.00  0.00     0.338 C 
ATOM     34  O   UNL A   1      41.760  25.458  25.595  1.00  0.00    -0.246 OA
BRANCH  33  35
ATOM     35  C   UNL A   1      40.876  25.753  27.776  1.00  0.00     0.060 A 
ATOM     36  C   UNL A   1      39.724  26.494  27.504  1.00  0.00     0.016 A 
ATOM     37  C   UNL A   1      41.736  26.033  28.847  1.00  0.00     0.016 A 
ATOM     38  C   UNL A   1      39.586  27.699  28.141  1.00  0.00     0.010 A 
ATOM     39  C   UNL A   1      41.612  27.247  29.458  1.00  0.00     0.010 A 
ATOM     40  C   UNL A   1      40.601  28.097  29.017  1.00  0.00    -0.014 A 
BRANCH  40  41
ATOM     41  C   UNL A   1      40.557  29.442  29.533  1.00  0.00     0.031 A 
ATOM     42  C   UNL A   1      41.849  30.134  29.370  1.00  0.00     0.074 A 
ATOM     43  C   UNL A   1      39.403  29.976  29.977  1.00  0.00     0.049 A 
ATOM     44  N   UNL A   1      42.644  30.547  30.299  1.00  0.00    -0.248 NA
ATOM     45  C   UNL A   1      42.430  30.177  28.016  1.00  0.00     0.031 C 
ATOM     46  C   UNL A   1      38.057  29.399  29.877  1.00  0.00     0.029 A 
ATOM     47  N   UNL A   1      39.167  31.226  30.455  1.00  0.00    -0.354 N 
ATOM     48  C   UNL A   1      43.695  31.153  29.619  1.00  0.00     0.074 A 
ATOM     49  C   UNL A   1      43.642  30.669  28.269  1.00  0.00     0.031 C 
ATOM     50  C   UNL A   1      37.145  30.387  30.015  1.00  0.00     0.029 A 
ATOM     51  C   UNL A   1      37.840  31.626  30.321  1.00  0.00     0.049 A 
ATOM     52  H   UNL A   1      39.864  31.791  30.857  1.00  0.00     0.167 HD
ATOM     53  C   UNL A   1      44.302  32.254  30.133  1.00  0.00     0.034 A 
ATOM     54  C   UNL A   1      37.380  32.902  30.339  1.00  0.00     0.034 A 
ATOM     55  C   UNL A   1      44.052  32.372  31.549  1.00  0.00     0.049 A 
ATOM     56  C   UNL A   1      38.439  33.746  30.943  1.00  0.00     0.074 A 
ATOM     57  C   UNL A   1      44.253  31.555  32.644  1.00  0.00     0.029 A 
ATOM     58  N   UNL A   1      43.137  33.320  31.941  1.00  0.00    -0.354 N 
ATOM     59  N   UNL A   1      38.792  33.676  32.195  1.00  0.00    -0.248 NA
ATOM     60  C   UNL A   1      39.413  34.358  30.051  1.00  0.00     0.031 C 
ATOM     61  C   UNL A   1      43.122  31.776  33.482  1.00  0.00     0.029 A 
ATOM     62  C   UNL A   1      42.330  32.761  32.892  1.00  0.00     0.049 A 
ATOM     63  H   UNL A   1      43.076  34.240  31.597  1.00  0.00     0.167 HD
ATOM     64  C   UNL A   1      40.178  33.783  32.165  1.00  0.00     0.074 A 
ATOM     65  C   UNL A   1      40.490  34.319  30.841  1.00  0.00     0.031 C 
ATOM     66  C   UNL A   1      40.949  33.143  33.091  1.00  0.00     0.034 A 
BRANCH  53  67
ATOM     67  C   UNL A   1      44.739  33.443  29.301  1.00  0.00     0.023 A 
ATOM     68  C   UNL A   1      46.059  33.902  29.502  1.00  0.00     0.012 A 
ATOM     69  C   UNL A   1      43.871  34.295  28.576  1.00  0.00     0.148 A 
ATOM     70  C   UNL A   1      46.467  35.170  29.078  1.00  0.00     0.002 A 
ATOM     71  C   UNL A   1      44.305  35.521  28.086  1.00  0.00     0.091 A 
ATOM     72  F   UNL A   1      42.575  34.006  28.457  1.00  0.00    -0.205 F 
ATOM     73  C   UNL A   1      45.590  35.980  28.368  1.00  0.00     0.022 A 
BRANCH  71  74
ATOM     74  S   UNL A   1      43.222  36.582  27.118  1.00  0.00     0.127 S 
ATOM     75  O   UNL A   1      42.186  36.908  28.094  1.00  0.00    -0.237 OA
ATOM     76  O   UNL A   1      44.120  37.683  26.772  1.00  0.00    -0.237 OA
ATOM     77  O   UNL A   1      42.796  35.779  25.978  1.00  0.00    -0.744 OA
ENDBRANCH  71  74
ENDBRANCH  53  67
BRANCH  54  78
ATOM     78  C   UNL A   1      36.234  33.504  29.616  1.00  0.00     0.023 A 
ATOM     79  C   UNL A   1      35.840  32.966  28.374  1.00  0.00     0.012 A 
ATOM     80  C   UNL A   1      35.361  34.413  30.254  1.00  0.00     0.148 A 
ATOM     81  C   UNL A   1      34.603  33.295  27.804  1.00  0.00     0.002 A 
ATOM     82  C   UNL A   1      34.139  34.747  29.678  1.00  0.00     0.091 A 
ATOM     83  F   UNL A   1      35.680  34.873  31.470  1.00  0.00    -0.205 F 
ATOM     84  C   UNL A   1      33.750  34.179  28.458  1.00  0.00     0.022 A 
BRANCH  82  85
ATOM     85  S   UNL A   1      32.980  35.865  30.478  1.00  0.00     0.127 S 
ATOM     86  O   UNL A   1      32.373  35.002  31.491  1.00  0.00    -0.237 OA
ATOM     87  O   UNL A   1      33.870  36.896  31.004  1.00  0.00    -0.237 OA
ATOM     88  O   UNL A   1      32.059  36.298  29.434  1.00  0.00    -0.744 OA
ENDBRANCH  82  85
ENDBRANCH  54  78
BRANCH  66  89
ATOM     89  C   UNL A   1      40.267  32.574  34.309  1.00  0.00     0.023 A 
ATOM     90  C   UNL A   1      39.607  31.328  34.307  1.00  0.00     0.012 A 
ATOM     91  C   UNL A   1      40.436  33.250  35.529  1.00  0.00     0.148 A 
ATOM     92  C   UNL A   1      39.101  30.785  35.490  1.00  0.00     0.002 A 
ATOM     93  C   UNL A   1      39.975  32.685  36.710  1.00  0.00     0.091 A 
ATOM     94  F   UNL A   1      41.066  34.435  35.516  1.00  0.00    -0.205 F 
ATOM     95  C   UNL A   1      39.297  31.457  36.695  1.00  0.00     0.022 A 
BRANCH  93  96
ATOM     96  S   UNL A   1      40.317  33.452  38.295  1.00  0.00     0.127 S 
ATOM     97  O   UNL A   1      41.777  33.463  38.320  1.00  0.00    -0.237 OA
ATOM     98  O   UNL A   1      39.696  34.771  38.150  1.00  0.00    -0.237 OA
ATOM     99  O   UNL A   1      39.673  32.604  39.290  1.00  0.00    -0.744 OA
ENDBRANCH  93  96
ENDBRANCH  66  89
ENDBRANCH  40  41
ENDBRANCH  33  35
ENDBRANCH  32  33
ENDBRANCH  31  32
ENDBRANCH  30  31
ENDBRANCH  29  30
ENDBRANCH   1  29
TORSDOF 22
ENDMDL
MODEL 3
REMARK VINA RESULT:     -11.0      3.044      4.570
REMARK SMILES C[C@@H]1CCc2nc(NC(=O)[C@H]3CC=CC[C@@H]3C(=O)OCCOCCOCCOC(=O)c3ccc(-c4c5nc(c(-c6cccc(S(=O)(=O)[O-])c6F)c6ccc([nH]6)c(-c6cccc(S(=O)(=O)[O-])c6F)c6nc(c(-c7cccc(S(=O)(=O)[O-])c7F)c7ccc4[nH]7)C=C6)C=C5)cc3)sc2C1
REMARK SMILES IDX 24 1 23 2 22 3 21 4 20 5 19 6 17 7 18 8 16 9 11 10 12 11
REMARK SMILES IDX 13 12 15 13 14 14 9 15 8 16 10 18 7 19 1 20 2 21 3 22 96 23
REMARK SMILES IDX 4 24 95 25 5 26 94 27 6 28 25 29 26 30 27 31 28 32 29 33
REMARK SMILES IDX 30 34 31 35 32 36 93 37 33 38 92 39 34 40 35 41 36 42 86 43
REMARK SMILES IDX 37 44 91 45 85 46 87 47 38 48 90 49 84 50 83 51 39 53 71 54
REMARK SMILES IDX 51 55 70 56 52 57 55 58 69 59 88 60 53 61 54 62 68 64 89 65
REMARK SMILES IDX 56 66 40 67 41 68 49 69 42 70 44 71 50 72 43 73 45 74 46 75
REMARK SMILES IDX 47 76 48 77 72 78 73 79 81 80 74 81 76 82 82 83 75 84 77 85
REMARK SMILES IDX 78 86 79 87 80 88 57 89 58 90 66 91 59 92 61 93 67 94 60 95
REMARK SMILES IDX 62 96 63 97 64 98 65 99
REMARK H PARENT 8 17 87 52 55 63
REMARK Flexibility Score: inf
ROOT
ATOM      1  C   UNL A   1      37.405  21.787  25.385  1.00  0.00     0.188 C 
ENDROOT
BRANCH   1   2
ATOM      2  C   UNL A   1      36.684  20.467  25.028  1.00  0.00     0.188 C 
BRANCH   2   3
ATOM      3  O   UNL A   1      35.277  20.512  25.064  1.00  0.00    -0.376 OA
BRANCH   3   4
ATOM      4  C   UNL A   1      34.644  21.690  25.543  1.00  0.00     0.202 C 
BRANCH   4   5
ATOM      5  C   UNL A   1      33.340  21.697  26.386  1.00  0.00     0.261 C 
BRANCH   5   6
ATOM      6  O   UNL A   1      32.221  22.365  25.771  1.00  0.00    -0.463 OA
BRANCH   6   7
ATOM      7  C   UNL A   1      31.745  23.504  26.306  1.00  0.00     0.310 C 
ATOM      8  O   UNL A   1      31.456  23.611  27.496  1.00  0.00    -0.252 OA
BRANCH   7   9
ATOM      9  C   UNL A   1      31.944  24.744  25.405  1.00  0.00     0.116 C 
ATOM     10  C   UNL A   1      33.246  25.126  24.639  1.00  0.00     0.097 C 
ATOM     11  C   UNL A   1      34.111  26.291  25.195  1.00  0.00     0.041 C 
ATOM     12  C   UNL A   1      33.459  27.187  26.189  1.00  0.00    -0.030 C 
ATOM     13  C   UNL A   1      31.347  25.864  26.268  1.00  0.00     0.043 C 
ATOM     14  C   UNL A   1      32.229  26.995  26.664  1.00  0.00    -0.030 C 
BRANCH  10  15
ATOM     15  C   UNL A   1      33.153  25.337  23.078  1.00  0.00     0.230 C 
ATOM     16  N   UNL A   1      32.675  26.468  22.460  1.00  0.00    -0.302 N 
ATOM     17  H   UNL A   1      33.215  26.779  21.697  1.00  0.00     0.172 HD
ATOM     18  O   UNL A   1      33.750  24.527  22.353  1.00  0.00    -0.274 OA
BRANCH  16  19
ATOM     19  C   UNL A   1      31.573  27.231  22.728  1.00  0.00     0.189 A 
ATOM     20  C   UNL A   1      28.563  31.453  23.634  1.00  0.00     0.008 C 
ATOM     21  C   UNL A   1      28.292  30.593  22.399  1.00  0.00    -0.009 C 
ATOM     22  C   UNL A   1      27.399  29.340  22.654  1.00  0.00     0.010 C 
ATOM     23  C   UNL A   1      29.622  30.207  21.770  1.00  0.00     0.052 C 
ATOM     24  C   UNL A   1      28.074  28.074  23.277  1.00  0.00     0.058 C 
ATOM     25  C   UNL A   1      30.208  29.069  22.500  1.00  0.00     0.030 A 
ATOM     26  C   UNL A   1      29.523  27.967  22.945  1.00  0.00     0.057 A 
ATOM     27  S   UNL A   1      31.784  28.886  23.105  1.00  0.00    -0.101 S 
ATOM     28  N   UNL A   1      30.342  26.835  23.025  1.00  0.00    -0.225 NA
ENDBRANCH  16  19
ENDBRANCH  10  15
ENDBRANCH   7   9
ENDBRANCH   6   7
ENDBRANCH   5   6
ENDBRANCH   4   5
ENDBRANCH   3   4
ENDBRANCH   2   3
ENDBRANCH   1   2
BRANCH   1  29
ATOM     29  O   UNL A   1      38.759  21.805  25.805  1.00  0.00    -0.376 OA
BRANCH  29  30
ATOM     30  C   UNL A   1      39.348  22.956  26.383  1.00  0.00     0.202 C 
BRANCH  30  31
ATOM     31  C   UNL A   1      40.353  22.874  27.523  1.00  0.00     0.261 C 
BRANCH  31  32
ATOM     32  O   UNL A   1      41.619  23.420  27.227  1.00  0.00    -0.460 OA
BRANCH  32  33
ATOM     33  C   UNL A   1      41.568  24.662  26.731  1.00  0.00     0.338 C 
ATOM     34  O   UNL A   1      41.896  25.032  25.589  1.00  0.00    -0.246 OA
BRANCH  33  35
ATOM     35  C   UNL A   1      41.127  25.572  27.767  1.00  0.00     0.060 A 
ATOM     36  C   UNL A   1      40.010  26.361  27.484  1.00  0.00     0.016 A 
ATOM     37  C   UNL A   1      42.058  25.888  28.766  1.00  0.00     0.016 A 
ATOM     38  C   UNL A   1      39.980  27.623  28.014  1.00  0.00     0.010 A 
ATOM     39  C   UNL A   1      42.041  27.157  29.269  1.00  0.00     0.010 A 
ATOM     40  C   UNL A   1      41.062  28.029  28.801  1.00  0.00    -0.014 A 
BRANCH  40  41
ATOM     41  C   UNL A   1      41.129  29.414  29.193  1.00  0.00     0.031 A 
ATOM     42  C   UNL A   1      42.369  30.059  28.724  1.00  0.00     0.074 A 
ATOM     43  C   UNL A   1      40.086  30.012  29.802  1.00  0.00     0.049 A 
ATOM     44  N   UNL A   1      43.332  30.531  29.442  1.00  0.00    -0.248 NA
ATOM     45  C   UNL A   1      42.677  29.971  27.285  1.00  0.00     0.031 C 
ATOM     46  C   UNL A   1      38.742  29.461  30.014  1.00  0.00     0.029 A 
ATOM     47  N   UNL A   1      39.955  31.303  30.203  1.00  0.00    -0.354 N 
ATOM     48  C   UNL A   1      44.235  31.051  28.521  1.00  0.00     0.074 A 
ATOM     49  C   UNL A   1      43.918  30.454  27.255  1.00  0.00     0.031 C 
ATOM     50  C   UNL A   1      37.882  30.479  30.237  1.00  0.00     0.029 A 
ATOM     51  C   UNL A   1      38.631  31.722  30.292  1.00  0.00     0.049 A 
ATOM     52  H   UNL A   1      40.721  31.885  30.412  1.00  0.00     0.167 HD
ATOM     53  C   UNL A   1      44.938  32.177  28.809  1.00  0.00     0.034 A 
ATOM     54  C   UNL A   1      38.192  33.006  30.284  1.00  0.00     0.034 A 
ATOM     55  C   UNL A   1      44.968  32.423  30.230  1.00  0.00     0.049 A 
ATOM     56  C   UNL A   1      39.354  33.873  30.596  1.00  0.00     0.074 A 
ATOM     57  C   UNL A   1      45.371  31.698  31.334  1.00  0.00     0.029 A 
ATOM     58  N   UNL A   1      44.153  33.422  30.705  1.00  0.00    -0.354 N 
ATOM     59  N   UNL A   1      39.942  33.903  31.757  1.00  0.00    -0.248 NA
ATOM     60  C   UNL A   1      40.141  34.382  29.482  1.00  0.00     0.031 C 
ATOM     61  C   UNL A   1      44.426  32.017  32.352  1.00  0.00     0.029 A 
ATOM     62  C   UNL A   1      43.541  32.967  31.840  1.00  0.00     0.049 A 
ATOM     63  H   UNL A   1      44.032  34.310  30.299  1.00  0.00     0.167 HD
ATOM     64  C   UNL A   1      41.296  33.974  31.452  1.00  0.00     0.074 A 
ATOM     65  C   UNL A   1      41.349  34.386  30.051  1.00  0.00     0.031 C 
ATOM     66  C   UNL A   1      42.228  33.397  32.266  1.00  0.00     0.034 A 
BRANCH  53  67
ATOM     67  C   UNL A   1      45.214  33.279  27.806  1.00  0.00     0.023 A 
ATOM     68  C   UNL A   1      44.386  33.313  26.663  1.00  0.00     0.012 A 
ATOM     69  C   UNL A   1      46.385  34.075  27.769  1.00  0.00     0.148 A 
ATOM     70  C   UNL A   1      44.745  34.032  25.519  1.00  0.00     0.002 A 
ATOM     71  C   UNL A   1      46.696  34.852  26.660  1.00  0.00     0.091 A 
ATOM     72  F   UNL A   1      47.292  34.000  28.744  1.00  0.00    -0.205 F 
ATOM     73  C   UNL A   1      45.900  34.803  25.517  1.00  0.00     0.022 A 
BRANCH  71  74
ATOM     74  S   UNL A   1      48.153  35.906  26.630  1.00  0.00     0.127 S 
ATOM     75  O   UNL A   1      48.048  36.510  25.305  1.00  0.00    -0.237 OA
ATOM     76  O   UNL A   1      47.888  36.808  27.750  1.00  0.00    -0.237 OA
ATOM     77  O   UNL A   1      49.290  35.016  26.838  1.00  0.00    -0.744 OA
ENDBRANCH  71  74
ENDBRANCH  53  67
BRANCH  54  78
ATOM     78  C   UNL A   1      36.932  33.571  29.745  1.00  0.00     0.023 A 
ATOM     79  C   UNL A   1      36.559  33.285  28.415  1.00  0.00     0.012 A 
ATOM     80  C   UNL A   1      35.966  34.152  30.596  1.00  0.00     0.148 A 
ATOM     81  C   UNL A   1      35.258  33.537  27.960  1.00  0.00     0.002 A 
ATOM     82  C   UNL A   1      34.679  34.413  30.135  1.00  0.00     0.091 A 
ATOM     83  F   UNL A   1      36.275  34.357  31.883  1.00  0.00    -0.205 F 
ATOM     84  C   UNL A   1      34.317  34.095  28.820  1.00  0.00     0.022 A 
BRANCH  82  85
ATOM     85  S   UNL A   1      33.408  35.112  31.198  1.00  0.00     0.127 S 
ATOM     86  O   UNL A   1      33.992  36.403  31.563  1.00  0.00    -0.237 OA
ATOM     87  O   UNL A   1      32.265  35.190  30.293  1.00  0.00    -0.237 OA
ATOM     88  O   UNL A   1      33.268  34.184  32.314  1.00  0.00    -0.744 OA
ENDBRANCH  82  85
ENDBRANCH  54  78
BRANCH  66  89
ATOM     89  C   UNL A   1      41.792  32.952  33.638  1.00  0.00     0.023 A 
ATOM     90  C   UNL A   1      41.854  33.790  34.771  1.00  0.00     0.012 A 
ATOM     91  C   UNL A   1      41.155  31.705  33.751  1.00  0.00     0.148 A 
ATOM     92  C   UNL A   1      41.319  33.378  35.995  1.00  0.00     0.002 A 
ATOM     93  C   UNL A   1      40.583  31.319  34.954  1.00  0.00     0.091 A 
ATOM     94  F   UNL A   1      41.104  30.919  32.664  1.00  0.00    -0.205 F 
ATOM     95  C   UNL A   1      40.671  32.147  36.084  1.00  0.00     0.022 A 
BRANCH  93  96
ATOM     96  S   UNL A   1      39.630  29.804  35.080  1.00  0.00     0.127 S 
ATOM     97  O   UNL A   1      40.589  28.802  34.620  1.00  0.00    -0.237 OA
ATOM     98  O   UNL A   1      39.317  29.743  36.509  1.00  0.00    -0.237 OA
ATOM     99  O   UNL A   1      38.463  30.001  34.228  1.00  0.00    -0.744 OA
ENDBRANCH  93  96
ENDBRANCH  66  89
ENDBRANCH  40  41
ENDBRANCH  33  35
ENDBRANCH  32  33
ENDBRANCH  31  32
ENDBRANCH  30  31
ENDBRANCH  29  30
ENDBRANCH   1  29
TORSDOF 22
ENDMDL
