MODEL 1
REMARK VINA RESULT:      -9.9      0.000      0.000
REMARK SMILES C[C@H]1SCCC[C@@]1(C(=O)OCCOCCOCCOC(=O)c1ccc(-c2c3nc(c(-c4cccc(S(=O)(=O)[O-])c4F)c4ccc([nH]4)c(-c4cccc(S(=O)(=O)[O-])c4F)c4nc(c(-c5cccc(S(=O)(=O)[O-])c5F)c5ccc2[nH]5)C=C4)C=C3)cc1)[NH+]1CCCC1
REMARK SMILES IDX 15 1 14 2 13 3 12 4 11 5 10 6 8 7 9 8 7 9 1 10 2 11 3 12
REMARK SMILES IDX 4 13 6 14 5 15 85 16 86 17 89 18 87 20 88 21 16 22 17 23
REMARK SMILES IDX 18 24 19 25 20 26 21 27 22 28 23 29 84 30 24 31 83 32 25 33
REMARK SMILES IDX 26 34 27 35 77 36 28 37 82 38 76 39 78 40 29 41 81 42 75 43
REMARK SMILES IDX 74 44 30 46 62 47 42 48 61 49 43 50 46 51 60 52 79 53 44 54
REMARK SMILES IDX 45 55 59 57 80 58 47 59 31 60 32 61 40 62 33 63 35 64 41 65
REMARK SMILES IDX 34 66 36 67 37 68 38 69 39 70 63 71 64 72 72 73 65 74 67 75
REMARK SMILES IDX 73 76 66 77 68 78 69 79 70 80 71 81 48 82 49 83 57 84 50 85
REMARK SMILES IDX 52 86 58 87 51 88 53 89 54 90 55 91 56 92
REMARK H PARENT 85 19 78 45 46 56
REMARK Flexibility Score: inf
ROOT
ATOM      1  C   UNL A   1      33.313  28.620  26.862  1.00  0.00     0.188 C 
ENDROOT
BRANCH   1   2
ATOM      2  C   UNL A   1      31.844  28.513  27.292  1.00  0.00     0.188 C 
BRANCH   2   3
ATOM      3  O   UNL A   1      31.258  27.220  27.345  1.00  0.00    -0.376 OA
BRANCH   3   4
ATOM      4  C   UNL A   1      30.968  26.565  26.115  1.00  0.00     0.202 C 
BRANCH   4   5
ATOM      5  C   UNL A   1      30.475  25.105  26.119  1.00  0.00     0.261 C 
BRANCH   5   6
ATOM      6  O   UNL A   1      30.980  24.265  25.055  1.00  0.00    -0.459 OA
BRANCH   6   7
ATOM      7  C   UNL A   1      32.218  24.565  24.570  1.00  0.00     0.369 C 
ATOM      8  O   UNL A   1      32.438  25.615  23.965  1.00  0.00    -0.245 OA
BRANCH   7   9
ATOM      9  C   UNL A   1      33.366  23.476  24.779  1.00  0.00     0.207 C 
ATOM     10  C   UNL A   1      32.719  22.220  22.532  1.00  0.00     0.027 C 
ATOM     11  C   UNL A   1      32.743  22.188  24.065  1.00  0.00     0.117 C 
ATOM     12  S   UNL A   1      33.411  20.553  24.570  1.00  0.00    -0.152 SA
ATOM     13  C   UNL A   1      33.169  20.720  26.345  1.00  0.00     0.070 C 
ATOM     14  C   UNL A   1      33.398  23.271  26.328  1.00  0.00     0.083 C 
ATOM     15  C   UNL A   1      33.908  21.936  26.871  1.00  0.00     0.018 C 
BRANCH   9  16
ATOM     16  N   UNL A   1      34.709  23.901  24.241  1.00  0.00    -0.320 N 
ATOM     17  C   UNL A   1      35.404  23.074  23.253  1.00  0.00     0.263 C 
ATOM     18  C   UNL A   1      35.740  24.342  25.195  1.00  0.00     0.263 C 
ATOM     19  H   UNL A   1      34.293  24.699  23.760  1.00  0.00     0.349 HD
ATOM     20  C   UNL A   1      36.591  22.453  23.968  1.00  0.00     0.067 C 
ATOM     21  C   UNL A   1      36.989  23.495  24.983  1.00  0.00     0.067 C 
ENDBRANCH   9  16
ENDBRANCH   7   9
ENDBRANCH   6   7
ENDBRANCH   5   6
ENDBRANCH   4   5
ENDBRANCH   3   4
ENDBRANCH   2   3
ENDBRANCH   1   2
BRANCH   1  22
ATOM     22  O   UNL A   1      34.089  29.492  27.649  1.00  0.00    -0.376 OA
BRANCH  22  23
ATOM     23  C   UNL A   1      34.191  30.853  27.280  1.00  0.00     0.202 C 
BRANCH  23  24
ATOM     24  C   UNL A   1      33.158  31.927  27.674  1.00  0.00     0.261 C 
BRANCH  24  25
ATOM     25  O   UNL A   1      33.474  33.303  27.427  1.00  0.00    -0.460 OA
BRANCH  25  26
ATOM     26  C   UNL A   1      33.434  34.152  28.480  1.00  0.00     0.338 C 
ATOM     27  O   UNL A   1      32.518  34.905  28.776  1.00  0.00    -0.246 OA
BRANCH  26  28
ATOM     28  C   UNL A   1      34.599  33.849  29.346  1.00  0.00     0.060 A 
ATOM     29  C   UNL A   1      35.887  34.189  28.905  1.00  0.00     0.016 A 
ATOM     30  C   UNL A   1      34.420  33.250  30.595  1.00  0.00     0.016 A 
ATOM     31  C   UNL A   1      37.001  33.890  29.694  1.00  0.00     0.010 A 
ATOM     32  C   UNL A   1      35.538  32.933  31.374  1.00  0.00     0.010 A 
ATOM     33  C   UNL A   1      36.836  33.218  30.911  1.00  0.00    -0.014 A 
BRANCH  33  34
ATOM     34  C   UNL A   1      38.008  32.625  31.605  1.00  0.00     0.031 A 
ATOM     35  C   UNL A   1      38.689  31.443  30.969  1.00  0.00     0.074 A 
ATOM     36  C   UNL A   1      38.447  33.090  32.788  1.00  0.00     0.049 A 
ATOM     37  N   UNL A   1      39.677  30.712  31.414  1.00  0.00    -0.248 NA
ATOM     38  C   UNL A   1      38.174  31.027  29.654  1.00  0.00     0.031 C 
ATOM     39  C   UNL A   1      37.882  34.223  33.515  1.00  0.00     0.029 A 
ATOM     40  N   UNL A   1      39.453  32.628  33.603  1.00  0.00    -0.354 N 
ATOM     41  C   UNL A   1      39.888  29.736  30.448  1.00  0.00     0.074 A 
ATOM     42  C   UNL A   1      38.909  29.955  29.404  1.00  0.00     0.031 C 
ATOM     43  C   UNL A   1      38.520  34.341  34.693  1.00  0.00     0.029 A 
ATOM     44  C   UNL A   1      39.518  33.278  34.812  1.00  0.00     0.049 A 
ATOM     45  H   UNL A   1      40.067  31.903  33.345  1.00  0.00     0.167 HD
ATOM     46  C   UNL A   1      40.819  28.751  30.419  1.00  0.00     0.034 A 
ATOM     47  C   UNL A   1      40.272  33.023  35.902  1.00  0.00     0.034 A 
ATOM     48  C   UNL A   1      41.786  28.521  31.458  1.00  0.00     0.049 A 
ATOM     49  C   UNL A   1      41.277  31.899  35.871  1.00  0.00     0.074 A 
ATOM     50  C   UNL A   1      42.790  27.571  31.504  1.00  0.00     0.029 A 
ATOM     51  N   UNL A   1      41.855  29.232  32.647  1.00  0.00    -0.354 N 
ATOM     52  N   UNL A   1      41.546  31.055  34.905  1.00  0.00    -0.248 NA
ATOM     53  C   UNL A   1      42.109  31.716  37.071  1.00  0.00     0.031 C 
ATOM     54  C   UNL A   1      43.441  27.681  32.738  1.00  0.00     0.029 A 
ATOM     55  C   UNL A   1      42.874  28.731  33.439  1.00  0.00     0.049 A 
ATOM     56  H   UNL A   1      41.266  29.981  32.891  1.00  0.00     0.167 HD
ATOM     57  C   UNL A   1      42.598  30.267  35.363  1.00  0.00     0.074 A 
ATOM     58  C   UNL A   1      42.928  30.744  36.690  1.00  0.00     0.031 C 
ATOM     59  C   UNL A   1      43.228  29.237  34.743  1.00  0.00     0.034 A 
BRANCH  46  60
ATOM     60  C   UNL A   1      40.827  27.851  29.210  1.00  0.00     0.023 A 
ATOM     61  C   UNL A   1      39.955  26.744  29.154  1.00  0.00     0.012 A 
ATOM     62  C   UNL A   1      41.691  28.104  28.127  1.00  0.00     0.148 A 
ATOM     63  C   UNL A   1      39.978  25.875  28.065  1.00  0.00     0.002 A 
ATOM     64  C   UNL A   1      41.672  27.263  27.021  1.00  0.00     0.091 A 
ATOM     65  F   UNL A   1      42.530  29.147  28.205  1.00  0.00    -0.205 F 
ATOM     66  C   UNL A   1      40.831  26.138  26.996  1.00  0.00     0.022 A 
BRANCH  64  67
ATOM     67  S   UNL A   1      42.673  27.564  25.561  1.00  0.00     0.127 S 
ATOM     68  O   UNL A   1      42.075  28.793  25.041  1.00  0.00    -0.237 OA
ATOM     69  O   UNL A   1      44.009  27.730  26.133  1.00  0.00    -0.237 OA
ATOM     70  O   UNL A   1      42.517  26.386  24.720  1.00  0.00    -0.744 OA
ENDBRANCH  64  67
ENDBRANCH  46  60
BRANCH  47  71
ATOM     71  C   UNL A   1      40.110  33.867  37.121  1.00  0.00     0.023 A 
ATOM     72  C   UNL A   1      39.100  33.564  38.054  1.00  0.00     0.012 A 
ATOM     73  C   UNL A   1      40.974  34.952  37.368  1.00  0.00     0.148 A 
ATOM     74  C   UNL A   1      38.937  34.343  39.200  1.00  0.00     0.002 A 
ATOM     75  C   UNL A   1      40.841  35.688  38.539  1.00  0.00     0.091 A 
ATOM     76  F   UNL A   1      41.919  35.230  36.459  1.00  0.00    -0.205 F 
ATOM     77  C   UNL A   1      39.813  35.397  39.448  1.00  0.00     0.022 A 
BRANCH  75  78
ATOM     78  S   UNL A   1      41.995  36.984  39.002  1.00  0.00     0.127 S 
ATOM     79  O   UNL A   1      41.098  38.010  39.532  1.00  0.00    -0.237 OA
ATOM     80  O   UNL A   1      42.815  36.305  40.006  1.00  0.00    -0.237 OA
ATOM     81  O   UNL A   1      42.704  37.342  37.782  1.00  0.00    -0.744 OA
ENDBRANCH  75  78
ENDBRANCH  47  71
BRANCH  59  82
ATOM     82  C   UNL A   1      44.378  28.572  35.462  1.00  0.00     0.023 A 
ATOM     83  C   UNL A   1      45.699  29.018  35.252  1.00  0.00     0.012 A 
ATOM     84  C   UNL A   1      44.138  27.555  36.409  1.00  0.00     0.148 A 
ATOM     85  C   UNL A   1      46.762  28.438  35.945  1.00  0.00     0.002 A 
ATOM     86  C   UNL A   1      45.195  27.018  37.133  1.00  0.00     0.091 A 
ATOM     87  F   UNL A   1      42.878  27.132  36.586  1.00  0.00    -0.205 F 
ATOM     88  C   UNL A   1      46.510  27.449  36.893  1.00  0.00     0.022 A 
BRANCH  86  89
ATOM     89  S   UNL A   1      44.956  25.811  38.442  1.00  0.00     0.127 S 
ATOM     90  O   UNL A   1      44.039  26.518  39.335  1.00  0.00    -0.237 OA
ATOM     91  O   UNL A   1      44.359  24.687  37.721  1.00  0.00    -0.237 OA
ATOM     92  O   UNL A   1      46.278  25.543  38.991  1.00  0.00    -0.744 OA
ENDBRANCH  86  89
ENDBRANCH  59  82
ENDBRANCH  33  34
ENDBRANCH  26  28
ENDBRANCH  25  26
ENDBRANCH  24  25
ENDBRANCH  23  24
ENDBRANCH  22  23
ENDBRANCH   1  22
TORSDOF 21
ENDMDL
MODEL 2
REMARK VINA RESULT:      -9.9      2.157      7.973
REMARK SMILES C[C@H]1SCCC[C@@]1(C(=O)OCCOCCOCCOC(=O)c1ccc(-c2c3nc(c(-c4cccc(S(=O)(=O)[O-])c4F)c4ccc([nH]4)c(-c4cccc(S(=O)(=O)[O-])c4F)c4nc(c(-c5cccc(S(=O)(=O)[O-])c5F)c5ccc2[nH]5)C=C4)C=C3)cc1)[NH+]1CCCC1
REMARK SMILES IDX 15 1 14 2 13 3 12 4 11 5 10 6 8 7 9 8 7 9 1 10 2 11 3 12
REMARK SMILES IDX 4 13 6 14 5 15 85 16 86 17 89 18 87 20 88 21 16 22 17 23
REMARK SMILES IDX 18 24 19 25 20 26 21 27 22 28 23 29 84 30 24 31 83 32 25 33
REMARK SMILES IDX 26 34 27 35 77 36 28 37 82 38 76 39 78 40 29 41 81 42 75 43
REMARK SMILES IDX 74 44 30 46 62 47 42 48 61 49 43 50 46 51 60 52 79 53 44 54
REMARK SMILES IDX 45 55 59 57 80 58 47 59 31 60 32 61 40 62 33 63 35 64 41 65
REMARK SMILES IDX 34 66 36 67 37 68 38 69 39 70 63 71 64 72 72 73 65 74 67 75
REMARK SMILES IDX 73 76 66 77 68 78 69 79 70 80 71 81 48 82 49 83 57 84 50 85
REMARK SMILES IDX 52 86 58 87 51 88 53 89 54 90 55 91 56 92
REMARK H PARENT 85 19 78 45 46 56
REMARK Flexibility Score: inf
ROOT
ATOM      1  C   UNL A   1      33.145  28.212  26.925  1.00  0.00     0.188 C 
ENDROOT
BRANCH   1   2
ATOM      2  C   UNL A   1      31.775  28.227  27.618  1.00  0.00     0.188 C 
BRANCH   2   3
ATOM      3  O   UNL A   1      30.849  27.202  27.284  1.00  0.00    -0.376 OA
BRANCH   3   4
ATOM      4  C   UNL A   1      31.016  26.528  26.041  1.00  0.00     0.202 C 
BRANCH   4   5
ATOM      5  C   UNL A   1      30.198  25.257  25.741  1.00  0.00     0.261 C 
BRANCH   5   6
ATOM      6  O   UNL A   1      30.709  24.412  24.683  1.00  0.00    -0.459 OA
BRANCH   6   7
ATOM      7  C   UNL A   1      31.331  23.261  25.063  1.00  0.00     0.369 C 
ATOM      8  O   UNL A   1      30.736  22.378  25.681  1.00  0.00    -0.245 OA
BRANCH   7   9
ATOM      9  C   UNL A   1      32.883  23.121  24.714  1.00  0.00     0.207 C 
ATOM     10  C   UNL A   1      32.501  20.788  23.507  1.00  0.00     0.027 C 
ATOM     11  C   UNL A   1      33.086  21.535  24.712  1.00  0.00     0.117 C 
ATOM     12  S   UNL A   1      34.797  20.916  24.964  1.00  0.00    -0.152 SA
ATOM     13  C   UNL A   1      35.162  21.800  26.488  1.00  0.00     0.070 C 
ATOM     14  C   UNL A   1      33.595  23.754  25.953  1.00  0.00     0.083 C 
ATOM     15  C   UNL A   1      35.016  23.297  26.283  1.00  0.00     0.018 C 
BRANCH   9  16
ATOM     16  N   UNL A   1      33.279  23.804  23.430  1.00  0.00    -0.320 N 
ATOM     17  C   UNL A   1      34.133  24.993  23.458  1.00  0.00     0.263 C 
ATOM     18  C   UNL A   1      32.234  24.082  22.431  1.00  0.00     0.263 C 
ATOM     19  H   UNL A   1      33.847  23.005  23.149  1.00  0.00     0.349 HD
ATOM     20  C   UNL A   1      33.250  26.168  23.075  1.00  0.00     0.067 C 
ATOM     21  C   UNL A   1      32.251  25.573  22.115  1.00  0.00     0.067 C 
ENDBRANCH   9  16
ENDBRANCH   7   9
ENDBRANCH   6   7
ENDBRANCH   5   6
ENDBRANCH   4   5
ENDBRANCH   3   4
ENDBRANCH   2   3
ENDBRANCH   1   2
BRANCH   1  22
ATOM     22  O   UNL A   1      34.035  29.207  27.372  1.00  0.00    -0.376 OA
BRANCH  22  23
ATOM     23  C   UNL A   1      33.916  30.521  26.866  1.00  0.00     0.202 C 
BRANCH  23  24
ATOM     24  C   UNL A   1      33.053  31.617  27.520  1.00  0.00     0.261 C 
BRANCH  24  25
ATOM     25  O   UNL A   1      33.328  32.987  27.201  1.00  0.00    -0.460 OA
BRANCH  25  26
ATOM     26  C   UNL A   1      33.590  33.828  28.227  1.00  0.00     0.338 C 
ATOM     27  O   UNL A   1      32.895  34.760  28.603  1.00  0.00    -0.246 OA
BRANCH  26  28
ATOM     28  C   UNL A   1      34.754  33.285  28.968  1.00  0.00     0.060 A 
ATOM     29  C   UNL A   1      36.037  33.409  28.412  1.00  0.00     0.016 A 
ATOM     30  C   UNL A   1      34.585  32.674  30.212  1.00  0.00     0.016 A 
ATOM     31  C   UNL A   1      37.146  32.883  29.080  1.00  0.00     0.010 A 
ATOM     32  C   UNL A   1      35.693  32.130  30.869  1.00  0.00     0.010 A 
ATOM     33  C   UNL A   1      36.974  32.198  30.289  1.00  0.00    -0.014 A 
BRANCH  33  34
ATOM     34  C   UNL A   1      38.077  31.377  30.849  1.00  0.00     0.031 A 
ATOM     35  C   UNL A   1      38.615  31.738  32.208  1.00  0.00     0.074 A 
ATOM     36  C   UNL A   1      38.623  30.355  30.167  1.00  0.00     0.049 A 
ATOM     37  N   UNL A   1      39.616  31.222  32.872  1.00  0.00    -0.248 NA
ATOM     38  C   UNL A   1      37.932  32.840  32.905  1.00  0.00     0.031 C 
ATOM     39  C   UNL A   1      38.202  29.899  28.845  1.00  0.00     0.029 A 
ATOM     40  N   UNL A   1      39.685  29.543  30.487  1.00  0.00    -0.354 N 
ATOM     41  C   UNL A   1      39.700  31.949  34.052  1.00  0.00     0.074 A 
ATOM     42  C   UNL A   1      38.662  32.957  34.003  1.00  0.00     0.031 C 
ATOM     43  C   UNL A   1      39.029  28.917  28.444  1.00  0.00     0.029 A 
ATOM     44  C   UNL A   1      40.049  28.694  29.469  1.00  0.00     0.049 A 
ATOM     45  H   UNL A   1      40.140  29.567  31.359  1.00  0.00     0.167 HD
ATOM     46  C   UNL A   1      40.552  31.790  35.094  1.00  0.00     0.034 A 
ATOM     47  C   UNL A   1      41.102  27.857  29.363  1.00  0.00     0.034 A 
ATOM     48  C   UNL A   1      41.592  30.798  35.144  1.00  0.00     0.049 A 
ATOM     49  C   UNL A   1      42.066  27.717  30.515  1.00  0.00     0.074 A 
ATOM     50  C   UNL A   1      42.482  30.537  36.170  1.00  0.00     0.029 A 
ATOM     51  N   UNL A   1      41.899  29.920  34.116  1.00  0.00    -0.354 N 
ATOM     52  N   UNL A   1      42.066  28.330  31.674  1.00  0.00    -0.248 NA
ATOM     53  C   UNL A   1      43.158  26.744  30.356  1.00  0.00     0.031 C 
ATOM     54  C   UNL A   1      43.355  29.528  35.745  1.00  0.00     0.029 A 
ATOM     55  C   UNL A   1      42.976  29.127  34.475  1.00  0.00     0.049 A 
ATOM     56  H   UNL A   1      41.422  29.869  33.257  1.00  0.00     0.167 HD
ATOM     57  C   UNL A   1      43.128  27.792  32.395  1.00  0.00     0.074 A 
ATOM     58  C   UNL A   1      43.742  26.792  31.547  1.00  0.00     0.031 C 
ATOM     59  C   UNL A   1      43.558  28.103  33.644  1.00  0.00     0.034 A 
BRANCH  46  60
ATOM     60  C   UNL A   1      40.380  32.719  36.269  1.00  0.00     0.023 A 
ATOM     61  C   UNL A   1      41.169  33.884  36.361  1.00  0.00     0.012 A 
ATOM     62  C   UNL A   1      39.435  32.443  37.276  1.00  0.00     0.148 A 
ATOM     63  C   UNL A   1      41.056  34.733  37.461  1.00  0.00     0.002 A 
ATOM     64  C   UNL A   1      39.292  33.321  38.343  1.00  0.00     0.091 A 
ATOM     65  F   UNL A   1      38.709  31.320  37.184  1.00  0.00    -0.205 F 
ATOM     66  C   UNL A   1      40.114  34.456  38.448  1.00  0.00     0.022 A 
BRANCH  64  67
ATOM     67  S   UNL A   1      38.051  33.095  39.620  1.00  0.00     0.127 S 
ATOM     68  O   UNL A   1      38.576  31.936  40.342  1.00  0.00    -0.237 OA
ATOM     69  O   UNL A   1      38.131  34.358  40.355  1.00  0.00    -0.237 OA
ATOM     70  O   UNL A   1      36.792  32.881  38.922  1.00  0.00    -0.744 OA
ENDBRANCH  64  67
ENDBRANCH  46  60
BRANCH  47  71
ATOM     71  C   UNL A   1      41.293  27.071  28.111  1.00  0.00     0.023 A 
ATOM     72  C   UNL A   1      41.882  27.678  26.985  1.00  0.00     0.012 A 
ATOM     73  C   UNL A   1      40.916  25.715  28.044  1.00  0.00     0.148 A 
ATOM     74  C   UNL A   1      42.069  26.955  25.806  1.00  0.00     0.002 A 
ATOM     75  C   UNL A   1      41.157  24.986  26.886  1.00  0.00     0.091 A 
ATOM     76  F   UNL A   1      40.344  25.163  29.124  1.00  0.00    -0.205 F 
ATOM     77  C   UNL A   1      41.717  25.608  25.761  1.00  0.00     0.022 A 
BRANCH  75  78
ATOM     78  S   UNL A   1      40.849  23.221  26.773  1.00  0.00     0.127 S 
ATOM     79  O   UNL A   1      39.436  23.185  26.403  1.00  0.00    -0.237 OA
ATOM     80  O   UNL A   1      41.775  22.826  25.710  1.00  0.00    -0.237 OA
ATOM     81  O   UNL A   1      41.168  22.676  28.086  1.00  0.00    -0.744 OA
ENDBRANCH  75  78
ENDBRANCH  47  71
BRANCH  59  82
ATOM     82  C   UNL A   1      44.727  27.327  34.206  1.00  0.00     0.023 A 
ATOM     83  C   UNL A   1      46.039  27.821  34.067  1.00  0.00     0.012 A 
ATOM     84  C   UNL A   1      44.512  26.144  34.943  1.00  0.00     0.148 A 
ATOM     85  C   UNL A   1      47.119  27.133  34.620  1.00  0.00     0.002 A 
ATOM     86  C   UNL A   1      45.586  25.492  35.535  1.00  0.00     0.091 A 
ATOM     87  F   UNL A   1      43.259  25.679  35.053  1.00  0.00    -0.205 F 
ATOM     88  C   UNL A   1      46.893  25.977  35.364  1.00  0.00     0.022 A 
BRANCH  86  89
ATOM     89  S   UNL A   1      45.380  24.053  36.591  1.00  0.00     0.127 S 
ATOM     90  O   UNL A   1      46.758  23.785  37.001  1.00  0.00    -0.237 OA
ATOM     91  O   UNL A   1      44.518  24.570  37.654  1.00  0.00    -0.237 OA
ATOM     92  O   UNL A   1      44.767  23.027  35.760  1.00  0.00    -0.744 OA
ENDBRANCH  86  89
ENDBRANCH  59  82
ENDBRANCH  33  34
ENDBRANCH  26  28
ENDBRANCH  25  26
ENDBRANCH  24  25
ENDBRANCH  23  24
ENDBRANCH  22  23
ENDBRANCH   1  22
TORSDOF 21
ENDMDL
MODEL 3
REMARK VINA RESULT:      -9.6      1.948      2.426
REMARK SMILES C[C@H]1SCCC[C@@]1(C(=O)OCCOCCOCCOC(=O)c1ccc(-c2c3nc(c(-c4cccc(S(=O)(=O)[O-])c4F)c4ccc([nH]4)c(-c4cccc(S(=O)(=O)[O-])c4F)c4nc(c(-c5cccc(S(=O)(=O)[O-])c5F)c5ccc2[nH]5)C=C4)C=C3)cc1)[NH+]1CCCC1
REMARK SMILES IDX 15 1 14 2 13 3 12 4 11 5 10 6 8 7 9 8 7 9 1 10 2 11 3 12
REMARK SMILES IDX 4 13 6 14 5 15 85 16 86 17 89 18 87 20 88 21 16 22 17 23
REMARK SMILES IDX 18 24 19 25 20 26 21 27 22 28 23 29 84 30 24 31 83 32 25 33
REMARK SMILES IDX 26 34 27 35 77 36 28 37 82 38 76 39 78 40 29 41 81 42 75 43
REMARK SMILES IDX 74 44 30 46 62 47 42 48 61 49 43 50 46 51 60 52 79 53 44 54
REMARK SMILES IDX 45 55 59 57 80 58 47 59 31 60 32 61 40 62 33 63 35 64 41 65
REMARK SMILES IDX 34 66 36 67 37 68 38 69 39 70 63 71 64 72 72 73 65 74 67 75
REMARK SMILES IDX 73 76 66 77 68 78 69 79 70 80 71 81 48 82 49 83 57 84 50 85
REMARK SMILES IDX 52 86 58 87 51 88 53 89 54 90 55 91 56 92
REMARK H PARENT 85 19 78 45 46 56
REMARK Flexibility Score: inf
ROOT
ATOM      1  C   UNL A   1      33.145  28.405  26.856  1.00  0.00     0.188 C 
ENDROOT
BRANCH   1   2
ATOM      2  C   UNL A   1      31.904  28.041  27.682  1.00  0.00     0.188 C 
BRANCH   2   3
ATOM      3  O   UNL A   1      30.988  27.105  27.130  1.00  0.00    -0.376 OA
BRANCH   3   4
ATOM      4  C   UNL A   1      31.232  26.629  25.811  1.00  0.00     0.202 C 
BRANCH   4   5
ATOM      5  C   UNL A   1      30.206  25.705  25.127  1.00  0.00     0.261 C 
BRANCH   5   6
ATOM      6  O   UNL A   1      30.757  24.600  24.370  1.00  0.00    -0.459 OA
BRANCH   6   7
ATOM      7  C   UNL A   1      31.300  23.576  25.086  1.00  0.00     0.369 C 
ATOM      8  O   UNL A   1      30.641  22.945  25.914  1.00  0.00    -0.245 OA
BRANCH   7   9
ATOM      9  C   UNL A   1      32.843  23.253  24.841  1.00  0.00     0.207 C 
ATOM     10  C   UNL A   1      32.269  21.015  23.534  1.00  0.00     0.027 C 
ATOM     11  C   UNL A   1      32.851  21.654  24.801  1.00  0.00     0.117 C 
ATOM     12  S   UNL A   1      34.450  20.821  25.151  1.00  0.00    -0.152 SA
ATOM     13  C   UNL A   1      34.808  21.616  26.724  1.00  0.00     0.070 C 
ATOM     14  C   UNL A   1      33.535  23.762  26.147  1.00  0.00     0.083 C 
ATOM     15  C   UNL A   1      34.861  23.123  26.560  1.00  0.00     0.018 C 
BRANCH   9  16
ATOM     16  N   UNL A   1      33.413  23.912  23.611  1.00  0.00    -0.320 N 
ATOM     17  C   UNL A   1      34.319  25.055  23.737  1.00  0.00     0.263 C 
ATOM     18  C   UNL A   1      32.500  24.242  22.504  1.00  0.00     0.263 C 
ATOM     19  H   UNL A   1      33.967  23.084  23.391  1.00  0.00     0.349 HD
ATOM     20  C   UNL A   1      33.545  26.273  23.264  1.00  0.00     0.067 C 
ATOM     21  C   UNL A   1      32.628  25.729  22.197  1.00  0.00     0.067 C 
ENDBRANCH   9  16
ENDBRANCH   7   9
ENDBRANCH   6   7
ENDBRANCH   5   6
ENDBRANCH   4   5
ENDBRANCH   3   4
ENDBRANCH   2   3
ENDBRANCH   1   2
BRANCH   1  22
ATOM     22  O   UNL A   1      34.096  29.182  27.544  1.00  0.00    -0.376 OA
BRANCH  22  23
ATOM     23  C   UNL A   1      34.234  30.552  27.225  1.00  0.00     0.202 C 
BRANCH  23  24
ATOM     24  C   UNL A   1      33.133  31.604  27.468  1.00  0.00     0.261 C 
BRANCH  24  25
ATOM     25  O   UNL A   1      33.435  32.982  27.214  1.00  0.00    -0.460 OA
BRANCH  25  26
ATOM     26  C   UNL A   1      33.357  33.841  28.256  1.00  0.00     0.338 C 
ATOM     27  O   UNL A   1      32.415  34.567  28.535  1.00  0.00    -0.246 OA
BRANCH  26  28
ATOM     28  C   UNL A   1      34.524  33.587  29.136  1.00  0.00     0.060 A 
ATOM     29  C   UNL A   1      35.776  34.111  28.781  1.00  0.00     0.016 A 
ATOM     30  C   UNL A   1      34.379  32.852  30.315  1.00  0.00     0.016 A 
ATOM     31  C   UNL A   1      36.894  33.863  29.582  1.00  0.00     0.010 A 
ATOM     32  C   UNL A   1      35.503  32.588  31.104  1.00  0.00     0.010 A 
ATOM     33  C   UNL A   1      36.773  33.060  30.723  1.00  0.00    -0.014 A 
BRANCH  33  34
ATOM     34  C   UNL A   1      37.984  32.537  31.404  1.00  0.00     0.031 A 
ATOM     35  C   UNL A   1      38.818  31.510  30.686  1.00  0.00     0.074 A 
ATOM     36  C   UNL A   1      38.330  32.927  32.644  1.00  0.00     0.049 A 
ATOM     37  N   UNL A   1      39.871  30.855  31.099  1.00  0.00    -0.248 NA
ATOM     38  C   UNL A   1      38.394  31.172  29.317  1.00  0.00     0.031 C 
ATOM     39  C   UNL A   1      37.615  33.910  33.453  1.00  0.00     0.029 A 
ATOM     40  N   UNL A   1      39.358  32.503  33.451  1.00  0.00    -0.354 N 
ATOM     41  C   UNL A   1      40.223  30.011  30.053  1.00  0.00     0.074 A 
ATOM     42  C   UNL A   1      39.257  30.222  28.995  1.00  0.00     0.031 C 
ATOM     43  C   UNL A   1      38.199  33.980  34.663  1.00  0.00     0.029 A 
ATOM     44  C   UNL A   1      39.310  33.030  34.720  1.00  0.00     0.049 A 
ATOM     45  H   UNL A   1      40.060  31.881  33.151  1.00  0.00     0.167 HD
ATOM     46  C   UNL A   1      41.263  29.146  29.968  1.00  0.00     0.034 A 
ATOM     47  C   UNL A   1      40.056  32.755  35.810  1.00  0.00     0.034 A 
ATOM     48  C   UNL A   1      42.218  28.924  31.018  1.00  0.00     0.049 A 
ATOM     49  C   UNL A   1      41.186  31.761  35.713  1.00  0.00     0.074 A 
ATOM     50  C   UNL A   1      43.325  28.094  31.014  1.00  0.00     0.029 A 
ATOM     51  N   UNL A   1      42.168  29.515  32.272  1.00  0.00    -0.354 N 
ATOM     52  N   UNL A   1      41.581  31.054  34.681  1.00  0.00    -0.248 NA
ATOM     53  C   UNL A   1      41.997  31.553  36.922  1.00  0.00     0.031 C 
ATOM     54  C   UNL A   1      43.921  28.152  32.279  1.00  0.00     0.029 A 
ATOM     55  C   UNL A   1      43.215  29.055  33.054  1.00  0.00     0.049 A 
ATOM     56  H   UNL A   1      41.489  30.164  32.563  1.00  0.00     0.167 HD
ATOM     57  C   UNL A   1      42.703  30.348  35.104  1.00  0.00     0.074 A 
ATOM     58  C   UNL A   1      42.935  30.723  36.483  1.00  0.00     0.031 C 
ATOM     59  C   UNL A   1      43.468  29.464  34.414  1.00  0.00     0.034 A 
BRANCH  46  60
ATOM     60  C   UNL A   1      41.413  28.379  28.679  1.00  0.00     0.023 A 
ATOM     61  C   UNL A   1      42.077  28.972  27.585  1.00  0.00     0.012 A 
ATOM     62  C   UNL A   1      40.904  27.072  28.551  1.00  0.00     0.148 A 
ATOM     63  C   UNL A   1      42.188  28.298  26.370  1.00  0.00     0.002 A 
ATOM     64  C   UNL A   1      41.064  26.386  27.353  1.00  0.00     0.091 A 
ATOM     65  F   UNL A   1      40.256  26.532  29.593  1.00  0.00    -0.205 F 
ATOM     66  C   UNL A   1      41.688  27.003  26.256  1.00  0.00     0.022 A 
BRANCH  64  67
ATOM     67  S   UNL A   1      40.529  24.686  27.135  1.00  0.00     0.127 S 
ATOM     68  O   UNL A   1      41.263  24.297  25.932  1.00  0.00    -0.237 OA
ATOM     69  O   UNL A   1      41.000  24.055  28.368  1.00  0.00    -0.237 OA
ATOM     70  O   UNL A   1      39.081  24.737  26.997  1.00  0.00    -0.744 OA
ENDBRANCH  64  67
ENDBRANCH  46  60
BRANCH  47  71
ATOM     71  C   UNL A   1      39.760  33.447  37.096  1.00  0.00     0.023 A 
ATOM     72  C   UNL A   1      40.333  34.706  37.363  1.00  0.00     0.012 A 
ATOM     73  C   UNL A   1      38.891  32.871  38.044  1.00  0.00     0.148 A 
ATOM     74  C   UNL A   1      40.064  35.368  38.562  1.00  0.00     0.002 A 
ATOM     75  C   UNL A   1      38.584  33.561  39.210  1.00  0.00     0.091 A 
ATOM     76  F   UNL A   1      38.370  31.666  37.775  1.00  0.00    -0.205 F 
ATOM     77  C   UNL A   1      39.182  34.801  39.479  1.00  0.00     0.022 A 
BRANCH  75  78
ATOM     78  S   UNL A   1      37.369  32.969  40.392  1.00  0.00     0.127 S 
ATOM     79  O   UNL A   1      38.002  31.748  40.888  1.00  0.00    -0.237 OA
ATOM     80  O   UNL A   1      37.326  34.073  41.352  1.00  0.00    -0.237 OA
ATOM     81  O   UNL A   1      36.139  32.775  39.637  1.00  0.00    -0.744 OA
ENDBRANCH  75  78
ENDBRANCH  47  71
BRANCH  59  82
ATOM     82  C   UNL A   1      44.666  28.865  35.113  1.00  0.00     0.023 A 
ATOM     83  C   UNL A   1      45.906  29.534  35.095  1.00  0.00     0.012 A 
ATOM     84  C   UNL A   1      44.538  27.673  35.856  1.00  0.00     0.148 A 
ATOM     85  C   UNL A   1      47.006  29.010  35.774  1.00  0.00     0.002 A 
ATOM     86  C   UNL A   1      45.624  27.183  36.572  1.00  0.00     0.091 A 
ATOM     87  F   UNL A   1      43.356  27.040  35.850  1.00  0.00    -0.205 F 
ATOM     88  C   UNL A   1      46.863  27.843  36.522  1.00  0.00     0.022 A 
BRANCH  86  89
ATOM     89  S   UNL A   1      45.507  25.743  37.640  1.00  0.00     0.127 S 
ATOM     90  O   UNL A   1      45.165  24.691  36.684  1.00  0.00    -0.237 OA
ATOM     91  O   UNL A   1      46.861  25.653  38.188  1.00  0.00    -0.237 OA
ATOM     92  O   UNL A   1      44.477  26.052  38.622  1.00  0.00    -0.744 OA
ENDBRANCH  86  89
ENDBRANCH  59  82
ENDBRANCH  33  34
ENDBRANCH  26  28
ENDBRANCH  25  26
ENDBRANCH  24  25
ENDBRANCH  23  24
ENDBRANCH  22  23
ENDBRANCH   1  22
TORSDOF 21
ENDMDL
