MODEL 1
REMARK VINA RESULT:     -10.4      0.000      0.000
REMARK SMILES Cc1ccc(NC(=O)C[C@H]([NH2+]Cc2cccnc2)C(=O)OCCOCCOCCOC(=O)c2ccc(-c3c4nc(c(-c5cccc(S(=O)(=O)[O-])c5F)c5ccc([nH]5)c(-c5cccc(S(=O)(=O)[O-])c5F)c5nc(c(-c6cccc(S(=O)(=O)[O-])c6F)c6ccc3[nH]6)C=C5)C=C4)cc2)cc1Cl
REMARK SMILES IDX 25 1 24 2 23 3 22 4 21 5 19 6 20 7 10 8 9 9 7 10 6 11 8 13
REMARK SMILES IDX 5 14 1 15 2 16 3 17 97 18 4 19 96 20 98 21 11 22 12 25 13 26
REMARK SMILES IDX 14 27 18 28 15 29 17 30 16 31 26 32 27 33 28 34 29 35 30 36
REMARK SMILES IDX 31 37 32 38 33 39 34 40 95 41 35 42 94 43 36 44 37 45 38 46
REMARK SMILES IDX 88 47 39 48 93 49 87 50 89 51 40 52 92 53 86 54 85 55 41 57
REMARK SMILES IDX 73 58 53 59 72 60 54 61 57 62 71 63 90 64 55 65 56 66 70 68
REMARK SMILES IDX 91 69 58 70 42 71 43 72 51 73 44 74 46 75 52 76 45 77 47 78
REMARK SMILES IDX 48 79 49 80 50 81 74 82 75 83 83 84 76 85 78 86 84 87 77 88
REMARK SMILES IDX 79 89 80 90 81 91 82 92 59 93 60 94 68 95 61 96 63 97 69 98
REMARK SMILES IDX 62 99 64 100 65 101 66 102 67 103
REMARK H PARENT 6 12 11 23 11 24 89 56 57 67
REMARK Flexibility Score: inf
ROOT
ATOM      1  C   UNL A   1      34.677  32.020  28.981  1.00  0.00     0.188 C 
ENDROOT
BRANCH   1   2
ATOM      2  O   UNL A   1      34.306  31.755  27.636  1.00  0.00    -0.376 OA
BRANCH   2   3
ATOM      3  C   UNL A   1      33.276  30.824  27.357  1.00  0.00     0.202 C 
BRANCH   3   4
ATOM      4  C   UNL A   1      33.648  29.516  26.640  1.00  0.00     0.261 C 
BRANCH   4   5
ATOM      5  O   UNL A   1      32.876  29.098  25.487  1.00  0.00    -0.459 OA
BRANCH   5   6
ATOM      6  C   UNL A   1      32.189  27.922  25.584  1.00  0.00     0.365 C 
ATOM      7  O   UNL A   1      32.114  27.260  26.613  1.00  0.00    -0.245 OA
BRANCH   6   8
ATOM      8  C   UNL A   1      31.620  27.403  24.230  1.00  0.00     0.303 C 
BRANCH   8   9
ATOM      9  C   UNL A   1      32.089  25.969  24.032  1.00  0.00     0.177 C 
BRANCH   9  10
ATOM     10  C   UNL A   1      33.139  25.436  23.062  1.00  0.00     0.231 C 
ATOM     11  N   UNL A   1      33.813  24.267  22.994  1.00  0.00    -0.326 N 
ATOM     12  H   UNL A   1      34.603  24.375  22.417  1.00  0.00     0.169 HD
ATOM     13  O   UNL A   1      33.599  26.291  22.275  1.00  0.00    -0.274 OA
BRANCH  11  14
ATOM     14  C   UNL A   1      33.760  22.948  23.474  1.00  0.00     0.042 A 
ATOM     15  C   UNL A   1      33.381  18.841  24.882  1.00  0.00     0.046 C 
ATOM     16  C   UNL A   1      33.504  20.247  24.369  1.00  0.00    -0.032 A 
ATOM     17  C   UNL A   1      32.442  20.899  23.739  1.00  0.00     0.007 A 
ATOM     18  C   UNL A   1      34.685  20.961  24.536  1.00  0.00     0.046 A 
ATOM     19  C   UNL A   1      32.580  22.223  23.277  1.00  0.00     0.026 A 
ATOM     20  C   UNL A   1      34.754  22.310  24.175  1.00  0.00     0.047 A 
ATOM     21  Cl  UNL A   1      36.103  20.195  25.155  1.00  0.00    -0.084 Cl
ENDBRANCH  11  14
ENDBRANCH   9  10
ENDBRANCH   8   9
BRANCH   8  22
ATOM     22  N   UNL A   1      31.687  28.326  23.066  1.00  0.00    -0.330 N 
ATOM     23  H   UNL A   1      32.474  28.039  22.484  1.00  0.00     0.347 HD
ATOM     24  H   UNL A   1      31.781  29.262  23.460  1.00  0.00     0.347 HD
BRANCH  22  25
ATOM     25  C   UNL A   1      30.488  28.372  22.212  1.00  0.00     0.299 C 
BRANCH  25  26
ATOM     26  C   UNL A   1      29.400  29.295  22.721  1.00  0.00     0.024 A 
ATOM     27  C   UNL A   1      28.058  28.914  22.792  1.00  0.00     0.013 A 
ATOM     28  C   UNL A   1      29.697  30.594  23.143  1.00  0.00     0.120 A 
ATOM     29  C   UNL A   1      27.104  29.803  23.295  1.00  0.00     0.021 A 
ATOM     30  N   UNL A   1      28.793  31.487  23.621  1.00  0.00    -0.264 NA
ATOM     31  C   UNL A   1      27.516  31.061  23.699  1.00  0.00     0.111 A 
ENDBRANCH  25  26
ENDBRANCH  22  25
ENDBRANCH   8  22
ENDBRANCH   6   8
ENDBRANCH   5   6
ENDBRANCH   4   5
ENDBRANCH   3   4
ENDBRANCH   2   3
ENDBRANCH   1   2
BRANCH   1  32
ATOM     32  C   UNL A   1      34.734  33.469  29.461  1.00  0.00     0.188 C 
BRANCH  32  33
ATOM     33  O   UNL A   1      33.524  34.177  29.282  1.00  0.00    -0.376 OA
BRANCH  33  34
ATOM     34  C   UNL A   1      33.582  35.547  28.937  1.00  0.00     0.202 C 
BRANCH  34  35
ATOM     35  C   UNL A   1      32.919  36.531  29.904  1.00  0.00     0.261 C 
BRANCH  35  36
ATOM     36  O   UNL A   1      32.317  35.935  31.063  1.00  0.00    -0.460 OA
BRANCH  36  37
ATOM     37  C   UNL A   1      32.807  36.278  32.275  1.00  0.00     0.338 C 
ATOM     38  O   UNL A   1      32.407  37.170  33.009  1.00  0.00    -0.246 OA
BRANCH  37  39
ATOM     39  C   UNL A   1      33.827  35.266  32.625  1.00  0.00     0.060 A 
ATOM     40  C   UNL A   1      33.449  33.987  33.069  1.00  0.00     0.016 A 
ATOM     41  C   UNL A   1      35.172  35.585  32.461  1.00  0.00     0.016 A 
ATOM     42  C   UNL A   1      34.420  33.026  33.359  1.00  0.00     0.010 A 
ATOM     43  C   UNL A   1      36.140  34.633  32.773  1.00  0.00     0.010 A 
ATOM     44  C   UNL A   1      35.772  33.359  33.244  1.00  0.00    -0.014 A 
BRANCH  44  45
ATOM     45  C   UNL A   1      36.836  32.475  33.773  1.00  0.00     0.031 A 
ATOM     46  C   UNL A   1      37.540  32.905  35.027  1.00  0.00     0.074 A 
ATOM     47  C   UNL A   1      37.250  31.393  33.094  1.00  0.00     0.049 A 
ATOM     48  N   UNL A   1      38.655  32.468  35.545  1.00  0.00    -0.248 NA
ATOM     49  C   UNL A   1      36.907  33.999  35.783  1.00  0.00     0.031 C 
ATOM     50  C   UNL A   1      36.634  30.872  31.877  1.00  0.00     0.029 A 
ATOM     51  N   UNL A   1      38.338  30.580  33.303  1.00  0.00    -0.354 N 
ATOM     52  C   UNL A   1      38.898  33.280  36.645  1.00  0.00     0.074 A 
ATOM     53  C   UNL A   1      37.805  34.224  36.728  1.00  0.00     0.031 C 
ATOM     54  C   UNL A   1      37.392  29.867  31.406  1.00  0.00     0.029 A 
ATOM     55  C   UNL A   1      38.568  29.714  32.260  1.00  0.00     0.049 A 
ATOM     56  H   UNL A   1      38.895  30.615  34.114  1.00  0.00     0.167 HD
ATOM     57  C   UNL A   1      39.946  33.247  37.502  1.00  0.00     0.034 A 
ATOM     58  C   UNL A   1      39.638  28.937  31.991  1.00  0.00     0.034 A 
ATOM     59  C   UNL A   1      41.019  32.297  37.412  1.00  0.00     0.049 A 
ATOM     60  C   UNL A   1      40.804  28.923  32.944  1.00  0.00     0.074 A 
ATOM     61  C   UNL A   1      42.089  32.129  38.272  1.00  0.00     0.029 A 
ATOM     62  N   UNL A   1      41.175  31.376  36.389  1.00  0.00    -0.354 N 
ATOM     63  N   UNL A   1      40.978  29.617  34.043  1.00  0.00    -0.248 NA
ATOM     64  C   UNL A   1      41.909  28.003  32.638  1.00  0.00     0.031 C 
ATOM     65  C   UNL A   1      42.921  31.139  37.739  1.00  0.00     0.029 A 
ATOM     66  C   UNL A   1      42.337  30.650  36.580  1.00  0.00     0.049 A 
ATOM     67  H   UNL A   1      40.552  31.256  35.636  1.00  0.00     0.167 HD
ATOM     68  C   UNL A   1      42.190  29.192  34.580  1.00  0.00     0.074 A 
ATOM     69  C   UNL A   1      42.706  28.175  33.685  1.00  0.00     0.031 C 
ATOM     70  C   UNL A   1      42.815  29.606  35.709  1.00  0.00     0.034 A 
BRANCH  57  71
ATOM     71  C   UNL A   1      39.987  34.288  38.588  1.00  0.00     0.023 A 
ATOM     72  C   UNL A   1      40.700  35.489  38.398  1.00  0.00     0.012 A 
ATOM     73  C   UNL A   1      39.295  34.079  39.799  1.00  0.00     0.148 A 
ATOM     74  C   UNL A   1      40.768  36.442  39.414  1.00  0.00     0.002 A 
ATOM     75  C   UNL A   1      39.322  35.058  40.784  1.00  0.00     0.091 A 
ATOM     76  F   UNL A   1      38.643  32.922  39.973  1.00  0.00    -0.205 F 
ATOM     77  C   UNL A   1      40.072  36.231  40.601  1.00  0.00     0.022 A 
BRANCH  75  78
ATOM     78  S   UNL A   1      38.388  34.915  42.310  1.00  0.00     0.127 S 
ATOM     79  O   UNL A   1      37.014  34.876  41.812  1.00  0.00    -0.237 OA
ATOM     80  O   UNL A   1      38.876  33.646  42.850  1.00  0.00    -0.237 OA
ATOM     81  O   UNL A   1      38.735  36.085  43.105  1.00  0.00    -0.744 OA
ENDBRANCH  75  78
ENDBRANCH  57  71
BRANCH  58  82
ATOM     82  C   UNL A   1      39.649  28.115  30.748  1.00  0.00     0.023 A 
ATOM     83  C   UNL A   1      38.949  26.896  30.712  1.00  0.00     0.012 A 
ATOM     84  C   UNL A   1      40.306  28.568  29.586  1.00  0.00     0.148 A 
ATOM     85  C   UNL A   1      38.915  26.132  29.544  1.00  0.00     0.002 A 
ATOM     86  C   UNL A   1      40.222  27.830  28.412  1.00  0.00     0.091 A 
ATOM     87  F   UNL A   1      40.977  29.727  29.649  1.00  0.00    -0.205 F 
ATOM     88  C   UNL A   1      39.540  26.604  28.393  1.00  0.00     0.022 A 
BRANCH  86  89
ATOM     89  S   UNL A   1      40.888  28.415  26.850  1.00  0.00     0.127 S 
ATOM     90  O   UNL A   1      42.178  28.963  27.261  1.00  0.00    -0.237 OA
ATOM     91  O   UNL A   1      40.964  27.174  26.078  1.00  0.00    -0.237 OA
ATOM     92  O   UNL A   1      39.927  29.386  26.346  1.00  0.00    -0.744 OA
ENDBRANCH  86  89
ENDBRANCH  58  82
BRANCH  70  93
ATOM     93  C   UNL A   1      44.102  28.926  36.104  1.00  0.00     0.023 A 
ATOM     94  C   UNL A   1      45.342  29.483  35.741  1.00  0.00     0.012 A 
ATOM     95  C   UNL A   1      44.069  27.796  36.948  1.00  0.00     0.148 A 
ATOM     96  C   UNL A   1      46.531  28.915  36.200  1.00  0.00     0.002 A 
ATOM     97  C   UNL A   1      45.253  27.270  37.443  1.00  0.00     0.091 A 
ATOM     98  F   UNL A   1      42.875  27.275  37.267  1.00  0.00    -0.205 F 
ATOM     99  C   UNL A   1      46.487  27.821  37.062  1.00  0.00     0.022 A 
BRANCH  97 100
ATOM    100  S   UNL A   1      45.288  25.932  38.642  1.00  0.00     0.127 S 
ATOM    101  O   UNL A   1      44.344  26.412  39.651  1.00  0.00    -0.237 OA
ATOM    102  O   UNL A   1      44.809  24.798  37.851  1.00  0.00    -0.237 OA
ATOM    103  O   UNL A   1      46.669  25.822  39.088  1.00  0.00    -0.744 OA
ENDBRANCH  97 100
ENDBRANCH  70  93
ENDBRANCH  44  45
ENDBRANCH  37  39
ENDBRANCH  36  37
ENDBRANCH  35  36
ENDBRANCH  34  35
ENDBRANCH  33  34
ENDBRANCH  32  33
ENDBRANCH   1  32
TORSDOF 26
ENDMDL
MODEL 2
REMARK VINA RESULT:     -10.3      7.122     13.521
REMARK SMILES Cc1ccc(NC(=O)C[C@H]([NH2+]Cc2cccnc2)C(=O)OCCOCCOCCOC(=O)c2ccc(-c3c4nc(c(-c5cccc(S(=O)(=O)[O-])c5F)c5ccc([nH]5)c(-c5cccc(S(=O)(=O)[O-])c5F)c5nc(c(-c6cccc(S(=O)(=O)[O-])c6F)c6ccc3[nH]6)C=C5)C=C4)cc2)cc1Cl
REMARK SMILES IDX 25 1 24 2 23 3 22 4 21 5 19 6 20 7 10 8 9 9 7 10 6 11 8 13
REMARK SMILES IDX 5 14 1 15 2 16 3 17 97 18 4 19 96 20 98 21 11 22 12 25 13 26
REMARK SMILES IDX 14 27 18 28 15 29 17 30 16 31 26 32 27 33 28 34 29 35 30 36
REMARK SMILES IDX 31 37 32 38 33 39 34 40 95 41 35 42 94 43 36 44 37 45 38 46
REMARK SMILES IDX 88 47 39 48 93 49 87 50 89 51 40 52 92 53 86 54 85 55 41 57
REMARK SMILES IDX 73 58 53 59 72 60 54 61 57 62 71 63 90 64 55 65 56 66 70 68
REMARK SMILES IDX 91 69 58 70 42 71 43 72 51 73 44 74 46 75 52 76 45 77 47 78
REMARK SMILES IDX 48 79 49 80 50 81 74 82 75 83 83 84 76 85 78 86 84 87 77 88
REMARK SMILES IDX 79 89 80 90 81 91 82 92 59 93 60 94 68 95 61 96 63 97 69 98
REMARK SMILES IDX 62 99 64 100 65 101 66 102 67 103
REMARK H PARENT 6 12 11 23 11 24 89 56 57 67
REMARK Flexibility Score: inf
ROOT
ATOM      1  C   UNL A   1      38.404  21.777  25.737  1.00  0.00     0.188 C 
ENDROOT
BRANCH   1   2
ATOM      2  O   UNL A   1      37.866  23.039  26.106  1.00  0.00    -0.376 OA
BRANCH   2   3
ATOM      3  C   UNL A   1      36.956  23.698  25.243  1.00  0.00     0.202 C 
BRANCH   3   4
ATOM      4  C   UNL A   1      35.493  23.836  25.692  1.00  0.00     0.261 C 
BRANCH   4   5
ATOM      5  O   UNL A   1      34.478  24.157  24.709  1.00  0.00    -0.459 OA
BRANCH   5   6
ATOM      6  C   UNL A   1      34.290  23.270  23.687  1.00  0.00     0.365 C 
ATOM      7  O   UNL A   1      34.927  23.292  22.640  1.00  0.00    -0.245 OA
BRANCH   6   8
ATOM      8  C   UNL A   1      33.085  22.305  23.896  1.00  0.00     0.303 C 
BRANCH   8   9
ATOM      9  C   UNL A   1      31.816  23.137  23.992  1.00  0.00     0.177 C 
BRANCH   9  10
ATOM     10  C   UNL A   1      31.010  23.508  25.233  1.00  0.00     0.231 C 
ATOM     11  N   UNL A   1      30.876  24.659  25.928  1.00  0.00    -0.326 N 
ATOM     12  H   UNL A   1      30.509  24.464  26.820  1.00  0.00     0.169 HD
ATOM     13  O   UNL A   1      30.507  22.534  25.835  1.00  0.00    -0.274 OA
BRANCH  11  14
ATOM     14  C   UNL A   1      31.086  26.042  25.799  1.00  0.00     0.042 A 
ATOM     15  C   UNL A   1      31.793  30.338  25.619  1.00  0.00     0.046 C 
ATOM     16  C   UNL A   1      31.578  28.854  25.692  1.00  0.00    -0.032 A 
ATOM     17  C   UNL A   1      31.694  28.148  26.892  1.00  0.00     0.007 A 
ATOM     18  C   UNL A   1      31.221  28.133  24.559  1.00  0.00     0.046 A 
ATOM     19  C   UNL A   1      31.475  26.757  26.936  1.00  0.00     0.026 A 
ATOM     20  C   UNL A   1      30.894  26.777  24.654  1.00  0.00     0.047 A 
ATOM     21  Cl  UNL A   1      31.208  28.881  23.003  1.00  0.00    -0.084 Cl
ENDBRANCH  11  14
ENDBRANCH   9  10
ENDBRANCH   8   9
BRANCH   8  22
ATOM     22  N   UNL A   1      33.265  21.194  24.868  1.00  0.00    -0.330 N 
ATOM     23  H   UNL A   1      32.388  20.678  24.920  1.00  0.00     0.347 HD
ATOM     24  H   UNL A   1      33.540  21.636  25.746  1.00  0.00     0.347 HD
BRANCH  22  25
ATOM     25  C   UNL A   1      34.336  20.232  24.555  1.00  0.00     0.299 C 
BRANCH  25  26
ATOM     26  C   UNL A   1      33.922  18.781  24.681  1.00  0.00     0.024 A 
ATOM     27  C   UNL A   1      34.753  17.722  24.305  1.00  0.00     0.013 A 
ATOM     28  C   UNL A   1      32.665  18.432  25.183  1.00  0.00     0.120 A 
ATOM     29  C   UNL A   1      34.323  16.403  24.471  1.00  0.00     0.021 A 
ATOM     30  N   UNL A   1      32.211  17.162  25.340  1.00  0.00    -0.264 NA
ATOM     31  C   UNL A   1      33.062  16.176  24.992  1.00  0.00     0.111 A 
ENDBRANCH  25  26
ENDBRANCH  22  25
ENDBRANCH   8  22
ENDBRANCH   6   8
ENDBRANCH   5   6
ENDBRANCH   4   5
ENDBRANCH   3   4
ENDBRANCH   2   3
ENDBRANCH   1   2
BRANCH   1  32
ATOM     32  C   UNL A   1      39.833  21.433  26.153  1.00  0.00     0.188 C 
BRANCH  32  33
ATOM     33  O   UNL A   1      40.131  20.054  26.086  1.00  0.00    -0.376 OA
BRANCH  33  34
ATOM     34  C   UNL A   1      41.349  19.592  26.636  1.00  0.00     0.202 C 
BRANCH  34  35
ATOM     35  C   UNL A   1      42.202  18.678  25.753  1.00  0.00     0.261 C 
BRANCH  35  36
ATOM     36  O   UNL A   1      43.621  18.826  25.913  1.00  0.00    -0.460 OA
BRANCH  36  37
ATOM     37  C   UNL A   1      44.329  19.286  24.857  1.00  0.00     0.338 C 
ATOM     38  O   UNL A   1      44.748  18.640  23.909  1.00  0.00    -0.246 OA
BRANCH  37  39
ATOM     39  C   UNL A   1      44.372  20.759  24.983  1.00  0.00     0.060 A 
ATOM     40  C   UNL A   1      44.451  21.577  23.842  1.00  0.00     0.016 A 
ATOM     41  C   UNL A   1      44.283  21.328  26.251  1.00  0.00     0.016 A 
ATOM     42  C   UNL A   1      44.451  22.968  23.970  1.00  0.00     0.010 A 
ATOM     43  C   UNL A   1      44.306  22.715  26.378  1.00  0.00     0.010 A 
ATOM     44  C   UNL A   1      44.413  23.540  25.244  1.00  0.00    -0.014 A 
BRANCH  44  45
ATOM     45  C   UNL A   1      44.663  24.985  25.452  1.00  0.00     0.031 A 
ATOM     46  C   UNL A   1      46.085  25.462  25.401  1.00  0.00     0.074 A 
ATOM     47  C   UNL A   1      43.673  25.824  25.801  1.00  0.00     0.049 A 
ATOM     48  N   UNL A   1      46.596  26.594  25.799  1.00  0.00    -0.248 NA
ATOM     49  C   UNL A   1      47.066  24.513  24.847  1.00  0.00     0.031 C 
ATOM     50  C   UNL A   1      42.256  25.480  25.868  1.00  0.00     0.029 A 
ATOM     51  N   UNL A   1      43.730  27.127  26.234  1.00  0.00    -0.354 N 
ATOM     52  C   UNL A   1      47.967  26.469  25.614  1.00  0.00     0.074 A 
ATOM     53  C   UNL A   1      48.204  25.157  25.052  1.00  0.00     0.031 C 
ATOM     54  C   UNL A   1      41.581  26.522  26.380  1.00  0.00     0.029 A 
ATOM     55  C   UNL A   1      42.528  27.582  26.725  1.00  0.00     0.049 A 
ATOM     56  H   UNL A   1      44.546  27.677  26.198  1.00  0.00     0.167 HD
ATOM     57  C   UNL A   1      48.941  27.364  25.899  1.00  0.00     0.034 A 
ATOM     58  C   UNL A   1      42.238  28.694  27.430  1.00  0.00     0.034 A 
ATOM     59  C   UNL A   1      48.690  28.667  26.447  1.00  0.00     0.049 A 
ATOM     60  C   UNL A   1      43.336  29.674  27.754  1.00  0.00     0.074 A 
ATOM     61  C   UNL A   1      49.597  29.680  26.703  1.00  0.00     0.029 A 
ATOM     62  N   UNL A   1      47.447  29.128  26.853  1.00  0.00    -0.354 N 
ATOM     63  N   UNL A   1      44.615  29.599  27.479  1.00  0.00    -0.248 NA
ATOM     64  C   UNL A   1      42.948  30.904  28.461  1.00  0.00     0.031 C 
ATOM     65  C   UNL A   1      48.909  30.734  27.313  1.00  0.00     0.029 A 
ATOM     66  C   UNL A   1      47.564  30.401  27.380  1.00  0.00     0.049 A 
ATOM     67  H   UNL A   1      46.606  28.623  26.778  1.00  0.00     0.167 HD
ATOM     68  C   UNL A   1      45.179  30.784  27.943  1.00  0.00     0.074 A 
ATOM     69  C   UNL A   1      44.099  31.562  28.514  1.00  0.00     0.031 C 
ATOM     70  C   UNL A   1      46.473  31.187  27.899  1.00  0.00     0.034 A 
BRANCH  57  71
ATOM     71  C   UNL A   1      50.365  26.947  25.645  1.00  0.00     0.023 A 
ATOM     72  C   UNL A   1      51.098  26.269  26.640  1.00  0.00     0.012 A 
ATOM     73  C   UNL A   1      50.972  27.212  24.401  1.00  0.00     0.148 A 
ATOM     74  C   UNL A   1      52.426  25.908  26.421  1.00  0.00     0.002 A 
ATOM     75  C   UNL A   1      52.279  26.801  24.171  1.00  0.00     0.091 A 
ATOM     76  F   UNL A   1      50.270  27.879  23.474  1.00  0.00    -0.205 F 
ATOM     77  C   UNL A   1      53.013  26.165  25.185  1.00  0.00     0.022 A 
BRANCH  75  78
ATOM     78  S   UNL A   1      53.089  27.010  22.583  1.00  0.00     0.127 S 
ATOM     79  O   UNL A   1      52.239  26.202  21.709  1.00  0.00    -0.237 OA
ATOM     80  O   UNL A   1      52.983  28.453  22.372  1.00  0.00    -0.237 OA
ATOM     81  O   UNL A   1      54.450  26.522  22.759  1.00  0.00    -0.744 OA
ENDBRANCH  75  78
ENDBRANCH  57  71
BRANCH  58  82
ATOM     82  C   UNL A   1      40.839  28.927  27.885  1.00  0.00     0.023 A 
ATOM     83  C   UNL A   1      39.866  29.348  26.960  1.00  0.00     0.012 A 
ATOM     84  C   UNL A   1      40.460  28.677  29.219  1.00  0.00     0.148 A 
ATOM     85  C   UNL A   1      38.541  29.532  27.359  1.00  0.00     0.002 A 
ATOM     86  C   UNL A   1      39.129  28.809  29.596  1.00  0.00     0.091 A 
ATOM     87  F   UNL A   1      41.407  28.288  30.084  1.00  0.00    -0.205 F 
ATOM     88  C   UNL A   1      38.171  29.252  28.671  1.00  0.00     0.022 A 
BRANCH  86  89
ATOM     89  S   UNL A   1      38.535  28.353  31.228  1.00  0.00     0.127 S 
ATOM     90  O   UNL A   1      37.148  28.809  31.180  1.00  0.00    -0.237 OA
ATOM     91  O   UNL A   1      38.706  26.900  31.210  1.00  0.00    -0.237 OA
ATOM     92  O   UNL A   1      39.392  29.054  32.175  1.00  0.00    -0.744 OA
ENDBRANCH  86  89
ENDBRANCH  58  82
BRANCH  70  93
ATOM     93  C   UNL A   1      46.811  32.562  28.419  1.00  0.00     0.023 A 
ATOM     94  C   UNL A   1      47.245  32.736  29.746  1.00  0.00     0.012 A 
ATOM     95  C   UNL A   1      46.815  33.663  27.538  1.00  0.00     0.148 A 
ATOM     96  C   UNL A   1      47.662  33.989  30.194  1.00  0.00     0.002 A 
ATOM     97  C   UNL A   1      47.283  34.895  27.974  1.00  0.00     0.091 A 
ATOM     98  F   UNL A   1      46.383  33.476  26.282  1.00  0.00    -0.205 F 
ATOM     99  C   UNL A   1      47.697  35.063  29.306  1.00  0.00     0.022 A 
BRANCH  97 100
ATOM    100  S   UNL A   1      47.464  36.304  26.874  1.00  0.00     0.127 S 
ATOM    101  O   UNL A   1      48.366  37.164  27.639  1.00  0.00    -0.237 OA
ATOM    102  O   UNL A   1      48.064  35.693  25.688  1.00  0.00    -0.237 OA
ATOM    103  O   UNL A   1      46.124  36.837  26.672  1.00  0.00    -0.744 OA
ENDBRANCH  97 100
ENDBRANCH  70  93
ENDBRANCH  44  45
ENDBRANCH  37  39
ENDBRANCH  36  37
ENDBRANCH  35  36
ENDBRANCH  34  35
ENDBRANCH  33  34
ENDBRANCH  32  33
ENDBRANCH   1  32
TORSDOF 26
ENDMDL
MODEL 3
REMARK VINA RESULT:     -10.1      6.652     12.063
REMARK SMILES Cc1ccc(NC(=O)C[C@H]([NH2+]Cc2cccnc2)C(=O)OCCOCCOCCOC(=O)c2ccc(-c3c4nc(c(-c5cccc(S(=O)(=O)[O-])c5F)c5ccc([nH]5)c(-c5cccc(S(=O)(=O)[O-])c5F)c5nc(c(-c6cccc(S(=O)(=O)[O-])c6F)c6ccc3[nH]6)C=C5)C=C4)cc2)cc1Cl
REMARK SMILES IDX 25 1 24 2 23 3 22 4 21 5 19 6 20 7 10 8 9 9 7 10 6 11 8 13
REMARK SMILES IDX 5 14 1 15 2 16 3 17 97 18 4 19 96 20 98 21 11 22 12 25 13 26
REMARK SMILES IDX 14 27 18 28 15 29 17 30 16 31 26 32 27 33 28 34 29 35 30 36
REMARK SMILES IDX 31 37 32 38 33 39 34 40 95 41 35 42 94 43 36 44 37 45 38 46
REMARK SMILES IDX 88 47 39 48 93 49 87 50 89 51 40 52 92 53 86 54 85 55 41 57
REMARK SMILES IDX 73 58 53 59 72 60 54 61 57 62 71 63 90 64 55 65 56 66 70 68
REMARK SMILES IDX 91 69 58 70 42 71 43 72 51 73 44 74 46 75 52 76 45 77 47 78
REMARK SMILES IDX 48 79 49 80 50 81 74 82 75 83 83 84 76 85 78 86 84 87 77 88
REMARK SMILES IDX 79 89 80 90 81 91 82 92 59 93 60 94 68 95 61 96 63 97 69 98
REMARK SMILES IDX 62 99 64 100 65 101 66 102 67 103
REMARK H PARENT 6 12 11 23 11 24 89 56 57 67
REMARK Flexibility Score: inf
ROOT
ATOM      1  C   UNL A   1      36.794  23.228  25.676  1.00  0.00     0.188 C 
ENDROOT
BRANCH   1   2
ATOM      2  O   UNL A   1      35.464  23.523  26.078  1.00  0.00    -0.376 OA
BRANCH   2   3
ATOM      3  C   UNL A   1      34.616  22.482  26.530  1.00  0.00     0.202 C 
BRANCH   3   4
ATOM      4  C   UNL A   1      33.142  22.813  26.814  1.00  0.00     0.261 C 
BRANCH   4   5
ATOM      5  O   UNL A   1      32.221  22.949  25.703  1.00  0.00    -0.459 OA
BRANCH   5   6
ATOM      6  C   UNL A   1      31.126  23.744  25.888  1.00  0.00     0.365 C 
ATOM      7  O   UNL A   1      30.490  23.794  26.935  1.00  0.00    -0.245 OA
BRANCH   6   8
ATOM      8  C   UNL A   1      30.651  24.483  24.602  1.00  0.00     0.303 C 
BRANCH   8   9
ATOM      9  C   UNL A   1      31.723  24.323  23.535  1.00  0.00     0.177 C 
BRANCH   9  10
ATOM     10  C   UNL A   1      33.126  24.920  23.496  1.00  0.00     0.231 C 
ATOM     11  N   UNL A   1      33.619  26.125  23.855  1.00  0.00    -0.326 N 
ATOM     12  H   UNL A   1      34.498  26.260  23.433  1.00  0.00     0.169 HD
ATOM     13  O   UNL A   1      33.960  24.242  22.856  1.00  0.00    -0.274 OA
BRANCH  11  14
ATOM     14  C   UNL A   1      33.292  27.250  24.631  1.00  0.00     0.042 A 
ATOM     15  C   UNL A   1      32.364  30.869  26.872  1.00  0.00     0.046 C 
ATOM     16  C   UNL A   1      32.668  29.633  26.077  1.00  0.00    -0.032 A 
ATOM     17  C   UNL A   1      33.314  29.690  24.840  1.00  0.00     0.007 A 
ATOM     18  C   UNL A   1      32.339  28.375  26.568  1.00  0.00     0.046 A 
ATOM     19  C   UNL A   1      33.599  28.514  24.119  1.00  0.00     0.026 A 
ATOM     20  C   UNL A   1      32.738  27.221  25.888  1.00  0.00     0.047 A 
ATOM     21  Cl  UNL A   1      31.398  28.206  28.006  1.00  0.00    -0.084 Cl
ENDBRANCH  11  14
ENDBRANCH   9  10
ENDBRANCH   8   9
BRANCH   8  22
ATOM     22  N   UNL A   1      30.037  25.826  24.778  1.00  0.00    -0.330 N 
ATOM     23  H   UNL A   1      30.769  26.524  24.652  1.00  0.00     0.347 HD
ATOM     24  H   UNL A   1      29.623  25.821  25.710  1.00  0.00     0.347 HD
BRANCH  22  25
ATOM     25  C   UNL A   1      28.937  26.156  23.856  1.00  0.00     0.299 C 
BRANCH  25  26
ATOM     26  C   UNL A   1      29.066  27.513  23.198  1.00  0.00     0.024 A 
ATOM     27  C   UNL A   1      28.002  28.416  23.113  1.00  0.00     0.013 A 
ATOM     28  C   UNL A   1      30.274  27.927  22.631  1.00  0.00     0.120 A 
ATOM     29  C   UNL A   1      28.192  29.666  22.516  1.00  0.00     0.021 A 
ATOM     30  N   UNL A   1      30.486  29.125  22.028  1.00  0.00    -0.264 NA
ATOM     31  C   UNL A   1      29.439  29.973  22.000  1.00  0.00     0.111 A 
ENDBRANCH  25  26
ENDBRANCH  22  25
ENDBRANCH   8  22
ENDBRANCH   6   8
ENDBRANCH   5   6
ENDBRANCH   4   5
ENDBRANCH   3   4
ENDBRANCH   2   3
ENDBRANCH   1   2
BRANCH   1  32
ATOM     32  C   UNL A   1      37.018  22.313  24.474  1.00  0.00     0.188 C 
BRANCH  32  33
ATOM     33  O   UNL A   1      37.539  21.044  24.812  1.00  0.00    -0.376 OA
BRANCH  33  34
ATOM     34  C   UNL A   1      38.652  20.974  25.681  1.00  0.00     0.202 C 
BRANCH  34  35
ATOM     35  C   UNL A   1      39.394  19.637  25.745  1.00  0.00     0.261 C 
BRANCH  35  36
ATOM     36  O   UNL A   1      40.419  19.555  26.747  1.00  0.00    -0.460 OA
BRANCH  36  37
ATOM     37  C   UNL A   1      41.705  19.653  26.343  1.00  0.00     0.338 C 
ATOM     38  O   UNL A   1      42.384  18.782  25.820  1.00  0.00    -0.246 OA
BRANCH  37  39
ATOM     39  C   UNL A   1      42.097  21.070  26.507  1.00  0.00     0.060 A 
ATOM     40  C   UNL A   1      42.286  21.620  27.787  1.00  0.00     0.016 A 
ATOM     41  C   UNL A   1      42.324  21.839  25.370  1.00  0.00     0.016 A 
ATOM     42  C   UNL A   1      42.695  22.948  27.930  1.00  0.00     0.010 A 
ATOM     43  C   UNL A   1      42.709  23.170  25.514  1.00  0.00     0.010 A 
ATOM     44  C   UNL A   1      42.873  23.738  26.791  1.00  0.00    -0.014 A 
BRANCH  44  45
ATOM     45  C   UNL A   1      43.058  25.204  26.887  1.00  0.00     0.031 A 
ATOM     46  C   UNL A   1      44.406  25.762  26.536  1.00  0.00     0.074 A 
ATOM     47  C   UNL A   1      42.100  26.000  27.391  1.00  0.00     0.049 A 
ATOM     48  N   UNL A   1      44.905  26.942  26.778  1.00  0.00    -0.248 NA
ATOM     49  C   UNL A   1      45.324  24.845  25.838  1.00  0.00     0.031 C 
ATOM     50  C   UNL A   1      40.750  25.575  27.751  1.00  0.00     0.029 A 
ATOM     51  N   UNL A   1      42.149  27.325  27.750  1.00  0.00    -0.354 N 
ATOM     52  C   UNL A   1      46.219  26.890  26.331  1.00  0.00     0.074 A 
ATOM     53  C   UNL A   1      46.432  25.567  25.787  1.00  0.00     0.031 C 
ATOM     54  C   UNL A   1      40.117  26.601  28.344  1.00  0.00     0.029 A 
ATOM     55  C   UNL A   1      41.037  27.732  28.450  1.00  0.00     0.049 A 
ATOM     56  H   UNL A   1      42.902  27.920  27.531  1.00  0.00     0.167 HD
ATOM     57  C   UNL A   1      47.166  27.856  26.380  1.00  0.00     0.034 A 
ATOM     58  C   UNL A   1      40.814  28.862  29.153  1.00  0.00     0.034 A 
ATOM     59  C   UNL A   1      46.937  29.170  26.914  1.00  0.00     0.049 A 
ATOM     60  C   UNL A   1      41.883  29.922  29.213  1.00  0.00     0.074 A 
ATOM     61  C   UNL A   1      47.803  30.247  26.943  1.00  0.00     0.029 A 
ATOM     62  N   UNL A   1      45.767  29.576  27.538  1.00  0.00    -0.354 N 
ATOM     63  N   UNL A   1      43.086  29.909  28.694  1.00  0.00    -0.248 NA
ATOM     64  C   UNL A   1      41.556  31.162  29.932  1.00  0.00     0.031 C 
ATOM     65  C   UNL A   1      47.176  31.289  27.633  1.00  0.00     0.029 A 
ATOM     66  C   UNL A   1      45.896  30.880  27.979  1.00  0.00     0.049 A 
ATOM     67  H   UNL A   1      44.965  29.018  27.652  1.00  0.00     0.167 HD
ATOM     68  C   UNL A   1      43.647  31.148  28.988  1.00  0.00     0.074 A 
ATOM     69  C   UNL A   1      42.647  31.890  29.729  1.00  0.00     0.031 C 
ATOM     70  C   UNL A   1      44.876  31.626  28.672  1.00  0.00     0.034 A 
BRANCH  57  71
ATOM     71  C   UNL A   1      48.538  27.512  25.866  1.00  0.00     0.023 A 
ATOM     72  C   UNL A   1      49.528  27.028  26.745  1.00  0.00     0.012 A 
ATOM     73  C   UNL A   1      48.839  27.651  24.496  1.00  0.00     0.148 A 
ATOM     74  C   UNL A   1      50.809  26.737  26.280  1.00  0.00     0.002 A 
ATOM     75  C   UNL A   1      50.102  27.308  24.031  1.00  0.00     0.091 A 
ATOM     76  F   UNL A   1      47.894  28.136  23.678  1.00  0.00    -0.205 F 
ATOM     77  C   UNL A   1      51.093  26.868  24.923  1.00  0.00     0.022 A 
BRANCH  75  78
ATOM     78  S   UNL A   1      50.534  27.360  22.289  1.00  0.00     0.127 S 
ATOM     79  O   UNL A   1      50.497  28.796  22.019  1.00  0.00    -0.237 OA
ATOM     80  O   UNL A   1      51.875  26.774  22.288  1.00  0.00    -0.237 OA
ATOM     81  O   UNL A   1      49.526  26.566  21.601  1.00  0.00    -0.744 OA
ENDBRANCH  75  78
ENDBRANCH  57  71
BRANCH  58  82
ATOM     82  C   UNL A   1      39.517  29.034  29.866  1.00  0.00     0.023 A 
ATOM     83  C   UNL A   1      39.327  28.428  31.122  1.00  0.00     0.012 A 
ATOM     84  C   UNL A   1      38.496  29.841  29.327  1.00  0.00     0.148 A 
ATOM     85  C   UNL A   1      38.133  28.611  31.823  1.00  0.00     0.002 A 
ATOM     86  C   UNL A   1      37.333  30.063  30.055  1.00  0.00     0.091 A 
ATOM     87  F   UNL A   1      38.696  30.397  28.124  1.00  0.00    -0.205 F 
ATOM     88  C   UNL A   1      37.144  29.437  31.297  1.00  0.00     0.022 A 
BRANCH  86  89
ATOM     89  S   UNL A   1      36.057  31.207  29.518  1.00  0.00     0.127 S 
ATOM     90  O   UNL A   1      35.326  30.402  28.542  1.00  0.00    -0.237 OA
ATOM     91  O   UNL A   1      35.340  31.459  30.769  1.00  0.00    -0.237 OA
ATOM     92  O   UNL A   1      36.759  32.362  28.977  1.00  0.00    -0.744 OA
ENDBRANCH  86  89
ENDBRANCH  58  82
BRANCH  70  93
ATOM     93  C   UNL A   1      45.212  33.045  29.058  1.00  0.00     0.023 A 
ATOM     94  C   UNL A   1      45.902  33.313  30.255  1.00  0.00     0.012 A 
ATOM     95  C   UNL A   1      44.948  34.098  28.158  1.00  0.00     0.148 A 
ATOM     96  C   UNL A   1      46.310  34.612  30.557  1.00  0.00     0.002 A 
ATOM     97  C   UNL A   1      45.404  35.378  28.440  1.00  0.00     0.091 A 
ATOM     98  F   UNL A   1      44.276  33.819  27.031  1.00  0.00    -0.205 F 
ATOM     99  C   UNL A   1      46.076  35.640  29.645  1.00  0.00     0.022 A 
BRANCH  97 100
ATOM    100  S   UNL A   1      45.244  36.738  27.277  1.00  0.00     0.127 S 
ATOM    101  O   UNL A   1      43.793  36.810  27.103  1.00  0.00    -0.237 OA
ATOM    102  O   UNL A   1      45.824  37.853  28.026  1.00  0.00    -0.237 OA
ATOM    103  O   UNL A   1      45.991  36.349  26.091  1.00  0.00    -0.744 OA
ENDBRANCH  97 100
ENDBRANCH  70  93
ENDBRANCH  44  45
ENDBRANCH  37  39
ENDBRANCH  36  37
ENDBRANCH  35  36
ENDBRANCH  34  35
ENDBRANCH  33  34
ENDBRANCH  32  33
ENDBRANCH   1  32
TORSDOF 26
ENDMDL
