MODEL 1
REMARK VINA RESULT:     -13.2      0.000      0.000
REMARK SMILES Cc1ccc(S(=O)(=O)n2cc(C(=O)C(=O)N[C@@H](Cc3cnc[nH]3)C(=O)OCCOCCOCCOC(=O)c3ccc(-c4c5nc(c(-c6cccc(S(=O)(=O)[O-])c6F)c6ccc([nH]6)c(-c6cccc(S(=O)(=O)[O-])c6F)c6nc(c(-c7cccc(S(=O)(=O)[O-])c7F)c7ccc4[nH]7)C=C6)C=C5)cc3)c3ccccc32)cc1
REMARK SMILES IDX 30 1 29 2 28 3 27 4 26 5 24 6 25 7 17 8 16 9 14 10 15 11
REMARK SMILES IDX 12 13 13 14 11 15 9 16 10 17 106 18 101 19 105 20 102 21
REMARK SMILES IDX 104 22 103 23 6 24 7 25 8 26 5 27 1 28 2 29 3 30 108 31 4 32
REMARK SMILES IDX 107 33 18 34 19 35 20 36 23 37 21 38 22 39 31 41 32 42 33 43
REMARK SMILES IDX 34 44 35 45 36 46 37 47 38 48 39 49 100 50 40 51 99 52 41 53
REMARK SMILES IDX 42 54 43 55 93 56 44 57 98 58 92 59 94 60 45 61 97 62 91 63
REMARK SMILES IDX 90 64 46 66 78 67 58 68 77 69 59 70 62 71 76 72 95 73 60 74
REMARK SMILES IDX 61 75 75 77 96 78 63 79 47 80 48 81 56 82 49 83 51 84 57 85
REMARK SMILES IDX 50 86 52 87 53 88 54 89 55 90 79 91 80 92 88 93 81 94 83 95
REMARK SMILES IDX 89 96 82 97 84 98 85 99 86 100 87 101 64 102 65 103 73 104
REMARK SMILES IDX 66 105 68 106 74 107 67 108 69 109 70 110 71 111 72 112
REMARK H PARENT 16 12 23 40 94 65 62 76
REMARK Flexibility Score: inf
ROOT
ATOM      1  C   UNL A   1      34.801  29.322  27.441  1.00  0.00     0.188 C 
ENDROOT
BRANCH   1   2
ATOM      2  O   UNL A   1      33.542  29.755  27.777  1.00  0.00    -0.376 OA
BRANCH   2   3
ATOM      3  C   UNL A   1      33.195  30.949  27.089  1.00  0.00     0.202 C 
BRANCH   3   4
ATOM      4  C   UNL A   1      31.741  31.280  26.743  1.00  0.00     0.261 C 
BRANCH   4   5
ATOM      5  O   UNL A   1      31.411  30.394  25.366  1.00  0.00    -0.462 OA
BRANCH   5   6
ATOM      6  C   UNL A   1      31.639  28.802  24.557  1.00  0.00     0.329 C 
ATOM      7  O   UNL A   1      32.490  28.144  25.111  1.00  0.00    -0.250 OA
BRANCH   6   8
ATOM      8  C   UNL A   1      31.771  28.527  22.665  1.00  0.00     0.198 C 
BRANCH   8   9
ATOM      9  N   UNL A   1      32.766  27.381  21.669  1.00  0.00    -0.335 N 
ATOM     10  C   UNL A   1      33.229  26.036  22.029  1.00  0.00     0.293 C 
ATOM     11  O   UNL A   1      33.127  25.026  21.312  1.00  0.00    -0.265 OA
ATOM     12  H   UNL A   1      33.027  27.701  20.776  1.00  0.00     0.164 HD
BRANCH  10  13
ATOM     13  C   UNL A   1      33.666  25.820  23.423  1.00  0.00     0.252 C 
ATOM     14  O   UNL A   1      34.368  26.722  23.857  1.00  0.00    -0.283 OA
BRANCH  13  15
ATOM     15  C   UNL A   1      33.563  24.548  24.097  1.00  0.00     0.054 A 
ATOM     16  N   UNL A   1      34.025  22.847  25.395  1.00  0.00    -0.240 N 
ATOM     17  C   UNL A   1      34.494  23.556  24.328  1.00  0.00     0.117 A 
ATOM     18  C   UNL A   1      32.749  23.255  25.740  1.00  0.00     0.065 A 
ATOM     19  C   UNL A   1      32.412  24.265  24.846  1.00  0.00     0.012 A 
ATOM     20  C   UNL A   1      31.821  22.872  26.707  1.00  0.00     0.028 A 
ATOM     21  C   UNL A   1      31.174  24.930  24.909  1.00  0.00     0.011 A 
ATOM     22  C   UNL A   1      30.576  23.534  26.723  1.00  0.00     0.002 A 
ATOM     23  C   UNL A   1      30.249  24.554  25.844  1.00  0.00     0.001 A 
BRANCH  16  24
ATOM     24  S   UNL A   1      34.949  21.632  26.140  1.00  0.00     0.268 S 
ATOM     25  O   UNL A   1      34.453  21.536  27.501  1.00  0.00    -0.201 OA
ATOM     26  O   UNL A   1      36.344  21.925  25.859  1.00  0.00    -0.201 OA
BRANCH  24  27
ATOM     27  C   UNL A   1      34.562  20.126  25.297  1.00  0.00     0.088 A 
ATOM     28  C   UNL A   1      33.561  16.601  23.058  1.00  0.00     0.044 C 
ATOM     29  C   UNL A   1      33.901  17.826  23.854  1.00  0.00    -0.051 A 
ATOM     30  C   UNL A   1      32.919  18.783  24.150  1.00  0.00     0.005 A 
ATOM     31  C   UNL A   1      35.205  18.022  24.308  1.00  0.00     0.005 A 
ATOM     32  C   UNL A   1      33.246  19.934  24.870  1.00  0.00     0.022 A 
ATOM     33  C   UNL A   1      35.531  19.154  25.046  1.00  0.00     0.022 A 
ENDBRANCH  24  27
ENDBRANCH  16  24
ENDBRANCH  13  15
ENDBRANCH  10  13
ENDBRANCH   8   9
BRANCH   8  34
ATOM     34  C   UNL A   1      29.853  28.517  22.265  1.00  0.00     0.092 C 
BRANCH  34  35
ATOM     35  C   UNL A   1      28.941  30.399  21.900  1.00  0.00     0.037 A 
ATOM     36  C   UNL A   1      27.958  31.311  23.033  1.00  0.00     0.134 A 
ATOM     37  N   UNL A   1      29.317  31.768  21.731  1.00  0.00    -0.348 N 
ATOM     38  N   UNL A   1      27.661  32.571  22.988  1.00  0.00    -0.245 NA
ATOM     39  C   UNL A   1      28.257  32.641  21.878  1.00  0.00     0.196 A 
ATOM     40  H   UNL A   1      30.236  32.059  21.531  1.00  0.00     0.167 HD
ENDBRANCH  34  35
ENDBRANCH   8  34
ENDBRANCH   6   8
ENDBRANCH   5   6
ENDBRANCH   4   5
ENDBRANCH   3   4
ENDBRANCH   2   3
ENDBRANCH   1   2
BRANCH   1  41
ATOM     41  C   UNL A   1      35.950  29.381  28.319  1.00  0.00     0.188 C 
BRANCH  41  42
ATOM     42  O   UNL A   1      37.356  29.659  28.323  1.00  0.00    -0.376 OA
BRANCH  42  43
ATOM     43  C   UNL A   1      37.539  30.504  29.326  1.00  0.00     0.202 C 
BRANCH  43  44
ATOM     44  C   UNL A   1      37.500  29.155  30.071  1.00  0.00     0.261 C 
BRANCH  44  45
ATOM     45  O   UNL A   1      38.804  28.566  31.024  1.00  0.00    -0.460 OA
BRANCH  45  46
ATOM     46  C   UNL A   1      38.926  28.286  32.616  1.00  0.00     0.338 C 
ATOM     47  O   UNL A   1      38.259  27.273  32.927  1.00  0.00    -0.246 OA
BRANCH  46  48
ATOM     48  C   UNL A   1      39.402  29.621  33.879  1.00  0.00     0.060 A 
ATOM     49  C   UNL A   1      39.015  30.810  33.375  1.00  0.00     0.016 A 
ATOM     50  C   UNL A   1      40.828  30.162  34.570  1.00  0.00     0.016 A 
ATOM     51  C   UNL A   1      40.254  31.893  33.185  1.00  0.00     0.010 A 
ATOM     52  C   UNL A   1      42.005  31.286  34.232  1.00  0.00     0.010 A 
ATOM     53  C   UNL A   1      41.868  32.109  33.117  1.00  0.00    -0.014 A 
BRANCH  53  54
ATOM     54  C   UNL A   1      43.104  32.777  31.619  1.00  0.00     0.031 A 
ATOM     55  C   UNL A   1      41.786  33.866  32.935  1.00  0.00     0.074 A 
ATOM     56  C   UNL A   1      44.238  31.795  30.465  1.00  0.00     0.049 A 
ATOM     57  N   UNL A   1      41.940  35.544  32.733  1.00  0.00    -0.248 NA
ATOM     58  C   UNL A   1      41.399  35.042  34.334  1.00  0.00     0.031 C 
ATOM     59  C   UNL A   1      45.936  31.674  29.470  1.00  0.00     0.029 A 
ATOM     60  N   UNL A   1      44.360  30.326  29.492  1.00  0.00    -0.354 N 
ATOM     61  C   UNL A   1      43.032  36.324  33.482  1.00  0.00     0.074 A 
ATOM     62  C   UNL A   1      42.205  36.139  34.623  1.00  0.00     0.031 C 
ATOM     63  C   UNL A   1      46.206  31.057  28.107  1.00  0.00     0.029 A 
ATOM     64  C   UNL A   1      45.011  30.292  28.058  1.00  0.00     0.049 A 
ATOM     65  H   UNL A   1      44.003  29.488  29.863  1.00  0.00     0.167 HD
ATOM     66  C   UNL A   1      44.488  36.576  33.314  1.00  0.00     0.034 A 
ATOM     67  C   UNL A   1      44.131  30.487  27.085  1.00  0.00     0.034 A 
ATOM     68  C   UNL A   1      45.422  36.039  32.069  1.00  0.00     0.049 A 
ATOM     69  C   UNL A   1      44.271  32.109  27.193  1.00  0.00     0.074 A 
ATOM     70  C   UNL A   1      46.617  35.203  31.926  1.00  0.00     0.029 A 
ATOM     71  N   UNL A   1      44.852  35.955  30.818  1.00  0.00    -0.354 N 
ATOM     72  N   UNL A   1      44.475  32.955  28.197  1.00  0.00    -0.248 NA
ATOM     73  C   UNL A   1      44.534  32.716  25.932  1.00  0.00     0.031 C 
ATOM     74  C   UNL A   1      46.665  34.666  30.585  1.00  0.00     0.029 A 
ATOM     75  C   UNL A   1      45.597  35.212  29.902  1.00  0.00     0.049 A 
ATOM     76  H   UNL A   1      43.994  36.382  30.590  1.00  0.00     0.167 HD
ATOM     77  C   UNL A   1      44.875  34.175  27.754  1.00  0.00     0.074 A 
ATOM     78  C   UNL A   1      44.676  33.969  26.340  1.00  0.00     0.031 C 
ATOM     79  C   UNL A   1      45.239  35.276  28.494  1.00  0.00     0.034 A 
BRANCH  66  80
ATOM     80  C   UNL A   1      45.409  37.060  34.465  1.00  0.00     0.023 A 
ATOM     81  C   UNL A   1      45.882  36.096  35.393  1.00  0.00     0.012 A 
ATOM     82  C   UNL A   1      45.792  38.382  34.724  1.00  0.00     0.148 A 
ATOM     83  C   UNL A   1      46.887  36.385  36.311  1.00  0.00     0.002 A 
ATOM     84  C   UNL A   1      46.872  38.672  35.547  1.00  0.00     0.091 A 
ATOM     85  F   UNL A   1      44.993  39.390  34.366  1.00  0.00    -0.205 F 
ATOM     86  C   UNL A   1      47.443  37.663  36.332  1.00  0.00     0.022 A 
BRANCH  84  87
ATOM     87  S   UNL A   1      47.569  40.343  35.522  1.00  0.00     0.127 S 
ATOM     88  O   UNL A   1      48.807  40.156  34.766  1.00  0.00    -0.237 OA
ATOM     89  O   UNL A   1      46.535  41.108  34.827  1.00  0.00    -0.237 OA
ATOM     90  O   UNL A   1      47.758  40.733  36.915  1.00  0.00    -0.744 OA
ENDBRANCH  84  87
ENDBRANCH  66  80
BRANCH  67  91
ATOM     91  C   UNL A   1      43.087  29.518  27.598  1.00  0.00     0.023 A 
ATOM     92  C   UNL A   1      41.771  29.857  28.210  1.00  0.00     0.012 A 
ATOM     93  C   UNL A   1      43.243  28.317  26.972  1.00  0.00     0.148 A 
ATOM     94  C   UNL A   1      40.695  28.964  28.197  1.00  0.00     0.002 A 
ATOM     95  C   UNL A   1      42.209  27.397  27.052  1.00  0.00     0.091 A 
ATOM     96  F   UNL A   1      44.250  28.269  26.060  1.00  0.00    -0.205 F 
ATOM     97  C   UNL A   1      40.960  27.693  27.691  1.00  0.00     0.022 A 
BRANCH  95  98
ATOM     98  S   UNL A   1      42.416  25.887  26.114  1.00  0.00     0.127 S 
ATOM     99  O   UNL A   1      43.660  25.376  26.630  1.00  0.00    -0.237 OA
ATOM    100  O   UNL A   1      41.298  25.068  26.552  1.00  0.00    -0.237 OA
ATOM    101  O   UNL A   1      42.417  26.289  24.710  1.00  0.00    -0.744 OA
ENDBRANCH  95  98
ENDBRANCH  67  91
BRANCH  79 102
ATOM    102  C   UNL A   1      45.257  36.632  27.837  1.00  0.00     0.023 A 
ATOM    103  C   UNL A   1      46.428  37.157  27.293  1.00  0.00     0.012 A 
ATOM    104  C   UNL A   1      44.130  37.461  27.732  1.00  0.00     0.148 A 
ATOM    105  C   UNL A   1      46.497  38.306  26.543  1.00  0.00     0.002 A 
ATOM    106  C   UNL A   1      44.189  38.668  27.069  1.00  0.00     0.091 A 
ATOM    107  F   UNL A   1      42.981  37.152  28.322  1.00  0.00    -0.205 F 
ATOM    108  C   UNL A   1      45.373  39.089  26.461  1.00  0.00     0.022 A 
BRANCH 106 109
ATOM    109  S   UNL A   1      42.743  39.720  26.995  1.00  0.00     0.127 S 
ATOM    110  O   UNL A   1      43.179  40.737  26.040  1.00  0.00    -0.237 OA
ATOM    111  O   UNL A   1      41.737  38.784  26.498  1.00  0.00    -0.237 OA
ATOM    112  O   UNL A   1      42.506  40.216  28.345  1.00  0.00    -0.744 OA
ENDBRANCH 106 109
ENDBRANCH  79 102
ENDBRANCH  53  54
ENDBRANCH  46  48
ENDBRANCH  45  46
ENDBRANCH  44  45
ENDBRANCH  43  44
ENDBRANCH  42  43
ENDBRANCH  41  42
ENDBRANCH   1  41
TORSDOF 27
ENDMDL
MODEL 2
REMARK VINA RESULT:     -13.1      4.155      8.107
REMARK SMILES Cc1ccc(S(=O)(=O)n2cc(C(=O)C(=O)N[C@@H](Cc3cnc[nH]3)C(=O)OCCOCCOCCOC(=O)c3ccc(-c4c5nc(c(-c6cccc(S(=O)(=O)[O-])c6F)c6ccc([nH]6)c(-c6cccc(S(=O)(=O)[O-])c6F)c6nc(c(-c7cccc(S(=O)(=O)[O-])c7F)c7ccc4[nH]7)C=C6)C=C5)cc3)c3ccccc32)cc1
REMARK SMILES IDX 30 1 29 2 28 3 27 4 26 5 24 6 25 7 17 8 16 9 14 10 15 11
REMARK SMILES IDX 12 13 13 14 11 15 9 16 10 17 106 18 101 19 105 20 102 21
REMARK SMILES IDX 104 22 103 23 6 24 7 25 8 26 5 27 1 28 2 29 3 30 108 31 4 32
REMARK SMILES IDX 107 33 18 34 19 35 20 36 23 37 21 38 22 39 31 41 32 42 33 43
REMARK SMILES IDX 34 44 35 45 36 46 37 47 38 48 39 49 100 50 40 51 99 52 41 53
REMARK SMILES IDX 42 54 43 55 93 56 44 57 98 58 92 59 94 60 45 61 97 62 91 63
REMARK SMILES IDX 90 64 46 66 78 67 58 68 77 69 59 70 62 71 76 72 95 73 60 74
REMARK SMILES IDX 61 75 75 77 96 78 63 79 47 80 48 81 56 82 49 83 51 84 57 85
REMARK SMILES IDX 50 86 52 87 53 88 54 89 55 90 79 91 80 92 88 93 81 94 83 95
REMARK SMILES IDX 89 96 82 97 84 98 85 99 86 100 87 101 64 102 65 103 73 104
REMARK SMILES IDX 66 105 68 106 74 107 67 108 69 109 70 110 71 111 72 112
REMARK H PARENT 16 12 23 40 94 65 62 76
REMARK Flexibility Score: inf
ROOT
ATOM      1  C   UNL A   1      37.883  22.426  25.771  1.00  0.00     0.188 C 
ENDROOT
BRANCH   1   2
ATOM      2  O   UNL A   1      37.584  23.765  25.734  1.00  0.00    -0.376 OA
BRANCH   2   3
ATOM      3  C   UNL A   1      36.229  23.992  25.372  1.00  0.00     0.202 C 
BRANCH   3   4
ATOM      4  C   UNL A   1      35.073  23.466  26.226  1.00  0.00     0.261 C 
BRANCH   4   5
ATOM      5  O   UNL A   1      34.116  24.803  26.529  1.00  0.00    -0.462 OA
BRANCH   5   6
ATOM      6  C   UNL A   1      32.969  25.980  25.796  1.00  0.00     0.329 C 
ATOM      7  O   UNL A   1      33.448  27.091  25.746  1.00  0.00    -0.250 OA
BRANCH   6   8
ATOM      8  C   UNL A   1      31.105  26.124  26.218  1.00  0.00     0.198 C 
BRANCH   8   9
ATOM      9  N   UNL A   1      29.793  24.879  26.368  1.00  0.00    -0.335 N 
ATOM     10  C   UNL A   1      29.876  23.543  26.970  1.00  0.00     0.293 C 
ATOM     11  O   UNL A   1      29.067  23.073  27.788  1.00  0.00    -0.265 OA
ATOM     12  H   UNL A   1      28.915  25.131  26.001  1.00  0.00     0.164 HD
BRANCH  10  13
ATOM     13  C   UNL A   1      31.117  22.775  26.746  1.00  0.00     0.252 C 
ATOM     14  O   UNL A   1      31.806  22.661  27.750  1.00  0.00    -0.283 OA
BRANCH  13  15
ATOM     15  C   UNL A   1      31.634  22.472  25.433  1.00  0.00     0.054 A 
ATOM     16  N   UNL A   1      32.765  22.626  23.565  1.00  0.00    -0.240 N 
ATOM     17  C   UNL A   1      31.823  23.263  24.318  1.00  0.00     0.117 A 
ATOM     18  C   UNL A   1      33.056  21.378  24.086  1.00  0.00     0.065 A 
ATOM     19  C   UNL A   1      32.258  21.235  25.215  1.00  0.00     0.012 A 
ATOM     20  C   UNL A   1      33.902  20.332  23.720  1.00  0.00     0.028 A 
ATOM     21  C   UNL A   1      32.301  20.079  26.014  1.00  0.00     0.011 A 
ATOM     22  C   UNL A   1      33.898  19.172  24.522  1.00  0.00     0.002 A 
ATOM     23  C   UNL A   1      33.117  19.039  25.659  1.00  0.00     0.001 A 
BRANCH  16  24
ATOM     24  S   UNL A   1      33.437  23.339  22.178  1.00  0.00     0.268 S 
ATOM     25  O   UNL A   1      32.793  22.693  21.048  1.00  0.00    -0.201 OA
ATOM     26  O   UNL A   1      34.880  23.317  22.344  1.00  0.00    -0.201 OA
BRANCH  24  27
ATOM     27  C   UNL A   1      32.944  25.038  22.204  1.00  0.00     0.088 A 
ATOM     28  C   UNL A   1      31.643  29.121  22.482  1.00  0.00     0.044 C 
ATOM     29  C   UNL A   1      32.091  27.694  22.369  1.00  0.00    -0.051 A 
ATOM     30  C   UNL A   1      31.155  26.652  22.310  1.00  0.00     0.005 A 
ATOM     31  C   UNL A   1      33.452  27.393  22.320  1.00  0.00     0.005 A 
ATOM     32  C   UNL A   1      31.578  25.323  22.229  1.00  0.00     0.022 A 
ATOM     33  C   UNL A   1      33.879  26.074  22.215  1.00  0.00     0.022 A 
ENDBRANCH  24  27
ENDBRANCH  16  24
ENDBRANCH  13  15
ENDBRANCH  10  13
ENDBRANCH   8   9
BRANCH   8  34
ATOM     34  C   UNL A   1      31.272  27.336  27.748  1.00  0.00     0.092 C 
BRANCH  34  35
ATOM     35  C   UNL A   1      31.941  29.309  27.339  1.00  0.00     0.037 A 
ATOM     36  C   UNL A   1      33.520  29.969  27.729  1.00  0.00     0.134 A 
ATOM     37  N   UNL A   1      32.318  30.112  26.217  1.00  0.00    -0.348 N 
ATOM     38  N   UNL A   1      34.085  31.021  27.227  1.00  0.00    -0.245 NA
ATOM     39  C   UNL A   1      33.026  31.242  26.576  1.00  0.00     0.196 A 
ATOM     40  H   UNL A   1      32.096  29.883  25.286  1.00  0.00     0.167 HD
ENDBRANCH  34  35
ENDBRANCH   8  34
ENDBRANCH   6   8
ENDBRANCH   5   6
ENDBRANCH   4   5
ENDBRANCH   3   4
ENDBRANCH   2   3
ENDBRANCH   1   2
BRANCH   1  41
ATOM     41  C   UNL A   1      39.168  21.883  26.159  1.00  0.00     0.188 C 
BRANCH  41  42
ATOM     42  O   UNL A   1      40.573  22.163  26.113  1.00  0.00    -0.376 OA
BRANCH  42  43
ATOM     43  C   UNL A   1      41.153  21.111  26.670  1.00  0.00     0.202 C 
BRANCH  43  44
ATOM     44  C   UNL A   1      40.802  21.955  27.912  1.00  0.00     0.261 C 
BRANCH  44  45
ATOM     45  O   UNL A   1      41.850  23.149  28.568  1.00  0.00    -0.460 OA
BRANCH  45  46
ATOM     46  C   UNL A   1      41.820  24.768  28.475  1.00  0.00     0.338 C 
ATOM     47  O   UNL A   1      42.835  25.250  29.028  1.00  0.00    -0.246 OA
BRANCH  46  48
ATOM     48  C   UNL A   1      40.231  25.771  28.211  1.00  0.00     0.060 A 
ATOM     49  C   UNL A   1      40.594  27.003  27.800  1.00  0.00     0.016 A 
ATOM     50  C   UNL A   1      38.949  26.261  29.172  1.00  0.00     0.016 A 
ATOM     51  C   UNL A   1      40.069  28.222  28.791  1.00  0.00     0.010 A 
ATOM     52  C   UNL A   1      38.574  27.552  30.150  1.00  0.00     0.010 A 
ATOM     53  C   UNL A   1      39.464  28.617  30.252  1.00  0.00    -0.014 A 
BRANCH  53  54
ATOM     54  C   UNL A   1      40.203  29.777  31.778  1.00  0.00     0.031 A 
ATOM     55  C   UNL A   1      39.337  30.341  29.884  1.00  0.00     0.074 A 
ATOM     56  C   UNL A   1      40.975  29.254  33.424  1.00  0.00     0.049 A 
ATOM     57  N   UNL A   1      39.150  32.023  29.753  1.00  0.00    -0.248 NA
ATOM     58  C   UNL A   1      38.014  31.079  28.790  1.00  0.00     0.031 C 
ATOM     59  C   UNL A   1      41.223  29.586  35.352  1.00  0.00     0.029 A 
ATOM     60  N   UNL A   1      42.074  28.099  34.183  1.00  0.00    -0.354 N 
ATOM     61  C   UNL A   1      37.901  32.717  30.321  1.00  0.00     0.074 A 
ATOM     62  C   UNL A   1      37.233  32.157  29.197  1.00  0.00     0.031 C 
ATOM     63  C   UNL A   1      42.457  29.364  36.212  1.00  0.00     0.029 A 
ATOM     64  C   UNL A   1      43.114  28.499  35.297  1.00  0.00     0.049 A 
ATOM     65  H   UNL A   1      42.035  27.158  33.897  1.00  0.00     0.167 HD
ATOM     66  C   UNL A   1      37.431  33.172  31.656  1.00  0.00     0.034 A 
ATOM     67  C   UNL A   1      44.301  28.825  34.803  1.00  0.00     0.034 A 
ATOM     68  C   UNL A   1      38.282  33.076  33.062  1.00  0.00     0.049 A 
ATOM     69  C   UNL A   1      43.850  30.374  34.560  1.00  0.00     0.074 A 
ATOM     70  C   UNL A   1      38.094  32.449  34.373  1.00  0.00     0.029 A 
ATOM     71  N   UNL A   1      39.649  33.239  33.007  1.00  0.00    -0.354 N 
ATOM     72  N   UNL A   1      42.710  30.962  34.214  1.00  0.00    -0.248 NA
ATOM     73  C   UNL A   1      44.769  31.302  35.127  1.00  0.00     0.031 C 
ATOM     74  C   UNL A   1      39.381  32.272  35.006  1.00  0.00     0.029 A 
ATOM     75  C   UNL A   1      40.316  32.840  34.165  1.00  0.00     0.049 A 
ATOM     76  H   UNL A   1      40.114  33.604  32.219  1.00  0.00     0.167 HD
ATOM     77  C   UNL A   1      42.726  32.291  34.487  1.00  0.00     0.074 A 
ATOM     78  C   UNL A   1      44.115  32.421  34.854  1.00  0.00     0.031 C 
ATOM     79  C   UNL A   1      41.713  33.209  34.330  1.00  0.00     0.034 A 
BRANCH  66  80
ATOM     80  C   UNL A   1      35.942  33.461  31.985  1.00  0.00     0.023 A 
ATOM     81  C   UNL A   1      35.336  32.726  33.038  1.00  0.00     0.012 A 
ATOM     82  C   UNL A   1      35.097  34.348  31.308  1.00  0.00     0.148 A 
ATOM     83  C   UNL A   1      34.092  33.071  33.558  1.00  0.00     0.002 A 
ATOM     84  C   UNL A   1      33.910  34.789  31.875  1.00  0.00     0.091 A 
ATOM     85  F   UNL A   1      35.307  34.614  30.016  1.00  0.00    -0.205 F 
ATOM     86  C   UNL A   1      33.410  34.163  33.024  1.00  0.00     0.022 A 
BRANCH  84  87
ATOM     87  S   UNL A   1      33.073  36.224  31.155  1.00  0.00     0.127 S 
ATOM     88  O   UNL A   1      34.046  37.295  31.367  1.00  0.00    -0.237 OA
ATOM     89  O   UNL A   1      32.895  35.822  29.761  1.00  0.00    -0.237 OA
ATOM     90  O   UNL A   1      31.821  36.384  31.889  1.00  0.00    -0.744 OA
ENDBRANCH  84  87
ENDBRANCH  66  80
BRANCH  67  91
ATOM     91  C   UNL A   1      44.429  27.642  33.866  1.00  0.00     0.023 A 
ATOM     92  C   UNL A   1      44.548  27.682  32.381  1.00  0.00     0.012 A 
ATOM     93  C   UNL A   1      44.947  26.582  34.549  1.00  0.00     0.148 A 
ATOM     94  C   UNL A   1      45.143  26.644  31.656  1.00  0.00     0.002 A 
ATOM     95  C   UNL A   1      45.442  25.511  33.821  1.00  0.00     0.091 A 
ATOM     96  F   UNL A   1      45.229  26.822  35.857  1.00  0.00    -0.205 F 
ATOM     97  C   UNL A   1      45.505  25.515  32.388  1.00  0.00     0.022 A 
BRANCH  95  98
ATOM     98  S   UNL A   1      46.218  24.202  34.764  1.00  0.00     0.127 S 
ATOM     99  O   UNL A   1      45.532  23.031  34.279  1.00  0.00    -0.237 OA
ATOM    100  O   UNL A   1      47.594  24.228  34.295  1.00  0.00    -0.237 OA
ATOM    101  O   UNL A   1      46.002  24.541  36.167  1.00  0.00    -0.744 OA
ENDBRANCH  95  98
ENDBRANCH  67  91
BRANCH  79 102
ATOM    102  C   UNL A   1      42.048  34.678  34.303  1.00  0.00     0.023 A 
ATOM    103  C   UNL A   1      41.573  35.546  35.285  1.00  0.00     0.012 A 
ATOM    104  C   UNL A   1      42.833  35.280  33.308  1.00  0.00     0.148 A 
ATOM    105  C   UNL A   1      41.957  36.858  35.424  1.00  0.00     0.002 A 
ATOM    106  C   UNL A   1      43.156  36.619  33.365  1.00  0.00     0.091 A 
ATOM    107  F   UNL A   1      43.240  34.605  32.239  1.00  0.00    -0.205 F 
ATOM    108  C   UNL A   1      42.728  37.410  34.432  1.00  0.00     0.022 A 
BRANCH 106 109
ATOM    109  S   UNL A   1      44.122  37.363  32.054  1.00  0.00     0.127 S 
ATOM    110  O   UNL A   1      43.607  36.654  30.884  1.00  0.00    -0.237 OA
ATOM    111  O   UNL A   1      43.720  38.763  32.165  1.00  0.00    -0.237 OA
ATOM    112  O   UNL A   1      45.523  37.101  32.355  1.00  0.00    -0.744 OA
ENDBRANCH 106 109
ENDBRANCH  79 102
ENDBRANCH  53  54
ENDBRANCH  46  48
ENDBRANCH  45  46
ENDBRANCH  44  45
ENDBRANCH  43  44
ENDBRANCH  42  43
ENDBRANCH  41  42
ENDBRANCH   1  41
TORSDOF 27
ENDMDL
MODEL 3
REMARK VINA RESULT:     -13.1      5.267      9.582
REMARK SMILES Cc1ccc(S(=O)(=O)n2cc(C(=O)C(=O)N[C@@H](Cc3cnc[nH]3)C(=O)OCCOCCOCCOC(=O)c3ccc(-c4c5nc(c(-c6cccc(S(=O)(=O)[O-])c6F)c6ccc([nH]6)c(-c6cccc(S(=O)(=O)[O-])c6F)c6nc(c(-c7cccc(S(=O)(=O)[O-])c7F)c7ccc4[nH]7)C=C6)C=C5)cc3)c3ccccc32)cc1
REMARK SMILES IDX 30 1 29 2 28 3 27 4 26 5 24 6 25 7 17 8 16 9 14 10 15 11
REMARK SMILES IDX 12 13 13 14 11 15 9 16 10 17 106 18 101 19 105 20 102 21
REMARK SMILES IDX 104 22 103 23 6 24 7 25 8 26 5 27 1 28 2 29 3 30 108 31 4 32
REMARK SMILES IDX 107 33 18 34 19 35 20 36 23 37 21 38 22 39 31 41 32 42 33 43
REMARK SMILES IDX 34 44 35 45 36 46 37 47 38 48 39 49 100 50 40 51 99 52 41 53
REMARK SMILES IDX 42 54 43 55 93 56 44 57 98 58 92 59 94 60 45 61 97 62 91 63
REMARK SMILES IDX 90 64 46 66 78 67 58 68 77 69 59 70 62 71 76 72 95 73 60 74
REMARK SMILES IDX 61 75 75 77 96 78 63 79 47 80 48 81 56 82 49 83 51 84 57 85
REMARK SMILES IDX 50 86 52 87 53 88 54 89 55 90 79 91 80 92 88 93 81 94 83 95
REMARK SMILES IDX 89 96 82 97 84 98 85 99 86 100 87 101 64 102 65 103 73 104
REMARK SMILES IDX 66 105 68 106 74 107 67 108 69 109 70 110 71 111 72 112
REMARK H PARENT 16 12 23 40 94 65 62 76
REMARK Flexibility Score: inf
ROOT
ATOM      1  C   UNL A   1      34.838  31.279  27.851  1.00  0.00     0.188 C 
ENDROOT
BRANCH   1   2
ATOM      2  O   UNL A   1      33.602  30.738  27.597  1.00  0.00    -0.376 OA
BRANCH   2   3
ATOM      3  C   UNL A   1      32.732  31.678  26.980  1.00  0.00     0.202 C 
BRANCH   3   4
ATOM      4  C   UNL A   1      31.268  31.342  26.687  1.00  0.00     0.261 C 
BRANCH   4   5
ATOM      5  O   UNL A   1      31.307  30.412  25.299  1.00  0.00    -0.462 OA
BRANCH   5   6
ATOM      6  C   UNL A   1      32.139  29.047  24.473  1.00  0.00     0.329 C 
ATOM      7  O   UNL A   1      33.316  29.013  24.752  1.00  0.00    -0.250 OA
BRANCH   6   8
ATOM      8  C   UNL A   1      31.921  28.566  22.630  1.00  0.00     0.198 C 
BRANCH   8   9
ATOM      9  N   UNL A   1      32.769  27.350  21.583  1.00  0.00    -0.335 N 
ATOM     10  C   UNL A   1      33.199  25.993  21.937  1.00  0.00     0.293 C 
ATOM     11  O   UNL A   1      32.987  24.973  21.259  1.00  0.00    -0.265 OA
ATOM     12  H   UNL A   1      32.965  27.637  20.661  1.00  0.00     0.164 HD
BRANCH  10  13
ATOM     13  C   UNL A   1      33.748  25.788  23.293  1.00  0.00     0.252 C 
ATOM     14  O   UNL A   1      34.632  26.581  23.584  1.00  0.00    -0.283 OA
BRANCH  13  15
ATOM     15  C   UNL A   1      33.513  24.594  24.069  1.00  0.00     0.054 A 
ATOM     16  N   UNL A   1      33.793  22.975  25.516  1.00  0.00    -0.240 N 
ATOM     17  C   UNL A   1      34.342  23.542  24.403  1.00  0.00     0.117 A 
ATOM     18  C   UNL A   1      32.557  23.531  25.798  1.00  0.00     0.065 A 
ATOM     19  C   UNL A   1      32.331  24.487  24.814  1.00  0.00     0.012 A 
ATOM     20  C   UNL A   1      31.584  23.322  26.773  1.00  0.00     0.028 A 
ATOM     21  C   UNL A   1      31.162  25.269  24.794  1.00  0.00     0.011 A 
ATOM     22  C   UNL A   1      30.408  24.098  26.707  1.00  0.00     0.002 A 
ATOM     23  C   UNL A   1      30.192  25.066  25.738  1.00  0.00     0.001 A 
BRANCH  16  24
ATOM     24  S   UNL A   1      34.585  21.748  26.381  1.00  0.00     0.268 S 
ATOM     25  O   UNL A   1      33.924  21.682  27.672  1.00  0.00    -0.201 OA
ATOM     26  O   UNL A   1      36.011  22.000  26.270  1.00  0.00    -0.201 OA
BRANCH  24  27
ATOM     27  C   UNL A   1      34.262  20.241  25.513  1.00  0.00     0.088 A 
ATOM     28  C   UNL A   1      33.360  16.711  23.239  1.00  0.00     0.044 C 
ATOM     29  C   UNL A   1      33.669  17.935  24.048  1.00  0.00    -0.051 A 
ATOM     30  C   UNL A   1      32.638  18.706  24.603  1.00  0.00     0.005 A 
ATOM     31  C   UNL A   1      34.995  18.318  24.254  1.00  0.00     0.005 A 
ATOM     32  C   UNL A   1      32.930  19.860  25.335  1.00  0.00     0.022 A 
ATOM     33  C   UNL A   1      35.293  19.451  25.003  1.00  0.00     0.022 A 
ENDBRANCH  24  27
ENDBRANCH  16  24
ENDBRANCH  13  15
ENDBRANCH  10  13
ENDBRANCH   8   9
BRANCH   8  34
ATOM     34  C   UNL A   1      29.967  28.447  22.616  1.00  0.00     0.092 C 
BRANCH  34  35
ATOM     35  C   UNL A   1      28.904  30.195  22.044  1.00  0.00     0.037 A 
ATOM     36  C   UNL A   1      28.355  31.471  23.116  1.00  0.00     0.134 A 
ATOM     37  N   UNL A   1      29.136  31.420  21.344  1.00  0.00    -0.348 N 
ATOM     38  N   UNL A   1      28.008  32.678  22.799  1.00  0.00    -0.245 NA
ATOM     39  C   UNL A   1      28.163  32.370  21.584  1.00  0.00     0.196 A 
ATOM     40  H   UNL A   1      29.908  31.571  20.754  1.00  0.00     0.167 HD
ENDBRANCH  34  35
ENDBRANCH   8  34
ENDBRANCH   6   8
ENDBRANCH   5   6
ENDBRANCH   4   5
ENDBRANCH   3   4
ENDBRANCH   2   3
ENDBRANCH   1   2
BRANCH   1  41
ATOM     41  C   UNL A   1      35.650  30.962  29.006  1.00  0.00     0.188 C 
BRANCH  41  42
ATOM     42  O   UNL A   1      36.765  30.161  29.419  1.00  0.00    -0.376 OA
BRANCH  42  43
ATOM     43  C   UNL A   1      37.491  30.953  30.193  1.00  0.00     0.202 C 
BRANCH  43  44
ATOM     44  C   UNL A   1      38.338  30.931  28.905  1.00  0.00     0.261 C 
BRANCH  44  45
ATOM     45  O   UNL A   1      39.518  29.726  28.572  1.00  0.00    -0.460 OA
BRANCH  45  46
ATOM     46  C   UNL A   1      39.395  28.272  27.864  1.00  0.00     0.338 C 
ATOM     47  O   UNL A   1      38.599  27.548  28.504  1.00  0.00    -0.246 OA
BRANCH  46  48
ATOM     48  C   UNL A   1      40.718  27.557  26.707  1.00  0.00     0.060 A 
ATOM     49  C   UNL A   1      41.096  26.365  27.213  1.00  0.00     0.016 A 
ATOM     50  C   UNL A   1      42.237  28.032  26.184  1.00  0.00     0.016 A 
ATOM     51  C   UNL A   1      42.711  26.269  27.568  1.00  0.00     0.010 A 
ATOM     52  C   UNL A   1      43.813  27.860  26.682  1.00  0.00     0.010 A 
ATOM     53  C   UNL A   1      44.098  27.090  27.806  1.00  0.00    -0.014 A 
BRANCH  53  54
ATOM     54  C   UNL A   1      45.321  27.275  29.446  1.00  0.00     0.031 A 
ATOM     55  C   UNL A   1      45.199  25.716  27.960  1.00  0.00     0.074 A 
ATOM     56  C   UNL A   1      45.394  28.649  30.746  1.00  0.00     0.049 A 
ATOM     57  N   UNL A   1      46.419  24.553  28.166  1.00  0.00    -0.248 NA
ATOM     58  C   UNL A   1      45.828  24.717  26.513  1.00  0.00     0.031 C 
ATOM     59  C   UNL A   1      46.474  29.773  31.954  1.00  0.00     0.029 A 
ATOM     60  N   UNL A   1      44.411  29.728  31.740  1.00  0.00    -0.354 N 
ATOM     61  C   UNL A   1      47.814  24.769  27.558  1.00  0.00     0.074 A 
ATOM     62  C   UNL A   1      47.184  24.465  26.321  1.00  0.00     0.031 C 
ATOM     63  C   UNL A   1      46.137  30.283  33.346  1.00  0.00     0.029 A 
ATOM     64  C   UNL A   1      44.739  30.052  33.247  1.00  0.00     0.049 A 
ATOM     65  H   UNL A   1      43.620  30.148  31.333  1.00  0.00     0.167 HD
ATOM     66  C   UNL A   1      49.040  25.534  27.911  1.00  0.00     0.034 A 
ATOM     67  C   UNL A   1      44.134  29.232  34.096  1.00  0.00     0.034 A 
ATOM     68  C   UNL A   1      49.256  26.436  29.271  1.00  0.00     0.049 A 
ATOM     69  C   UNL A   1      45.334  28.132  33.992  1.00  0.00     0.074 A 
ATOM     70  C   UNL A   1      49.562  27.836  29.575  1.00  0.00     0.029 A 
ATOM     71  N   UNL A   1      48.667  26.002  30.438  1.00  0.00    -0.354 N 
ATOM     72  N   UNL A   1      46.142  27.733  33.015  1.00  0.00    -0.248 NA
ATOM     73  C   UNL A   1      45.821  27.738  35.271  1.00  0.00     0.031 C 
ATOM     74  C   UNL A   1      49.117  28.140  30.916  1.00  0.00     0.029 A 
ATOM     75  C   UNL A   1      48.635  26.963  31.449  1.00  0.00     0.049 A 
ATOM     76  H   UNL A   1      48.300  25.095  30.549  1.00  0.00     0.167 HD
ATOM     77  C   UNL A   1      47.214  27.053  33.495  1.00  0.00     0.074 A 
ATOM     78  C   UNL A   1      46.802  26.941  34.873  1.00  0.00     0.031 C 
ATOM     79  C   UNL A   1      48.287  26.547  32.799  1.00  0.00     0.034 A 
BRANCH  66  80
ATOM     80  C   UNL A   1      50.147  25.893  26.885  1.00  0.00     0.023 A 
ATOM     81  C   UNL A   1      51.474  25.472  27.158  1.00  0.00     0.012 A 
ATOM     82  C   UNL A   1      49.986  26.651  25.718  1.00  0.00     0.148 A 
ATOM     83  C   UNL A   1      52.483  25.541  26.201  1.00  0.00     0.002 A 
ATOM     84  C   UNL A   1      50.936  26.629  24.706  1.00  0.00     0.091 A 
ATOM     85  F   UNL A   1      49.026  27.578  25.652  1.00  0.00    -0.205 F 
ATOM     86  C   UNL A   1      52.189  26.049  24.938  1.00  0.00     0.022 A 
BRANCH  84  87
ATOM     87  S   UNL A   1      50.497  27.284  23.077  1.00  0.00     0.127 S 
ATOM     88  O   UNL A   1      50.549  28.729  23.294  1.00  0.00    -0.237 OA
ATOM     89  O   UNL A   1      51.559  26.753  22.224  1.00  0.00    -0.237 OA
ATOM     90  O   UNL A   1      49.170  26.762  22.764  1.00  0.00    -0.744 OA
ENDBRANCH  84  87
ENDBRANCH  66  80
BRANCH  67  91
ATOM     91  C   UNL A   1      42.762  29.306  33.460  1.00  0.00     0.023 A 
ATOM     92  C   UNL A   1      42.168  28.342  32.492  1.00  0.00     0.012 A 
ATOM     93  C   UNL A   1      41.939  30.047  34.255  1.00  0.00     0.148 A 
ATOM     94  C   UNL A   1      40.785  28.198  32.342  1.00  0.00     0.002 A 
ATOM     95  C   UNL A   1      40.572  29.976  34.031  1.00  0.00     0.091 A 
ATOM     96  F   UNL A   1      42.509  30.521  35.393  1.00  0.00    -0.205 F 
ATOM     97  C   UNL A   1      39.994  29.094  33.058  1.00  0.00     0.022 A 
BRANCH  95  98
ATOM     98  S   UNL A   1      39.532  30.874  35.178  1.00  0.00     0.127 S 
ATOM     99  O   UNL A   1      38.323  31.052  34.415  1.00  0.00    -0.237 OA
ATOM    100  O   UNL A   1      39.329  29.921  36.256  1.00  0.00    -0.237 OA
ATOM    101  O   UNL A   1      40.268  32.089  35.514  1.00  0.00    -0.744 OA
ENDBRANCH  95  98
ENDBRANCH  67  91
BRANCH  79 102
ATOM    102  C   UNL A   1      49.150  25.491  33.440  1.00  0.00     0.023 A 
ATOM    103  C   UNL A   1      48.608  24.288  33.890  1.00  0.00     0.012 A 
ATOM    104  C   UNL A   1      50.531  25.632  33.644  1.00  0.00     0.148 A 
ATOM    105  C   UNL A   1      49.342  23.216  34.337  1.00  0.00     0.002 A 
ATOM    106  C   UNL A   1      51.283  24.610  34.182  1.00  0.00     0.091 A 
ATOM    107  F   UNL A   1      51.159  26.774  33.390  1.00  0.00    -0.205 F 
ATOM    108  C   UNL A   1      50.691  23.392  34.520  1.00  0.00     0.022 A 
BRANCH 106 109
ATOM    109  S   UNL A   1      53.035  24.842  34.469  1.00  0.00     0.127 S 
ATOM    110  O   UNL A   1      53.495  23.458  34.559  1.00  0.00    -0.237 OA
ATOM    111  O   UNL A   1      53.428  25.556  33.257  1.00  0.00    -0.237 OA
ATOM    112  O   UNL A   1      53.167  25.607  35.702  1.00  0.00    -0.744 OA
ENDBRANCH 106 109
ENDBRANCH  79 102
ENDBRANCH  53  54
ENDBRANCH  46  48
ENDBRANCH  45  46
ENDBRANCH  44  45
ENDBRANCH  43  44
ENDBRANCH  42  43
ENDBRANCH  41  42
ENDBRANCH   1  41
TORSDOF 27
ENDMDL
