MODEL 1
REMARK VINA RESULT:      -9.9      0.000      0.000
REMARK SMILES Nc1cc(F)c(OCc2ccc(C(=O)OCCOCCOCCOC(=O)c3ccc(-c4c5nc(c(-c6cccc(S(=O)(=O)[O-])c6F)c6ccc([nH]6)c(-c6cccc(S(=O)(=O)[O-])c6F)c6nc(c(-c7cccc(S(=O)(=O)[O-])c7F)c7ccc4[nH]7)C=C6)C=C5)cc3)cc2)cc1F
REMARK SMILES IDX 19 1 18 2 17 3 16 4 15 5 13 6 14 7 12 8 9 9 10 10 91 11
REMARK SMILES IDX 11 12 90 13 8 14 7 15 6 16 2 17 3 18 93 19 4 20 92 21 94 22
REMARK SMILES IDX 5 23 1 24 20 27 21 28 22 29 23 30 24 31 25 32 26 33 27 34
REMARK SMILES IDX 28 35 89 36 29 37 88 38 30 39 31 40 32 41 82 42 33 43 87 44
REMARK SMILES IDX 81 45 83 46 34 47 86 48 80 49 79 50 35 52 67 53 47 54 66 55
REMARK SMILES IDX 48 56 51 57 65 58 84 59 49 60 50 61 64 63 85 64 52 65 36 66
REMARK SMILES IDX 37 67 45 68 38 69 40 70 46 71 39 72 41 73 42 74 43 75 44 76
REMARK SMILES IDX 68 77 69 78 77 79 70 80 72 81 78 82 71 83 73 84 74 85 75 86
REMARK SMILES IDX 76 87 53 88 54 89 62 90 55 91 57 92 63 93 56 94 58 95 59 96
REMARK SMILES IDX 60 97 61 98
REMARK H PARENT 1 25 1 26 83 51 51 62
REMARK Flexibility Score: inf
ROOT
ATOM      1  C   UNL A   1      32.845  23.238  27.168  1.00  0.00     0.188 C 
ENDROOT
BRANCH   1   2
ATOM      2  O   UNL A   1      32.527  21.877  26.960  1.00  0.00    -0.376 OA
BRANCH   2   3
ATOM      3  C   UNL A   1      31.912  21.452  25.755  1.00  0.00     0.202 C 
BRANCH   3   4
ATOM      4  C   UNL A   1      32.624  20.623  24.677  1.00  0.00     0.261 C 
BRANCH   4   5
ATOM      5  O   UNL A   1      33.263  21.373  23.640  1.00  0.00    -0.460 OA
BRANCH   5   6
ATOM      6  C   UNL A   1      32.435  21.803  22.649  1.00  0.00     0.338 C 
ATOM      7  O   UNL A   1      31.775  21.109  21.897  1.00  0.00    -0.246 OA
BRANCH   6   8
ATOM      8  C   UNL A   1      32.285  23.271  22.737  1.00  0.00     0.060 A 
ATOM      9  C   UNL A   1      32.051  26.066  22.728  1.00  0.00    -0.011 A 
ATOM     10  C   UNL A   1      33.255  25.455  22.352  1.00  0.00     0.008 A 
ATOM     11  C   UNL A   1      30.975  25.259  23.137  1.00  0.00     0.008 A 
ATOM     12  C   UNL A   1      33.375  24.064  22.359  1.00  0.00     0.016 A 
ATOM     13  C   UNL A   1      31.084  23.866  23.128  1.00  0.00     0.016 A 
BRANCH   9  14
ATOM     14  C   UNL A   1      31.950  27.579  22.730  1.00  0.00     0.265 C 
BRANCH  14  15
ATOM     15  O   UNL A   1      31.186  28.102  23.821  1.00  0.00    -0.486 OA
BRANCH  15  16
ATOM     16  C   UNL A   1      31.845  28.654  24.886  1.00  0.00     0.158 A 
ATOM     17  C   UNL A   1      33.073  30.051  27.018  1.00  0.00     0.071 A 
ATOM     18  C   UNL A   1      32.007  30.620  26.329  1.00  0.00     0.071 A 
ATOM     19  C   UNL A   1      33.519  28.788  26.610  1.00  0.00     0.149 A 
ATOM     20  C   UNL A   1      31.401  29.922  25.282  1.00  0.00     0.167 A 
ATOM     21  C   UNL A   1      32.913  28.082  25.571  1.00  0.00     0.091 A 
ATOM     22  F   UNL A   1      34.558  28.224  27.244  1.00  0.00    -0.205 F 
ATOM     23  F   UNL A   1      30.379  30.506  24.635  1.00  0.00    -0.203 F 
BRANCH  17  24
ATOM     24  N   UNL A   1      33.753  30.765  27.996  1.00  0.00    -0.396 N 
ATOM     25  H   UNL A   1      33.441  30.740  28.930  1.00  0.00     0.156 HD
ATOM     26  H   UNL A   1      34.546  31.296  27.756  1.00  0.00     0.156 HD
ENDBRANCH  17  24
ENDBRANCH  15  16
ENDBRANCH  14  15
ENDBRANCH   9  14
ENDBRANCH   6   8
ENDBRANCH   5   6
ENDBRANCH   4   5
ENDBRANCH   3   4
ENDBRANCH   2   3
ENDBRANCH   1   2
BRANCH   1  27
ATOM     27  C   UNL A   1      33.617  24.027  26.089  1.00  0.00     0.188 C 
BRANCH  27  28
ATOM     28  O   UNL A   1      34.816  23.515  25.544  1.00  0.00    -0.376 OA
BRANCH  28  29
ATOM     29  C   UNL A   1      35.578  22.564  26.267  1.00  0.00     0.202 C 
BRANCH  29  30
ATOM     30  C   UNL A   1      36.354  21.410  25.612  1.00  0.00     0.261 C 
BRANCH  30  31
ATOM     31  O   UNL A   1      37.615  21.748  25.031  1.00  0.00    -0.460 OA
BRANCH  31  32
ATOM     32  C   UNL A   1      38.704  21.332  25.731  1.00  0.00     0.338 C 
ATOM     33  O   UNL A   1      39.183  20.211  25.757  1.00  0.00    -0.246 OA
BRANCH  32  34
ATOM     34  C   UNL A   1      39.331  22.512  26.351  1.00  0.00     0.060 A 
ATOM     35  C   UNL A   1      40.361  22.356  27.277  1.00  0.00     0.016 A 
ATOM     36  C   UNL A   1      38.880  23.788  25.992  1.00  0.00     0.016 A 
ATOM     37  C   UNL A   1      40.954  23.491  27.835  1.00  0.00     0.010 A 
ATOM     38  C   UNL A   1      39.468  24.921  26.557  1.00  0.00     0.010 A 
ATOM     39  C   UNL A   1      40.520  24.779  27.473  1.00  0.00    -0.014 A 
BRANCH  39  40
ATOM     40  C   UNL A   1      41.277  25.969  27.929  1.00  0.00     0.031 A 
ATOM     41  C   UNL A   1      40.672  26.998  28.834  1.00  0.00     0.074 A 
ATOM     42  C   UNL A   1      42.540  26.119  27.486  1.00  0.00     0.049 A 
ATOM     43  N   UNL A   1      41.249  28.036  29.385  1.00  0.00    -0.248 NA
ATOM     44  C   UNL A   1      39.245  26.857  29.162  1.00  0.00     0.031 C 
ATOM     45  C   UNL A   1      43.210  25.219  26.545  1.00  0.00     0.029 A 
ATOM     46  N   UNL A   1      43.480  27.078  27.760  1.00  0.00    -0.354 N 
ATOM     47  C   UNL A   1      40.262  28.675  30.124  1.00  0.00     0.074 A 
ATOM     48  C   UNL A   1      39.041  27.918  29.935  1.00  0.00     0.031 C 
ATOM     49  C   UNL A   1      44.459  25.659  26.332  1.00  0.00     0.029 A 
ATOM     50  C   UNL A   1      44.674  26.875  27.111  1.00  0.00     0.049 A 
ATOM     51  H   UNL A   1      43.316  27.839  28.363  1.00  0.00     0.167 HD
ATOM     52  C   UNL A   1      40.377  29.774  30.907  1.00  0.00     0.034 A 
ATOM     53  C   UNL A   1      45.821  27.580  27.145  1.00  0.00     0.034 A 
ATOM     54  C   UNL A   1      41.598  30.510  31.104  1.00  0.00     0.049 A 
ATOM     55  C   UNL A   1      45.926  28.781  28.037  1.00  0.00     0.074 A 
ATOM     56  C   UNL A   1      41.817  31.595  31.939  1.00  0.00     0.029 A 
ATOM     57  N   UNL A   1      42.797  30.256  30.459  1.00  0.00    -0.354 N 
ATOM     58  N   UNL A   1      45.024  29.283  28.845  1.00  0.00    -0.248 NA
ATOM     59  C   UNL A   1      47.211  29.497  28.051  1.00  0.00     0.031 C 
ATOM     60  C   UNL A   1      43.144  32.006  31.784  1.00  0.00     0.029 A 
ATOM     61  C   UNL A   1      43.757  31.168  30.868  1.00  0.00     0.049 A 
ATOM     62  H   UNL A   1      42.945  29.535  29.806  1.00  0.00     0.167 HD
ATOM     63  C   UNL A   1      45.637  30.356  29.479  1.00  0.00     0.074 A 
ATOM     64  C   UNL A   1      46.992  30.426  28.972  1.00  0.00     0.031 C 
ATOM     65  C   UNL A   1      45.115  31.209  30.392  1.00  0.00     0.034 A 
BRANCH  52  66
ATOM     66  C   UNL A   1      39.170  30.231  31.680  1.00  0.00     0.023 A 
ATOM     67  C   UNL A   1      39.094  29.938  33.056  1.00  0.00     0.012 A 
ATOM     68  C   UNL A   1      38.202  31.067  31.091  1.00  0.00     0.148 A 
ATOM     69  C   UNL A   1      38.069  30.468  33.836  1.00  0.00     0.002 A 
ATOM     70  C   UNL A   1      37.199  31.614  31.882  1.00  0.00     0.091 A 
ATOM     71  F   UNL A   1      38.296  31.326  29.780  1.00  0.00    -0.205 F 
ATOM     72  C   UNL A   1      37.129  31.315  33.253  1.00  0.00     0.022 A 
BRANCH  70  73
ATOM     73  S   UNL A   1      35.972  32.763  31.244  1.00  0.00     0.127 S 
ATOM     74  O   UNL A   1      35.429  32.015  30.111  1.00  0.00    -0.237 OA
ATOM     75  O   UNL A   1      35.060  32.899  32.379  1.00  0.00    -0.237 OA
ATOM     76  O   UNL A   1      36.698  33.975  30.891  1.00  0.00    -0.744 OA
ENDBRANCH  70  73
ENDBRANCH  52  66
BRANCH  53  77
ATOM     77  C   UNL A   1      46.986  27.099  26.357  1.00  0.00     0.023 A 
ATOM     78  C   UNL A   1      47.820  26.104  26.900  1.00  0.00     0.012 A 
ATOM     79  C   UNL A   1      47.218  27.563  25.049  1.00  0.00     0.148 A 
ATOM     80  C   UNL A   1      48.877  25.583  26.154  1.00  0.00     0.002 A 
ATOM     81  C   UNL A   1      48.247  27.012  24.297  1.00  0.00     0.091 A 
ATOM     82  F   UNL A   1      46.403  28.508  24.560  1.00  0.00    -0.205 F 
ATOM     83  C   UNL A   1      49.083  26.029  24.850  1.00  0.00     0.022 A 
BRANCH  81  84
ATOM     84  S   UNL A   1      48.532  27.448  22.578  1.00  0.00     0.127 S 
ATOM     85  O   UNL A   1      49.779  28.204  22.666  1.00  0.00    -0.237 OA
ATOM     86  O   UNL A   1      48.652  26.131  21.953  1.00  0.00    -0.237 OA
ATOM     87  O   UNL A   1      47.365  28.214  22.164  1.00  0.00    -0.744 OA
ENDBRANCH  81  84
ENDBRANCH  53  77
BRANCH  65  88
ATOM     88  C   UNL A   1      45.998  32.302  30.931  1.00  0.00     0.023 A 
ATOM     89  C   UNL A   1      45.991  33.565  30.309  1.00  0.00     0.012 A 
ATOM     90  C   UNL A   1      46.729  32.115  32.119  1.00  0.00     0.148 A 
ATOM     91  C   UNL A   1      46.706  34.627  30.860  1.00  0.00     0.002 A 
ATOM     92  C   UNL A   1      47.412  33.186  32.682  1.00  0.00     0.091 A 
ATOM     93  F   UNL A   1      46.725  30.900  32.686  1.00  0.00    -0.205 F 
ATOM     94  C   UNL A   1      47.405  34.442  32.052  1.00  0.00     0.022 A 
BRANCH  92  95
ATOM     95  S   UNL A   1      48.283  33.068  34.250  1.00  0.00     0.127 S 
ATOM     96  O   UNL A   1      47.211  32.658  35.156  1.00  0.00    -0.237 OA
ATOM     97  O   UNL A   1      49.278  32.033  33.972  1.00  0.00    -0.237 OA
ATOM     98  O   UNL A   1      48.835  34.392  34.506  1.00  0.00    -0.744 OA
ENDBRANCH  92  95
ENDBRANCH  65  88
ENDBRANCH  39  40
ENDBRANCH  32  34
ENDBRANCH  31  32
ENDBRANCH  30  31
ENDBRANCH  29  30
ENDBRANCH  28  29
ENDBRANCH  27  28
ENDBRANCH   1  27
TORSDOF 24
ENDMDL
MODEL 2
REMARK VINA RESULT:      -9.6      2.012      2.241
REMARK SMILES Nc1cc(F)c(OCc2ccc(C(=O)OCCOCCOCCOC(=O)c3ccc(-c4c5nc(c(-c6cccc(S(=O)(=O)[O-])c6F)c6ccc([nH]6)c(-c6cccc(S(=O)(=O)[O-])c6F)c6nc(c(-c7cccc(S(=O)(=O)[O-])c7F)c7ccc4[nH]7)C=C6)C=C5)cc3)cc2)cc1F
REMARK SMILES IDX 19 1 18 2 17 3 16 4 15 5 13 6 14 7 12 8 9 9 10 10 91 11
REMARK SMILES IDX 11 12 90 13 8 14 7 15 6 16 2 17 3 18 93 19 4 20 92 21 94 22
REMARK SMILES IDX 5 23 1 24 20 27 21 28 22 29 23 30 24 31 25 32 26 33 27 34
REMARK SMILES IDX 28 35 89 36 29 37 88 38 30 39 31 40 32 41 82 42 33 43 87 44
REMARK SMILES IDX 81 45 83 46 34 47 86 48 80 49 79 50 35 52 67 53 47 54 66 55
REMARK SMILES IDX 48 56 51 57 65 58 84 59 49 60 50 61 64 63 85 64 52 65 36 66
REMARK SMILES IDX 37 67 45 68 38 69 40 70 46 71 39 72 41 73 42 74 43 75 44 76
REMARK SMILES IDX 68 77 69 78 77 79 70 80 72 81 78 82 71 83 73 84 74 85 75 86
REMARK SMILES IDX 76 87 53 88 54 89 62 90 55 91 57 92 63 93 56 94 58 95 59 96
REMARK SMILES IDX 60 97 61 98
REMARK H PARENT 1 25 1 26 83 51 51 62
REMARK Flexibility Score: inf
ROOT
ATOM      1  C   UNL A   1      33.493  22.946  27.292  1.00  0.00     0.188 C 
ENDROOT
BRANCH   1   2
ATOM      2  O   UNL A   1      33.177  21.575  27.158  1.00  0.00    -0.376 OA
BRANCH   2   3
ATOM      3  C   UNL A   1      32.543  21.089  25.987  1.00  0.00     0.202 C 
BRANCH   3   4
ATOM      4  C   UNL A   1      33.292  20.436  24.817  1.00  0.00     0.261 C 
BRANCH   4   5
ATOM      5  O   UNL A   1      33.565  21.291  23.702  1.00  0.00    -0.460 OA
BRANCH   5   6
ATOM      6  C   UNL A   1      32.501  21.532  22.889  1.00  0.00     0.338 C 
ATOM      7  O   UNL A   1      31.779  20.702  22.367  1.00  0.00    -0.246 OA
BRANCH   6   8
ATOM      8  C   UNL A   1      32.208  22.981  22.881  1.00  0.00     0.060 A 
ATOM      9  C   UNL A   1      31.661  25.725  22.682  1.00  0.00    -0.011 A 
ATOM     10  C   UNL A   1      32.816  25.188  22.096  1.00  0.00     0.008 A 
ATOM     11  C   UNL A   1      30.799  24.873  23.394  1.00  0.00     0.008 A 
ATOM     12  C   UNL A   1      33.092  23.824  22.197  1.00  0.00     0.016 A 
ATOM     13  C   UNL A   1      31.061  23.503  23.483  1.00  0.00     0.016 A 
BRANCH   9  14
ATOM     14  C   UNL A   1      31.392  27.213  22.575  1.00  0.00     0.265 C 
BRANCH  14  15
ATOM     15  O   UNL A   1      30.700  27.754  23.705  1.00  0.00    -0.486 OA
BRANCH  15  16
ATOM     16  C   UNL A   1      31.423  28.142  24.800  1.00  0.00     0.158 A 
ATOM     17  C   UNL A   1      33.128  29.037  26.874  1.00  0.00     0.071 A 
ATOM     18  C   UNL A   1      33.378  29.402  25.554  1.00  0.00     0.071 A 
ATOM     19  C   UNL A   1      32.028  28.209  27.129  1.00  0.00     0.149 A 
ATOM     20  C   UNL A   1      32.529  28.962  24.537  1.00  0.00     0.167 A 
ATOM     21  C   UNL A   1      31.171  27.773  26.118  1.00  0.00     0.091 A 
ATOM     22  F   UNL A   1      31.776  27.827  28.389  1.00  0.00    -0.205 F 
ATOM     23  F   UNL A   1      32.805  29.328  23.275  1.00  0.00    -0.203 F 
BRANCH  17  24
ATOM     24  N   UNL A   1      34.012  29.381  27.888  1.00  0.00    -0.396 N 
ATOM     25  H   UNL A   1      34.835  29.878  27.676  1.00  0.00     0.156 HD
ATOM     26  H   UNL A   1      33.815  29.128  28.819  1.00  0.00     0.156 HD
ENDBRANCH  17  24
ENDBRANCH  15  16
ENDBRANCH  14  15
ENDBRANCH   9  14
ENDBRANCH   6   8
ENDBRANCH   5   6
ENDBRANCH   4   5
ENDBRANCH   3   4
ENDBRANCH   2   3
ENDBRANCH   1   2
BRANCH   1  27
ATOM     27  C   UNL A   1      33.994  23.750  26.072  1.00  0.00     0.188 C 
BRANCH  27  28
ATOM     28  O   UNL A   1      35.185  23.381  25.409  1.00  0.00    -0.376 OA
BRANCH  28  29
ATOM     29  C   UNL A   1      36.226  22.733  26.120  1.00  0.00     0.202 C 
BRANCH  29  30
ATOM     30  C   UNL A   1      36.861  21.402  25.689  1.00  0.00     0.261 C 
BRANCH  30  31
ATOM     31  O   UNL A   1      38.201  21.472  25.197  1.00  0.00    -0.460 OA
BRANCH  31  32
ATOM     32  C   UNL A   1      39.170  21.270  26.128  1.00  0.00     0.338 C 
ATOM     33  O   UNL A   1      39.649  20.205  26.478  1.00  0.00    -0.246 OA
BRANCH  32  34
ATOM     34  C   UNL A   1      39.681  22.584  26.553  1.00  0.00     0.060 A 
ATOM     35  C   UNL A   1      40.580  22.680  27.615  1.00  0.00     0.016 A 
ATOM     36  C   UNL A   1      39.255  23.732  25.873  1.00  0.00     0.016 A 
ATOM     37  C   UNL A   1      41.066  23.935  27.986  1.00  0.00     0.010 A 
ATOM     38  C   UNL A   1      39.736  24.986  26.250  1.00  0.00     0.010 A 
ATOM     39  C   UNL A   1      40.656  25.095  27.301  1.00  0.00    -0.014 A 
BRANCH  39  40
ATOM     40  C   UNL A   1      41.318  26.391  27.582  1.00  0.00     0.031 A 
ATOM     41  C   UNL A   1      40.631  27.488  28.335  1.00  0.00     0.074 A 
ATOM     42  C   UNL A   1      42.569  26.572  27.119  1.00  0.00     0.049 A 
ATOM     43  N   UNL A   1      41.123  28.634  28.732  1.00  0.00    -0.248 NA
ATOM     44  C   UNL A   1      39.215  27.287  28.684  1.00  0.00     0.031 C 
ATOM     45  C   UNL A   1      43.313  25.602  26.312  1.00  0.00     0.029 A 
ATOM     46  N   UNL A   1      43.432  27.629  27.252  1.00  0.00    -0.354 N 
ATOM     47  C   UNL A   1      40.085  29.295  29.376  1.00  0.00     0.074 A 
ATOM     48  C   UNL A   1      38.926  28.429  29.300  1.00  0.00     0.031 C 
ATOM     49  C   UNL A   1      44.526  26.101  26.036  1.00  0.00     0.029 A 
ATOM     50  C   UNL A   1      44.643  27.428  26.634  1.00  0.00     0.049 A 
ATOM     51  H   UNL A   1      43.206  28.452  27.742  1.00  0.00     0.167 HD
ATOM     52  C   UNL A   1      40.111  30.499  29.995  1.00  0.00     0.034 A 
ATOM     53  C   UNL A   1      45.734  28.215  26.565  1.00  0.00     0.034 A 
ATOM     54  C   UNL A   1      41.271  31.346  30.083  1.00  0.00     0.049 A 
ATOM     55  C   UNL A   1      45.741  29.535  27.278  1.00  0.00     0.074 A 
ATOM     56  C   UNL A   1      41.401  32.551  30.755  1.00  0.00     0.029 A 
ATOM     57  N   UNL A   1      42.491  31.095  29.476  1.00  0.00    -0.354 N 
ATOM     58  N   UNL A   1      44.797  30.076  28.009  1.00  0.00    -0.248 NA
ATOM     59  C   UNL A   1      46.967  30.340  27.186  1.00  0.00     0.031 C 
ATOM     60  C   UNL A   1      42.694  33.036  30.540  1.00  0.00     0.029 A 
ATOM     61  C   UNL A   1      43.376  32.125  29.750  1.00  0.00     0.049 A 
ATOM     62  H   UNL A   1      42.698  30.302  28.931  1.00  0.00     0.167 HD
ATOM     63  C   UNL A   1      45.322  31.271  28.484  1.00  0.00     0.074 A 
ATOM     64  C   UNL A   1      46.672  31.371  27.968  1.00  0.00     0.031 C 
ATOM     65  C   UNL A   1      44.730  32.202  29.269  1.00  0.00     0.034 A 
BRANCH  52  66
ATOM     66  C   UNL A   1      38.867  30.967  30.700  1.00  0.00     0.023 A 
ATOM     67  C   UNL A   1      38.824  30.919  32.107  1.00  0.00     0.012 A 
ATOM     68  C   UNL A   1      37.819  31.587  29.992  1.00  0.00     0.148 A 
ATOM     69  C   UNL A   1      37.754  31.479  32.802  1.00  0.00     0.002 A 
ATOM     70  C   UNL A   1      36.768  32.167  30.693  1.00  0.00     0.091 A 
ATOM     71  F   UNL A   1      37.883  31.615  28.654  1.00  0.00    -0.205 F 
ATOM     72  C   UNL A   1      36.733  32.113  32.098  1.00  0.00     0.022 A 
BRANCH  70  73
ATOM     73  S   UNL A   1      35.432  33.058  29.888  1.00  0.00     0.127 S 
ATOM     74  O   UNL A   1      36.165  34.096  29.163  1.00  0.00    -0.237 OA
ATOM     75  O   UNL A   1      34.841  32.024  29.039  1.00  0.00    -0.237 OA
ATOM     76  O   UNL A   1      34.570  33.545  30.955  1.00  0.00    -0.744 OA
ENDBRANCH  70  73
ENDBRANCH  52  66
BRANCH  53  77
ATOM     77  C   UNL A   1      46.937  27.717  25.849  1.00  0.00     0.023 A 
ATOM     78  C   UNL A   1      47.858  26.904  26.535  1.00  0.00     0.012 A 
ATOM     79  C   UNL A   1      47.127  27.979  24.479  1.00  0.00     0.148 A 
ATOM     80  C   UNL A   1      48.958  26.364  25.869  1.00  0.00     0.002 A 
ATOM     81  C   UNL A   1      48.202  27.407  23.813  1.00  0.00     0.091 A 
ATOM     82  F   UNL A   1      46.230  28.755  23.855  1.00  0.00    -0.205 F 
ATOM     83  C   UNL A   1      49.123  26.606  24.507  1.00  0.00     0.022 A 
BRANCH  81  84
ATOM     84  S   UNL A   1      48.447  27.579  22.042  1.00  0.00     0.127 S 
ATOM     85  O   UNL A   1      49.642  28.418  21.987  1.00  0.00    -0.237 OA
ATOM     86  O   UNL A   1      48.650  26.189  21.633  1.00  0.00    -0.237 OA
ATOM     87  O   UNL A   1      47.229  28.192  21.530  1.00  0.00    -0.744 OA
ENDBRANCH  81  84
ENDBRANCH  53  77
BRANCH  65  88
ATOM     88  C   UNL A   1      45.524  33.423  29.645  1.00  0.00     0.023 A 
ATOM     89  C   UNL A   1      46.334  33.394  30.796  1.00  0.00     0.012 A 
ATOM     90  C   UNL A   1      45.565  34.544  28.793  1.00  0.00     0.148 A 
ATOM     91  C   UNL A   1      47.171  34.468  31.098  1.00  0.00     0.002 A 
ATOM     92  C   UNL A   1      46.426  35.596  29.081  1.00  0.00     0.091 A 
ATOM     93  F   UNL A   1      44.777  34.549  27.708  1.00  0.00    -0.205 F 
ATOM     94  C   UNL A   1      47.226  35.561  30.236  1.00  0.00     0.022 A 
BRANCH  92  95
ATOM     95  S   UNL A   1      46.623  37.016  27.998  1.00  0.00     0.127 S 
ATOM     96  O   UNL A   1      47.578  37.832  28.747  1.00  0.00    -0.237 OA
ATOM     97  O   UNL A   1      47.162  36.405  26.784  1.00  0.00    -0.237 OA
ATOM     98  O   UNL A   1      45.295  37.599  27.850  1.00  0.00    -0.744 OA
ENDBRANCH  92  95
ENDBRANCH  65  88
ENDBRANCH  39  40
ENDBRANCH  32  34
ENDBRANCH  31  32
ENDBRANCH  30  31
ENDBRANCH  29  30
ENDBRANCH  28  29
ENDBRANCH  27  28
ENDBRANCH   1  27
TORSDOF 24
ENDMDL
MODEL 3
REMARK VINA RESULT:      -9.2      5.787     10.676
REMARK SMILES Nc1cc(F)c(OCc2ccc(C(=O)OCCOCCOCCOC(=O)c3ccc(-c4c5nc(c(-c6cccc(S(=O)(=O)[O-])c6F)c6ccc([nH]6)c(-c6cccc(S(=O)(=O)[O-])c6F)c6nc(c(-c7cccc(S(=O)(=O)[O-])c7F)c7ccc4[nH]7)C=C6)C=C5)cc3)cc2)cc1F
REMARK SMILES IDX 19 1 18 2 17 3 16 4 15 5 13 6 14 7 12 8 9 9 10 10 91 11
REMARK SMILES IDX 11 12 90 13 8 14 7 15 6 16 2 17 3 18 93 19 4 20 92 21 94 22
REMARK SMILES IDX 5 23 1 24 20 27 21 28 22 29 23 30 24 31 25 32 26 33 27 34
REMARK SMILES IDX 28 35 89 36 29 37 88 38 30 39 31 40 32 41 82 42 33 43 87 44
REMARK SMILES IDX 81 45 83 46 34 47 86 48 80 49 79 50 35 52 67 53 47 54 66 55
REMARK SMILES IDX 48 56 51 57 65 58 84 59 49 60 50 61 64 63 85 64 52 65 36 66
REMARK SMILES IDX 37 67 45 68 38 69 40 70 46 71 39 72 41 73 42 74 43 75 44 76
REMARK SMILES IDX 68 77 69 78 77 79 70 80 72 81 78 82 71 83 73 84 74 85 75 86
REMARK SMILES IDX 76 87 53 88 54 89 62 90 55 91 57 92 63 93 56 94 58 95 59 96
REMARK SMILES IDX 60 97 61 98
REMARK H PARENT 1 25 1 26 83 51 51 62
REMARK Flexibility Score: inf
ROOT
ATOM      1  C   UNL A   1      40.011  28.807  26.955  1.00  0.00     0.188 C 
ENDROOT
BRANCH   1   2
ATOM      2  O   UNL A   1      41.403  28.809  26.716  1.00  0.00    -0.376 OA
BRANCH   2   3
ATOM      3  C   UNL A   1      42.048  27.665  26.181  1.00  0.00     0.202 C 
BRANCH   3   4
ATOM      4  C   UNL A   1      41.330  26.342  25.879  1.00  0.00     0.261 C 
BRANCH   4   5
ATOM      5  O   UNL A   1      41.563  25.284  26.813  1.00  0.00    -0.460 OA
BRANCH   5   6
ATOM      6  C   UNL A   1      40.494  24.958  27.589  1.00  0.00     0.338 C 
ATOM      7  O   UNL A   1      40.159  25.492  28.631  1.00  0.00    -0.246 OA
BRANCH   6   8
ATOM      8  C   UNL A   1      39.653  23.971  26.878  1.00  0.00     0.060 A 
ATOM      9  C   UNL A   1      38.075  21.988  25.675  1.00  0.00    -0.011 A 
ATOM     10  C   UNL A   1      39.369  21.689  26.125  1.00  0.00     0.008 A 
ATOM     11  C   UNL A   1      37.594  23.303  25.809  1.00  0.00     0.008 A 
ATOM     12  C   UNL A   1      40.157  22.675  26.721  1.00  0.00     0.016 A 
ATOM     13  C   UNL A   1      38.372  24.289  26.421  1.00  0.00     0.016 A 
BRANCH   9  14
ATOM     14  C   UNL A   1      37.245  20.906  25.014  1.00  0.00     0.265 C 
BRANCH  14  15
ATOM     15  O   UNL A   1      35.835  21.140  25.085  1.00  0.00    -0.486 OA
BRANCH  15  16
ATOM     16  C   UNL A   1      34.979  20.091  24.884  1.00  0.00     0.158 A 
ATOM     17  C   UNL A   1      32.995  18.097  24.580  1.00  0.00     0.071 A 
ATOM     18  C   UNL A   1      32.631  19.411  24.859  1.00  0.00     0.071 A 
ATOM     19  C   UNL A   1      34.360  17.802  24.476  1.00  0.00     0.149 A 
ATOM     20  C   UNL A   1      33.616  20.391  25.001  1.00  0.00     0.167 A 
ATOM     21  C   UNL A   1      35.347  18.778  24.608  1.00  0.00     0.091 A 
ATOM     22  F   UNL A   1      34.739  16.539  24.227  1.00  0.00    -0.205 F 
ATOM     23  F   UNL A   1      33.227  21.647  25.277  1.00  0.00    -0.203 F 
BRANCH  17  24
ATOM     24  N   UNL A   1      32.042  17.088  24.531  1.00  0.00    -0.396 N 
ATOM     25  H   UNL A   1      32.255  16.192  24.879  1.00  0.00     0.156 HD
ATOM     26  H   UNL A   1      31.153  17.269  24.148  1.00  0.00     0.156 HD
ENDBRANCH  17  24
ENDBRANCH  15  16
ENDBRANCH  14  15
ENDBRANCH   9  14
ENDBRANCH   6   8
ENDBRANCH   5   6
ENDBRANCH   4   5
ENDBRANCH   3   4
ENDBRANCH   2   3
ENDBRANCH   1   2
BRANCH   1  27
ATOM     27  C   UNL A   1      39.471  28.821  28.401  1.00  0.00     0.188 C 
BRANCH  27  28
ATOM     28  O   UNL A   1      38.105  29.076  28.656  1.00  0.00    -0.376 OA
BRANCH  28  29
ATOM     29  C   UNL A   1      37.583  30.385  28.502  1.00  0.00     0.202 C 
BRANCH  29  30
ATOM     30  C   UNL A   1      36.786  31.124  29.588  1.00  0.00     0.261 C 
BRANCH  30  31
ATOM     31  O   UNL A   1      37.452  31.316  30.838  1.00  0.00    -0.460 OA
BRANCH  31  32
ATOM     32  C   UNL A   1      37.254  30.334  31.755  1.00  0.00     0.338 C 
ATOM     33  O   UNL A   1      36.188  29.909  32.165  1.00  0.00    -0.246 OA
BRANCH  32  34
ATOM     34  C   UNL A   1      38.561  29.733  32.076  1.00  0.00     0.060 A 
ATOM     35  C   UNL A   1      38.672  28.359  32.281  1.00  0.00     0.016 A 
ATOM     36  C   UNL A   1      39.685  30.562  32.168  1.00  0.00     0.016 A 
ATOM     37  C   UNL A   1      39.925  27.811  32.564  1.00  0.00     0.010 A 
ATOM     38  C   UNL A   1      40.935  30.014  32.459  1.00  0.00     0.010 A 
ATOM     39  C   UNL A   1      41.066  28.631  32.645  1.00  0.00    -0.014 A 
BRANCH  39  40
ATOM     40  C   UNL A   1      42.409  28.018  32.761  1.00  0.00     0.031 A 
ATOM     41  C   UNL A   1      43.189  27.575  31.561  1.00  0.00     0.074 A 
ATOM     42  C   UNL A   1      42.917  27.844  33.996  1.00  0.00     0.049 A 
ATOM     43  N   UNL A   1      44.411  27.110  31.511  1.00  0.00    -0.248 NA
ATOM     44  C   UNL A   1      42.521  27.653  30.252  1.00  0.00     0.031 C 
ATOM     45  C   UNL A   1      42.220  28.171  35.242  1.00  0.00     0.029 A 
ATOM     46  N   UNL A   1      44.126  27.348  34.409  1.00  0.00    -0.354 N 
ATOM     47  C   UNL A   1      44.665  26.839  30.173  1.00  0.00     0.074 A 
ATOM     48  C   UNL A   1      43.458  27.172  29.442  1.00  0.00     0.031 C 
ATOM     49  C   UNL A   1      43.019  27.882  36.280  1.00  0.00     0.029 A 
ATOM     50  C   UNL A   1      44.278  27.341  35.774  1.00  0.00     0.049 A 
ATOM     51  H   UNL A   1      44.819  27.027  33.788  1.00  0.00     0.167 HD
ATOM     52  C   UNL A   1      45.807  26.380  29.610  1.00  0.00     0.034 A 
ATOM     53  C   UNL A   1      45.317  26.955  36.540  1.00  0.00     0.034 A 
ATOM     54  C   UNL A   1      47.008  26.069  30.339  1.00  0.00     0.049 A 
ATOM     55  C   UNL A   1      46.577  26.471  35.887  1.00  0.00     0.074 A 
ATOM     56  C   UNL A   1      48.235  25.667  29.835  1.00  0.00     0.029 A 
ATOM     57  N   UNL A   1      47.138  26.107  31.718  1.00  0.00    -0.354 N 
ATOM     58  N   UNL A   1      46.849  26.363  34.609  1.00  0.00    -0.248 NA
ATOM     59  C   UNL A   1      47.685  26.085  36.773  1.00  0.00     0.031 C 
ATOM     60  C   UNL A   1      49.100  25.446  30.911  1.00  0.00     0.029 A 
ATOM     61  C   UNL A   1      48.419  25.727  32.083  1.00  0.00     0.049 A 
ATOM     62  H   UNL A   1      46.425  26.365  32.345  1.00  0.00     0.167 HD
ATOM     63  C   UNL A   1      48.164  25.921  34.537  1.00  0.00     0.074 A 
ATOM     64  C   UNL A   1      48.640  25.792  35.899  1.00  0.00     0.031 C 
ATOM     65  C   UNL A   1      48.901  25.640  33.437  1.00  0.00     0.034 A 
BRANCH  52  66
ATOM     66  C   UNL A   1      45.862  26.245  28.112  1.00  0.00     0.023 A 
ATOM     67  C   UNL A   1      46.397  27.304  27.353  1.00  0.00     0.012 A 
ATOM     68  C   UNL A   1      45.532  25.031  27.479  1.00  0.00     0.148 A 
ATOM     69  C   UNL A   1      46.602  27.159  25.982  1.00  0.00     0.002 A 
ATOM     70  C   UNL A   1      45.765  24.884  26.117  1.00  0.00     0.091 A 
ATOM     71  F   UNL A   1      45.021  24.041  28.224  1.00  0.00    -0.205 F 
ATOM     72  C   UNL A   1      46.298  25.947  25.367  1.00  0.00     0.022 A 
BRANCH  70  73
ATOM     73  S   UNL A   1      45.463  23.347  25.236  1.00  0.00     0.127 S 
ATOM     74  O   UNL A   1      44.017  23.195  25.395  1.00  0.00    -0.237 OA
ATOM     75  O   UNL A   1      45.895  23.681  23.879  1.00  0.00    -0.237 OA
ATOM     76  O   UNL A   1      46.266  22.333  25.905  1.00  0.00    -0.744 OA
ENDBRANCH  70  73
ENDBRANCH  52  66
BRANCH  53  77
ATOM     77  C   UNL A   1      45.216  27.096  38.016  1.00  0.00     0.023 A 
ATOM     78  C   UNL A   1      44.810  25.991  38.787  1.00  0.00     0.012 A 
ATOM     79  C   UNL A   1      45.596  28.289  38.659  1.00  0.00     0.148 A 
ATOM     80  C   UNL A   1      44.776  26.073  40.178  1.00  0.00     0.002 A 
ATOM     81  C   UNL A   1      45.598  28.352  40.046  1.00  0.00     0.091 A 
ATOM     82  F   UNL A   1      45.981  29.322  37.897  1.00  0.00    -0.205 F 
ATOM     83  C   UNL A   1      45.180  27.249  40.807  1.00  0.00     0.022 A 
BRANCH  81  84
ATOM     84  S   UNL A   1      46.193  29.785  40.950  1.00  0.00     0.127 S 
ATOM     85  O   UNL A   1      46.483  29.209  42.261  1.00  0.00    -0.237 OA
ATOM     86  O   UNL A   1      47.370  30.164  40.168  1.00  0.00    -0.237 OA
ATOM     87  O   UNL A   1      45.105  30.753  40.920  1.00  0.00    -0.744 OA
ENDBRANCH  81  84
ENDBRANCH  53  77
BRANCH  65  88
ATOM     88  C   UNL A   1      50.317  25.170  33.631  1.00  0.00     0.023 A 
ATOM     89  C   UNL A   1      51.340  26.118  33.824  1.00  0.00     0.012 A 
ATOM     90  C   UNL A   1      50.609  23.797  33.750  1.00  0.00     0.148 A 
ATOM     91  C   UNL A   1      52.637  25.706  34.126  1.00  0.00     0.002 A 
ATOM     92  C   UNL A   1      51.896  23.395  34.085  1.00  0.00     0.091 A 
ATOM     93  F   UNL A   1      49.618  22.915  33.554  1.00  0.00    -0.205 F 
ATOM     94  C   UNL A   1      52.912  24.348  34.270  1.00  0.00     0.022 A 
BRANCH  92  95
ATOM     95  S   UNL A   1      52.335  21.674  34.362  1.00  0.00     0.127 S 
ATOM     96  O   UNL A   1      51.456  21.318  35.475  1.00  0.00    -0.237 OA
ATOM     97  O   UNL A   1      51.982  21.057  33.084  1.00  0.00    -0.237 OA
ATOM     98  O   UNL A   1      53.759  21.665  34.672  1.00  0.00    -0.744 OA
ENDBRANCH  92  95
ENDBRANCH  65  88
ENDBRANCH  39  40
ENDBRANCH  32  34
ENDBRANCH  31  32
ENDBRANCH  30  31
ENDBRANCH  29  30
ENDBRANCH  28  29
ENDBRANCH  27  28
ENDBRANCH   1  27
TORSDOF 24
ENDMDL
