MODEL 1
REMARK VINA RESULT:      -9.8      0.000      0.000
REMARK SMILES C[C@H](CC(=O)OCCOCCOCCOC(=O)c1ccc(-c2c3nc(c(-c4cccc(S(=O)(=O)[O-])c4F)c4ccc([nH]4)c(-c4cccc(S(=O)(=O)[O-])c4F)c4nc(c(-c5cccc(S(=O)(=O)[O-])c5F)c5ccc2[nH]5)C=C4)C=C3)cc1)NC(=O)Cn1nc2ccccn2c1=O
REMARK SMILES IDX 10 1 9 2 8 3 7 4 6 5 4 6 5 7 3 8 2 9 1 10 81 11 82 12 83 14
REMARK SMILES IDX 84 15 85 16 86 17 93 18 87 19 92 20 94 21 88 22 91 23 89 24
REMARK SMILES IDX 90 25 11 26 12 27 13 28 14 29 15 30 16 31 17 32 18 33 19 34
REMARK SMILES IDX 80 35 20 36 79 37 21 38 22 39 23 40 73 41 24 42 78 43 72 44
REMARK SMILES IDX 74 45 25 46 77 47 71 48 70 49 26 51 58 52 38 53 57 54 39 55
REMARK SMILES IDX 42 56 56 57 75 58 40 59 41 60 55 62 76 63 43 64 27 65 28 66
REMARK SMILES IDX 36 67 29 68 31 69 37 70 30 71 32 72 33 73 34 74 35 75 59 76
REMARK SMILES IDX 60 77 68 78 61 79 63 80 69 81 62 82 64 83 65 84 66 85 67 86
REMARK SMILES IDX 44 87 45 88 53 89 46 90 48 91 54 92 47 93 49 94 50 95 51 96
REMARK SMILES IDX 52 97
REMARK H PARENT 81 13 74 50 42 61
REMARK Flexibility Score: inf
ROOT
ATOM      1  C   UNL A   1      32.872  29.181  25.221  1.00  0.00     0.188 C 
ENDROOT
BRANCH   1   2
ATOM      2  O   UNL A   1      32.142  29.193  23.999  1.00  0.00    -0.376 OA
BRANCH   2   3
ATOM      3  C   UNL A   1      32.341  28.082  23.120  1.00  0.00     0.202 C 
BRANCH   3   4
ATOM      4  C   UNL A   1      33.657  27.306  23.298  1.00  0.00     0.261 C 
BRANCH   4   5
ATOM      5  O   UNL A   1      33.888  26.355  22.231  1.00  0.00    -0.463 OA
BRANCH   5   6
ATOM      6  C   UNL A   1      33.815  25.054  22.608  1.00  0.00     0.307 C 
ATOM      7  O   UNL A   1      33.595  24.129  21.832  1.00  0.00    -0.252 OA
BRANCH   6   8
ATOM      8  C   UNL A   1      34.286  24.823  24.024  1.00  0.00     0.147 C 
BRANCH   8   9
ATOM      9  C   UNL A   1      35.382  23.830  24.451  1.00  0.00     0.090 C 
ATOM     10  C   UNL A   1      35.892  23.929  25.873  1.00  0.00     0.031 C 
BRANCH   9  11
ATOM     11  N   UNL A   1      35.028  22.439  24.136  1.00  0.00    -0.351 N 
ATOM     12  C   UNL A   1      34.165  21.580  24.768  1.00  0.00     0.242 C 
ATOM     13  H   UNL A   1      35.483  22.065  23.347  1.00  0.00     0.163 HD
ATOM     14  O   UNL A   1      34.097  20.425  24.336  1.00  0.00    -0.273 OA
BRANCH  12  15
ATOM     15  C   UNL A   1      33.334  22.016  25.984  1.00  0.00     0.249 C 
BRANCH  15  16
ATOM     16  N   UNL A   1      32.061  22.629  25.640  1.00  0.00    -0.203 N 
ATOM     17  N   UNL A   1      31.650  22.790  24.311  1.00  0.00    -0.149 NA
ATOM     18  C   UNL A   1      31.453  23.613  26.424  1.00  0.00     0.350 A 
ATOM     19  C   UNL A   1      30.851  23.815  24.354  1.00  0.00     0.161 A 
ATOM     20  N   UNL A   1      30.694  24.360  25.583  1.00  0.00    -0.250 N 
ATOM     21  O   UNL A   1      31.650  23.862  27.602  1.00  0.00    -0.246 OA
ATOM     22  C   UNL A   1      30.168  24.506  23.240  1.00  0.00     0.050 A 
ATOM     23  C   UNL A   1      30.096  25.560  25.850  1.00  0.00     0.098 A 
ATOM     24  C   UNL A   1      29.725  25.756  23.476  1.00  0.00     0.005 A 
ATOM     25  C   UNL A   1      29.663  26.299  24.822  1.00  0.00     0.019 A 
ENDBRANCH  15  16
ENDBRANCH  12  15
ENDBRANCH   9  11
ENDBRANCH   8   9
ENDBRANCH   6   8
ENDBRANCH   5   6
ENDBRANCH   4   5
ENDBRANCH   3   4
ENDBRANCH   2   3
ENDBRANCH   1   2
BRANCH   1  26
ATOM     26  C   UNL A   1      32.413  30.202  26.274  1.00  0.00     0.188 C 
BRANCH  26  27
ATOM     27  O   UNL A   1      31.313  31.006  25.862  1.00  0.00    -0.376 OA
BRANCH  27  28
ATOM     28  C   UNL A   1      31.258  32.354  26.327  1.00  0.00     0.202 C 
BRANCH  28  29
ATOM     29  C   UNL A   1      32.472  32.833  27.132  1.00  0.00     0.261 C 
BRANCH  29  30
ATOM     30  O   UNL A   1      32.155  33.579  28.322  1.00  0.00    -0.460 OA
BRANCH  30  31
ATOM     31  C   UNL A   1      32.962  34.609  28.673  1.00  0.00     0.338 C 
ATOM     32  O   UNL A   1      32.668  35.791  28.714  1.00  0.00    -0.246 OA
BRANCH  31  33
ATOM     33  C   UNL A   1      34.191  34.027  29.268  1.00  0.00     0.060 A 
ATOM     34  C   UNL A   1      34.061  32.957  30.165  1.00  0.00     0.016 A 
ATOM     35  C   UNL A   1      35.459  34.461  28.872  1.00  0.00     0.016 A 
ATOM     36  C   UNL A   1      35.199  32.328  30.678  1.00  0.00     0.010 A 
ATOM     37  C   UNL A   1      36.594  33.836  29.390  1.00  0.00     0.010 A 
ATOM     38  C   UNL A   1      36.473  32.781  30.310  1.00  0.00    -0.014 A 
BRANCH  38  39
ATOM     39  C   UNL A   1      37.695  32.273  30.980  1.00  0.00     0.031 A 
ATOM     40  C   UNL A   1      38.552  31.283  30.242  1.00  0.00     0.074 A 
ATOM     41  C   UNL A   1      38.004  32.625  32.240  1.00  0.00     0.049 A 
ATOM     42  N   UNL A   1      39.586  30.604  30.664  1.00  0.00    -0.248 NA
ATOM     43  C   UNL A   1      38.187  31.020  28.840  1.00  0.00     0.031 C 
ATOM     44  C   UNL A   1      37.266  33.584  33.059  1.00  0.00     0.029 A 
ATOM     45  N   UNL A   1      39.010  32.180  33.065  1.00  0.00    -0.354 N 
ATOM     46  C   UNL A   1      39.976  29.810  29.595  1.00  0.00     0.074 A 
ATOM     47  C   UNL A   1      39.063  30.086  28.506  1.00  0.00     0.031 C 
ATOM     48  C   UNL A   1      37.823  33.630  34.284  1.00  0.00     0.029 A 
ATOM     49  C   UNL A   1      38.930  32.675  34.345  1.00  0.00     0.049 A 
ATOM     50  H   UNL A   1      39.718  31.564  32.768  1.00  0.00     0.167 HD
ATOM     51  C   UNL A   1      41.007  28.936  29.517  1.00  0.00     0.034 A 
ATOM     52  C   UNL A   1      39.644  32.366  35.447  1.00  0.00     0.034 A 
ATOM     53  C   UNL A   1      41.914  28.659  30.596  1.00  0.00     0.049 A 
ATOM     54  C   UNL A   1      40.741  31.333  35.358  1.00  0.00     0.074 A 
ATOM     55  C   UNL A   1      43.014  27.821  30.600  1.00  0.00     0.029 A 
ATOM     56  N   UNL A   1      41.815  29.195  31.870  1.00  0.00    -0.354 N 
ATOM     57  N   UNL A   1      41.175  30.675  34.310  1.00  0.00    -0.248 NA
ATOM     58  C   UNL A   1      41.458  31.013  36.602  1.00  0.00     0.031 C 
ATOM     59  C   UNL A   1      43.559  27.822  31.888  1.00  0.00     0.029 A 
ATOM     60  C   UNL A   1      42.820  28.689  32.677  1.00  0.00     0.049 A 
ATOM     61  H   UNL A   1      41.131  29.840  32.160  1.00  0.00     0.167 HD
ATOM     62  C   UNL A   1      42.234  29.891  34.761  1.00  0.00     0.074 A 
ATOM     63  C   UNL A   1      42.388  30.170  36.173  1.00  0.00     0.031 C 
ATOM     64  C   UNL A   1      43.000  29.010  34.071  1.00  0.00     0.034 A 
BRANCH  51  65
ATOM     65  C   UNL A   1      41.213  28.225  28.206  1.00  0.00     0.023 A 
ATOM     66  C   UNL A   1      41.717  28.935  27.098  1.00  0.00     0.012 A 
ATOM     67  C   UNL A   1      40.935  26.850  28.079  1.00  0.00     0.148 A 
ATOM     68  C   UNL A   1      41.905  28.298  25.872  1.00  0.00     0.002 A 
ATOM     69  C   UNL A   1      41.166  26.212  26.866  1.00  0.00     0.091 A 
ATOM     70  F   UNL A   1      40.430  26.198  29.136  1.00  0.00    -0.205 F 
ATOM     71  C   UNL A   1      41.638  26.937  25.759  1.00  0.00     0.022 A 
BRANCH  69  72
ATOM     72  S   UNL A   1      40.926  24.448  26.642  1.00  0.00     0.127 S 
ATOM     73  O   UNL A   1      39.474  24.366  26.487  1.00  0.00    -0.237 OA
ATOM     74  O   UNL A   1      41.686  24.185  25.419  1.00  0.00    -0.237 OA
ATOM     75  O   UNL A   1      41.465  23.815  27.838  1.00  0.00    -0.744 OA
ENDBRANCH  69  72
ENDBRANCH  51  65
BRANCH  52  76
ATOM     76  C   UNL A   1      39.365  33.056  36.739  1.00  0.00     0.023 A 
ATOM     77  C   UNL A   1      39.960  34.308  36.996  1.00  0.00     0.012 A 
ATOM     78  C   UNL A   1      38.518  32.486  37.710  1.00  0.00     0.148 A 
ATOM     79  C   UNL A   1      39.738  34.966  38.206  1.00  0.00     0.002 A 
ATOM     80  C   UNL A   1      38.261  33.172  38.892  1.00  0.00     0.091 A 
ATOM     81  F   UNL A   1      37.979  31.286  37.454  1.00  0.00    -0.205 F 
ATOM     82  C   UNL A   1      38.882  34.404  39.149  1.00  0.00     0.022 A 
BRANCH  80  83
ATOM     83  S   UNL A   1      37.088  32.583  40.117  1.00  0.00     0.127 S 
ATOM     84  O   UNL A   1      37.038  33.708  41.048  1.00  0.00    -0.237 OA
ATOM     85  O   UNL A   1      35.882  32.397  39.310  1.00  0.00    -0.237 OA
ATOM     86  O   UNL A   1      37.656  31.351  40.649  1.00  0.00    -0.744 OA
ENDBRANCH  80  83
ENDBRANCH  52  76
BRANCH  64  87
ATOM     87  C   UNL A   1      44.106  28.299  34.808  1.00  0.00     0.023 A 
ATOM     88  C   UNL A   1      45.351  28.933  34.986  1.00  0.00     0.012 A 
ATOM     89  C   UNL A   1      43.877  27.045  35.412  1.00  0.00     0.148 A 
ATOM     90  C   UNL A   1      46.358  28.320  35.733  1.00  0.00     0.002 A 
ATOM     91  C   UNL A   1      44.867  26.463  36.194  1.00  0.00     0.091 A 
ATOM     92  F   UNL A   1      42.689  26.452  35.219  1.00  0.00    -0.205 F 
ATOM     93  C   UNL A   1      46.113  27.094  36.347  1.00  0.00     0.022 A 
BRANCH  91  94
ATOM     94  S   UNL A   1      44.612  24.934  37.102  1.00  0.00     0.127 S 
ATOM     95  O   UNL A   1      45.977  24.421  37.213  1.00  0.00    -0.237 OA
ATOM     96  O   UNL A   1      44.036  25.414  38.359  1.00  0.00    -0.237 OA
ATOM     97  O   UNL A   1      43.711  24.126  36.290  1.00  0.00    -0.744 OA
ENDBRANCH  91  94
ENDBRANCH  64  87
ENDBRANCH  38  39
ENDBRANCH  31  33
ENDBRANCH  30  31
ENDBRANCH  29  30
ENDBRANCH  28  29
ENDBRANCH  27  28
ENDBRANCH  26  27
ENDBRANCH   1  26
TORSDOF 24
ENDMDL
MODEL 2
REMARK VINA RESULT:      -9.6      3.017      8.502
REMARK SMILES C[C@H](CC(=O)OCCOCCOCCOC(=O)c1ccc(-c2c3nc(c(-c4cccc(S(=O)(=O)[O-])c4F)c4ccc([nH]4)c(-c4cccc(S(=O)(=O)[O-])c4F)c4nc(c(-c5cccc(S(=O)(=O)[O-])c5F)c5ccc2[nH]5)C=C4)C=C3)cc1)NC(=O)Cn1nc2ccccn2c1=O
REMARK SMILES IDX 10 1 9 2 8 3 7 4 6 5 4 6 5 7 3 8 2 9 1 10 81 11 82 12 83 14
REMARK SMILES IDX 84 15 85 16 86 17 93 18 87 19 92 20 94 21 88 22 91 23 89 24
REMARK SMILES IDX 90 25 11 26 12 27 13 28 14 29 15 30 16 31 17 32 18 33 19 34
REMARK SMILES IDX 80 35 20 36 79 37 21 38 22 39 23 40 73 41 24 42 78 43 72 44
REMARK SMILES IDX 74 45 25 46 77 47 71 48 70 49 26 51 58 52 38 53 57 54 39 55
REMARK SMILES IDX 42 56 56 57 75 58 40 59 41 60 55 62 76 63 43 64 27 65 28 66
REMARK SMILES IDX 36 67 29 68 31 69 37 70 30 71 32 72 33 73 34 74 35 75 59 76
REMARK SMILES IDX 60 77 68 78 61 79 63 80 69 81 62 82 64 83 65 84 66 85 67 86
REMARK SMILES IDX 44 87 45 88 53 89 46 90 48 91 54 92 47 93 49 94 50 95 51 96
REMARK SMILES IDX 52 97
REMARK H PARENT 81 13 74 50 42 61
REMARK Flexibility Score: inf
ROOT
ATOM      1  C   UNL A   1      35.335  32.324  28.911  1.00  0.00     0.188 C 
ENDROOT
BRANCH   1   2
ATOM      2  O   UNL A   1      36.008  31.404  28.058  1.00  0.00    -0.376 OA
BRANCH   2   3
ATOM      3  C   UNL A   1      35.754  30.013  28.284  1.00  0.00     0.202 C 
BRANCH   3   4
ATOM      4  C   UNL A   1      34.969  29.281  27.183  1.00  0.00     0.261 C 
BRANCH   4   5
ATOM      5  O   UNL A   1      33.910  28.451  27.717  1.00  0.00    -0.463 OA
BRANCH   5   6
ATOM      6  C   UNL A   1      32.922  28.159  26.835  1.00  0.00     0.307 C 
ATOM      7  O   UNL A   1      31.726  28.230  27.101  1.00  0.00    -0.252 OA
BRANCH   6   8
ATOM      8  C   UNL A   1      33.425  27.988  25.422  1.00  0.00     0.147 C 
BRANCH   8   9
ATOM      9  C   UNL A   1      33.320  26.700  24.585  1.00  0.00     0.090 C 
ATOM     10  C   UNL A   1      34.264  25.568  24.935  1.00  0.00     0.031 C 
BRANCH   9  11
ATOM     11  N   UNL A   1      31.941  26.201  24.499  1.00  0.00    -0.351 N 
ATOM     12  C   UNL A   1      30.887  26.639  23.737  1.00  0.00     0.242 C 
ATOM     13  H   UNL A   1      31.743  25.431  25.079  1.00  0.00     0.163 HD
ATOM     14  O   UNL A   1      29.798  26.080  23.902  1.00  0.00    -0.273 OA
BRANCH  12  15
ATOM     15  C   UNL A   1      31.035  27.796  22.738  1.00  0.00     0.249 C 
BRANCH  15  16
ATOM     16  N   UNL A   1      29.967  28.781  22.814  1.00  0.00    -0.203 N 
ATOM     17  N   UNL A   1      29.177  29.104  21.704  1.00  0.00    -0.149 NA
ATOM     18  C   UNL A   1      30.001  29.876  23.680  1.00  0.00     0.350 A 
ATOM     19  C   UNL A   1      28.790  30.322  21.943  1.00  0.00     0.161 A 
ATOM     20  N   UNL A   1      29.252  30.848  23.101  1.00  0.00    -0.250 N 
ATOM     21  O   UNL A   1      30.671  30.013  24.692  1.00  0.00    -0.246 OA
ATOM     22  C   UNL A   1      27.993  31.227  21.087  1.00  0.00     0.050 A 
ATOM     23  C   UNL A   1      29.175  32.163  23.465  1.00  0.00     0.098 A 
ATOM     24  C   UNL A   1      28.057  32.544  21.362  1.00  0.00     0.005 A 
ATOM     25  C   UNL A   1      28.645  33.034  22.597  1.00  0.00     0.019 A 
ENDBRANCH  15  16
ENDBRANCH  12  15
ENDBRANCH   9  11
ENDBRANCH   8   9
ENDBRANCH   6   8
ENDBRANCH   5   6
ENDBRANCH   4   5
ENDBRANCH   3   4
ENDBRANCH   2   3
ENDBRANCH   1   2
BRANCH   1  26
ATOM     26  C   UNL A   1      34.780  33.579  28.220  1.00  0.00     0.188 C 
BRANCH  26  27
ATOM     27  O   UNL A   1      34.698  34.720  29.067  1.00  0.00    -0.376 OA
BRANCH  27  28
ATOM     28  C   UNL A   1      33.898  35.819  28.634  1.00  0.00     0.202 C 
BRANCH  28  29
ATOM     29  C   UNL A   1      32.823  36.291  29.620  1.00  0.00     0.261 C 
BRANCH  29  30
ATOM     30  O   UNL A   1      32.559  35.387  30.710  1.00  0.00    -0.460 OA
BRANCH  30  31
ATOM     31  C   UNL A   1      32.842  35.794  31.970  1.00  0.00     0.338 C 
ATOM     32  O   UNL A   1      32.166  36.522  32.676  1.00  0.00    -0.246 OA
BRANCH  31  33
ATOM     33  C   UNL A   1      33.986  34.981  32.453  1.00  0.00     0.060 A 
ATOM     34  C   UNL A   1      35.284  35.490  32.298  1.00  0.00     0.016 A 
ATOM     35  C   UNL A   1      33.781  33.782  33.140  1.00  0.00     0.016 A 
ATOM     36  C   UNL A   1      36.378  34.794  32.818  1.00  0.00     0.010 A 
ATOM     37  C   UNL A   1      34.874  33.085  33.653  1.00  0.00     0.010 A 
ATOM     38  C   UNL A   1      36.180  33.573  33.478  1.00  0.00    -0.014 A 
BRANCH  38  39
ATOM     39  C   UNL A   1      37.324  32.713  33.868  1.00  0.00     0.031 A 
ATOM     40  C   UNL A   1      38.113  33.087  35.091  1.00  0.00     0.074 A 
ATOM     41  C   UNL A   1      37.700  31.661  33.119  1.00  0.00     0.049 A 
ATOM     42  N   UNL A   1      39.221  32.572  35.552  1.00  0.00    -0.248 NA
ATOM     43  C   UNL A   1      37.581  34.199  35.897  1.00  0.00     0.031 C 
ATOM     44  C   UNL A   1      37.014  31.184  31.921  1.00  0.00     0.029 A 
ATOM     45  N   UNL A   1      38.785  30.826  33.243  1.00  0.00    -0.354 N 
ATOM     46  C   UNL A   1      39.539  33.315  36.682  1.00  0.00     0.074 A 
ATOM     47  C   UNL A   1      38.510  34.321  36.831  1.00  0.00     0.031 C 
ATOM     48  C   UNL A   1      37.713  30.160  31.397  1.00  0.00     0.029 A 
ATOM     49  C   UNL A   1      38.916  29.938  32.201  1.00  0.00     0.049 A 
ATOM     50  H   UNL A   1      39.409  30.862  34.004  1.00  0.00     0.167 HD
ATOM     51  C   UNL A   1      40.587  33.170  37.528  1.00  0.00     0.034 A 
ATOM     52  C   UNL A   1      39.909  29.072  31.911  1.00  0.00     0.034 A 
ATOM     53  C   UNL A   1      41.610  32.172  37.381  1.00  0.00     0.049 A 
ATOM     54  C   UNL A   1      41.105  28.978  32.827  1.00  0.00     0.074 A 
ATOM     55  C   UNL A   1      42.689  31.920  38.210  1.00  0.00     0.029 A 
ATOM     56  N   UNL A   1      41.698  31.278  36.326  1.00  0.00    -0.354 N 
ATOM     57  N   UNL A   1      41.335  29.606  33.955  1.00  0.00    -0.248 NA
ATOM     58  C   UNL A   1      42.172  28.043  32.436  1.00  0.00     0.031 C 
ATOM     59  C   UNL A   1      43.449  30.896  37.637  1.00  0.00     0.029 A 
ATOM     60  C   UNL A   1      42.826  30.486  36.470  1.00  0.00     0.049 A 
ATOM     61  H   UNL A   1      41.055  31.214  35.584  1.00  0.00     0.167 HD
ATOM     62  C   UNL A   1      42.553  29.118  34.424  1.00  0.00     0.074 A 
ATOM     63  C   UNL A   1      43.002  28.129  33.467  1.00  0.00     0.031 C 
ATOM     64  C   UNL A   1      43.241  29.467  35.539  1.00  0.00     0.034 A 
BRANCH  51  65
ATOM     65  C   UNL A   1      40.664  34.112  38.699  1.00  0.00     0.023 A 
ATOM     66  C   UNL A   1      41.466  35.269  38.613  1.00  0.00     0.012 A 
ATOM     67  C   UNL A   1      39.925  33.868  39.872  1.00  0.00     0.148 A 
ATOM     68  C   UNL A   1      41.560  36.148  39.690  1.00  0.00     0.002 A 
ATOM     69  C   UNL A   1      39.990  34.773  40.925  1.00  0.00     0.091 A 
ATOM     70  F   UNL A   1      39.190  32.749  39.945  1.00  0.00    -0.205 F 
ATOM     71  C   UNL A   1      40.817  35.905  40.841  1.00  0.00     0.022 A 
BRANCH  69  72
ATOM     72  S   UNL A   1      39.011  34.588  42.419  1.00  0.00     0.127 S 
ATOM     73  O   UNL A   1      39.883  35.204  43.419  1.00  0.00    -0.237 OA
ATOM     74  O   UNL A   1      37.810  35.360  42.098  1.00  0.00    -0.237 OA
ATOM     75  O   UNL A   1      38.789  33.157  42.577  1.00  0.00    -0.744 OA
ENDBRANCH  69  72
ENDBRANCH  51  65
BRANCH  52  76
ATOM     76  C   UNL A   1      39.814  28.200  30.706  1.00  0.00     0.023 A 
ATOM     77  C   UNL A   1      39.002  27.049  30.748  1.00  0.00     0.012 A 
ATOM     78  C   UNL A   1      40.519  28.499  29.523  1.00  0.00     0.148 A 
ATOM     79  C   UNL A   1      38.913  26.200  29.645  1.00  0.00     0.002 A 
ATOM     80  C   UNL A   1      40.385  27.676  28.411  1.00  0.00     0.091 A 
ATOM     81  F   UNL A   1      41.302  29.588  29.511  1.00  0.00    -0.205 F 
ATOM     82  C   UNL A   1      39.596  26.518  28.474  1.00  0.00     0.022 A 
BRANCH  80  83
ATOM     83  S   UNL A   1      41.135  28.062  26.825  1.00  0.00     0.127 S 
ATOM     84  O   UNL A   1      40.873  26.842  26.066  1.00  0.00    -0.237 OA
ATOM     85  O   UNL A   1      40.360  29.229  26.405  1.00  0.00    -0.237 OA
ATOM     86  O   UNL A   1      42.538  28.337  27.108  1.00  0.00    -0.744 OA
ENDBRANCH  80  83
ENDBRANCH  52  76
BRANCH  64  87
ATOM     87  C   UNL A   1      44.541  28.759  35.822  1.00  0.00     0.023 A 
ATOM     88  C   UNL A   1      44.536  27.531  36.513  1.00  0.00     0.012 A 
ATOM     89  C   UNL A   1      45.758  29.261  35.316  1.00  0.00     0.148 A 
ATOM     90  C   UNL A   1      45.723  26.825  36.714  1.00  0.00     0.002 A 
ATOM     91  C   UNL A   1      46.929  28.529  35.478  1.00  0.00     0.091 A 
ATOM     92  F   UNL A   1      45.744  30.437  34.673  1.00  0.00    -0.205 F 
ATOM     93  C   UNL A   1      46.916  27.316  36.187  1.00  0.00     0.022 A 
BRANCH  91  94
ATOM     94  S   UNL A   1      48.494  29.031  34.753  1.00  0.00     0.127 S 
ATOM     95  O   UNL A   1      48.132  29.192  33.344  1.00  0.00    -0.237 OA
ATOM     96  O   UNL A   1      48.775  30.281  35.458  1.00  0.00    -0.237 OA
ATOM     97  O   UNL A   1      49.433  27.952  35.031  1.00  0.00    -0.744 OA
ENDBRANCH  91  94
ENDBRANCH  64  87
ENDBRANCH  38  39
ENDBRANCH  31  33
ENDBRANCH  30  31
ENDBRANCH  29  30
ENDBRANCH  28  29
ENDBRANCH  27  28
ENDBRANCH  26  27
ENDBRANCH   1  26
TORSDOF 24
ENDMDL
MODEL 3
REMARK VINA RESULT:      -9.6      2.730      4.151
REMARK SMILES C[C@H](CC(=O)OCCOCCOCCOC(=O)c1ccc(-c2c3nc(c(-c4cccc(S(=O)(=O)[O-])c4F)c4ccc([nH]4)c(-c4cccc(S(=O)(=O)[O-])c4F)c4nc(c(-c5cccc(S(=O)(=O)[O-])c5F)c5ccc2[nH]5)C=C4)C=C3)cc1)NC(=O)Cn1nc2ccccn2c1=O
REMARK SMILES IDX 10 1 9 2 8 3 7 4 6 5 4 6 5 7 3 8 2 9 1 10 81 11 82 12 83 14
REMARK SMILES IDX 84 15 85 16 86 17 93 18 87 19 92 20 94 21 88 22 91 23 89 24
REMARK SMILES IDX 90 25 11 26 12 27 13 28 14 29 15 30 16 31 17 32 18 33 19 34
REMARK SMILES IDX 80 35 20 36 79 37 21 38 22 39 23 40 73 41 24 42 78 43 72 44
REMARK SMILES IDX 74 45 25 46 77 47 71 48 70 49 26 51 58 52 38 53 57 54 39 55
REMARK SMILES IDX 42 56 56 57 75 58 40 59 41 60 55 62 76 63 43 64 27 65 28 66
REMARK SMILES IDX 36 67 29 68 31 69 37 70 30 71 32 72 33 73 34 74 35 75 59 76
REMARK SMILES IDX 60 77 68 78 61 79 63 80 69 81 62 82 64 83 65 84 66 85 67 86
REMARK SMILES IDX 44 87 45 88 53 89 46 90 48 91 54 92 47 93 49 94 50 95 51 96
REMARK SMILES IDX 52 97
REMARK H PARENT 81 13 74 50 42 61
REMARK Flexibility Score: inf
ROOT
ATOM      1  C   UNL A   1      34.892  32.383  28.539  1.00  0.00     0.188 C 
ENDROOT
BRANCH   1   2
ATOM      2  O   UNL A   1      35.622  31.623  27.582  1.00  0.00    -0.376 OA
BRANCH   2   3
ATOM      3  C   UNL A   1      35.803  30.232  27.867  1.00  0.00     0.202 C 
BRANCH   3   4
ATOM      4  C   UNL A   1      34.581  29.329  27.633  1.00  0.00     0.261 C 
BRANCH   4   5
ATOM      5  O   UNL A   1      34.260  29.183  26.229  1.00  0.00    -0.463 OA
BRANCH   5   6
ATOM      6  C   UNL A   1      33.662  28.009  25.905  1.00  0.00     0.307 C 
ATOM      7  O   UNL A   1      32.787  27.478  26.583  1.00  0.00    -0.252 OA
BRANCH   6   8
ATOM      8  C   UNL A   1      33.987  27.549  24.504  1.00  0.00     0.147 C 
BRANCH   8   9
ATOM      9  C   UNL A   1      33.409  26.297  23.819  1.00  0.00     0.090 C 
ATOM     10  C   UNL A   1      34.205  25.014  23.935  1.00  0.00     0.031 C 
BRANCH   9  11
ATOM     11  N   UNL A   1      32.006  26.058  24.183  1.00  0.00    -0.351 N 
ATOM     12  C   UNL A   1      30.858  26.646  23.716  1.00  0.00     0.242 C 
ATOM     13  H   UNL A   1      31.870  25.367  24.869  1.00  0.00     0.163 HD
ATOM     14  O   UNL A   1      29.793  26.307  24.243  1.00  0.00    -0.273 OA
BRANCH  12  15
ATOM     15  C   UNL A   1      30.884  27.707  22.606  1.00  0.00     0.249 C 
BRANCH  15  16
ATOM     16  N   UNL A   1      29.869  28.738  22.751  1.00  0.00    -0.203 N 
ATOM     17  N   UNL A   1      29.086  29.165  21.671  1.00  0.00    -0.149 NA
ATOM     18  C   UNL A   1      29.967  29.779  23.678  1.00  0.00     0.350 A 
ATOM     19  C   UNL A   1      28.764  30.386  21.984  1.00  0.00     0.161 A 
ATOM     20  N   UNL A   1      29.263  30.819  23.165  1.00  0.00    -0.250 N 
ATOM     21  O   UNL A   1      30.652  29.822  24.687  1.00  0.00    -0.246 OA
ATOM     22  C   UNL A   1      28.007  31.378  21.191  1.00  0.00     0.050 A 
ATOM     23  C   UNL A   1      29.257  32.113  23.604  1.00  0.00     0.098 A 
ATOM     24  C   UNL A   1      28.140  32.671  21.541  1.00  0.00     0.005 A 
ATOM     25  C   UNL A   1      28.764  33.058  22.795  1.00  0.00     0.019 A 
ENDBRANCH  15  16
ENDBRANCH  12  15
ENDBRANCH   9  11
ENDBRANCH   8   9
ENDBRANCH   6   8
ENDBRANCH   5   6
ENDBRANCH   4   5
ENDBRANCH   3   4
ENDBRANCH   2   3
ENDBRANCH   1   2
BRANCH   1  26
ATOM     26  C   UNL A   1      34.234  33.664  28.002  1.00  0.00     0.188 C 
BRANCH  26  27
ATOM     27  O   UNL A   1      34.726  34.861  28.594  1.00  0.00    -0.376 OA
BRANCH  27  28
ATOM     28  C   UNL A   1      33.873  36.004  28.599  1.00  0.00     0.202 C 
BRANCH  28  29
ATOM     29  C   UNL A   1      32.881  36.092  29.766  1.00  0.00     0.261 C 
BRANCH  29  30
ATOM     30  O   UNL A   1      32.835  34.927  30.612  1.00  0.00    -0.460 OA
BRANCH  30  31
ATOM     31  C   UNL A   1      32.899  35.100  31.953  1.00  0.00     0.338 C 
ATOM     32  O   UNL A   1      31.992  35.436  32.695  1.00  0.00    -0.246 OA
BRANCH  31  33
ATOM     33  C   UNL A   1      34.196  34.543  32.412  1.00  0.00     0.060 A 
ATOM     34  C   UNL A   1      35.376  35.223  32.073  1.00  0.00     0.016 A 
ATOM     35  C   UNL A   1      34.247  33.425  33.248  1.00  0.00     0.016 A 
ATOM     36  C   UNL A   1      36.607  34.777  32.559  1.00  0.00     0.010 A 
ATOM     37  C   UNL A   1      35.478  32.977  33.728  1.00  0.00     0.010 A 
ATOM     38  C   UNL A   1      36.666  33.636  33.371  1.00  0.00    -0.014 A 
BRANCH  38  39
ATOM     39  C   UNL A   1      37.964  33.020  33.742  1.00  0.00     0.031 A 
ATOM     40  C   UNL A   1      38.453  31.849  32.937  1.00  0.00     0.074 A 
ATOM     41  C   UNL A   1      38.663  33.443  34.810  1.00  0.00     0.049 A 
ATOM     42  N   UNL A   1      39.481  31.070  33.147  1.00  0.00    -0.248 NA
ATOM     43  C   UNL A   1      37.671  31.509  31.738  1.00  0.00     0.031 C 
ATOM     44  C   UNL A   1      38.307  34.574  35.664  1.00  0.00     0.029 A 
ATOM     45  N   UNL A   1      39.807  32.936  35.380  1.00  0.00    -0.354 N 
ATOM     46  C   UNL A   1      39.452  30.127  32.128  1.00  0.00     0.074 A 
ATOM     47  C   UNL A   1      38.300  30.428  31.305  1.00  0.00     0.031 C 
ATOM     48  C   UNL A   1      39.196  34.655  36.671  1.00  0.00     0.029 A 
ATOM     49  C   UNL A   1      40.158  33.559  36.555  1.00  0.00     0.049 A 
ATOM     50  H   UNL A   1      40.324  32.197  34.985  1.00  0.00     0.167 HD
ATOM     51  C   UNL A   1      40.310  29.108  31.889  1.00  0.00     0.034 A 
ATOM     52  C   UNL A   1      41.121  33.256  37.450  1.00  0.00     0.034 A 
ATOM     53  C   UNL A   1      41.453  28.806  32.705  1.00  0.00     0.049 A 
ATOM     54  C   UNL A   1      42.020  32.069  37.203  1.00  0.00     0.074 A 
ATOM     55  C   UNL A   1      42.405  27.820  32.520  1.00  0.00     0.029 A 
ATOM     56  N   UNL A   1      41.788  29.471  33.874  1.00  0.00    -0.354 N 
ATOM     57  N   UNL A   1      42.054  31.257  36.174  1.00  0.00    -0.248 NA
ATOM     58  C   UNL A   1      43.025  31.768  38.234  1.00  0.00     0.031 C 
ATOM     59  C   UNL A   1      43.296  27.864  33.598  1.00  0.00     0.029 A 
ATOM     60  C   UNL A   1      42.920  28.902  34.435  1.00  0.00     0.049 A 
ATOM     61  H   UNL A   1      41.295  30.234  34.251  1.00  0.00     0.167 HD
ATOM     62  C   UNL A   1      43.102  30.372  36.419  1.00  0.00     0.074 A 
ATOM     63  C   UNL A   1      43.689  30.760  37.684  1.00  0.00     0.031 C 
ATOM     64  C   UNL A   1      43.530  29.326  35.670  1.00  0.00     0.034 A 
BRANCH  51  65
ATOM     65  C   UNL A   1      40.045  28.251  30.680  1.00  0.00     0.023 A 
ATOM     66  C   UNL A   1      39.104  27.204  30.759  1.00  0.00     0.012 A 
ATOM     67  C   UNL A   1      40.705  28.498  29.461  1.00  0.00     0.148 A 
ATOM     68  C   UNL A   1      38.851  26.392  29.654  1.00  0.00     0.002 A 
ATOM     69  C   UNL A   1      40.416  27.712  28.352  1.00  0.00     0.091 A 
ATOM     70  F   UNL A   1      41.616  29.480  29.414  1.00  0.00    -0.205 F 
ATOM     71  C   UNL A   1      39.500  26.651  28.450  1.00  0.00     0.022 A 
BRANCH  69  72
ATOM     72  S   UNL A   1      41.142  28.015  26.738  1.00  0.00     0.127 S 
ATOM     73  O   UNL A   1      40.352  29.154  26.270  1.00  0.00    -0.237 OA
ATOM     74  O   UNL A   1      42.529  28.333  27.078  1.00  0.00    -0.237 OA
ATOM     75  O   UNL A   1      40.970  26.781  25.984  1.00  0.00    -0.744 OA
ENDBRANCH  69  72
ENDBRANCH  51  65
BRANCH  52  76
ATOM     76  C   UNL A   1      41.307  34.101  38.664  1.00  0.00     0.023 A 
ATOM     77  C   UNL A   1      42.125  35.246  38.590  1.00  0.00     0.012 A 
ATOM     78  C   UNL A   1      40.684  33.782  39.887  1.00  0.00     0.148 A 
ATOM     79  C   UNL A   1      42.340  36.042  39.715  1.00  0.00     0.002 A 
ATOM     80  C   UNL A   1      40.861  34.608  40.990  1.00  0.00     0.091 A 
ATOM     81  F   UNL A   1      39.926  32.677  39.941  1.00  0.00    -0.205 F 
ATOM     82  C   UNL A   1      41.700  35.729  40.912  1.00  0.00     0.022 A 
BRANCH  80  83
ATOM     83  S   UNL A   1      39.993  34.351  42.541  1.00  0.00     0.127 S 
ATOM     84  O   UNL A   1      40.504  33.047  42.957  1.00  0.00    -0.237 OA
ATOM     85  O   UNL A   1      40.468  35.482  43.339  1.00  0.00    -0.237 OA
ATOM     86  O   UNL A   1      38.574  34.395  42.213  1.00  0.00    -0.744 OA
ENDBRANCH  80  83
ENDBRANCH  52  76
BRANCH  64  87
ATOM     87  C   UNL A   1      44.714  28.535  36.165  1.00  0.00     0.023 A 
ATOM     88  C   UNL A   1      46.021  28.946  35.835  1.00  0.00     0.012 A 
ATOM     89  C   UNL A   1      44.534  27.443  37.039  1.00  0.00     0.148 A 
ATOM     90  C   UNL A   1      47.128  28.270  36.349  1.00  0.00     0.002 A 
ATOM     91  C   UNL A   1      45.641  26.805  37.585  1.00  0.00     0.091 A 
ATOM     92  F   UNL A   1      43.282  27.059  37.329  1.00  0.00    -0.205 F 
ATOM     93  C   UNL A   1      46.939  27.210  37.234  1.00  0.00     0.022 A 
BRANCH  91  94
ATOM     94  S   UNL A   1      45.500  25.494  38.805  1.00  0.00     0.127 S 
ATOM     95  O   UNL A   1      46.904  25.219  39.111  1.00  0.00    -0.237 OA
ATOM     96  O   UNL A   1      44.759  26.152  39.882  1.00  0.00    -0.237 OA
ATOM     97  O   UNL A   1      44.784  24.407  38.151  1.00  0.00    -0.744 OA
ENDBRANCH  91  94
ENDBRANCH  64  87
ENDBRANCH  38  39
ENDBRANCH  31  33
ENDBRANCH  30  31
ENDBRANCH  29  30
ENDBRANCH  28  29
ENDBRANCH  27  28
ENDBRANCH  26  27
ENDBRANCH   1  26
TORSDOF 24
ENDMDL
