MODEL 1
REMARK VINA RESULT:      -8.9      0.000      0.000
REMARK SMILES Cc1ccc(NC(=O)c2ccccc2NC(=O)[C@H]2CCCC[C@H]2C(=O)OCCOCCOCCOC(=O)c2ccc(-c3c4nc(c(-c5cccc(S(=O)(=O)[O-])c5F)c5ccc([nH]5)c(-c5cccc(S(=O)(=O)[O-])c5F)c5nc(c(-c6cccc(S(=O)(=O)[O-])c6F)c6ccc3[nH]6)C=C5)C=C4)cc2)cc1
REMARK SMILES IDX 30 1 29 2 28 3 27 4 26 5 24 6 25 7 23 8 18 9 19 10 20 11
REMARK SMILES IDX 22 12 21 13 16 14 15 15 17 17 14 18 9 19 10 20 11 21 13 22
REMARK SMILES IDX 12 23 7 24 6 25 8 27 5 28 1 29 2 30 3 31 102 32 4 33 101 34
REMARK SMILES IDX 31 35 32 36 33 37 34 38 35 39 36 40 37 41 38 42 39 43 100 44
REMARK SMILES IDX 40 45 99 46 41 47 42 48 43 49 93 50 44 51 98 52 92 53 94 54
REMARK SMILES IDX 45 55 97 56 91 57 90 58 46 60 78 61 58 62 77 63 59 64 62 65
REMARK SMILES IDX 76 66 95 67 60 68 61 69 75 71 96 72 63 73 47 74 48 75 56 76
REMARK SMILES IDX 49 77 51 78 57 79 50 80 52 81 53 82 54 83 55 84 79 85 80 86
REMARK SMILES IDX 88 87 81 88 83 89 89 90 82 91 84 92 85 93 86 94 87 95 64 96
REMARK SMILES IDX 65 97 73 98 66 99 68 100 74 101 67 102 69 103 70 104 71 105
REMARK SMILES IDX 72 106
REMARK H PARENT 15 16 6 26 94 59 62 70
REMARK Flexibility Score: inf
ROOT
ATOM      1  C   UNL A   1      48.015  41.253  36.429  1.00  0.00     0.188 C 
ENDROOT
BRANCH   1   2
ATOM      2  O   UNL A   1      48.710  40.031  36.553  1.00  0.00    -0.376 OA
BRANCH   2   3
ATOM      3  C   UNL A   1      49.243  39.510  35.299  1.00  0.00     0.202 C 
BRANCH   3   4
ATOM      4  C   UNL A   1      48.108  38.932  34.359  1.00  0.00     0.261 C 
BRANCH   4   5
ATOM      5  O   UNL A   1      47.784  37.537  33.507  1.00  0.00    -0.463 OA
BRANCH   5   6
ATOM      6  C   UNL A   1      46.818  36.941  32.625  1.00  0.00     0.309 C 
ATOM      7  O   UNL A   1      45.857  36.427  33.220  1.00  0.00    -0.252 OA
BRANCH   6   8
ATOM      8  C   UNL A   1      46.664  36.840  30.923  1.00  0.00     0.111 C 
ATOM      9  C   UNL A   1      45.830  35.933  29.805  1.00  0.00     0.093 C 
ATOM     10  C   UNL A   1      46.550  36.093  28.413  1.00  0.00     0.014 C 
ATOM     11  C   UNL A   1      46.789  37.543  27.961  1.00  0.00     0.001 C 
ATOM     12  C   UNL A   1      46.864  38.286  30.352  1.00  0.00     0.016 C 
ATOM     13  C   UNL A   1      47.570  38.322  29.000  1.00  0.00     0.001 C 
BRANCH   9  14
ATOM     14  C   UNL A   1      44.308  36.205  29.431  1.00  0.00     0.228 C 
ATOM     15  N   UNL A   1      43.495  35.580  28.500  1.00  0.00    -0.325 N 
ATOM     16  H   UNL A   1      42.562  35.876  28.609  1.00  0.00     0.169 HD
ATOM     17  O   UNL A   1      43.713  37.112  30.032  1.00  0.00    -0.274 OA
BRANCH  15  18
ATOM     18  C   UNL A   1      43.593  34.638  27.434  1.00  0.00     0.054 A 
ATOM     19  C   UNL A   1      43.986  33.249  27.596  1.00  0.00     0.063 A 
ATOM     20  C   UNL A   1      44.232  32.490  26.417  1.00  0.00     0.016 A 
ATOM     21  C   UNL A   1      44.129  33.037  25.144  1.00  0.00     0.001 A 
ATOM     22  C   UNL A   1      43.386  35.111  26.127  1.00  0.00     0.027 A 
ATOM     23  C   UNL A   1      43.696  34.341  25.001  1.00  0.00     0.002 A 
BRANCH  19  24
ATOM     24  C   UNL A   1      44.502  32.453  28.805  1.00  0.00     0.257 C 
ATOM     25  N   UNL A   1      44.035  32.530  30.089  1.00  0.00    -0.322 N 
ATOM     26  H   UNL A   1      44.702  32.345  30.789  1.00  0.00     0.170 HD
ATOM     27  O   UNL A   1      45.511  31.743  28.667  1.00  0.00    -0.269 OA
BRANCH  25  28
ATOM     28  C   UNL A   1      42.767  32.831  30.547  1.00  0.00     0.041 A 
ATOM     29  C   UNL A   1      38.931  34.563  30.967  1.00  0.00     0.044 C 
ATOM     30  C   UNL A   1      40.249  33.852  30.995  1.00  0.00    -0.051 A 
ATOM     31  C   UNL A   1      40.399  32.659  30.281  1.00  0.00     0.005 A 
ATOM     32  C   UNL A   1      41.357  34.449  31.608  1.00  0.00     0.005 A 
ATOM     33  C   UNL A   1      41.662  32.133  30.077  1.00  0.00     0.026 A 
ATOM     34  C   UNL A   1      42.627  33.921  31.404  1.00  0.00     0.026 A 
ENDBRANCH  25  28
ENDBRANCH  19  24
ENDBRANCH  15  18
ENDBRANCH   9  14
ENDBRANCH   6   8
ENDBRANCH   5   6
ENDBRANCH   4   5
ENDBRANCH   3   4
ENDBRANCH   2   3
ENDBRANCH   1   2
BRANCH   1  35
ATOM     35  C   UNL A   1      46.622  41.087  37.038  1.00  0.00     0.188 C 
BRANCH  35  36
ATOM     36  O   UNL A   1      45.635  40.482  36.238  1.00  0.00    -0.376 OA
BRANCH  36  37
ATOM     37  C   UNL A   1      44.923  39.483  36.933  1.00  0.00     0.202 C 
BRANCH  37  38
ATOM     38  C   UNL A   1      44.135  38.353  36.217  1.00  0.00     0.261 C 
BRANCH  38  39
ATOM     39  O   UNL A   1      43.046  37.504  36.775  1.00  0.00    -0.460 OA
BRANCH  39  40
ATOM     40  C   UNL A   1      42.038  36.814  37.293  1.00  0.00     0.338 C 
ATOM     41  O   UNL A   1      42.071  36.649  38.513  1.00  0.00    -0.246 OA
BRANCH  40  42
ATOM     42  C   UNL A   1      41.001  36.029  36.501  1.00  0.00     0.060 A 
ATOM     43  C   UNL A   1      40.438  35.004  37.200  1.00  0.00     0.016 A 
ATOM     44  C   UNL A   1      40.504  36.119  35.185  1.00  0.00     0.016 A 
ATOM     45  C   UNL A   1      39.691  34.019  36.515  1.00  0.00     0.010 A 
ATOM     46  C   UNL A   1      39.805  35.054  34.495  1.00  0.00     0.010 A 
ATOM     47  C   UNL A   1      39.504  33.854  35.122  1.00  0.00    -0.014 A 
BRANCH  47  48
ATOM     48  C   UNL A   1      39.437  32.510  34.234  1.00  0.00     0.031 A 
ATOM     49  C   UNL A   1      40.621  31.610  34.151  1.00  0.00     0.074 A 
ATOM     50  C   UNL A   1      38.375  31.929  33.538  1.00  0.00     0.049 A 
ATOM     51  N   UNL A   1      40.782  30.697  33.240  1.00  0.00    -0.248 NA
ATOM     52  C   UNL A   1      41.788  31.791  34.992  1.00  0.00     0.031 C 
ATOM     53  C   UNL A   1      37.954  30.514  33.523  1.00  0.00     0.029 A 
ATOM     54  N   UNL A   1      37.378  32.465  32.733  1.00  0.00    -0.354 N 
ATOM     55  C   UNL A   1      41.920  29.999  33.571  1.00  0.00     0.074 A 
ATOM     56  C   UNL A   1      42.610  30.869  34.487  1.00  0.00     0.031 C 
ATOM     57  C   UNL A   1      36.811  30.356  32.807  1.00  0.00     0.029 A 
ATOM     58  C   UNL A   1      36.449  31.618  32.168  1.00  0.00     0.049 A 
ATOM     59  H   UNL A   1      37.334  33.434  32.568  1.00  0.00     0.167 HD
ATOM     60  C   UNL A   1      42.036  28.677  33.251  1.00  0.00     0.034 A 
ATOM     61  C   UNL A   1      35.822  31.946  30.989  1.00  0.00     0.034 A 
ATOM     62  C   UNL A   1      40.874  28.210  32.458  1.00  0.00     0.049 A 
ATOM     63  C   UNL A   1      36.407  31.005  29.981  1.00  0.00     0.074 A 
ATOM     64  C   UNL A   1      39.724  27.517  32.813  1.00  0.00     0.029 A 
ATOM     65  N   UNL A   1      40.642  28.687  31.163  1.00  0.00    -0.354 N 
ATOM     66  N   UNL A   1      37.364  30.190  30.319  1.00  0.00    -0.248 NA
ATOM     67  C   UNL A   1      36.014  30.849  28.589  1.00  0.00     0.031 C 
ATOM     68  C   UNL A   1      38.781  27.639  31.756  1.00  0.00     0.029 A 
ATOM     69  C   UNL A   1      39.359  28.361  30.723  1.00  0.00     0.049 A 
ATOM     70  H   UNL A   1      41.301  29.189  30.630  1.00  0.00     0.167 HD
ATOM     71  C   UNL A   1      37.789  29.485  29.255  1.00  0.00     0.074 A 
ATOM     72  C   UNL A   1      36.874  29.889  28.194  1.00  0.00     0.031 C 
ATOM     73  C   UNL A   1      38.890  28.690  29.367  1.00  0.00     0.034 A 
BRANCH  60  74
ATOM     74  C   UNL A   1      42.970  27.741  34.035  1.00  0.00     0.023 A 
ATOM     75  C   UNL A   1      42.439  27.035  35.137  1.00  0.00     0.012 A 
ATOM     76  C   UNL A   1      44.360  27.556  33.816  1.00  0.00     0.148 A 
ATOM     77  C   UNL A   1      43.241  26.297  36.023  1.00  0.00     0.002 A 
ATOM     78  C   UNL A   1      45.176  26.891  34.742  1.00  0.00     0.091 A 
ATOM     79  F   UNL A   1      44.906  27.923  32.654  1.00  0.00    -0.205 F 
ATOM     80  C   UNL A   1      44.618  26.258  35.851  1.00  0.00     0.022 A 
BRANCH  78  81
ATOM     81  S   UNL A   1      46.976  26.878  34.602  1.00  0.00     0.127 S 
ATOM     82  O   UNL A   1      47.325  28.270  34.899  1.00  0.00    -0.237 OA
ATOM     83  O   UNL A   1      47.367  25.921  35.634  1.00  0.00    -0.237 OA
ATOM     84  O   UNL A   1      47.268  26.482  33.227  1.00  0.00    -0.744 OA
ENDBRANCH  78  81
ENDBRANCH  60  74
BRANCH  61  85
ATOM     85  C   UNL A   1      35.414  33.419  30.767  1.00  0.00     0.023 A 
ATOM     86  C   UNL A   1      35.557  33.913  29.448  1.00  0.00     0.012 A 
ATOM     87  C   UNL A   1      34.620  34.210  31.632  1.00  0.00     0.148 A 
ATOM     88  C   UNL A   1      34.748  34.950  28.936  1.00  0.00     0.002 A 
ATOM     89  C   UNL A   1      33.759  35.203  31.103  1.00  0.00     0.091 A 
ATOM     90  F   UNL A   1      34.638  33.934  32.942  1.00  0.00    -0.205 F 
ATOM     91  C   UNL A   1      33.794  35.539  29.744  1.00  0.00     0.022 A 
BRANCH  89  92
ATOM     92  S   UNL A   1      32.400  35.976  32.029  1.00  0.00     0.127 S 
ATOM     93  O   UNL A   1      33.118  36.897  32.911  1.00  0.00    -0.237 OA
ATOM     94  O   UNL A   1      31.626  36.650  30.982  1.00  0.00    -0.237 OA
ATOM     95  O   UNL A   1      31.720  34.890  32.717  1.00  0.00    -0.744 OA
ENDBRANCH  89  92
ENDBRANCH  61  85
BRANCH  73  96
ATOM     96  C   UNL A   1      39.592  28.132  28.171  1.00  0.00     0.023 A 
ATOM     97  C   UNL A   1      40.262  28.962  27.252  1.00  0.00     0.012 A 
ATOM     98  C   UNL A   1      39.748  26.739  28.030  1.00  0.00     0.148 A 
ATOM     99  C   UNL A   1      40.999  28.435  26.194  1.00  0.00     0.002 A 
ATOM    100  C   UNL A   1      40.600  26.226  27.066  1.00  0.00     0.091 A 
ATOM    101  F   UNL A   1      39.068  25.901  28.826  1.00  0.00    -0.205 F 
ATOM    102  C   UNL A   1      41.194  27.064  26.118  1.00  0.00     0.022 A 
BRANCH 100 103
ATOM    103  S   UNL A   1      41.121  24.513  27.158  1.00  0.00     0.127 S 
ATOM    104  O   UNL A   1      41.791  24.466  28.454  1.00  0.00    -0.237 OA
ATOM    105  O   UNL A   1      39.846  23.794  27.100  1.00  0.00    -0.237 OA
ATOM    106  O   UNL A   1      41.963  24.319  25.985  1.00  0.00    -0.744 OA
ENDBRANCH 100 103
ENDBRANCH  73  96
ENDBRANCH  47  48
ENDBRANCH  40  42
ENDBRANCH  39  40
ENDBRANCH  38  39
ENDBRANCH  37  38
ENDBRANCH  36  37
ENDBRANCH  35  36
ENDBRANCH   1  35
TORSDOF 24
ENDMDL
MODEL 2
REMARK VINA RESULT:      -8.1      5.286      7.179
REMARK SMILES Cc1ccc(NC(=O)c2ccccc2NC(=O)[C@H]2CCCC[C@H]2C(=O)OCCOCCOCCOC(=O)c2ccc(-c3c4nc(c(-c5cccc(S(=O)(=O)[O-])c5F)c5ccc([nH]5)c(-c5cccc(S(=O)(=O)[O-])c5F)c5nc(c(-c6cccc(S(=O)(=O)[O-])c6F)c6ccc3[nH]6)C=C5)C=C4)cc2)cc1
REMARK SMILES IDX 30 1 29 2 28 3 27 4 26 5 24 6 25 7 23 8 18 9 19 10 20 11
REMARK SMILES IDX 22 12 21 13 16 14 15 15 17 17 14 18 9 19 10 20 11 21 13 22
REMARK SMILES IDX 12 23 7 24 6 25 8 27 5 28 1 29 2 30 3 31 102 32 4 33 101 34
REMARK SMILES IDX 31 35 32 36 33 37 34 38 35 39 36 40 37 41 38 42 39 43 100 44
REMARK SMILES IDX 40 45 99 46 41 47 42 48 43 49 93 50 44 51 98 52 92 53 94 54
REMARK SMILES IDX 45 55 97 56 91 57 90 58 46 60 78 61 58 62 77 63 59 64 62 65
REMARK SMILES IDX 76 66 95 67 60 68 61 69 75 71 96 72 63 73 47 74 48 75 56 76
REMARK SMILES IDX 49 77 51 78 57 79 50 80 52 81 53 82 54 83 55 84 79 85 80 86
REMARK SMILES IDX 88 87 81 88 83 89 89 90 82 91 84 92 85 93 86 94 87 95 64 96
REMARK SMILES IDX 65 97 73 98 66 99 68 100 74 101 67 102 69 103 70 104 71 105
REMARK SMILES IDX 72 106
REMARK H PARENT 15 16 6 26 94 59 62 70
REMARK Flexibility Score: inf
ROOT
ATOM      1  C   UNL A   1      43.562  41.213  31.534  1.00  0.00     0.188 C 
ENDROOT
BRANCH   1   2
ATOM      2  O   UNL A   1      44.532  41.987  30.863  1.00  0.00    -0.376 OA
BRANCH   2   3
ATOM      3  C   UNL A   1      45.902  41.510  31.022  1.00  0.00     0.202 C 
BRANCH   3   4
ATOM      4  C   UNL A   1      46.868  42.079  29.905  1.00  0.00     0.261 C 
BRANCH   4   5
ATOM      5  O   UNL A   1      47.535  41.581  28.460  1.00  0.00    -0.463 OA
BRANCH   5   6
ATOM      6  C   UNL A   1      47.355  41.663  27.037  1.00  0.00     0.309 C 
ATOM      7  O   UNL A   1      47.574  40.591  26.449  1.00  0.00    -0.252 OA
BRANCH   6   8
ATOM      8  C   UNL A   1      46.837  42.900  25.972  1.00  0.00     0.111 C 
ATOM      9  C   UNL A   1      46.704  43.149  24.332  1.00  0.00     0.093 C 
ATOM     10  C   UNL A   1      46.592  44.701  24.083  1.00  0.00     0.014 C 
ATOM     11  C   UNL A   1      45.502  45.418  24.896  1.00  0.00     0.001 C 
ATOM     12  C   UNL A   1      45.692  43.688  26.697  1.00  0.00     0.016 C 
ATOM     13  C   UNL A   1      45.677  45.180  26.382  1.00  0.00     0.001 C 
BRANCH   9  14
ATOM     14  C   UNL A   1      45.498  42.579  23.465  1.00  0.00     0.228 C 
ATOM     15  N   UNL A   1      45.169  42.810  22.140  1.00  0.00    -0.325 N 
ATOM     16  H   UNL A   1      44.453  42.197  21.855  1.00  0.00     0.169 HD
ATOM     17  O   UNL A   1      44.696  41.811  24.015  1.00  0.00    -0.274 OA
BRANCH  15  18
ATOM     18  C   UNL A   1      45.550  43.660  21.060  1.00  0.00     0.054 A 
ATOM     19  C   UNL A   1      46.797  43.548  20.323  1.00  0.00     0.063 A 
ATOM     20  C   UNL A   1      47.122  44.591  19.411  1.00  0.00     0.016 A 
ATOM     21  C   UNL A   1      46.306  45.700  19.226  1.00  0.00     0.001 A 
ATOM     22  C   UNL A   1      44.703  44.738  20.751  1.00  0.00     0.027 A 
ATOM     23  C   UNL A   1      45.094  45.766  19.887  1.00  0.00     0.002 A 
BRANCH  19  24
ATOM     24  C   UNL A   1      48.041  42.668  20.522  1.00  0.00     0.257 C 
ATOM     25  N   UNL A   1      49.335  43.101  20.629  1.00  0.00    -0.322 N 
ATOM     26  H   UNL A   1      50.017  42.470  20.302  1.00  0.00     0.170 HD
ATOM     27  O   UNL A   1      47.915  41.434  20.473  1.00  0.00    -0.269 OA
BRANCH  25  28
ATOM     28  C   UNL A   1      49.826  44.292  21.129  1.00  0.00     0.041 A 
ATOM     29  C   UNL A   1      52.385  47.229  22.775  1.00  0.00     0.044 C 
ATOM     30  C   UNL A   1      51.330  46.330  22.210  1.00  0.00    -0.051 A 
ATOM     31  C   UNL A   1      51.176  46.239  20.824  1.00  0.00     0.005 A 
ATOM     32  C   UNL A   1      50.604  45.480  23.055  1.00  0.00     0.005 A 
ATOM     33  C   UNL A   1      50.401  45.230  20.280  1.00  0.00     0.026 A 
ATOM     34  C   UNL A   1      49.824  44.466  22.512  1.00  0.00     0.026 A 
ENDBRANCH  25  28
ENDBRANCH  19  24
ENDBRANCH  15  18
ENDBRANCH   9  14
ENDBRANCH   6   8
ENDBRANCH   5   6
ENDBRANCH   4   5
ENDBRANCH   3   4
ENDBRANCH   2   3
ENDBRANCH   1   2
BRANCH   1  35
ATOM     35  C   UNL A   1      42.895  42.083  32.602  1.00  0.00     0.188 C 
BRANCH  35  36
ATOM     36  O   UNL A   1      43.657  42.405  33.741  1.00  0.00    -0.376 OA
BRANCH  36  37
ATOM     37  C   UNL A   1      43.337  41.588  34.845  1.00  0.00     0.202 C 
BRANCH  37  38
ATOM     38  C   UNL A   1      44.282  40.478  35.378  1.00  0.00     0.261 C 
BRANCH  38  39
ATOM     39  O   UNL A   1      43.959  39.046  35.631  1.00  0.00    -0.460 OA
BRANCH  39  40
ATOM     40  C   UNL A   1      43.689  37.756  35.780  1.00  0.00     0.338 C 
ATOM     41  O   UNL A   1      44.424  37.140  36.553  1.00  0.00    -0.246 OA
BRANCH  40  42
ATOM     42  C   UNL A   1      42.728  36.945  34.921  1.00  0.00     0.060 A 
ATOM     43  C   UNL A   1      41.679  36.424  35.616  1.00  0.00     0.016 A 
ATOM     44  C   UNL A   1      42.696  36.598  33.555  1.00  0.00     0.016 A 
ATOM     45  C   UNL A   1      40.881  35.418  35.023  1.00  0.00     0.010 A 
ATOM     46  C   UNL A   1      41.915  35.510  33.002  1.00  0.00     0.010 A 
ATOM     47  C   UNL A   1      41.063  34.749  33.790  1.00  0.00    -0.014 A 
BRANCH  47  48
ATOM     48  C   UNL A   1      40.814  33.205  33.398  1.00  0.00     0.031 A 
ATOM     49  C   UNL A   1      41.946  32.238  33.419  1.00  0.00     0.074 A 
ATOM     50  C   UNL A   1      39.635  32.519  33.099  1.00  0.00     0.049 A 
ATOM     51  N   UNL A   1      41.927  31.078  32.832  1.00  0.00    -0.248 NA
ATOM     52  C   UNL A   1      43.246  32.582  33.962  1.00  0.00     0.031 C 
ATOM     53  C   UNL A   1      39.188  31.205  33.602  1.00  0.00     0.029 A 
ATOM     54  N   UNL A   1      38.525  32.853  32.335  1.00  0.00    -0.354 N 
ATOM     55  C   UNL A   1      43.090  30.434  33.182  1.00  0.00     0.074 A 
ATOM     56  C   UNL A   1      43.947  31.490  33.653  1.00  0.00     0.031 C 
ATOM     57  C   UNL A   1      37.935  30.920  33.164  1.00  0.00     0.029 A 
ATOM     58  C   UNL A   1      37.494  31.945  32.223  1.00  0.00     0.049 A 
ATOM     59  H   UNL A   1      38.473  33.724  31.879  1.00  0.00     0.167 HD
ATOM     60  C   UNL A   1      43.120  29.073  33.285  1.00  0.00     0.034 A 
ATOM     61  C   UNL A   1      36.679  31.938  31.116  1.00  0.00     0.034 A 
ATOM     62  C   UNL A   1      41.829  28.472  32.876  1.00  0.00     0.049 A 
ATOM     63  C   UNL A   1      37.059  30.691  30.380  1.00  0.00     0.074 A 
ATOM     64  C   UNL A   1      40.744  28.012  33.610  1.00  0.00     0.029 A 
ATOM     65  N   UNL A   1      41.385  28.541  31.551  1.00  0.00    -0.354 N 
ATOM     66  N   UNL A   1      38.043  29.951  30.803  1.00  0.00    -0.248 NA
ATOM     67  C   UNL A   1      36.427  30.142  29.191  1.00  0.00     0.031 C 
ATOM     68  C   UNL A   1      39.634  27.871  32.733  1.00  0.00     0.029 A 
ATOM     69  C   UNL A   1      40.039  28.192  31.447  1.00  0.00     0.049 A 
ATOM     70  H   UNL A   1      41.952  28.802  30.789  1.00  0.00     0.167 HD
ATOM     71  C   UNL A   1      38.261  28.921  29.966  1.00  0.00     0.074 A 
ATOM     72  C   UNL A   1      37.184  29.044  28.990  1.00  0.00     0.031 C 
ATOM     73  C   UNL A   1      39.348  28.120  30.149  1.00  0.00     0.034 A 
BRANCH  60  74
ATOM     74  C   UNL A   1      44.157  28.358  34.168  1.00  0.00     0.023 A 
ATOM     75  C   UNL A   1      45.261  27.741  33.539  1.00  0.00     0.012 A 
ATOM     76  C   UNL A   1      44.091  28.182  35.575  1.00  0.00     0.148 A 
ATOM     77  C   UNL A   1      46.165  26.917  34.230  1.00  0.00     0.002 A 
ATOM     78  C   UNL A   1      44.938  27.296  36.253  1.00  0.00     0.091 A 
ATOM     79  F   UNL A   1      43.280  28.951  36.304  1.00  0.00    -0.205 F 
ATOM     80  C   UNL A   1      45.980  26.658  35.581  1.00  0.00     0.022 A 
BRANCH  78  81
ATOM     81  S   UNL A   1      44.692  26.870  37.990  1.00  0.00     0.127 S 
ATOM     82  O   UNL A   1      45.011  28.127  38.671  1.00  0.00    -0.237 OA
ATOM     83  O   UNL A   1      43.279  26.500  38.028  1.00  0.00    -0.237 OA
ATOM     84  O   UNL A   1      45.636  25.793  38.276  1.00  0.00    -0.744 OA
ENDBRANCH  78  81
ENDBRANCH  60  74
BRANCH  61  85
ATOM     85  C   UNL A   1      36.269  33.297  30.505  1.00  0.00     0.023 A 
ATOM     86  C   UNL A   1      36.530  33.461  29.123  1.00  0.00     0.012 A 
ATOM     87  C   UNL A   1      35.384  34.242  31.077  1.00  0.00     0.148 A 
ATOM     88  C   UNL A   1      35.756  34.311  28.303  1.00  0.00     0.002 A 
ATOM     89  C   UNL A   1      34.561  35.043  30.247  1.00  0.00     0.091 A 
ATOM     90  F   UNL A   1      35.283  34.293  32.411  1.00  0.00    -0.205 F 
ATOM     91  C   UNL A   1      34.720  35.041  28.855  1.00  0.00     0.022 A 
BRANCH  89  92
ATOM     92  S   UNL A   1      33.109  35.964  30.831  1.00  0.00     0.127 S 
ATOM     93  O   UNL A   1      33.723  37.129  31.470  1.00  0.00    -0.237 OA
ATOM     94  O   UNL A   1      32.396  36.284  29.590  1.00  0.00    -0.237 OA
ATOM     95  O   UNL A   1      32.414  35.072  31.747  1.00  0.00    -0.744 OA
ENDBRANCH  89  92
ENDBRANCH  61  85
BRANCH  73  96
ATOM     96  C   UNL A   1      39.819  27.168  29.097  1.00  0.00     0.023 A 
ATOM     97  C   UNL A   1      39.126  25.976  28.812  1.00  0.00     0.012 A 
ATOM     98  C   UNL A   1      40.879  27.529  28.242  1.00  0.00     0.148 A 
ATOM     99  C   UNL A   1      39.508  25.140  27.765  1.00  0.00     0.002 A 
ATOM    100  C   UNL A   1      41.159  26.769  27.118  1.00  0.00     0.091 A 
ATOM    101  F   UNL A   1      41.625  28.610  28.513  1.00  0.00    -0.205 F 
ATOM    102  C   UNL A   1      40.508  25.552  26.898  1.00  0.00     0.022 A 
BRANCH 100 103
ATOM    103  S   UNL A   1      42.202  27.443  25.824  1.00  0.00     0.127 S 
ATOM    104  O   UNL A   1      42.207  26.362  24.842  1.00  0.00    -0.237 OA
ATOM    105  O   UNL A   1      41.462  28.639  25.416  1.00  0.00    -0.237 OA
ATOM    106  O   UNL A   1      43.471  27.727  26.481  1.00  0.00    -0.744 OA
ENDBRANCH 100 103
ENDBRANCH  73  96
ENDBRANCH  47  48
ENDBRANCH  40  42
ENDBRANCH  39  40
ENDBRANCH  38  39
ENDBRANCH  37  38
ENDBRANCH  36  37
ENDBRANCH  35  36
ENDBRANCH   1  35
TORSDOF 24
ENDMDL
MODEL 3
REMARK VINA RESULT:      -8.1      6.094     14.336
REMARK SMILES Cc1ccc(NC(=O)c2ccccc2NC(=O)[C@H]2CCCC[C@H]2C(=O)OCCOCCOCCOC(=O)c2ccc(-c3c4nc(c(-c5cccc(S(=O)(=O)[O-])c5F)c5ccc([nH]5)c(-c5cccc(S(=O)(=O)[O-])c5F)c5nc(c(-c6cccc(S(=O)(=O)[O-])c6F)c6ccc3[nH]6)C=C5)C=C4)cc2)cc1
REMARK SMILES IDX 30 1 29 2 28 3 27 4 26 5 24 6 25 7 23 8 18 9 19 10 20 11
REMARK SMILES IDX 22 12 21 13 16 14 15 15 17 17 14 18 9 19 10 20 11 21 13 22
REMARK SMILES IDX 12 23 7 24 6 25 8 27 5 28 1 29 2 30 3 31 102 32 4 33 101 34
REMARK SMILES IDX 31 35 32 36 33 37 34 38 35 39 36 40 37 41 38 42 39 43 100 44
REMARK SMILES IDX 40 45 99 46 41 47 42 48 43 49 93 50 44 51 98 52 92 53 94 54
REMARK SMILES IDX 45 55 97 56 91 57 90 58 46 60 78 61 58 62 77 63 59 64 62 65
REMARK SMILES IDX 76 66 95 67 60 68 61 69 75 71 96 72 63 73 47 74 48 75 56 76
REMARK SMILES IDX 49 77 51 78 57 79 50 80 52 81 53 82 54 83 55 84 79 85 80 86
REMARK SMILES IDX 88 87 81 88 83 89 89 90 82 91 84 92 85 93 86 94 87 95 64 96
REMARK SMILES IDX 65 97 73 98 66 99 68 100 74 101 67 102 69 103 70 104 71 105
REMARK SMILES IDX 72 106
REMARK H PARENT 15 16 6 26 94 59 62 70
REMARK Flexibility Score: inf
ROOT
ATOM      1  C   UNL A   1      36.593  30.081  29.531  1.00  0.00     0.188 C 
ENDROOT
BRANCH   1   2
ATOM      2  O   UNL A   1      36.817  31.024  28.505  1.00  0.00    -0.376 OA
BRANCH   2   3
ATOM      3  C   UNL A   1      35.641  31.802  28.132  1.00  0.00     0.202 C 
BRANCH   3   4
ATOM      4  C   UNL A   1      34.464  30.889  27.595  1.00  0.00     0.261 C 
BRANCH   4   5
ATOM      5  O   UNL A   1      34.173  29.274  27.301  1.00  0.00    -0.463 OA
BRANCH   5   6
ATOM      6  C   UNL A   1      33.860  28.348  26.247  1.00  0.00     0.309 C 
ATOM      7  O   UNL A   1      34.146  27.172  26.522  1.00  0.00    -0.252 OA
BRANCH   6   8
ATOM      8  C   UNL A   1      33.112  28.500  24.715  1.00  0.00     0.111 C 
ATOM      9  C   UNL A   1      33.433  28.093  23.133  1.00  0.00     0.093 C 
ATOM     10  C   UNL A   1      32.510  28.971  22.207  1.00  0.00     0.014 C 
ATOM     11  C   UNL A   1      31.011  28.935  22.551  1.00  0.00     0.001 C 
ATOM     12  C   UNL A   1      31.563  28.446  24.945  1.00  0.00     0.016 C 
ATOM     13  C   UNL A   1      30.768  29.333  23.993  1.00  0.00     0.001 C 
BRANCH   9  14
ATOM     14  C   UNL A   1      33.202  26.630  22.551  1.00  0.00     0.228 C 
ATOM     15  N   UNL A   1      32.661  25.507  23.156  1.00  0.00    -0.325 N 
ATOM     16  H   UNL A   1      32.517  24.797  22.490  1.00  0.00     0.169 HD
ATOM     17  O   UNL A   1      33.548  26.406  21.382  1.00  0.00    -0.274 OA
BRANCH  15  18
ATOM     18  C   UNL A   1      32.248  25.065  24.447  1.00  0.00     0.054 A 
ATOM     19  C   UNL A   1      33.069  24.275  25.350  1.00  0.00     0.063 A 
ATOM     20  C   UNL A   1      32.447  23.742  26.513  1.00  0.00     0.016 A 
ATOM     21  C   UNL A   1      31.100  23.936  26.794  1.00  0.00     0.001 A 
ATOM     22  C   UNL A   1      30.925  25.333  24.834  1.00  0.00     0.027 A 
ATOM     23  C   UNL A   1      30.345  24.739  25.960  1.00  0.00     0.002 A 
BRANCH  19  24
ATOM     24  C   UNL A   1      34.444  23.609  25.183  1.00  0.00     0.257 C 
ATOM     25  N   UNL A   1      34.699  22.266  25.154  1.00  0.00    -0.322 N 
ATOM     26  H   UNL A   1      35.584  21.999  25.493  1.00  0.00     0.170 HD
ATOM     27  O   UNL A   1      35.459  24.325  25.185  1.00  0.00    -0.269 OA
BRANCH  25  28
ATOM     28  C   UNL A   1      33.898  21.227  24.719  1.00  0.00     0.041 A 
ATOM     29  C   UNL A   1      32.288  18.060  22.425  1.00  0.00     0.044 C 
ATOM     30  C   UNL A   1      32.693  19.159  23.357  1.00  0.00    -0.051 A 
ATOM     31  C   UNL A   1      33.580  18.881  24.401  1.00  0.00     0.005 A 
ATOM     32  C   UNL A   1      32.301  20.479  23.100  1.00  0.00     0.005 A 
ATOM     33  C   UNL A   1      34.168  19.919  25.101  1.00  0.00     0.026 A 
ATOM     34  C   UNL A   1      32.890  21.524  23.803  1.00  0.00     0.026 A 
ENDBRANCH  25  28
ENDBRANCH  19  24
ENDBRANCH  15  18
ENDBRANCH   9  14
ENDBRANCH   6   8
ENDBRANCH   5   6
ENDBRANCH   4   5
ENDBRANCH   3   4
ENDBRANCH   2   3
ENDBRANCH   1   2
BRANCH   1  35
ATOM     35  C   UNL A   1      36.340  30.832  30.839  1.00  0.00     0.188 C 
BRANCH  35  36
ATOM     36  O   UNL A   1      36.900  30.293  32.012  1.00  0.00    -0.376 OA
BRANCH  36  37
ATOM     37  C   UNL A   1      37.269  31.293  32.935  1.00  0.00     0.202 C 
BRANCH  37  38
ATOM     38  C   UNL A   1      38.708  31.430  33.503  1.00  0.00     0.261 C 
BRANCH  38  39
ATOM     39  O   UNL A   1      39.151  32.215  34.689  1.00  0.00    -0.460 OA
BRANCH  39  40
ATOM     40  C   UNL A   1      39.561  32.845  35.782  1.00  0.00     0.338 C 
ATOM     41  O   UNL A   1      38.971  32.552  36.823  1.00  0.00    -0.246 OA
BRANCH  40  42
ATOM     42  C   UNL A   1      40.506  34.038  35.817  1.00  0.00     0.060 A 
ATOM     43  C   UNL A   1      39.901  35.226  35.539  1.00  0.00     0.016 A 
ATOM     44  C   UNL A   1      41.888  34.181  36.059  1.00  0.00     0.016 A 
ATOM     45  C   UNL A   1      40.691  36.361  35.246  1.00  0.00     0.010 A 
ATOM     46  C   UNL A   1      42.674  35.336  35.675  1.00  0.00     0.010 A 
ATOM     47  C   UNL A   1      42.094  36.449  35.083  1.00  0.00    -0.014 A 
BRANCH  47  48
ATOM     48  C   UNL A   1      42.967  37.320  34.044  1.00  0.00     0.031 A 
ATOM     49  C   UNL A   1      43.395  36.726  32.747  1.00  0.00     0.074 A 
ATOM     50  C   UNL A   1      43.364  38.658  34.084  1.00  0.00     0.049 A 
ATOM     51  N   UNL A   1      44.341  37.210  31.998  1.00  0.00    -0.248 NA
ATOM     52  C   UNL A   1      42.899  35.445  32.284  1.00  0.00     0.031 C 
ATOM     53  C   UNL A   1      43.303  39.665  33.006  1.00  0.00     0.029 A 
ATOM     54  N   UNL A   1      43.852  39.460  35.108  1.00  0.00    -0.354 N 
ATOM     55  C   UNL A   1      44.352  36.469  30.840  1.00  0.00     0.074 A 
ATOM     56  C   UNL A   1      43.634  35.270  31.185  1.00  0.00     0.031 C 
ATOM     57  C   UNL A   1      43.685  40.886  33.461  1.00  0.00     0.029 A 
ATOM     58  C   UNL A   1      44.166  40.774  34.835  1.00  0.00     0.049 A 
ATOM     59  H   UNL A   1      43.971  39.098  36.016  1.00  0.00     0.167 HD
ATOM     60  C   UNL A   1      44.729  37.042  29.659  1.00  0.00     0.034 A 
ATOM     61  C   UNL A   1      45.120  41.438  35.570  1.00  0.00     0.034 A 
ATOM     62  C   UNL A   1      45.188  38.437  29.858  1.00  0.00     0.049 A 
ATOM     63  C   UNL A   1      46.275  41.592  34.628  1.00  0.00     0.074 A 
ATOM     64  C   UNL A   1      44.552  39.659  29.681  1.00  0.00     0.029 A 
ATOM     65  N   UNL A   1      46.356  38.720  30.573  1.00  0.00    -0.354 N 
ATOM     66  N   UNL A   1      46.234  41.058  33.442  1.00  0.00    -0.248 NA
ATOM     67  C   UNL A   1      47.511  42.322  34.863  1.00  0.00     0.031 C 
ATOM     68  C   UNL A   1      45.309  40.660  30.349  1.00  0.00     0.029 A 
ATOM     69  C   UNL A   1      46.439  40.074  30.897  1.00  0.00     0.049 A 
ATOM     70  H   UNL A   1      47.035  38.048  30.816  1.00  0.00     0.167 HD
ATOM     71  C   UNL A   1      47.392  41.257  32.788  1.00  0.00     0.074 A 
ATOM     72  C   UNL A   1      48.152  42.107  33.697  1.00  0.00     0.031 C 
ATOM     73  C   UNL A   1      47.606  40.642  31.591  1.00  0.00     0.034 A 
BRANCH  60  74
ATOM     74  C   UNL A   1      44.255  36.479  28.309  1.00  0.00     0.023 A 
ATOM     75  C   UNL A   1      42.946  36.789  27.877  1.00  0.00     0.012 A 
ATOM     76  C   UNL A   1      44.977  35.602  27.457  1.00  0.00     0.148 A 
ATOM     77  C   UNL A   1      42.355  36.186  26.754  1.00  0.00     0.002 A 
ATOM     78  C   UNL A   1      44.366  34.937  26.386  1.00  0.00     0.091 A 
ATOM     79  F   UNL A   1      46.299  35.478  27.598  1.00  0.00    -0.205 F 
ATOM     80  C   UNL A   1      43.050  35.227  26.030  1.00  0.00     0.022 A 
BRANCH  78  81
ATOM     81  S   UNL A   1      45.203  33.629  25.465  1.00  0.00     0.127 S 
ATOM     82  O   UNL A   1      44.167  33.194  24.524  1.00  0.00    -0.237 OA
ATOM     83  O   UNL A   1      46.320  34.340  24.850  1.00  0.00    -0.237 OA
ATOM     84  O   UNL A   1      45.563  32.613  26.449  1.00  0.00    -0.744 OA
ENDBRANCH  78  81
ENDBRANCH  60  74
BRANCH  61  85
ATOM     85  C   UNL A   1      45.181  41.174  37.091  1.00  0.00     0.023 A 
ATOM     86  C   UNL A   1      46.274  40.397  37.544  1.00  0.00     0.012 A 
ATOM     87  C   UNL A   1      44.475  41.880  38.094  1.00  0.00     0.148 A 
ATOM     88  C   UNL A   1      46.811  40.532  38.843  1.00  0.00     0.002 A 
ATOM     89  C   UNL A   1      45.052  42.070  39.374  1.00  0.00     0.091 A 
ATOM     90  F   UNL A   1      43.299  42.435  37.774  1.00  0.00    -0.205 F 
ATOM     91  C   UNL A   1      46.246  41.429  39.729  1.00  0.00     0.022 A 
BRANCH  89  92
ATOM     92  S   UNL A   1      44.470  43.290  40.587  1.00  0.00     0.127 S 
ATOM     93  O   UNL A   1      43.092  42.853  40.820  1.00  0.00    -0.237 OA
ATOM     94  O   UNL A   1      45.356  43.068  41.734  1.00  0.00    -0.237 OA
ATOM     95  O   UNL A   1      44.589  44.586  39.938  1.00  0.00    -0.744 OA
ENDBRANCH  89  92
ENDBRANCH  61  85
BRANCH  73  96
ATOM     96  C   UNL A   1      48.964  40.565  30.969  1.00  0.00     0.023 A 
ATOM     97  C   UNL A   1      49.303  41.328  29.836  1.00  0.00     0.012 A 
ATOM     98  C   UNL A   1      49.995  39.853  31.612  1.00  0.00     0.148 A 
ATOM     99  C   UNL A   1      50.596  41.332  29.317  1.00  0.00     0.002 A 
ATOM    100  C   UNL A   1      51.305  39.978  31.178  1.00  0.00     0.091 A 
ATOM    101  F   UNL A   1      49.715  39.046  32.646  1.00  0.00    -0.205 F 
ATOM    102  C   UNL A   1      51.606  40.680  30.007  1.00  0.00     0.022 A 
BRANCH 100 103
ATOM    103  S   UNL A   1      52.648  39.427  32.230  1.00  0.00     0.127 S 
ATOM    104  O   UNL A   1      53.821  39.904  31.503  1.00  0.00    -0.237 OA
ATOM    105  O   UNL A   1      52.375  40.132  33.484  1.00  0.00    -0.237 OA
ATOM    106  O   UNL A   1      52.482  37.981  32.315  1.00  0.00    -0.744 OA
ENDBRANCH 100 103
ENDBRANCH  73  96
ENDBRANCH  47  48
ENDBRANCH  40  42
ENDBRANCH  39  40
ENDBRANCH  38  39
ENDBRANCH  37  38
ENDBRANCH  36  37
ENDBRANCH  35  36
ENDBRANCH   1  35
TORSDOF 24
ENDMDL
