MODEL 1
REMARK VINA RESULT:     -11.7      0.000      0.000
REMARK SMILES O=C(OCCOCCOCCOC(=O)c1nn(Cc2ccc(F)cc2)c2c1CN(C(=O)[C@H]1CC1(F)F)CC2)c1ccc(-c2c3nc(c(-c4cccc(S(=O)(=O)[O-])c4F)c4ccc([nH]4)c(-c4cccc(S(=O)(=O)[O-])c4F)c4nc(c(-c5cccc(S(=O)(=O)[O-])c5F)c5ccc2[nH]5)C=C4)C=C3)cc1
REMARK SMILES IDX 7 1 6 2 5 3 4 4 3 5 2 6 1 7 39 8 40 9 101 10 41 11 100 12
REMARK SMILES IDX 42 13 43 14 44 15 94 16 45 17 99 18 93 19 95 20 46 21 98 22
REMARK SMILES IDX 92 23 91 24 47 26 79 27 59 28 78 29 60 30 63 31 77 32 96 33
REMARK SMILES IDX 61 34 62 35 76 37 97 38 64 39 48 40 49 41 57 42 50 43 52 44
REMARK SMILES IDX 58 45 51 46 53 47 54 48 55 49 56 50 80 51 81 52 89 53 82 54
REMARK SMILES IDX 84 55 90 56 83 57 85 58 86 59 87 60 88 61 65 62 66 63 74 64
REMARK SMILES IDX 67 65 69 66 75 67 68 68 70 69 71 70 72 71 73 72 8 73 9 74
REMARK SMILES IDX 10 75 11 76 12 77 13 78 14 79 15 80 16 81 27 82 17 83 26 84
REMARK SMILES IDX 28 85 38 86 29 87 37 88 18 89 19 90 20 91 25 92 21 93 24 94
REMARK SMILES IDX 22 95 23 96 30 97 31 98 32 99 33 100 34 101 35 102 36 103
REMARK H PARENT 95 25 63 36
REMARK Flexibility Score: inf
ROOT
ATOM      1  C   UNL A   1      32.453  28.551  26.791  1.00  0.00     0.188 C 
ENDROOT
BRANCH   1   2
ATOM      2  O   UNL A   1      33.741  28.485  27.367  1.00  0.00    -0.376 OA
BRANCH   2   3
ATOM      3  C   UNL A   1      34.585  29.613  27.406  1.00  0.00     0.202 C 
BRANCH   3   4
ATOM      4  C   UNL A   1      34.046  30.974  27.868  1.00  0.00     0.261 C 
BRANCH   4   5
ATOM      5  O   UNL A   1      34.873  31.695  28.784  1.00  0.00    -0.460 OA
BRANCH   5   6
ATOM      6  C   UNL A   1      36.132  32.162  28.662  1.00  0.00     0.338 C 
ATOM      7  O   UNL A   1      36.314  33.165  27.976  1.00  0.00    -0.246 OA
BRANCH   6   8
ATOM      8  C   UNL A   1      37.327  31.432  29.174  1.00  0.00     0.060 A 
ATOM      9  C   UNL A   1      38.584  31.987  29.424  1.00  0.00     0.016 A 
ATOM     10  C   UNL A   1      37.144  30.055  29.406  1.00  0.00     0.016 A 
ATOM     11  C   UNL A   1      39.661  31.176  29.755  1.00  0.00     0.010 A 
ATOM     12  C   UNL A   1      38.213  29.241  29.758  1.00  0.00     0.010 A 
ATOM     13  C   UNL A   1      39.485  29.799  29.852  1.00  0.00    -0.014 A 
BRANCH  13  14
ATOM     14  C   UNL A   1      40.685  28.979  29.968  1.00  0.00     0.031 A 
ATOM     15  C   UNL A   1      41.178  28.675  31.338  1.00  0.00     0.074 A 
ATOM     16  C   UNL A   1      41.285  28.468  28.875  1.00  0.00     0.049 A 
ATOM     17  N   UNL A   1      42.341  28.925  31.848  1.00  0.00    -0.248 NA
ATOM     18  C   UNL A   1      40.228  28.064  32.278  1.00  0.00     0.031 C 
ATOM     19  C   UNL A   1      40.760  28.445  27.504  1.00  0.00     0.029 A 
ATOM     20  N   UNL A   1      42.421  27.721  28.790  1.00  0.00    -0.354 N 
ATOM     21  C   UNL A   1      42.344  28.319  33.104  1.00  0.00     0.074 A 
ATOM     22  C   UNL A   1      40.984  27.925  33.367  1.00  0.00     0.031 C 
ATOM     23  C   UNL A   1      41.421  27.505  26.800  1.00  0.00     0.029 A 
ATOM     24  C   UNL A   1      42.493  26.975  27.621  1.00  0.00     0.049 A 
ATOM     25  H   UNL A   1      43.120  27.713  29.484  1.00  0.00     0.167 HD
ATOM     26  C   UNL A   1      43.496  28.002  33.758  1.00  0.00     0.034 A 
ATOM     27  C   UNL A   1      43.309  25.924  27.386  1.00  0.00     0.034 A 
ATOM     28  C   UNL A   1      44.629  28.721  33.246  1.00  0.00     0.049 A 
ATOM     29  C   UNL A   1      44.442  26.005  28.331  1.00  0.00     0.074 A 
ATOM     30  C   UNL A   1      44.989  30.048  33.137  1.00  0.00     0.029 A 
ATOM     31  N   UNL A   1      45.522  28.024  32.473  1.00  0.00    -0.354 N 
ATOM     32  N   UNL A   1      45.357  26.932  28.300  1.00  0.00    -0.248 NA
ATOM     33  C   UNL A   1      44.385  25.223  29.555  1.00  0.00     0.031 C 
ATOM     34  C   UNL A   1      45.792  30.122  31.963  1.00  0.00     0.029 A 
ATOM     35  C   UNL A   1      45.879  28.833  31.431  1.00  0.00     0.049 A 
ATOM     36  H   UNL A   1      45.847  27.109  32.639  1.00  0.00     0.167 HD
ATOM     37  C   UNL A   1      45.698  27.133  29.629  1.00  0.00     0.074 A 
ATOM     38  C   UNL A   1      45.187  25.960  30.328  1.00  0.00     0.031 C 
ATOM     39  C   UNL A   1      46.096  28.360  30.079  1.00  0.00     0.034 A 
BRANCH  26  40
ATOM     40  C   UNL A   1      43.677  26.809  34.672  1.00  0.00     0.023 A 
ATOM     41  C   UNL A   1      43.063  25.591  34.295  1.00  0.00     0.012 A 
ATOM     42  C   UNL A   1      44.181  26.883  35.989  1.00  0.00     0.148 A 
ATOM     43  C   UNL A   1      42.914  24.528  35.194  1.00  0.00     0.002 A 
ATOM     44  C   UNL A   1      44.113  25.792  36.849  1.00  0.00     0.091 A 
ATOM     45  F   UNL A   1      44.616  28.049  36.478  1.00  0.00    -0.205 F 
ATOM     46  C   UNL A   1      43.451  24.622  36.471  1.00  0.00     0.022 A 
BRANCH  44  47
ATOM     47  S   UNL A   1      44.887  25.857  38.469  1.00  0.00     0.127 S 
ATOM     48  O   UNL A   1      46.186  26.439  38.153  1.00  0.00    -0.237 OA
ATOM     49  O   UNL A   1      43.977  26.731  39.210  1.00  0.00    -0.237 OA
ATOM     50  O   UNL A   1      44.885  24.474  38.936  1.00  0.00    -0.744 OA
ENDBRANCH  44  47
ENDBRANCH  26  40
BRANCH  27  51
ATOM     51  C   UNL A   1      43.037  24.716  26.576  1.00  0.00     0.023 A 
ATOM     52  C   UNL A   1      43.959  24.317  25.592  1.00  0.00     0.012 A 
ATOM     53  C   UNL A   1      42.009  23.814  26.937  1.00  0.00     0.148 A 
ATOM     54  C   UNL A   1      43.877  23.050  25.003  1.00  0.00     0.002 A 
ATOM     55  C   UNL A   1      41.922  22.564  26.336  1.00  0.00     0.091 A 
ATOM     56  F   UNL A   1      41.181  24.141  27.938  1.00  0.00    -0.205 F 
ATOM     57  C   UNL A   1      42.862  22.172  25.376  1.00  0.00     0.022 A 
BRANCH  55  58
ATOM     58  S   UNL A   1      40.643  21.384  26.788  1.00  0.00     0.127 S 
ATOM     59  O   UNL A   1      40.993  20.226  25.965  1.00  0.00    -0.237 OA
ATOM     60  O   UNL A   1      40.881  21.216  28.217  1.00  0.00    -0.237 OA
ATOM     61  O   UNL A   1      39.382  22.016  26.420  1.00  0.00    -0.744 OA
ENDBRANCH  55  58
ENDBRANCH  27  51
BRANCH  39  62
ATOM     62  C   UNL A   1      46.454  29.420  29.064  1.00  0.00     0.023 A 
ATOM     63  C   UNL A   1      47.748  29.503  28.511  1.00  0.00     0.012 A 
ATOM     64  C   UNL A   1      45.425  30.197  28.501  1.00  0.00     0.148 A 
ATOM     65  C   UNL A   1      48.017  30.353  27.436  1.00  0.00     0.002 A 
ATOM     66  C   UNL A   1      45.684  31.000  27.397  1.00  0.00     0.091 A 
ATOM     67  F   UNL A   1      44.194  30.104  29.031  1.00  0.00    -0.205 F 
ATOM     68  C   UNL A   1      46.981  31.089  26.867  1.00  0.00     0.022 A 
BRANCH  66  69
ATOM     69  S   UNL A   1      44.365  31.847  26.518  1.00  0.00     0.127 S 
ATOM     70  O   UNL A   1      43.397  30.774  26.308  1.00  0.00    -0.237 OA
ATOM     71  O   UNL A   1      43.949  32.868  27.482  1.00  0.00    -0.237 OA
ATOM     72  O   UNL A   1      44.979  32.390  25.311  1.00  0.00    -0.744 OA
ENDBRANCH  66  69
ENDBRANCH  39  62
ENDBRANCH  13  14
ENDBRANCH   6   8
ENDBRANCH   5   6
ENDBRANCH   4   5
ENDBRANCH   3   4
ENDBRANCH   2   3
ENDBRANCH   1   2
BRANCH   1  73
ATOM     73  C   UNL A   1      32.450  28.200  25.285  1.00  0.00     0.188 C 
BRANCH  73  74
ATOM     74  O   UNL A   1      33.642  27.775  24.625  1.00  0.00    -0.376 OA
BRANCH  74  75
ATOM     75  C   UNL A   1      34.210  28.543  23.583  1.00  0.00     0.202 C 
BRANCH  75  76
ATOM     76  C   UNL A   1      33.998  28.027  22.161  1.00  0.00     0.261 C 
BRANCH  76  77
ATOM     77  O   UNL A   1      34.141  26.613  21.984  1.00  0.00    -0.458 OA
BRANCH  77  78
ATOM     78  C   UNL A   1      33.078  25.954  21.423  1.00  0.00     0.359 C 
ATOM     79  O   UNL A   1      32.992  25.643  20.242  1.00  0.00    -0.244 OA
BRANCH  78  80
ATOM     80  C   UNL A   1      32.044  25.635  22.415  1.00  0.00     0.175 A 
ATOM     81  N   UNL A   1      32.100  24.483  23.113  1.00  0.00    -0.165 NA
ATOM     82  C   UNL A   1      30.923  26.416  22.820  1.00  0.00     0.028 A 
ATOM     83  N   UNL A   1      31.032  24.522  23.942  1.00  0.00    -0.264 N 
ATOM     84  C   UNL A   1      30.281  25.645  23.769  1.00  0.00     0.046 A 
ATOM     85  C   UNL A   1      30.425  27.751  22.372  1.00  0.00     0.159 C 
ATOM     86  C   UNL A   1      29.033  26.036  24.477  1.00  0.00     0.078 C 
ATOM     87  N   UNL A   1      29.295  28.183  23.222  1.00  0.00    -0.337 N 
ATOM     88  C   UNL A   1      28.337  27.143  23.657  1.00  0.00     0.126 C 
BRANCH  83  89
ATOM     89  C   UNL A   1      30.898  23.509  24.982  1.00  0.00     0.180 C 
BRANCH  89  90
ATOM     90  C   UNL A   1      31.986  22.466  24.927  1.00  0.00    -0.026 A 
ATOM     91  C   UNL A   1      33.056  22.502  25.841  1.00  0.00     0.008 A 
ATOM     92  C   UNL A   1      31.936  21.430  23.981  1.00  0.00     0.008 A 
ATOM     93  C   UNL A   1      34.049  21.525  25.812  1.00  0.00     0.039 A 
ATOM     94  C   UNL A   1      32.930  20.449  23.959  1.00  0.00     0.039 A 
ATOM     95  C   UNL A   1      33.975  20.504  24.875  1.00  0.00     0.123 A 
ATOM     96  F   UNL A   1      34.921  19.557  24.857  1.00  0.00    -0.207 F 
ENDBRANCH  89  90
ENDBRANCH  83  89
BRANCH  87  97
ATOM     97  C   UNL A   1      29.120  29.550  23.414  1.00  0.00     0.232 C 
ATOM     98  O   UNL A   1      29.922  30.234  24.041  1.00  0.00    -0.274 OA
BRANCH  97  99
ATOM     99  C   UNL A   1      27.955  30.205  22.780  1.00  0.00     0.154 C 
ATOM    100  C   UNL A   1      27.435  31.557  23.236  1.00  0.00     0.097 C 
ATOM    101  C   UNL A   1      28.183  31.426  21.964  1.00  0.00     0.260 C 
ATOM    102  F   UNL A   1      29.405  32.049  21.861  1.00  0.00    -0.206 F 
ATOM    103  F   UNL A   1      27.522  31.625  20.776  1.00  0.00    -0.206 F 
ENDBRANCH  97  99
ENDBRANCH  87  97
ENDBRANCH  78  80
ENDBRANCH  77  78
ENDBRANCH  76  77
ENDBRANCH  75  76
ENDBRANCH  74  75
ENDBRANCH  73  74
ENDBRANCH   1  73
TORSDOF 24
ENDMDL
MODEL 2
REMARK VINA RESULT:     -11.3      1.796      4.829
REMARK SMILES O=C(OCCOCCOCCOC(=O)c1nn(Cc2ccc(F)cc2)c2c1CN(C(=O)[C@H]1CC1(F)F)CC2)c1ccc(-c2c3nc(c(-c4cccc(S(=O)(=O)[O-])c4F)c4ccc([nH]4)c(-c4cccc(S(=O)(=O)[O-])c4F)c4nc(c(-c5cccc(S(=O)(=O)[O-])c5F)c5ccc2[nH]5)C=C4)C=C3)cc1
REMARK SMILES IDX 7 1 6 2 5 3 4 4 3 5 2 6 1 7 39 8 40 9 101 10 41 11 100 12
REMARK SMILES IDX 42 13 43 14 44 15 94 16 45 17 99 18 93 19 95 20 46 21 98 22
REMARK SMILES IDX 92 23 91 24 47 26 79 27 59 28 78 29 60 30 63 31 77 32 96 33
REMARK SMILES IDX 61 34 62 35 76 37 97 38 64 39 48 40 49 41 57 42 50 43 52 44
REMARK SMILES IDX 58 45 51 46 53 47 54 48 55 49 56 50 80 51 81 52 89 53 82 54
REMARK SMILES IDX 84 55 90 56 83 57 85 58 86 59 87 60 88 61 65 62 66 63 74 64
REMARK SMILES IDX 67 65 69 66 75 67 68 68 70 69 71 70 72 71 73 72 8 73 9 74
REMARK SMILES IDX 10 75 11 76 12 77 13 78 14 79 15 80 16 81 27 82 17 83 26 84
REMARK SMILES IDX 28 85 38 86 29 87 37 88 18 89 19 90 20 91 25 92 21 93 24 94
REMARK SMILES IDX 22 95 23 96 30 97 31 98 32 99 33 100 34 101 35 102 36 103
REMARK H PARENT 95 25 63 36
REMARK Flexibility Score: inf
ROOT
ATOM      1  C   UNL A   1      34.355  30.841  27.928  1.00  0.00     0.188 C 
ENDROOT
BRANCH   1   2
ATOM      2  O   UNL A   1      33.467  31.931  27.792  1.00  0.00    -0.376 OA
BRANCH   2   3
ATOM      3  C   UNL A   1      33.875  33.249  28.082  1.00  0.00     0.202 C 
BRANCH   3   4
ATOM      4  C   UNL A   1      34.283  33.642  29.509  1.00  0.00     0.261 C 
BRANCH   4   5
ATOM      5  O   UNL A   1      35.570  33.190  29.937  1.00  0.00    -0.460 OA
BRANCH   5   6
ATOM      6  C   UNL A   1      36.734  33.067  29.267  1.00  0.00     0.338 C 
ATOM      7  O   UNL A   1      36.839  33.627  28.178  1.00  0.00    -0.246 OA
BRANCH   6   8
ATOM      8  C   UNL A   1      37.831  32.152  29.697  1.00  0.00     0.060 A 
ATOM      9  C   UNL A   1      39.038  32.537  30.284  1.00  0.00     0.016 A 
ATOM     10  C   UNL A   1      37.604  30.781  29.467  1.00  0.00     0.016 A 
ATOM     11  C   UNL A   1      40.046  31.607  30.502  1.00  0.00     0.010 A 
ATOM     12  C   UNL A   1      38.600  29.843  29.703  1.00  0.00     0.010 A 
ATOM     13  C   UNL A   1      39.846  30.276  30.146  1.00  0.00    -0.014 A 
BRANCH  13  14
ATOM     14  C   UNL A   1      41.008  29.396  30.177  1.00  0.00     0.031 A 
ATOM     15  C   UNL A   1      41.567  29.045  31.510  1.00  0.00     0.074 A 
ATOM     16  C   UNL A   1      41.514  28.874  29.043  1.00  0.00     0.049 A 
ATOM     17  N   UNL A   1      42.770  29.229  31.951  1.00  0.00    -0.248 NA
ATOM     18  C   UNL A   1      40.646  28.466  32.498  1.00  0.00     0.031 C 
ATOM     19  C   UNL A   1      40.907  28.900  27.707  1.00  0.00     0.029 A 
ATOM     20  N   UNL A   1      42.604  28.073  28.878  1.00  0.00    -0.354 N 
ATOM     21  C   UNL A   1      42.818  28.602  33.197  1.00  0.00     0.074 A 
ATOM     22  C   UNL A   1      41.458  28.272  33.537  1.00  0.00     0.031 C 
ATOM     23  C   UNL A   1      41.476  27.940  26.950  1.00  0.00     0.029 A 
ATOM     24  C   UNL A   1      42.567  27.344  27.697  1.00  0.00     0.049 A 
ATOM     25  H   UNL A   1      43.342  28.018  29.528  1.00  0.00     0.167 HD
ATOM     26  C   UNL A   1      43.990  28.217  33.774  1.00  0.00     0.034 A 
ATOM     27  C   UNL A   1      43.313  26.257  27.398  1.00  0.00     0.034 A 
ATOM     28  C   UNL A   1      45.125  28.887  33.204  1.00  0.00     0.049 A 
ATOM     29  C   UNL A   1      44.504  26.266  28.273  1.00  0.00     0.074 A 
ATOM     30  C   UNL A   1      45.545  30.197  33.091  1.00  0.00     0.029 A 
ATOM     31  N   UNL A   1      45.933  28.159  32.368  1.00  0.00    -0.354 N 
ATOM     32  N   UNL A   1      45.461  27.147  28.198  1.00  0.00    -0.248 NA
ATOM     33  C   UNL A   1      44.482  25.468  29.487  1.00  0.00     0.031 C 
ATOM     34  C   UNL A   1      46.278  30.250  31.871  1.00  0.00     0.029 A 
ATOM     35  C   UNL A   1      46.267  28.967  31.317  1.00  0.00     0.049 A 
ATOM     36  H   UNL A   1      46.220  27.227  32.501  1.00  0.00     0.167 HD
ATOM     37  C   UNL A   1      45.892  27.309  29.507  1.00  0.00     0.074 A 
ATOM     38  C   UNL A   1      45.365  26.151  30.220  1.00  0.00     0.031 C 
ATOM     39  C   UNL A   1      46.378  28.507  29.948  1.00  0.00     0.034 A 
BRANCH  26  40
ATOM     40  C   UNL A   1      44.166  27.001  34.659  1.00  0.00     0.023 A 
ATOM     41  C   UNL A   1      44.622  27.210  35.983  1.00  0.00     0.012 A 
ATOM     42  C   UNL A   1      44.166  25.669  34.192  1.00  0.00     0.148 A 
ATOM     43  C   UNL A   1      45.098  26.160  36.776  1.00  0.00     0.002 A 
ATOM     44  C   UNL A   1      44.553  24.617  35.016  1.00  0.00     0.091 A 
ATOM     45  F   UNL A   1      43.918  25.407  32.905  1.00  0.00    -0.205 F 
ATOM     46  C   UNL A   1      45.053  24.857  36.297  1.00  0.00     0.022 A 
BRANCH  44  47
ATOM     47  S   UNL A   1      44.410  22.917  34.453  1.00  0.00     0.127 S 
ATOM     48  O   UNL A   1      45.484  22.838  33.471  1.00  0.00    -0.237 OA
ATOM     49  O   UNL A   1      44.638  22.164  35.687  1.00  0.00    -0.237 OA
ATOM     50  O   UNL A   1      43.046  22.810  33.943  1.00  0.00    -0.744 OA
ENDBRANCH  44  47
ENDBRANCH  26  40
BRANCH  27  51
ATOM     51  C   UNL A   1      42.931  25.078  26.590  1.00  0.00     0.023 A 
ATOM     52  C   UNL A   1      43.747  24.678  25.517  1.00  0.00     0.012 A 
ATOM     53  C   UNL A   1      41.914  24.197  27.024  1.00  0.00     0.148 A 
ATOM     54  C   UNL A   1      43.573  23.429  24.910  1.00  0.00     0.002 A 
ATOM     55  C   UNL A   1      41.735  22.965  26.406  1.00  0.00     0.091 A 
ATOM     56  F   UNL A   1      41.191  24.521  28.104  1.00  0.00    -0.205 F 
ATOM     57  C   UNL A   1      42.570  22.571  25.355  1.00  0.00     0.022 A 
BRANCH  55  58
ATOM     58  S   UNL A   1      40.467  21.810  26.947  1.00  0.00     0.127 S 
ATOM     59  O   UNL A   1      40.813  21.616  28.356  1.00  0.00    -0.237 OA
ATOM     60  O   UNL A   1      39.246  22.575  26.715  1.00  0.00    -0.237 OA
ATOM     61  O   UNL A   1      40.643  20.623  26.121  1.00  0.00    -0.744 OA
ENDBRANCH  55  58
ENDBRANCH  27  51
BRANCH  39  62
ATOM     62  C   UNL A   1      46.727  29.564  28.928  1.00  0.00     0.023 A 
ATOM     63  C   UNL A   1      47.996  29.605  28.313  1.00  0.00     0.012 A 
ATOM     64  C   UNL A   1      45.703  30.386  28.423  1.00  0.00     0.148 A 
ATOM     65  C   UNL A   1      48.244  30.457  27.235  1.00  0.00     0.002 A 
ATOM     66  C   UNL A   1      45.939  31.192  27.316  1.00  0.00     0.091 A 
ATOM     67  F   UNL A   1      44.496  30.333  29.011  1.00  0.00    -0.205 F 
ATOM     68  C   UNL A   1      47.211  31.238  26.725  1.00  0.00     0.022 A 
BRANCH  66  69
ATOM     69  S   UNL A   1      44.613  32.098  26.511  1.00  0.00     0.127 S 
ATOM     70  O   UNL A   1      44.263  33.093  27.521  1.00  0.00    -0.237 OA
ATOM     71  O   UNL A   1      45.277  32.639  25.322  1.00  0.00    -0.237 OA
ATOM     72  O   UNL A   1      43.582  31.111  26.213  1.00  0.00    -0.744 OA
ENDBRANCH  66  69
ENDBRANCH  39  62
ENDBRANCH  13  14
ENDBRANCH   6   8
ENDBRANCH   5   6
ENDBRANCH   4   5
ENDBRANCH   3   4
ENDBRANCH   2   3
ENDBRANCH   1   2
BRANCH   1  73
ATOM     73  C   UNL A   1      34.068  29.703  26.921  1.00  0.00     0.188 C 
BRANCH  73  74
ATOM     74  O   UNL A   1      32.900  29.722  26.102  1.00  0.00    -0.376 OA
BRANCH  74  75
ATOM     75  C   UNL A   1      31.755  28.969  26.452  1.00  0.00     0.202 C 
BRANCH  75  76
ATOM     76  C   UNL A   1      31.997  27.535  26.917  1.00  0.00     0.261 C 
BRANCH  76  77
ATOM     77  O   UNL A   1      30.824  26.734  27.103  1.00  0.00    -0.458 OA
BRANCH  77  78
ATOM     78  C   UNL A   1      30.754  25.571  26.380  1.00  0.00     0.359 C 
ATOM     79  O   UNL A   1      30.460  24.477  26.841  1.00  0.00    -0.244 OA
BRANCH  78  80
ATOM     80  C   UNL A   1      31.054  25.790  24.959  1.00  0.00     0.175 A 
ATOM     81  N   UNL A   1      30.472  26.805  24.287  1.00  0.00    -0.165 NA
ATOM     82  C   UNL A   1      31.952  25.075  24.115  1.00  0.00     0.028 A 
ATOM     83  N   UNL A   1      30.983  26.736  23.037  1.00  0.00    -0.264 N 
ATOM     84  C   UNL A   1      31.841  25.689  22.883  1.00  0.00     0.046 A 
ATOM     85  C   UNL A   1      32.831  23.894  24.369  1.00  0.00     0.159 C 
ATOM     86  C   UNL A   1      32.582  25.278  21.660  1.00  0.00     0.078 C 
ATOM     87  N   UNL A   1      33.682  23.632  23.188  1.00  0.00    -0.337 N 
ATOM     88  C   UNL A   1      33.071  23.827  21.855  1.00  0.00     0.126 C 
BRANCH  83  89
ATOM     89  C   UNL A   1      30.710  27.813  22.093  1.00  0.00     0.180 C 
BRANCH  89  90
ATOM     90  C   UNL A   1      29.695  28.802  22.612  1.00  0.00    -0.026 A 
ATOM     91  C   UNL A   1      30.112  30.019  23.183  1.00  0.00     0.008 A 
ATOM     92  C   UNL A   1      28.320  28.535  22.511  1.00  0.00     0.008 A 
ATOM     93  C   UNL A   1      29.177  30.947  23.638  1.00  0.00     0.039 A 
ATOM     94  C   UNL A   1      27.387  29.470  22.962  1.00  0.00     0.039 A 
ATOM     95  C   UNL A   1      27.823  30.667  23.519  1.00  0.00     0.123 A 
ATOM     96  F   UNL A   1      26.925  31.566  23.942  1.00  0.00    -0.207 F 
ENDBRANCH  89  90
ENDBRANCH  83  89
BRANCH  87  97
ATOM     97  C   UNL A   1      34.933  23.065  23.410  1.00  0.00     0.232 C 
ATOM     98  O   UNL A   1      35.951  23.487  22.873  1.00  0.00    -0.274 OA
BRANCH  97  99
ATOM     99  C   UNL A   1      35.038  21.955  24.382  1.00  0.00     0.154 C 
ATOM    100  C   UNL A   1      36.371  21.336  24.768  1.00  0.00     0.097 C 
ATOM    101  C   UNL A   1      35.652  22.227  25.708  1.00  0.00     0.260 C 
ATOM    102  F   UNL A   1      36.234  23.429  26.039  1.00  0.00    -0.206 F 
ATOM    103  F   UNL A   1      35.126  21.697  26.862  1.00  0.00    -0.206 F 
ENDBRANCH  97  99
ENDBRANCH  87  97
ENDBRANCH  78  80
ENDBRANCH  77  78
ENDBRANCH  76  77
ENDBRANCH  75  76
ENDBRANCH  74  75
ENDBRANCH  73  74
ENDBRANCH   1  73
TORSDOF 24
ENDMDL
MODEL 3
REMARK VINA RESULT:     -11.1      2.050      2.990
REMARK SMILES O=C(OCCOCCOCCOC(=O)c1nn(Cc2ccc(F)cc2)c2c1CN(C(=O)[C@H]1CC1(F)F)CC2)c1ccc(-c2c3nc(c(-c4cccc(S(=O)(=O)[O-])c4F)c4ccc([nH]4)c(-c4cccc(S(=O)(=O)[O-])c4F)c4nc(c(-c5cccc(S(=O)(=O)[O-])c5F)c5ccc2[nH]5)C=C4)C=C3)cc1
REMARK SMILES IDX 7 1 6 2 5 3 4 4 3 5 2 6 1 7 39 8 40 9 101 10 41 11 100 12
REMARK SMILES IDX 42 13 43 14 44 15 94 16 45 17 99 18 93 19 95 20 46 21 98 22
REMARK SMILES IDX 92 23 91 24 47 26 79 27 59 28 78 29 60 30 63 31 77 32 96 33
REMARK SMILES IDX 61 34 62 35 76 37 97 38 64 39 48 40 49 41 57 42 50 43 52 44
REMARK SMILES IDX 58 45 51 46 53 47 54 48 55 49 56 50 80 51 81 52 89 53 82 54
REMARK SMILES IDX 84 55 90 56 83 57 85 58 86 59 87 60 88 61 65 62 66 63 74 64
REMARK SMILES IDX 67 65 69 66 75 67 68 68 70 69 71 70 72 71 73 72 8 73 9 74
REMARK SMILES IDX 10 75 11 76 12 77 13 78 14 79 15 80 16 81 27 82 17 83 26 84
REMARK SMILES IDX 28 85 38 86 29 87 37 88 18 89 19 90 20 91 25 92 21 93 24 94
REMARK SMILES IDX 22 95 23 96 30 97 31 98 32 99 33 100 34 101 35 102 36 103
REMARK H PARENT 95 25 63 36
REMARK Flexibility Score: inf
ROOT
ATOM      1  C   UNL A   1      32.096  29.728  24.560  1.00  0.00     0.188 C 
ENDROOT
BRANCH   1   2
ATOM      2  O   UNL A   1      31.455  30.540  25.522  1.00  0.00    -0.376 OA
BRANCH   2   3
ATOM      3  C   UNL A   1      31.939  30.633  26.842  1.00  0.00     0.202 C 
BRANCH   3   4
ATOM      4  C   UNL A   1      33.107  31.570  27.179  1.00  0.00     0.261 C 
BRANCH   4   5
ATOM      5  O   UNL A   1      34.145  31.011  27.987  1.00  0.00    -0.460 OA
BRANCH   5   6
ATOM      6  C   UNL A   1      35.264  31.561  28.498  1.00  0.00     0.338 C 
ATOM      7  O   UNL A   1      35.222  32.737  28.853  1.00  0.00    -0.246 OA
BRANCH   6   8
ATOM      8  C   UNL A   1      36.587  30.872  28.498  1.00  0.00     0.060 A 
ATOM      9  C   UNL A   1      36.853  29.606  27.971  1.00  0.00     0.016 A 
ATOM     10  C   UNL A   1      37.643  31.584  29.101  1.00  0.00     0.016 A 
ATOM     11  C   UNL A   1      38.090  29.007  28.165  1.00  0.00     0.010 A 
ATOM     12  C   UNL A   1      38.889  30.997  29.279  1.00  0.00     0.010 A 
ATOM     13  C   UNL A   1      39.080  29.678  28.879  1.00  0.00    -0.014 A 
BRANCH  13  14
ATOM     14  C   UNL A   1      40.265  28.917  29.253  1.00  0.00     0.031 A 
ATOM     15  C   UNL A   1      40.526  28.723  30.705  1.00  0.00     0.074 A 
ATOM     16  C   UNL A   1      41.057  28.360  28.316  1.00  0.00     0.049 A 
ATOM     17  N   UNL A   1      41.577  29.053  31.383  1.00  0.00    -0.248 NA
ATOM     18  C   UNL A   1      39.447  28.137  31.512  1.00  0.00     0.031 C 
ATOM     19  C   UNL A   1      40.775  28.227  26.881  1.00  0.00     0.029 A 
ATOM     20  N   UNL A   1      42.213  27.655  28.476  1.00  0.00    -0.354 N 
ATOM     21  C   UNL A   1      41.383  28.530  32.663  1.00  0.00     0.074 A 
ATOM     22  C   UNL A   1      40.010  28.100  32.720  1.00  0.00     0.031 C 
ATOM     23  C   UNL A   1      41.573  27.270  26.367  1.00  0.00     0.029 A 
ATOM     24  C   UNL A   1      42.504  26.839  27.392  1.00  0.00     0.049 A 
ATOM     25  H   UNL A   1      42.782  27.721  29.277  1.00  0.00     0.167 HD
ATOM     26  C   UNL A   1      42.415  28.303  33.521  1.00  0.00     0.034 A 
ATOM     27  C   UNL A   1      43.378  25.808  27.373  1.00  0.00     0.034 A 
ATOM     28  C   UNL A   1      43.598  29.032  33.158  1.00  0.00     0.049 A 
ATOM     29  C   UNL A   1      44.330  25.996  28.488  1.00  0.00     0.074 A 
ATOM     30  C   UNL A   1      43.933  30.363  33.017  1.00  0.00     0.029 A 
ATOM     31  N   UNL A   1      44.629  28.322  32.598  1.00  0.00    -0.354 N 
ATOM     32  N   UNL A   1      45.210  26.955  28.545  1.00  0.00    -0.248 NA
ATOM     33  C   UNL A   1      44.087  25.294  29.737  1.00  0.00     0.031 C 
ATOM     34  C   UNL A   1      44.922  30.392  31.992  1.00  0.00     0.029 A 
ATOM     35  C   UNL A   1      45.136  29.075  31.576  1.00  0.00     0.049 A 
ATOM     36  H   UNL A   1      44.946  27.434  32.881  1.00  0.00     0.167 HD
ATOM     37  C   UNL A   1      45.313  27.256  29.895  1.00  0.00     0.074 A 
ATOM     38  C   UNL A   1      44.724  26.111  30.580  1.00  0.00     0.031 C 
ATOM     39  C   UNL A   1      45.594  28.524  30.317  1.00  0.00     0.034 A 
BRANCH  26  40
ATOM     40  C   UNL A   1      42.471  27.181  34.536  1.00  0.00     0.023 A 
ATOM     41  C   UNL A   1      41.934  27.427  35.822  1.00  0.00     0.012 A 
ATOM     42  C   UNL A   1      43.248  26.011  34.388  1.00  0.00     0.148 A 
ATOM     43  C   UNL A   1      42.197  26.584  36.908  1.00  0.00     0.002 A 
ATOM     44  C   UNL A   1      43.431  25.128  35.447  1.00  0.00     0.091 A 
ATOM     45  F   UNL A   1      43.933  25.796  33.260  1.00  0.00    -0.205 F 
ATOM     46  C   UNL A   1      42.937  25.424  36.719  1.00  0.00     0.022 A 
BRANCH  44  47
ATOM     47  S   UNL A   1      44.299  23.575  35.202  1.00  0.00     0.127 S 
ATOM     48  O   UNL A   1      44.517  23.137  36.575  1.00  0.00    -0.237 OA
ATOM     49  O   UNL A   1      43.322  22.792  34.446  1.00  0.00    -0.237 OA
ATOM     50  O   UNL A   1      45.487  23.933  34.433  1.00  0.00    -0.744 OA
ENDBRANCH  44  47
ENDBRANCH  26  40
BRANCH  27  51
ATOM     51  C   UNL A   1      43.282  24.539  26.618  1.00  0.00     0.023 A 
ATOM     52  C   UNL A   1      44.384  24.093  25.867  1.00  0.00     0.012 A 
ATOM     53  C   UNL A   1      42.211  23.642  26.835  1.00  0.00     0.148 A 
ATOM     54  C   UNL A   1      44.432  22.786  25.368  1.00  0.00     0.002 A 
ATOM     55  C   UNL A   1      42.256  22.350  26.322  1.00  0.00     0.091 A 
ATOM     56  F   UNL A   1      41.198  24.018  27.626  1.00  0.00    -0.205 F 
ATOM     57  C   UNL A   1      43.371  21.914  25.598  1.00  0.00     0.022 A 
BRANCH  55  58
ATOM     58  S   UNL A   1      40.923  21.175  26.599  1.00  0.00     0.127 S 
ATOM     59  O   UNL A   1      39.797  21.830  25.933  1.00  0.00    -0.237 OA
ATOM     60  O   UNL A   1      41.428  19.985  25.922  1.00  0.00    -0.237 OA
ATOM     61  O   UNL A   1      40.785  21.077  28.046  1.00  0.00    -0.744 OA
ENDBRANCH  55  58
ENDBRANCH  27  51
BRANCH  39  62
ATOM     62  C   UNL A   1      46.089  29.529  29.304  1.00  0.00     0.023 A 
ATOM     63  C   UNL A   1      47.441  29.566  28.903  1.00  0.00     0.012 A 
ATOM     64  C   UNL A   1      45.149  30.294  28.589  1.00  0.00     0.148 A 
ATOM     65  C   UNL A   1      47.850  30.360  27.829  1.00  0.00     0.002 A 
ATOM     66  C   UNL A   1      45.551  31.040  27.488  1.00  0.00     0.091 A 
ATOM     67  F   UNL A   1      43.864  30.245  28.975  1.00  0.00    -0.205 F 
ATOM     68  C   UNL A   1      46.903  31.084  27.110  1.00  0.00     0.022 A 
BRANCH  66  69
ATOM     69  S   UNL A   1      44.362  31.864  26.423  1.00  0.00     0.127 S 
ATOM     70  O   UNL A   1      43.856  32.925  27.291  1.00  0.00    -0.237 OA
ATOM     71  O   UNL A   1      45.199  32.327  25.313  1.00  0.00    -0.237 OA
ATOM     72  O   UNL A   1      43.393  30.841  26.046  1.00  0.00    -0.744 OA
ENDBRANCH  66  69
ENDBRANCH  39  62
ENDBRANCH  13  14
ENDBRANCH   6   8
ENDBRANCH   5   6
ENDBRANCH   4   5
ENDBRANCH   3   4
ENDBRANCH   2   3
ENDBRANCH   1   2
BRANCH   1  73
ATOM     73  C   UNL A   1      31.108  29.097  23.552  1.00  0.00     0.188 C 
BRANCH  73  74
ATOM     74  O   UNL A   1      31.321  27.784  23.034  1.00  0.00    -0.376 OA
BRANCH  74  75
ATOM     75  C   UNL A   1      32.445  27.494  22.228  1.00  0.00     0.202 C 
BRANCH  75  76
ATOM     76  C   UNL A   1      33.515  26.596  22.847  1.00  0.00     0.261 C 
BRANCH  76  77
ATOM     77  O   UNL A   1      34.132  25.658  21.957  1.00  0.00    -0.458 OA
BRANCH  77  78
ATOM     78  C   UNL A   1      33.431  24.509  21.694  1.00  0.00     0.359 C 
ATOM     79  O   UNL A   1      32.959  24.211  20.606  1.00  0.00    -0.244 OA
BRANCH  78  80
ATOM     80  C   UNL A   1      33.327  23.648  22.879  1.00  0.00     0.175 A 
ATOM     81  N   UNL A   1      34.222  22.661  23.085  1.00  0.00    -0.165 NA
ATOM     82  C   UNL A   1      32.386  23.707  23.947  1.00  0.00     0.028 A 
ATOM     83  N   UNL A   1      33.857  22.095  24.258  1.00  0.00    -0.264 N 
ATOM     84  C   UNL A   1      32.738  22.667  24.785  1.00  0.00     0.046 A 
ATOM     85  C   UNL A   1      31.220  24.606  24.198  1.00  0.00     0.159 C 
ATOM     86  C   UNL A   1      32.028  22.313  26.042  1.00  0.00     0.078 C 
ATOM     87  N   UNL A   1      30.654  24.340  25.538  1.00  0.00    -0.337 N 
ATOM     88  C   UNL A   1      30.615  22.933  25.992  1.00  0.00     0.126 C 
BRANCH  83  89
ATOM     89  C   UNL A   1      34.733  21.110  24.880  1.00  0.00     0.180 C 
BRANCH  89  90
ATOM     90  C   UNL A   1      34.292  19.690  24.624  1.00  0.00    -0.026 A 
ATOM     91  C   UNL A   1      32.947  19.403  24.329  1.00  0.00     0.008 A 
ATOM     92  C   UNL A   1      35.221  18.638  24.653  1.00  0.00     0.008 A 
ATOM     93  C   UNL A   1      32.540  18.096  24.066  1.00  0.00     0.039 A 
ATOM     94  C   UNL A   1      34.812  17.330  24.381  1.00  0.00     0.039 A 
ATOM     95  C   UNL A   1      33.477  17.072  24.089  1.00  0.00     0.123 A 
ATOM     96  F   UNL A   1      33.089  15.819  23.821  1.00  0.00    -0.207 F 
ENDBRANCH  89  90
ENDBRANCH  83  89
BRANCH  87  97
ATOM     97  C   UNL A   1      30.051  25.403  26.204  1.00  0.00     0.232 C 
ATOM     98  O   UNL A   1      28.979  25.291  26.789  1.00  0.00    -0.274 OA
BRANCH  97  99
ATOM     99  C   UNL A   1      30.769  26.695  26.258  1.00  0.00     0.154 C 
ATOM    100  C   UNL A   1      31.274  27.291  27.560  1.00  0.00     0.097 C 
ATOM    101  C   UNL A   1      32.217  26.690  26.590  1.00  0.00     0.260 C 
ATOM    102  F   UNL A   1      32.902  25.558  26.966  1.00  0.00    -0.206 F 
ATOM    103  F   UNL A   1      33.106  27.504  25.929  1.00  0.00    -0.206 F 
ENDBRANCH  97  99
ENDBRANCH  87  97
ENDBRANCH  78  80
ENDBRANCH  77  78
ENDBRANCH  76  77
ENDBRANCH  75  76
ENDBRANCH  74  75
ENDBRANCH  73  74
ENDBRANCH   1  73
TORSDOF 24
ENDMDL
