MODEL 1
REMARK VINA RESULT:      -9.3      0.000      0.000
REMARK SMILES C=CCN(CC(=O)OCCOCCOCCOC(=O)c1ccc(-c2c3nc(c(-c4cccc(S(=O)(=O)[O-])c4F)c4ccc([nH]4)c(-c4cccc(S(=O)(=O)[O-])c4F)c4nc(c(-c5cccc(S(=O)(=O)[O-])c5F)c5ccc2[nH]5)C=C4)C=C3)cc1)C(=O)N(C)[C@H]1CCC[N@H+](C)C1
REMARK SMILES IDX 12 1 11 2 10 3 9 4 8 5 6 6 7 7 5 8 4 9 3 10 2 11 1 12 83 13
REMARK SMILES IDX 84 14 85 15 86 16 87 17 88 18 93 19 89 20 91 21 90 22 92 23
REMARK SMILES IDX 13 25 14 26 15 27 16 28 17 29 18 30 19 31 20 32 21 33 82 34
REMARK SMILES IDX 22 35 81 36 23 37 24 38 25 39 75 40 26 41 80 42 74 43 76 44
REMARK SMILES IDX 27 45 79 46 73 47 72 48 28 50 60 51 40 52 59 53 41 54 44 55
REMARK SMILES IDX 58 56 77 57 42 58 43 59 57 61 78 62 45 63 29 64 30 65 38 66
REMARK SMILES IDX 31 67 33 68 39 69 32 70 34 71 35 72 36 73 37 74 61 75 62 76
REMARK SMILES IDX 70 77 63 78 65 79 71 80 64 81 66 82 67 83 68 84 69 85 46 86
REMARK SMILES IDX 47 87 55 88 48 89 50 90 56 91 49 92 51 93 52 94 53 95 54 96
REMARK H PARENT 91 24 76 49 44 60
REMARK Flexibility Score: inf
ROOT
ATOM      1  C   UNL A   1      35.488  20.886  25.481  1.00  0.00     0.188 C 
ENDROOT
BRANCH   1   2
ATOM      2  O   UNL A   1      34.663  19.858  24.941  1.00  0.00    -0.376 OA
BRANCH   2   3
ATOM      3  C   UNL A   1      33.256  20.057  24.962  1.00  0.00     0.202 C 
BRANCH   3   4
ATOM      4  C   UNL A   1      32.676  20.664  23.684  1.00  0.00     0.261 C 
BRANCH   4   5
ATOM      5  O   UNL A   1      33.378  21.852  23.246  1.00  0.00    -0.462 OA
BRANCH   5   6
ATOM      6  C   UNL A   1      32.605  22.948  23.060  1.00  0.00     0.325 C 
ATOM      7  O   UNL A   1      32.753  23.739  22.130  1.00  0.00    -0.250 OA
BRANCH   6   8
ATOM      8  C   UNL A   1      31.435  23.121  24.042  1.00  0.00     0.244 C 
BRANCH   8   9
ATOM      9  N   UNL A   1      31.407  24.103  25.150  1.00  0.00    -0.310 N 
BRANCH   9  10
ATOM     10  C   UNL A   1      32.406  23.898  26.197  1.00  0.00     0.149 C 
BRANCH  10  11
ATOM     11  C   UNL A   1      33.407  25.024  26.093  1.00  0.00    -0.013 C 
ATOM     12  C   UNL A   1      34.473  25.019  25.280  1.00  0.00     0.006 C 
ENDBRANCH  10  11
ENDBRANCH   9  10
BRANCH   9  13
ATOM     13  C   UNL A   1      30.521  25.145  25.399  1.00  0.00     0.321 C 
ATOM     14  O   UNL A   1      30.186  25.342  26.570  1.00  0.00    -0.248 OA
BRANCH  13  15
ATOM     15  N   UNL A   1      30.111  25.996  24.374  1.00  0.00    -0.319 N 
ATOM     16  C   UNL A   1      28.707  26.297  24.131  1.00  0.00     0.149 C 
BRANCH  15  17
ATOM     17  C   UNL A   1      31.134  26.799  23.590  1.00  0.00     0.141 C 
ATOM     18  C   UNL A   1      30.666  27.525  22.306  1.00  0.00     0.037 C 
ATOM     19  C   UNL A   1      31.897  27.905  24.397  1.00  0.00     0.287 C 
ATOM     20  C   UNL A   1      29.804  28.740  22.626  1.00  0.00     0.064 C 
ATOM     21  N   UNL A   1      31.022  29.034  24.763  1.00  0.00    -0.336 N 
ATOM     22  C   UNL A   1      30.537  29.712  23.554  1.00  0.00     0.262 C 
ATOM     23  C   UNL A   1      31.731  29.975  25.633  1.00  0.00     0.332 C 
ATOM     24  H   UNL A   1      30.217  28.672  25.274  1.00  0.00     0.347 HD
ENDBRANCH  15  17
ENDBRANCH  13  15
ENDBRANCH   9  13
ENDBRANCH   8   9
ENDBRANCH   6   8
ENDBRANCH   5   6
ENDBRANCH   4   5
ENDBRANCH   3   4
ENDBRANCH   2   3
ENDBRANCH   1   2
BRANCH   1  25
ATOM     25  C   UNL A   1      36.593  21.460  24.587  1.00  0.00     0.188 C 
BRANCH  25  26
ATOM     26  O   UNL A   1      37.682  20.551  24.449  1.00  0.00    -0.376 OA
BRANCH  26  27
ATOM     27  C   UNL A   1      38.079  19.961  25.678  1.00  0.00     0.202 C 
BRANCH  27  28
ATOM     28  C   UNL A   1      39.425  19.270  25.492  1.00  0.00     0.261 C 
BRANCH  28  29
ATOM     29  O   UNL A   1      40.511  20.164  25.818  1.00  0.00    -0.460 OA
BRANCH  29  30
ATOM     30  C   UNL A   1      40.750  20.362  27.131  1.00  0.00     0.338 C 
ATOM     31  O   UNL A   1      40.952  19.497  27.966  1.00  0.00    -0.246 OA
BRANCH  30  32
ATOM     32  C   UNL A   1      40.734  21.809  27.459  1.00  0.00     0.060 A 
ATOM     33  C   UNL A   1      39.870  22.710  26.836  1.00  0.00     0.016 A 
ATOM     34  C   UNL A   1      41.710  22.294  28.330  1.00  0.00     0.016 A 
ATOM     35  C   UNL A   1      40.084  24.088  26.963  1.00  0.00     0.010 A 
ATOM     36  C   UNL A   1      41.860  23.671  28.522  1.00  0.00     0.010 A 
ATOM     37  C   UNL A   1      41.103  24.595  27.782  1.00  0.00    -0.014 A 
BRANCH  37  38
ATOM     38  C   UNL A   1      41.459  26.050  27.814  1.00  0.00     0.031 A 
ATOM     39  C   UNL A   1      42.724  26.526  27.131  1.00  0.00     0.074 A 
ATOM     40  C   UNL A   1      40.690  26.966  28.438  1.00  0.00     0.049 A 
ATOM     41  N   UNL A   1      43.388  27.642  27.297  1.00  0.00    -0.248 NA
ATOM     42  C   UNL A   1      43.324  25.619  26.138  1.00  0.00     0.031 C 
ATOM     43  C   UNL A   1      39.399  26.709  29.073  1.00  0.00     0.029 A 
ATOM     44  N   UNL A   1      40.902  28.309  28.656  1.00  0.00    -0.354 N 
ATOM     45  C   UNL A   1      44.535  27.524  26.515  1.00  0.00     0.074 A 
ATOM     46  C   UNL A   1      44.456  26.244  25.844  1.00  0.00     0.031 C 
ATOM     47  C   UNL A   1      38.924  27.852  29.589  1.00  0.00     0.029 A 
ATOM     48  C   UNL A   1      39.932  28.895  29.439  1.00  0.00     0.049 A 
ATOM     49  H   UNL A   1      41.670  28.803  28.289  1.00  0.00     0.167 HD
ATOM     50  C   UNL A   1      45.562  28.397  26.376  1.00  0.00     0.034 A 
ATOM     51  C   UNL A   1      39.885  30.099  30.045  1.00  0.00     0.034 A 
ATOM     52  C   UNL A   1      45.598  29.707  26.972  1.00  0.00     0.049 A 
ATOM     53  C   UNL A   1      41.048  31.042  29.910  1.00  0.00     0.074 A 
ATOM     54  C   UNL A   1      46.593  30.667  26.883  1.00  0.00     0.029 A 
ATOM     55  N   UNL A   1      44.589  30.252  27.748  1.00  0.00    -0.354 N 
ATOM     56  N   UNL A   1      42.148  30.900  29.212  1.00  0.00    -0.248 NA
ATOM     57  C   UNL A   1      40.966  32.307  30.654  1.00  0.00     0.031 C 
ATOM     58  C   UNL A   1      46.188  31.789  27.614  1.00  0.00     0.029 A 
ATOM     59  C   UNL A   1      44.932  31.534  28.142  1.00  0.00     0.049 A 
ATOM     60  H   UNL A   1      43.750  29.795  27.985  1.00  0.00     0.167 HD
ATOM     61  C   UNL A   1      42.881  32.064  29.420  1.00  0.00     0.074 A 
ATOM     62  C   UNL A   1      42.086  32.912  30.285  1.00  0.00     0.031 C 
ATOM     63  C   UNL A   1      44.113  32.390  28.958  1.00  0.00     0.034 A 
BRANCH  50  64
ATOM     64  C   UNL A   1      46.745  27.972  25.546  1.00  0.00     0.023 A 
ATOM     65  C   UNL A   1      46.714  28.103  24.145  1.00  0.00     0.012 A 
ATOM     66  C   UNL A   1      47.923  27.510  26.170  1.00  0.00     0.148 A 
ATOM     67  C   UNL A   1      47.826  27.756  23.375  1.00  0.00     0.002 A 
ATOM     68  C   UNL A   1      49.041  27.208  25.401  1.00  0.00     0.091 A 
ATOM     69  F   UNL A   1      47.927  27.371  27.504  1.00  0.00    -0.205 F 
ATOM     70  C   UNL A   1      48.991  27.320  24.002  1.00  0.00     0.022 A 
BRANCH  68  71
ATOM     71  S   UNL A   1      50.609  26.717  26.127  1.00  0.00     0.127 S 
ATOM     72  O   UNL A   1      51.545  27.023  25.046  1.00  0.00    -0.237 OA
ATOM     73  O   UNL A   1      50.706  27.605  27.286  1.00  0.00    -0.237 OA
ATOM     74  O   UNL A   1      50.472  25.305  26.457  1.00  0.00    -0.744 OA
ENDBRANCH  68  71
ENDBRANCH  50  64
BRANCH  51  75
ATOM     75  C   UNL A   1      38.703  30.459  30.880  1.00  0.00     0.023 A 
ATOM     76  C   UNL A   1      38.681  30.118  32.245  1.00  0.00     0.012 A 
ATOM     77  C   UNL A   1      37.620  31.181  30.337  1.00  0.00     0.148 A 
ATOM     78  C   UNL A   1      37.600  30.482  33.051  1.00  0.00     0.002 A 
ATOM     79  C   UNL A   1      36.586  31.606  31.161  1.00  0.00     0.091 A 
ATOM     80  F   UNL A   1      37.636  31.463  29.027  1.00  0.00    -0.205 F 
ATOM     81  C   UNL A   1      36.564  31.242  32.515  1.00  0.00     0.022 A 
BRANCH  79  82
ATOM     82  S   UNL A   1      35.318  32.738  30.580  1.00  0.00     0.127 S 
ATOM     83  O   UNL A   1      34.717  31.979  29.486  1.00  0.00    -0.237 OA
ATOM     84  O   UNL A   1      34.474  32.888  31.766  1.00  0.00    -0.237 OA
ATOM     85  O   UNL A   1      36.030  33.951  30.202  1.00  0.00    -0.744 OA
ENDBRANCH  79  82
ENDBRANCH  51  75
BRANCH  63  86
ATOM     86  C   UNL A   1      44.667  33.736  29.347  1.00  0.00     0.023 A 
ATOM     87  C   UNL A   1      45.428  33.865  30.525  1.00  0.00     0.012 A 
ATOM     88  C   UNL A   1      44.481  34.857  28.516  1.00  0.00     0.148 A 
ATOM     89  C   UNL A   1      45.965  35.098  30.890  1.00  0.00     0.002 A 
ATOM     90  C   UNL A   1      45.057  36.075  28.863  1.00  0.00     0.091 A 
ATOM     91  F   UNL A   1      43.737  34.718  27.409  1.00  0.00    -0.205 F 
ATOM     92  C   UNL A   1      45.790  36.200  30.054  1.00  0.00     0.022 A 
BRANCH  90  93
ATOM     93  S   UNL A   1      44.951  37.521  27.804  1.00  0.00     0.127 S 
ATOM     94  O   UNL A   1      45.774  37.118  26.665  1.00  0.00    -0.237 OA
ATOM     95  O   UNL A   1      43.516  37.597  27.522  1.00  0.00    -0.237 OA
ATOM     96  O   UNL A   1      45.469  38.631  28.592  1.00  0.00    -0.744 OA
ENDBRANCH  90  93
ENDBRANCH  63  86
ENDBRANCH  37  38
ENDBRANCH  30  32
ENDBRANCH  29  30
ENDBRANCH  28  29
ENDBRANCH  27  28
ENDBRANCH  26  27
ENDBRANCH  25  26
ENDBRANCH   1  25
TORSDOF 26
ENDMDL
MODEL 2
REMARK VINA RESULT:      -8.2      5.101      8.939
REMARK SMILES C=CCN(CC(=O)OCCOCCOCCOC(=O)c1ccc(-c2c3nc(c(-c4cccc(S(=O)(=O)[O-])c4F)c4ccc([nH]4)c(-c4cccc(S(=O)(=O)[O-])c4F)c4nc(c(-c5cccc(S(=O)(=O)[O-])c5F)c5ccc2[nH]5)C=C4)C=C3)cc1)C(=O)N(C)[C@H]1CCC[N@H+](C)C1
REMARK SMILES IDX 12 1 11 2 10 3 9 4 8 5 6 6 7 7 5 8 4 9 3 10 2 11 1 12 83 13
REMARK SMILES IDX 84 14 85 15 86 16 87 17 88 18 93 19 89 20 91 21 90 22 92 23
REMARK SMILES IDX 13 25 14 26 15 27 16 28 17 29 18 30 19 31 20 32 21 33 82 34
REMARK SMILES IDX 22 35 81 36 23 37 24 38 25 39 75 40 26 41 80 42 74 43 76 44
REMARK SMILES IDX 27 45 79 46 73 47 72 48 28 50 60 51 40 52 59 53 41 54 44 55
REMARK SMILES IDX 58 56 77 57 42 58 43 59 57 61 78 62 45 63 29 64 30 65 38 66
REMARK SMILES IDX 31 67 33 68 39 69 32 70 34 71 35 72 36 73 37 74 61 75 62 76
REMARK SMILES IDX 70 77 63 78 65 79 71 80 64 81 66 82 67 83 68 84 69 85 46 86
REMARK SMILES IDX 47 87 55 88 48 89 50 90 56 91 49 92 51 93 52 94 53 95 54 96
REMARK H PARENT 91 24 76 49 44 60
REMARK Flexibility Score: inf
ROOT
ATOM      1  C   UNL A   1      32.460  24.691  25.841  1.00  0.00     0.188 C 
ENDROOT
BRANCH   1   2
ATOM      2  O   UNL A   1      33.817  24.771  26.266  1.00  0.00    -0.376 OA
BRANCH   2   3
ATOM      3  C   UNL A   1      34.828  24.745  25.267  1.00  0.00     0.202 C 
BRANCH   3   4
ATOM      4  C   UNL A   1      35.804  23.572  25.374  1.00  0.00     0.261 C 
BRANCH   4   5
ATOM      5  O   UNL A   1      36.916  23.834  26.264  1.00  0.00    -0.462 OA
BRANCH   5   6
ATOM      6  C   UNL A   1      38.005  23.051  26.078  1.00  0.00     0.325 C 
ATOM      7  O   UNL A   1      37.949  21.875  25.721  1.00  0.00    -0.250 OA
BRANCH   6   8
ATOM      8  C   UNL A   1      39.367  23.742  26.249  1.00  0.00     0.244 C 
BRANCH   8   9
ATOM      9  N   UNL A   1      40.374  23.373  27.270  1.00  0.00    -0.310 N 
BRANCH   9  10
ATOM     10  C   UNL A   1      40.660  24.399  28.271  1.00  0.00     0.149 C 
BRANCH  10  11
ATOM     11  C   UNL A   1      39.598  25.465  28.142  1.00  0.00    -0.013 C 
ATOM     12  C   UNL A   1      39.444  26.489  28.993  1.00  0.00     0.006 C 
ENDBRANCH  10  11
ENDBRANCH   9  10
BRANCH   9  13
ATOM     13  C   UNL A   1      41.157  22.230  27.381  1.00  0.00     0.321 C 
ATOM     14  O   UNL A   1      40.614  21.204  27.801  1.00  0.00    -0.248 OA
BRANCH  13  15
ATOM     15  N   UNL A   1      42.478  22.220  26.936  1.00  0.00    -0.319 N 
ATOM     16  C   UNL A   1      43.605  22.346  27.849  1.00  0.00     0.149 C 
BRANCH  15  17
ATOM     17  C   UNL A   1      42.796  21.883  25.489  1.00  0.00     0.141 C 
ATOM     18  C   UNL A   1      43.443  22.979  24.609  1.00  0.00     0.037 C 
ATOM     19  C   UNL A   1      43.707  20.627  25.266  1.00  0.00     0.287 C 
ATOM     20  C   UNL A   1      44.901  23.216  24.982  1.00  0.00     0.064 C 
ATOM     21  N   UNL A   1      45.094  20.856  25.709  1.00  0.00    -0.336 N 
ATOM     22  C   UNL A   1      45.712  21.920  24.908  1.00  0.00     0.262 C 
ATOM     23  C   UNL A   1      45.875  19.620  25.617  1.00  0.00     0.332 C 
ATOM     24  H   UNL A   1      45.081  21.153  26.685  1.00  0.00     0.347 HD
ENDBRANCH  15  17
ENDBRANCH  13  15
ENDBRANCH   9  13
ENDBRANCH   8   9
ENDBRANCH   6   8
ENDBRANCH   5   6
ENDBRANCH   4   5
ENDBRANCH   3   4
ENDBRANCH   2   3
ENDBRANCH   1   2
BRANCH   1  25
ATOM     25  C   UNL A   1      31.631  25.980  25.849  1.00  0.00     0.188 C 
BRANCH  25  26
ATOM     26  O   UNL A   1      32.427  27.113  26.191  1.00  0.00    -0.376 OA
BRANCH  26  27
ATOM     27  C   UNL A   1      32.245  28.213  25.311  1.00  0.00     0.202 C 
BRANCH  27  28
ATOM     28  C   UNL A   1      32.462  29.512  26.079  1.00  0.00     0.261 C 
BRANCH  28  29
ATOM     29  O   UNL A   1      33.766  29.531  26.697  1.00  0.00    -0.460 OA
BRANCH  29  30
ATOM     30  C   UNL A   1      34.084  30.643  27.390  1.00  0.00     0.338 C 
ATOM     31  O   UNL A   1      33.349  31.590  27.613  1.00  0.00    -0.246 OA
BRANCH  30  32
ATOM     32  C   UNL A   1      35.489  30.587  27.866  1.00  0.00     0.060 A 
ATOM     33  C   UNL A   1      36.142  29.383  28.133  1.00  0.00     0.016 A 
ATOM     34  C   UNL A   1      36.124  31.789  28.177  1.00  0.00     0.016 A 
ATOM     35  C   UNL A   1      37.347  29.383  28.846  1.00  0.00     0.010 A 
ATOM     36  C   UNL A   1      37.372  31.783  28.809  1.00  0.00     0.010 A 
ATOM     37  C   UNL A   1      37.969  30.581  29.225  1.00  0.00    -0.014 A 
BRANCH  37  38
ATOM     38  C   UNL A   1      39.170  30.614  30.121  1.00  0.00     0.031 A 
ATOM     39  C   UNL A   1      40.475  30.010  29.646  1.00  0.00     0.074 A 
ATOM     40  C   UNL A   1      39.135  31.165  31.352  1.00  0.00     0.049 A 
ATOM     41  N   UNL A   1      41.520  29.638  30.341  1.00  0.00    -0.248 NA
ATOM     42  C   UNL A   1      40.614  29.786  28.196  1.00  0.00     0.031 C 
ATOM     43  C   UNL A   1      37.998  31.866  31.944  1.00  0.00     0.029 A 
ATOM     44  N   UNL A   1      40.093  31.199  32.341  1.00  0.00    -0.354 N 
ATOM     45  C   UNL A   1      42.390  29.041  29.433  1.00  0.00     0.074 A 
ATOM     46  C   UNL A   1      41.767  29.136  28.130  1.00  0.00     0.031 C 
ATOM     47  C   UNL A   1      38.324  32.278  33.177  1.00  0.00     0.029 A 
ATOM     48  C   UNL A   1      39.644  31.759  33.517  1.00  0.00     0.049 A 
ATOM     49  H   UNL A   1      41.008  30.856  32.221  1.00  0.00     0.167 HD
ATOM     50  C   UNL A   1      43.592  28.459  29.663  1.00  0.00     0.034 A 
ATOM     51  C   UNL A   1      40.183  31.783  34.754  1.00  0.00     0.034 A 
ATOM     52  C   UNL A   1      44.253  28.444  30.942  1.00  0.00     0.049 A 
ATOM     53  C   UNL A   1      41.500  31.103  35.001  1.00  0.00     0.074 A 
ATOM     54  C   UNL A   1      45.476  27.886  31.274  1.00  0.00     0.029 A 
ATOM     55  N   UNL A   1      43.759  29.032  32.095  1.00  0.00    -0.354 N 
ATOM     56  N   UNL A   1      42.289  30.498  34.148  1.00  0.00    -0.248 NA
ATOM     57  C   UNL A   1      41.997  31.103  36.385  1.00  0.00     0.031 C 
ATOM     58  C   UNL A   1      45.716  28.128  32.631  1.00  0.00     0.029 A 
ATOM     59  C   UNL A   1      44.652  28.854  33.138  1.00  0.00     0.049 A 
ATOM     60  H   UNL A   1      42.899  29.506  32.163  1.00  0.00     0.167 HD
ATOM     61  C   UNL A   1      43.382  30.058  34.888  1.00  0.00     0.074 A 
ATOM     62  C   UNL A   1      43.168  30.495  36.253  1.00  0.00     0.031 C 
ATOM     63  C   UNL A   1      44.454  29.336  34.480  1.00  0.00     0.034 A 
BRANCH  50  64
ATOM     64  C   UNL A   1      44.285  27.782  28.509  1.00  0.00     0.023 A 
ATOM     65  C   UNL A   1      43.816  26.546  28.025  1.00  0.00     0.012 A 
ATOM     66  C   UNL A   1      45.362  28.416  27.855  1.00  0.00     0.148 A 
ATOM     67  C   UNL A   1      44.424  25.938  26.925  1.00  0.00     0.002 A 
ATOM     68  C   UNL A   1      45.935  27.825  26.734  1.00  0.00     0.091 A 
ATOM     69  F   UNL A   1      45.810  29.581  28.343  1.00  0.00    -0.205 F 
ATOM     70  C   UNL A   1      45.473  26.582  26.274  1.00  0.00     0.022 A 
BRANCH  68  71
ATOM     71  S   UNL A   1      47.237  28.618  25.783  1.00  0.00     0.127 S 
ATOM     72  O   UNL A   1      46.508  29.706  25.133  1.00  0.00    -0.237 OA
ATOM     73  O   UNL A   1      48.167  29.047  26.829  1.00  0.00    -0.237 OA
ATOM     74  O   UNL A   1      47.760  27.593  24.891  1.00  0.00    -0.744 OA
ENDBRANCH  68  71
ENDBRANCH  50  64
BRANCH  51  75
ATOM     75  C   UNL A   1      39.442  32.442  35.868  1.00  0.00     0.023 A 
ATOM     76  C   UNL A   1      38.382  31.764  36.499  1.00  0.00     0.012 A 
ATOM     77  C   UNL A   1      39.814  33.719  36.336  1.00  0.00     0.148 A 
ATOM     78  C   UNL A   1      37.703  32.350  37.571  1.00  0.00     0.002 A 
ATOM     79  C   UNL A   1      39.185  34.261  37.450  1.00  0.00     0.091 A 
ATOM     80  F   UNL A   1      40.797  34.369  35.698  1.00  0.00    -0.205 F 
ATOM     81  C   UNL A   1      38.117  33.586  38.058  1.00  0.00     0.022 A 
BRANCH  79  82
ATOM     82  S   UNL A   1      39.786  35.758  38.239  1.00  0.00     0.127 S 
ATOM     83  O   UNL A   1      38.810  35.946  39.309  1.00  0.00    -0.237 OA
ATOM     84  O   UNL A   1      41.121  35.356  38.684  1.00  0.00    -0.237 OA
ATOM     85  O   UNL A   1      39.790  36.770  37.191  1.00  0.00    -0.744 OA
ENDBRANCH  79  82
ENDBRANCH  51  75
BRANCH  63  86
ATOM     86  C   UNL A   1      45.500  29.001  35.511  1.00  0.00     0.023 A 
ATOM     87  C   UNL A   1      46.554  29.902  35.756  1.00  0.00     0.012 A 
ATOM     88  C   UNL A   1      45.406  27.821  36.273  1.00  0.00     0.148 A 
ATOM     89  C   UNL A   1      47.519  29.618  36.721  1.00  0.00     0.002 A 
ATOM     90  C   UNL A   1      46.347  27.564  37.264  1.00  0.00     0.091 A 
ATOM     91  F   UNL A   1      44.406  26.966  36.010  1.00  0.00    -0.205 F 
ATOM     92  C   UNL A   1      47.410  28.455  37.482  1.00  0.00     0.022 A 
BRANCH  90  93
ATOM     93  S   UNL A   1      46.234  26.133  38.345  1.00  0.00     0.127 S 
ATOM     94  O   UNL A   1      44.825  26.164  38.733  1.00  0.00    -0.237 OA
ATOM     95  O   UNL A   1      46.594  25.035  37.446  1.00  0.00    -0.237 OA
ATOM     96  O   UNL A   1      47.188  26.370  39.419  1.00  0.00    -0.744 OA
ENDBRANCH  90  93
ENDBRANCH  63  86
ENDBRANCH  37  38
ENDBRANCH  30  32
ENDBRANCH  29  30
ENDBRANCH  28  29
ENDBRANCH  27  28
ENDBRANCH  26  27
ENDBRANCH  25  26
ENDBRANCH   1  25
TORSDOF 26
ENDMDL
MODEL 3
REMARK VINA RESULT:      -7.9      2.077      8.189
REMARK SMILES C=CCN(CC(=O)OCCOCCOCCOC(=O)c1ccc(-c2c3nc(c(-c4cccc(S(=O)(=O)[O-])c4F)c4ccc([nH]4)c(-c4cccc(S(=O)(=O)[O-])c4F)c4nc(c(-c5cccc(S(=O)(=O)[O-])c5F)c5ccc2[nH]5)C=C4)C=C3)cc1)C(=O)N(C)[C@H]1CCC[N@H+](C)C1
REMARK SMILES IDX 12 1 11 2 10 3 9 4 8 5 6 6 7 7 5 8 4 9 3 10 2 11 1 12 83 13
REMARK SMILES IDX 84 14 85 15 86 16 87 17 88 18 93 19 89 20 91 21 90 22 92 23
REMARK SMILES IDX 13 25 14 26 15 27 16 28 17 29 18 30 19 31 20 32 21 33 82 34
REMARK SMILES IDX 22 35 81 36 23 37 24 38 25 39 75 40 26 41 80 42 74 43 76 44
REMARK SMILES IDX 27 45 79 46 73 47 72 48 28 50 60 51 40 52 59 53 41 54 44 55
REMARK SMILES IDX 58 56 77 57 42 58 43 59 57 61 78 62 45 63 29 64 30 65 38 66
REMARK SMILES IDX 31 67 33 68 39 69 32 70 34 71 35 72 36 73 37 74 61 75 62 76
REMARK SMILES IDX 70 77 63 78 65 79 71 80 64 81 66 82 67 83 68 84 69 85 46 86
REMARK SMILES IDX 47 87 55 88 48 89 50 90 56 91 49 92 51 93 52 94 53 95 54 96
REMARK H PARENT 91 24 76 49 44 60
REMARK Flexibility Score: inf
ROOT
ATOM      1  C   UNL A   1      38.268  21.846  25.726  1.00  0.00     0.188 C 
ENDROOT
BRANCH   1   2
ATOM      2  O   UNL A   1      37.592  23.073  25.469  1.00  0.00    -0.376 OA
BRANCH   2   3
ATOM      3  C   UNL A   1      36.329  23.277  26.090  1.00  0.00     0.202 C 
BRANCH   3   4
ATOM      4  C   UNL A   1      35.535  24.466  25.549  1.00  0.00     0.261 C 
BRANCH   4   5
ATOM      5  O   UNL A   1      34.966  24.225  24.239  1.00  0.00    -0.462 OA
BRANCH   5   6
ATOM      6  C   UNL A   1      33.723  24.725  24.045  1.00  0.00     0.325 C 
ATOM      7  O   UNL A   1      33.233  24.927  22.935  1.00  0.00    -0.250 OA
BRANCH   6   8
ATOM      8  C   UNL A   1      32.883  24.953  25.312  1.00  0.00     0.244 C 
BRANCH   8   9
ATOM      9  N   UNL A   1      31.644  24.214  25.643  1.00  0.00    -0.310 N 
BRANCH   9  10
ATOM     10  C   UNL A   1      30.422  25.016  25.672  1.00  0.00     0.149 C 
BRANCH  10  11
ATOM     11  C   UNL A   1      30.175  25.517  24.270  1.00  0.00    -0.013 C 
ATOM     12  C   UNL A   1      29.409  26.574  23.965  1.00  0.00     0.006 C 
ENDBRANCH  10  11
ENDBRANCH   9  10
BRANCH   9  13
ATOM     13  C   UNL A   1      31.467  22.887  26.014  1.00  0.00     0.321 C 
ATOM     14  O   UNL A   1      30.335  22.536  26.360  1.00  0.00    -0.248 OA
BRANCH  13  15
ATOM     15  N   UNL A   1      32.508  21.965  25.900  1.00  0.00    -0.319 N 
ATOM     16  C   UNL A   1      33.324  21.573  27.040  1.00  0.00     0.149 C 
BRANCH  15  17
ATOM     17  C   UNL A   1      32.703  21.188  24.610  1.00  0.00     0.141 C 
ATOM     18  C   UNL A   1      34.117  21.160  23.981  1.00  0.00     0.037 C 
ATOM     19  C   UNL A   1      32.273  19.681  24.650  1.00  0.00     0.287 C 
ATOM     20  C   UNL A   1      35.073  20.281  24.778  1.00  0.00     0.064 C 
ATOM     21  N   UNL A   1      33.169  18.866  25.492  1.00  0.00    -0.336 N 
ATOM     22  C   UNL A   1      34.526  18.859  24.930  1.00  0.00     0.262 C 
ATOM     23  C   UNL A   1      32.656  17.500  25.618  1.00  0.00     0.332 C 
ATOM     24  H   UNL A   1      33.208  19.279  26.424  1.00  0.00     0.347 HD
ENDBRANCH  15  17
ENDBRANCH  13  15
ENDBRANCH   9  13
ENDBRANCH   8   9
ENDBRANCH   6   8
ENDBRANCH   5   6
ENDBRANCH   4   5
ENDBRANCH   3   4
ENDBRANCH   2   3
ENDBRANCH   1   2
BRANCH   1  25
ATOM     25  C   UNL A   1      39.588  21.906  26.502  1.00  0.00     0.188 C 
BRANCH  25  26
ATOM     26  O   UNL A   1      40.586  21.082  25.904  1.00  0.00    -0.376 OA
BRANCH  26  27
ATOM     27  C   UNL A   1      40.723  19.817  26.536  1.00  0.00     0.202 C 
BRANCH  27  28
ATOM     28  C   UNL A   1      42.078  19.220  26.176  1.00  0.00     0.261 C 
BRANCH  28  29
ATOM     29  O   UNL A   1      42.670  19.923  25.063  1.00  0.00    -0.460 OA
BRANCH  29  30
ATOM     30  C   UNL A   1      43.855  20.524  25.296  1.00  0.00     0.338 C 
ATOM     31  O   UNL A   1      44.958  20.060  25.063  1.00  0.00    -0.246 OA
BRANCH  30  32
ATOM     32  C   UNL A   1      43.658  21.865  25.899  1.00  0.00     0.060 A 
ATOM     33  C   UNL A   1      43.503  23.018  25.129  1.00  0.00     0.016 A 
ATOM     34  C   UNL A   1      43.763  21.982  27.285  1.00  0.00     0.016 A 
ATOM     35  C   UNL A   1      43.610  24.280  25.726  1.00  0.00     0.010 A 
ATOM     36  C   UNL A   1      43.778  23.246  27.886  1.00  0.00     0.010 A 
ATOM     37  C   UNL A   1      43.782  24.418  27.111  1.00  0.00    -0.014 A 
BRANCH  37  38
ATOM     38  C   UNL A   1      44.058  25.741  27.758  1.00  0.00     0.031 A 
ATOM     39  C   UNL A   1      42.919  26.522  28.380  1.00  0.00     0.074 A 
ATOM     40  C   UNL A   1      45.295  26.274  27.809  1.00  0.00     0.049 A 
ATOM     41  N   UNL A   1      42.855  27.791  28.695  1.00  0.00    -0.248 NA
ATOM     42  C   UNL A   1      41.684  25.774  28.675  1.00  0.00     0.031 C 
ATOM     43  C   UNL A   1      46.523  25.632  27.342  1.00  0.00     0.029 A 
ATOM     44  N   UNL A   1      45.720  27.503  28.265  1.00  0.00    -0.354 N 
ATOM     45  C   UNL A   1      41.549  28.015  29.120  1.00  0.00     0.074 A 
ATOM     46  C   UNL A   1      40.864  26.741  29.061  1.00  0.00     0.031 C 
ATOM     47  C   UNL A   1      47.561  26.456  27.551  1.00  0.00     0.029 A 
ATOM     48  C   UNL A   1      47.060  27.734  28.044  1.00  0.00     0.049 A 
ATOM     49  H   UNL A   1      45.125  28.152  28.704  1.00  0.00     0.167 HD
ATOM     50  C   UNL A   1      40.970  29.175  29.516  1.00  0.00     0.034 A 
ATOM     51  C   UNL A   1      47.796  28.860  28.140  1.00  0.00     0.034 A 
ATOM     52  C   UNL A   1      41.673  30.422  29.661  1.00  0.00     0.049 A 
ATOM     53  C   UNL A   1      47.133  30.146  28.546  1.00  0.00     0.074 A 
ATOM     54  C   UNL A   1      41.175  31.651  30.062  1.00  0.00     0.029 A 
ATOM     55  N   UNL A   1      43.028  30.599  29.433  1.00  0.00    -0.354 N 
ATOM     56  N   UNL A   1      45.888  30.357  28.896  1.00  0.00    -0.248 NA
ATOM     57  C   UNL A   1      47.975  31.351  28.561  1.00  0.00     0.031 C 
ATOM     58  C   UNL A   1      42.228  32.572  30.066  1.00  0.00     0.029 A 
ATOM     59  C   UNL A   1      43.386  31.912  29.687  1.00  0.00     0.049 A 
ATOM     60  H   UNL A   1      43.646  29.894  29.133  1.00  0.00     0.167 HD
ATOM     61  C   UNL A   1      45.801  31.715  29.188  1.00  0.00     0.074 A 
ATOM     62  C   UNL A   1      47.127  32.269  29.003  1.00  0.00     0.031 C 
ATOM     63  C   UNL A   1      44.717  32.442  29.551  1.00  0.00     0.034 A 
BRANCH  50  64
ATOM     64  C   UNL A   1      39.495  29.162  29.822  1.00  0.00     0.023 A 
ATOM     65  C   UNL A   1      39.043  28.897  31.129  1.00  0.00     0.012 A 
ATOM     66  C   UNL A   1      38.557  29.491  28.821  1.00  0.00     0.148 A 
ATOM     67  C   UNL A   1      37.680  28.932  31.429  1.00  0.00     0.002 A 
ATOM     68  C   UNL A   1      37.206  29.567  29.137  1.00  0.00     0.091 A 
ATOM     69  F   UNL A   1      39.004  29.719  27.577  1.00  0.00    -0.205 F 
ATOM     70  C   UNL A   1      36.764  29.278  30.438  1.00  0.00     0.022 A 
BRANCH  68  71
ATOM     71  S   UNL A   1      35.962  30.082  27.946  1.00  0.00     0.127 S 
ATOM     72  O   UNL A   1      34.925  29.071  28.145  1.00  0.00    -0.237 OA
ATOM     73  O   UNL A   1      35.610  31.419  28.426  1.00  0.00    -0.237 OA
ATOM     74  O   UNL A   1      36.620  30.058  26.647  1.00  0.00    -0.744 OA
ENDBRANCH  68  71
ENDBRANCH  50  64
BRANCH  51  75
ATOM     75  C   UNL A   1      49.247  28.824  27.797  1.00  0.00     0.023 A 
ATOM     76  C   UNL A   1      50.209  28.872  28.823  1.00  0.00     0.012 A 
ATOM     77  C   UNL A   1      49.677  28.695  26.461  1.00  0.00     0.148 A 
ATOM     78  C   UNL A   1      51.572  28.800  28.524  1.00  0.00     0.002 A 
ATOM     79  C   UNL A   1      51.029  28.546  26.178  1.00  0.00     0.091 A 
ATOM     80  F   UNL A   1      48.752  28.693  25.491  1.00  0.00    -0.205 F 
ATOM     81  C   UNL A   1      51.980  28.617  27.205  1.00  0.00     0.022 A 
BRANCH  79  82
ATOM     82  S   UNL A   1      51.609  28.126  24.530  1.00  0.00     0.127 S 
ATOM     83  O   UNL A   1      51.390  29.375  23.807  1.00  0.00    -0.237 OA
ATOM     84  O   UNL A   1      53.013  27.793  24.776  1.00  0.00    -0.237 OA
ATOM     85  O   UNL A   1      50.795  26.992  24.114  1.00  0.00    -0.744 OA
ENDBRANCH  79  82
ENDBRANCH  51  75
BRANCH  63  86
ATOM     86  C   UNL A   1      44.920  33.912  29.809  1.00  0.00     0.023 A 
ATOM     87  C   UNL A   1      45.377  34.343  31.070  1.00  0.00     0.012 A 
ATOM     88  C   UNL A   1      44.711  34.858  28.787  1.00  0.00     0.148 A 
ATOM     89  C   UNL A   1      45.590  35.698  31.320  1.00  0.00     0.002 A 
ATOM     90  C   UNL A   1      44.967  36.202  29.030  1.00  0.00     0.091 A 
ATOM     91  F   UNL A   1      44.255  34.429  27.601  1.00  0.00    -0.205 F 
ATOM     92  C   UNL A   1      45.396  36.626  30.299  1.00  0.00     0.022 A 
BRANCH  90  93
ATOM     93  S   UNL A   1      44.823  37.452  27.748  1.00  0.00     0.127 S 
ATOM     94  O   UNL A   1      43.559  37.083  27.113  1.00  0.00    -0.237 OA
ATOM     95  O   UNL A   1      44.775  38.692  28.525  1.00  0.00    -0.237 OA
ATOM     96  O   UNL A   1      46.010  37.308  26.916  1.00  0.00    -0.744 OA
ENDBRANCH  90  93
ENDBRANCH  63  86
ENDBRANCH  37  38
ENDBRANCH  30  32
ENDBRANCH  29  30
ENDBRANCH  28  29
ENDBRANCH  27  28
ENDBRANCH  26  27
ENDBRANCH  25  26
ENDBRANCH   1  25
TORSDOF 26
ENDMDL
