MODEL 1
REMARK VINA RESULT:      -9.5      0.000      0.000
REMARK SMILES COc1cccc(C2=NN3[C@@H](c4ccc(OC)c(OC)c4C(=O)OCCOCCOCCOC(=O)c4ccc(-c5c6nc(c(-c7cccc(S(=O)(=O)[O-])c7F)c7ccc([nH]7)c(-c7cccc(S(=O)(=O)[O-])c7F)c7nc(c(-c8cccc(S(=O)(=O)[O-])c8F)c8ccc5[nH]8)C=C7)C=C6)cc4)Oc4c(OC)cccc4[C@@H]3C2)c1
REMARK SMILES IDX 28 1 27 2 26 3 25 4 24 5 22 6 23 7 21 8 12 9 13 10 14 11
REMARK SMILES IDX 18 12 15 13 11 14 8 15 9 16 109 17 10 18 108 19 107 20 99 21
REMARK SMILES IDX 100 22 106 23 101 24 105 25 104 26 7 27 3 28 4 29 110 30
REMARK SMILES IDX 5 31 6 32 2 33 1 34 102 35 103 36 19 37 20 38 16 39 17 40
REMARK SMILES IDX 29 41 30 42 31 43 32 44 33 45 34 46 35 47 36 48 37 49 98 50
REMARK SMILES IDX 38 51 97 52 39 53 40 54 41 55 91 56 42 57 96 58 90 59 92 60
REMARK SMILES IDX 43 61 95 62 89 63 88 64 44 66 76 67 56 68 75 69 57 70 60 71
REMARK SMILES IDX 74 72 93 73 58 74 59 75 73 77 94 78 61 79 45 80 46 81 54 82
REMARK SMILES IDX 47 83 49 84 55 85 48 86 50 87 51 88 52 89 53 90 77 91 78 92
REMARK SMILES IDX 86 93 79 94 81 95 87 96 80 97 82 98 83 99 84 100 85 101
REMARK SMILES IDX 62 102 63 103 71 104 64 105 66 106 72 107 65 108 67 109
REMARK SMILES IDX 68 110 69 111 70 112
REMARK H PARENT 92 65 60 76
REMARK Flexibility Score: inf
ROOT
ATOM      1  C   UNL A   1      35.615  31.575  27.763  1.00  0.00     0.188 C 
ENDROOT
BRANCH   1   2
ATOM      2  O   UNL A   1      34.604  30.611  27.997  1.00  0.00    -0.376 OA
BRANCH   2   3
ATOM      3  C   UNL A   1      34.502  29.505  27.120  1.00  0.00     0.202 C 
BRANCH   3   4
ATOM      4  C   UNL A   1      33.425  28.438  27.366  1.00  0.00     0.261 C 
BRANCH   4   5
ATOM      5  O   UNL A   1      33.459  27.377  26.411  1.00  0.00    -0.460 OA
BRANCH   5   6
ATOM      6  C   UNL A   1      32.332  26.691  26.117  1.00  0.00     0.342 C 
ATOM      7  O   UNL A   1      31.578  26.190  26.914  1.00  0.00    -0.246 OA
BRANCH   6   8
ATOM      8  C   UNL A   1      32.138  26.780  24.626  1.00  0.00     0.114 A 
ATOM      9  C   UNL A   1      32.706  25.807  23.731  1.00  0.00     0.033 A 
ATOM     10  C   UNL A   1      32.336  25.865  22.382  1.00  0.00     0.014 A 
ATOM     11  C   UNL A   1      31.458  26.855  21.929  1.00  0.00     0.051 A 
ATOM     12  C   UNL A   1      31.317  27.826  24.138  1.00  0.00     0.175 A 
ATOM     13  C   UNL A   1      30.955  27.844  22.784  1.00  0.00     0.161 A 
BRANCH   9  14
ATOM     14  C   UNL A   1      33.448  24.590  24.270  1.00  0.00     0.321 C 
ATOM     15  C   UNL A   1      36.791  23.567  24.701  1.00  0.00     0.070 C 
ATOM     16  N   UNL A   1      35.916  24.520  24.902  1.00  0.00    -0.178 NA
ATOM     17  C   UNL A   1      36.500  22.780  23.450  1.00  0.00     0.090 C 
ATOM     18  N   UNL A   1      34.904  24.336  23.902  1.00  0.00    -0.246 NA
ATOM     19  C   UNL A   1      34.998  22.917  23.449  1.00  0.00     0.146 C 
ATOM     20  C   UNL A   1      34.198  22.036  24.406  1.00  0.00     0.023 A 
ATOM     21  O   UNL A   1      32.548  23.555  23.784  1.00  0.00    -0.460 OA
ATOM     22  C   UNL A   1      32.862  22.424  24.484  1.00  0.00     0.169 A 
ATOM     23  C   UNL A   1      34.625  21.086  25.325  1.00  0.00     0.010 A 
ATOM     24  C   UNL A   1      31.925  21.877  25.351  1.00  0.00     0.161 A 
ATOM     25  C   UNL A   1      33.719  20.560  26.264  1.00  0.00     0.004 A 
ATOM     26  C   UNL A   1      32.369  20.940  26.268  1.00  0.00     0.050 A 
BRANCH  15  27
ATOM     27  C   UNL A   1      37.958  23.158  25.557  1.00  0.00     0.001 A 
ATOM     28  C   UNL A   1      39.624  21.613  26.421  1.00  0.00     0.119 A 
ATOM     29  C   UNL A   1      40.065  22.583  27.332  1.00  0.00     0.046 A 
ATOM     30  C   UNL A   1      38.584  21.902  25.509  1.00  0.00     0.056 A 
ATOM     31  C   UNL A   1      39.484  23.835  27.359  1.00  0.00     0.005 A 
ATOM     32  C   UNL A   1      38.434  24.105  26.489  1.00  0.00     0.010 A 
BRANCH  28  33
ATOM     33  O   UNL A   1      40.284  20.429  26.602  1.00  0.00    -0.497 OA
ATOM     34  C   UNL A   1      41.624  20.469  27.054  1.00  0.00     0.278 C 
ENDBRANCH  28  33
ENDBRANCH  15  27
BRANCH  24  35
ATOM     35  O   UNL A   1      30.692  22.452  25.337  1.00  0.00    -0.493 OA
ATOM     36  C   UNL A   1      30.104  22.706  26.600  1.00  0.00     0.278 C 
ENDBRANCH  24  35
ENDBRANCH   9  14
BRANCH  12  37
ATOM     37  O   UNL A   1      30.779  28.759  24.988  1.00  0.00    -0.492 OA
ATOM     38  C   UNL A   1      31.456  30.017  24.926  1.00  0.00     0.278 C 
ENDBRANCH  12  37
BRANCH  13  39
ATOM     39  O   UNL A   1      30.087  28.696  22.150  1.00  0.00    -0.493 OA
ATOM     40  C   UNL A   1      28.732  28.726  22.577  1.00  0.00     0.278 C 
ENDBRANCH  13  39
ENDBRANCH   6   8
ENDBRANCH   5   6
ENDBRANCH   4   5
ENDBRANCH   3   4
ENDBRANCH   2   3
ENDBRANCH   1   2
BRANCH   1  41
ATOM     41  C   UNL A   1      35.761  32.563  28.940  1.00  0.00     0.188 C 
BRANCH  41  42
ATOM     42  O   UNL A   1      34.744  32.703  29.918  1.00  0.00    -0.376 OA
BRANCH  42  43
ATOM     43  C   UNL A   1      35.052  32.513  31.283  1.00  0.00     0.202 C 
BRANCH  43  44
ATOM     44  C   UNL A   1      36.474  32.068  31.634  1.00  0.00     0.261 C 
BRANCH  44  45
ATOM     45  O   UNL A   1      37.106  32.795  32.698  1.00  0.00    -0.460 OA
BRANCH  45  46
ATOM     46  C   UNL A   1      37.338  34.110  32.452  1.00  0.00     0.338 C 
ATOM     47  O   UNL A   1      36.597  35.047  32.701  1.00  0.00    -0.246 OA
BRANCH  46  48
ATOM     48  C   UNL A   1      38.726  34.282  31.965  1.00  0.00     0.060 A 
ATOM     49  C   UNL A   1      38.940  34.543  30.602  1.00  0.00     0.016 A 
ATOM     50  C   UNL A   1      39.810  34.142  32.832  1.00  0.00     0.016 A 
ATOM     51  C   UNL A   1      40.237  34.642  30.097  1.00  0.00     0.010 A 
ATOM     52  C   UNL A   1      41.109  34.210  32.319  1.00  0.00     0.010 A 
ATOM     53  C   UNL A   1      41.328  34.427  30.946  1.00  0.00    -0.014 A 
BRANCH  53  54
ATOM     54  C   UNL A   1      42.686  34.231  30.381  1.00  0.00     0.031 A 
ATOM     55  C   UNL A   1      43.047  32.871  29.848  1.00  0.00     0.074 A 
ATOM     56  C   UNL A   1      43.594  35.223  30.372  1.00  0.00     0.049 A 
ATOM     57  N   UNL A   1      44.196  32.431  29.407  1.00  0.00    -0.248 NA
ATOM     58  C   UNL A   1      41.967  31.869  29.820  1.00  0.00     0.031 C 
ATOM     59  C   UNL A   1      43.364  36.585  30.848  1.00  0.00     0.029 A 
ATOM     60  N   UNL A   1      44.910  35.221  29.978  1.00  0.00    -0.354 N 
ATOM     61  C   UNL A   1      43.991  31.093  29.089  1.00  0.00     0.074 A 
ATOM     62  C   UNL A   1      42.607  30.794  29.385  1.00  0.00     0.031 C 
ATOM     63  C   UNL A   1      44.513  37.276  30.760  1.00  0.00     0.029 A 
ATOM     64  C   UNL A   1      45.566  36.397  30.253  1.00  0.00     0.049 A 
ATOM     65  H   UNL A   1      45.341  34.451  29.541  1.00  0.00     0.167 HD
ATOM     66  C   UNL A   1      44.872  30.197  28.590  1.00  0.00     0.034 A 
ATOM     67  C   UNL A   1      46.873  36.713  30.145  1.00  0.00     0.034 A 
ATOM     68  C   UNL A   1      46.242  30.499  28.280  1.00  0.00     0.049 A 
ATOM     69  C   UNL A   1      47.841  35.687  29.609  1.00  0.00     0.074 A 
ATOM     70  C   UNL A   1      47.198  29.672  27.720  1.00  0.00     0.029 A 
ATOM     71  N   UNL A   1      46.857  31.718  28.518  1.00  0.00    -0.354 N 
ATOM     72  N   UNL A   1      47.609  34.462  29.206  1.00  0.00    -0.248 NA
ATOM     73  C   UNL A   1      49.249  36.099  29.487  1.00  0.00     0.031 C 
ATOM     74  C   UNL A   1      48.404  30.379  27.654  1.00  0.00     0.029 A 
ATOM     75  C   UNL A   1      48.184  31.661  28.130  1.00  0.00     0.049 A 
ATOM     76  H   UNL A   1      46.414  32.508  28.904  1.00  0.00     0.167 HD
ATOM     77  C   UNL A   1      48.828  33.973  28.743  1.00  0.00     0.074 A 
ATOM     78  C   UNL A   1      49.794  35.039  28.903  1.00  0.00     0.031 C 
ATOM     79  C   UNL A   1      49.122  32.749  28.238  1.00  0.00     0.034 A 
BRANCH  66  80
ATOM     80  C   UNL A   1      44.382  28.796  28.340  1.00  0.00     0.023 A 
ATOM     81  C   UNL A   1      44.571  27.800  29.319  1.00  0.00     0.012 A 
ATOM     82  C   UNL A   1      43.679  28.482  27.161  1.00  0.00     0.148 A 
ATOM     83  C   UNL A   1      44.093  26.506  29.115  1.00  0.00     0.002 A 
ATOM     84  C   UNL A   1      43.164  27.204  26.985  1.00  0.00     0.091 A 
ATOM     85  F   UNL A   1      43.530  29.439  26.232  1.00  0.00    -0.205 F 
ATOM     86  C   UNL A   1      43.380  26.212  27.956  1.00  0.00     0.022 A 
BRANCH  84  87
ATOM     87  S   UNL A   1      42.162  26.750  25.566  1.00  0.00     0.127 S 
ATOM     88  O   UNL A   1      42.508  27.803  24.612  1.00  0.00    -0.237 OA
ATOM     89  O   UNL A   1      42.687  25.426  25.231  1.00  0.00    -0.237 OA
ATOM     90  O   UNL A   1      40.781  26.758  26.028  1.00  0.00    -0.744 OA
ENDBRANCH  84  87
ENDBRANCH  66  80
BRANCH  67  91
ATOM     91  C   UNL A   1      47.351  38.067  30.546  1.00  0.00     0.023 A 
ATOM     92  C   UNL A   1      47.418  39.096  29.587  1.00  0.00     0.012 A 
ATOM     93  C   UNL A   1      47.743  38.337  31.872  1.00  0.00     0.148 A 
ATOM     94  C   UNL A   1      47.899  40.360  29.932  1.00  0.00     0.002 A 
ATOM     95  C   UNL A   1      48.168  39.614  32.222  1.00  0.00     0.091 A 
ATOM     96  F   UNL A   1      47.690  37.340  32.765  1.00  0.00    -0.205 F 
ATOM     97  C   UNL A   1      48.264  40.622  31.250  1.00  0.00     0.022 A 
BRANCH  95  98
ATOM     98  S   UNL A   1      48.540  40.072  33.918  1.00  0.00     0.127 S 
ATOM     99  O   UNL A   1      49.698  39.230  34.209  1.00  0.00    -0.237 OA
ATOM    100  O   UNL A   1      48.833  41.499  33.787  1.00  0.00    -0.237 OA
ATOM    101  O   UNL A   1      47.335  39.774  34.680  1.00  0.00    -0.744 OA
ENDBRANCH  95  98
ENDBRANCH  67  91
BRANCH  79 102
ATOM    102  C   UNL A   1      50.530  32.499  27.758  1.00  0.00     0.023 A 
ATOM    103  C   UNL A   1      51.487  31.942  28.627  1.00  0.00     0.012 A 
ATOM    104  C   UNL A   1      50.872  32.733  26.410  1.00  0.00     0.148 A 
ATOM    105  C   UNL A   1      52.773  31.651  28.170  1.00  0.00     0.002 A 
ATOM    106  C   UNL A   1      52.138  32.391  25.950  1.00  0.00     0.091 A 
ATOM    107  F   UNL A   1      49.951  33.277  25.601  1.00  0.00    -0.205 F 
ATOM    108  C   UNL A   1      53.093  31.862  26.832  1.00  0.00     0.022 A 
BRANCH 106 109
ATOM    109  S   UNL A   1      52.607  32.533  24.222  1.00  0.00     0.127 S 
ATOM    110  O   UNL A   1      52.414  33.961  23.976  1.00  0.00    -0.237 OA
ATOM    111  O   UNL A   1      54.005  32.101  24.243  1.00  0.00    -0.237 OA
ATOM    112  O   UNL A   1      51.713  31.647  23.486  1.00  0.00    -0.744 OA
ENDBRANCH 106 109
ENDBRANCH  79 102
ENDBRANCH  53  54
ENDBRANCH  46  48
ENDBRANCH  45  46
ENDBRANCH  44  45
ENDBRANCH  43  44
ENDBRANCH  42  43
ENDBRANCH  41  42
ENDBRANCH   1  41
TORSDOF 26
ENDMDL
MODEL 2
REMARK VINA RESULT:      -8.9      6.590     10.458
REMARK SMILES COc1cccc(C2=NN3[C@@H](c4ccc(OC)c(OC)c4C(=O)OCCOCCOCCOC(=O)c4ccc(-c5c6nc(c(-c7cccc(S(=O)(=O)[O-])c7F)c7ccc([nH]7)c(-c7cccc(S(=O)(=O)[O-])c7F)c7nc(c(-c8cccc(S(=O)(=O)[O-])c8F)c8ccc5[nH]8)C=C7)C=C6)cc4)Oc4c(OC)cccc4[C@@H]3C2)c1
REMARK SMILES IDX 28 1 27 2 26 3 25 4 24 5 22 6 23 7 21 8 12 9 13 10 14 11
REMARK SMILES IDX 18 12 15 13 11 14 8 15 9 16 109 17 10 18 108 19 107 20 99 21
REMARK SMILES IDX 100 22 106 23 101 24 105 25 104 26 7 27 3 28 4 29 110 30
REMARK SMILES IDX 5 31 6 32 2 33 1 34 102 35 103 36 19 37 20 38 16 39 17 40
REMARK SMILES IDX 29 41 30 42 31 43 32 44 33 45 34 46 35 47 36 48 37 49 98 50
REMARK SMILES IDX 38 51 97 52 39 53 40 54 41 55 91 56 42 57 96 58 90 59 92 60
REMARK SMILES IDX 43 61 95 62 89 63 88 64 44 66 76 67 56 68 75 69 57 70 60 71
REMARK SMILES IDX 74 72 93 73 58 74 59 75 73 77 94 78 61 79 45 80 46 81 54 82
REMARK SMILES IDX 47 83 49 84 55 85 48 86 50 87 51 88 52 89 53 90 77 91 78 92
REMARK SMILES IDX 86 93 79 94 81 95 87 96 80 97 82 98 83 99 84 100 85 101
REMARK SMILES IDX 62 102 63 103 71 104 64 105 66 106 72 107 65 108 67 109
REMARK SMILES IDX 68 110 69 111 70 112
REMARK H PARENT 92 65 60 76
REMARK Flexibility Score: inf
ROOT
ATOM      1  C   UNL A   1      35.714  31.521  28.251  1.00  0.00     0.188 C 
ENDROOT
BRANCH   1   2
ATOM      2  O   UNL A   1      34.547  30.845  27.817  1.00  0.00    -0.376 OA
BRANCH   2   3
ATOM      3  C   UNL A   1      34.646  29.945  26.729  1.00  0.00     0.202 C 
BRANCH   3   4
ATOM      4  C   UNL A   1      34.134  28.506  26.886  1.00  0.00     0.261 C 
BRANCH   4   5
ATOM      5  O   UNL A   1      32.709  28.417  26.905  1.00  0.00    -0.460 OA
BRANCH   5   6
ATOM      6  C   UNL A   1      32.095  27.263  26.559  1.00  0.00     0.342 C 
ATOM      7  O   UNL A   1      31.603  26.466  27.320  1.00  0.00    -0.246 OA
BRANCH   6   8
ATOM      8  C   UNL A   1      32.034  27.230  25.055  1.00  0.00     0.114 A 
ATOM      9  C   UNL A   1      32.701  26.205  24.295  1.00  0.00     0.033 A 
ATOM     10  C   UNL A   1      32.453  26.147  22.919  1.00  0.00     0.014 A 
ATOM     11  C   UNL A   1      31.599  27.073  22.311  1.00  0.00     0.051 A 
ATOM     12  C   UNL A   1      31.240  28.211  24.413  1.00  0.00     0.175 A 
ATOM     13  C   UNL A   1      31.001  28.112  23.036  1.00  0.00     0.161 A 
BRANCH   9  14
ATOM     14  C   UNL A   1      33.416  25.055  24.995  1.00  0.00     0.321 C 
ATOM     15  C   UNL A   1      36.661  23.688  25.089  1.00  0.00     0.070 C 
ATOM     16  N   UNL A   1      35.942  24.778  25.184  1.00  0.00    -0.178 NA
ATOM     17  C   UNL A   1      36.044  22.679  24.155  1.00  0.00     0.090 C 
ATOM     18  N   UNL A   1      34.733  24.513  24.458  1.00  0.00    -0.246 NA
ATOM     19  C   UNL A   1      34.595  23.028  24.380  1.00  0.00     0.146 C 
ATOM     20  C   UNL A   1      33.926  22.524  25.657  1.00  0.00     0.023 A 
ATOM     21  O   UNL A   1      32.339  24.077  24.958  1.00  0.00    -0.460 OA
ATOM     22  C   UNL A   1      32.678  23.109  25.862  1.00  0.00     0.169 A 
ATOM     23  C   UNL A   1      34.438  21.767  26.702  1.00  0.00     0.010 A 
ATOM     24  C   UNL A   1      31.890  22.925  26.991  1.00  0.00     0.161 A 
ATOM     25  C   UNL A   1      33.697  21.615  27.889  1.00  0.00     0.004 A 
ATOM     26  C   UNL A   1      32.419  22.176  28.028  1.00  0.00     0.050 A 
BRANCH  15  27
ATOM     27  C   UNL A   1      37.932  23.327  25.806  1.00  0.00     0.001 A 
ATOM     28  C   UNL A   1      39.936  23.781  27.105  1.00  0.00     0.119 A 
ATOM     29  C   UNL A   1      40.331  22.442  26.981  1.00  0.00     0.046 A 
ATOM     30  C   UNL A   1      38.720  24.228  26.540  1.00  0.00     0.056 A 
ATOM     31  C   UNL A   1      39.543  21.539  26.296  1.00  0.00     0.005 A 
ATOM     32  C   UNL A   1      38.367  21.988  25.707  1.00  0.00     0.010 A 
BRANCH  28  33
ATOM     33  O   UNL A   1      40.883  24.517  27.761  1.00  0.00    -0.497 OA
ATOM     34  C   UNL A   1      42.025  24.939  27.040  1.00  0.00     0.278 C 
ENDBRANCH  28  33
ENDBRANCH  15  27
BRANCH  24  35
ATOM     35  O   UNL A   1      30.742  23.654  27.042  1.00  0.00    -0.493 OA
ATOM     36  C   UNL A   1      29.536  22.917  27.142  1.00  0.00     0.278 C 
ENDBRANCH  24  35
ENDBRANCH   9  14
BRANCH  12  37
ATOM     37  O   UNL A   1      30.608  29.192  25.135  1.00  0.00    -0.492 OA
ATOM     38  C   UNL A   1      31.055  30.505  24.788  1.00  0.00     0.278 C 
ENDBRANCH  12  37
BRANCH  13  39
ATOM     39  O   UNL A   1      30.176  28.887  22.260  1.00  0.00    -0.493 OA
ATOM     40  C   UNL A   1      28.770  28.740  22.409  1.00  0.00     0.278 C 
ENDBRANCH  13  39
ENDBRANCH   6   8
ENDBRANCH   5   6
ENDBRANCH   4   5
ENDBRANCH   3   4
ENDBRANCH   2   3
ENDBRANCH   1   2
BRANCH   1  41
ATOM     41  C   UNL A   1      35.454  32.388  29.501  1.00  0.00     0.188 C 
BRANCH  41  42
ATOM     42  O   UNL A   1      34.833  33.659  29.403  1.00  0.00    -0.376 OA
BRANCH  42  43
ATOM     43  C   UNL A   1      34.200  34.221  30.533  1.00  0.00     0.202 C 
BRANCH  43  44
ATOM     44  C   UNL A   1      34.313  33.462  31.859  1.00  0.00     0.261 C 
BRANCH  44  45
ATOM     45  O   UNL A   1      34.170  34.260  33.043  1.00  0.00    -0.460 OA
BRANCH  45  46
ATOM     46  C   UNL A   1      35.169  35.152  33.271  1.00  0.00     0.338 C 
ATOM     47  O   UNL A   1      35.118  36.363  33.137  1.00  0.00    -0.246 OA
BRANCH  46  48
ATOM     48  C   UNL A   1      36.324  34.451  33.878  1.00  0.00     0.060 A 
ATOM     49  C   UNL A   1      36.144  33.773  35.094  1.00  0.00     0.016 A 
ATOM     50  C   UNL A   1      37.584  34.498  33.280  1.00  0.00     0.016 A 
ATOM     51  C   UNL A   1      37.226  33.160  35.728  1.00  0.00     0.010 A 
ATOM     52  C   UNL A   1      38.672  33.911  33.931  1.00  0.00     0.010 A 
ATOM     53  C   UNL A   1      38.505  33.269  35.172  1.00  0.00    -0.014 A 
BRANCH  53  54
ATOM     54  C   UNL A   1      39.699  32.892  35.968  1.00  0.00     0.031 A 
ATOM     55  C   UNL A   1      40.350  33.947  36.821  1.00  0.00     0.074 A 
ATOM     56  C   UNL A   1      40.219  31.653  35.912  1.00  0.00     0.049 A 
ATOM     57  N   UNL A   1      41.455  33.887  37.516  1.00  0.00    -0.248 NA
ATOM     58  C   UNL A   1      39.666  35.250  36.889  1.00  0.00     0.031 C 
ATOM     59  C   UNL A   1      39.676  30.542  35.133  1.00  0.00     0.029 A 
ATOM     60  N   UNL A   1      41.350  31.135  36.496  1.00  0.00    -0.354 N 
ATOM     61  C   UNL A   1      41.623  35.151  38.069  1.00  0.00     0.074 A 
ATOM     62  C   UNL A   1      40.505  35.958  37.631  1.00  0.00     0.031 C 
ATOM     63  C   UNL A   1      40.498  29.485  35.253  1.00  0.00     0.029 A 
ATOM     64  C   UNL A   1      41.640  29.856  36.088  1.00  0.00     0.049 A 
ATOM     65  H   UNL A   1      41.898  31.634  37.144  1.00  0.00     0.167 HD
ATOM     66  C   UNL A   1      42.614  35.599  38.873  1.00  0.00     0.034 A 
ATOM     67  C   UNL A   1      42.723  29.088  36.328  1.00  0.00     0.034 A 
ATOM     68  C   UNL A   1      43.716  34.792  39.321  1.00  0.00     0.049 A 
ATOM     69  C   UNL A   1      43.828  29.619  37.208  1.00  0.00     0.074 A 
ATOM     70  C   UNL A   1      44.741  35.141  40.181  1.00  0.00     0.029 A 
ATOM     71  N   UNL A   1      43.946  33.482  38.934  1.00  0.00    -0.354 N 
ATOM     72  N   UNL A   1      43.916  30.777  37.816  1.00  0.00    -0.248 NA
ATOM     73  C   UNL A   1      44.969  28.725  37.459  1.00  0.00     0.031 C 
ATOM     74  C   UNL A   1      45.614  34.053  40.284  1.00  0.00     0.029 A 
ATOM     75  C   UNL A   1      45.106  33.012  39.524  1.00  0.00     0.049 A 
ATOM     76  H   UNL A   1      43.370  32.962  38.328  1.00  0.00     0.167 HD
ATOM     77  C   UNL A   1      45.097  30.734  38.553  1.00  0.00     0.074 A 
ATOM     78  C   UNL A   1      45.684  29.430  38.327  1.00  0.00     0.031 C 
ATOM     79  C   UNL A   1      45.649  31.691  39.340  1.00  0.00     0.034 A 
BRANCH  66  80
ATOM     80  C   UNL A   1      42.554  37.032  39.329  1.00  0.00     0.023 A 
ATOM     81  C   UNL A   1      43.304  38.016  38.655  1.00  0.00     0.012 A 
ATOM     82  C   UNL A   1      41.705  37.412  40.387  1.00  0.00     0.148 A 
ATOM     83  C   UNL A   1      43.232  39.353  39.046  1.00  0.00     0.002 A 
ATOM     84  C   UNL A   1      41.602  38.751  40.739  1.00  0.00     0.091 A 
ATOM     85  F   UNL A   1      41.018  36.456  41.029  1.00  0.00    -0.205 F 
ATOM     86  C   UNL A   1      42.374  39.721  40.078  1.00  0.00     0.022 A 
BRANCH  84  87
ATOM     87  S   UNL A   1      40.464  39.337  41.999  1.00  0.00     0.127 S 
ATOM     88  O   UNL A   1      40.576  40.787  41.845  1.00  0.00    -0.237 OA
ATOM     89  O   UNL A   1      39.193  38.772  41.550  1.00  0.00    -0.237 OA
ATOM     90  O   UNL A   1      40.955  38.807  43.264  1.00  0.00    -0.744 OA
ENDBRANCH  84  87
ENDBRANCH  66  80
BRANCH  67  91
ATOM     91  C   UNL A   1      42.820  27.724  35.734  1.00  0.00     0.023 A 
ATOM     92  C   UNL A   1      42.095  26.659  36.306  1.00  0.00     0.012 A 
ATOM     93  C   UNL A   1      43.630  27.476  34.608  1.00  0.00     0.148 A 
ATOM     94  C   UNL A   1      42.202  25.368  35.788  1.00  0.00     0.002 A 
ATOM     95  C   UNL A   1      43.688  26.198  34.063  1.00  0.00     0.091 A 
ATOM     96  F   UNL A   1      44.326  28.498  34.091  1.00  0.00    -0.205 F 
ATOM     97  C   UNL A   1      42.990  25.139  34.663  1.00  0.00     0.022 A 
BRANCH  95  98
ATOM     98  S   UNL A   1      44.577  25.840  32.545  1.00  0.00     0.127 S 
ATOM     99  O   UNL A   1      43.914  26.727  31.593  1.00  0.00    -0.237 OA
ATOM    100  O   UNL A   1      45.943  26.226  32.899  1.00  0.00    -0.237 OA
ATOM    101  O   UNL A   1      44.398  24.413  32.311  1.00  0.00    -0.744 OA
ENDBRANCH  95  98
ENDBRANCH  67  91
BRANCH  79 102
ATOM    102  C   UNL A   1      46.924  31.357  40.073  1.00  0.00     0.023 A 
ATOM    103  C   UNL A   1      48.173  31.569  39.457  1.00  0.00     0.012 A 
ATOM    104  C   UNL A   1      46.879  30.922  41.413  1.00  0.00     0.148 A 
ATOM    105  C   UNL A   1      49.357  31.322  40.153  1.00  0.00     0.002 A 
ATOM    106  C   UNL A   1      48.062  30.728  42.116  1.00  0.00     0.091 A 
ATOM    107  F   UNL A   1      45.681  30.712  41.978  1.00  0.00    -0.205 F 
ATOM    108  C   UNL A   1      49.302  30.916  41.484  1.00  0.00     0.022 A 
BRANCH 106 109
ATOM    109  S   UNL A   1      48.089  30.304  43.861  1.00  0.00     0.127 S 
ATOM    110  O   UNL A   1      47.821  28.867  43.823  1.00  0.00    -0.237 OA
ATOM    111  O   UNL A   1      49.456  30.659  44.246  1.00  0.00    -0.237 OA
ATOM    112  O   UNL A   1      47.054  31.115  44.491  1.00  0.00    -0.744 OA
ENDBRANCH 106 109
ENDBRANCH  79 102
ENDBRANCH  53  54
ENDBRANCH  46  48
ENDBRANCH  45  46
ENDBRANCH  44  45
ENDBRANCH  43  44
ENDBRANCH  42  43
ENDBRANCH  41  42
ENDBRANCH   1  41
TORSDOF 26
ENDMDL
MODEL 3
REMARK VINA RESULT:      -8.6      2.985      6.894
REMARK SMILES COc1cccc(C2=NN3[C@@H](c4ccc(OC)c(OC)c4C(=O)OCCOCCOCCOC(=O)c4ccc(-c5c6nc(c(-c7cccc(S(=O)(=O)[O-])c7F)c7ccc([nH]7)c(-c7cccc(S(=O)(=O)[O-])c7F)c7nc(c(-c8cccc(S(=O)(=O)[O-])c8F)c8ccc5[nH]8)C=C7)C=C6)cc4)Oc4c(OC)cccc4[C@@H]3C2)c1
REMARK SMILES IDX 28 1 27 2 26 3 25 4 24 5 22 6 23 7 21 8 12 9 13 10 14 11
REMARK SMILES IDX 18 12 15 13 11 14 8 15 9 16 109 17 10 18 108 19 107 20 99 21
REMARK SMILES IDX 100 22 106 23 101 24 105 25 104 26 7 27 3 28 4 29 110 30
REMARK SMILES IDX 5 31 6 32 2 33 1 34 102 35 103 36 19 37 20 38 16 39 17 40
REMARK SMILES IDX 29 41 30 42 31 43 32 44 33 45 34 46 35 47 36 48 37 49 98 50
REMARK SMILES IDX 38 51 97 52 39 53 40 54 41 55 91 56 42 57 96 58 90 59 92 60
REMARK SMILES IDX 43 61 95 62 89 63 88 64 44 66 76 67 56 68 75 69 57 70 60 71
REMARK SMILES IDX 74 72 93 73 58 74 59 75 73 77 94 78 61 79 45 80 46 81 54 82
REMARK SMILES IDX 47 83 49 84 55 85 48 86 50 87 51 88 52 89 53 90 77 91 78 92
REMARK SMILES IDX 86 93 79 94 81 95 87 96 80 97 82 98 83 99 84 100 85 101
REMARK SMILES IDX 62 102 63 103 71 104 64 105 66 106 72 107 65 108 67 109
REMARK SMILES IDX 68 110 69 111 70 112
REMARK H PARENT 92 65 60 76
REMARK Flexibility Score: inf
ROOT
ATOM      1  C   UNL A   1      35.073  29.940  27.822  1.00  0.00     0.188 C 
ENDROOT
BRANCH   1   2
ATOM      2  O   UNL A   1      34.199  30.025  26.711  1.00  0.00    -0.376 OA
BRANCH   2   3
ATOM      3  C   UNL A   1      34.296  29.047  25.692  1.00  0.00     0.202 C 
BRANCH   3   4
ATOM      4  C   UNL A   1      34.011  27.575  26.023  1.00  0.00     0.261 C 
BRANCH   4   5
ATOM      5  O   UNL A   1      32.704  27.364  26.557  1.00  0.00    -0.460 OA
BRANCH   5   6
ATOM      6  C   UNL A   1      31.914  26.388  26.055  1.00  0.00     0.342 C 
ATOM      7  O   UNL A   1      31.283  25.586  26.699  1.00  0.00    -0.246 OA
BRANCH   6   8
ATOM      8  C   UNL A   1      31.876  26.576  24.561  1.00  0.00     0.114 A 
ATOM      9  C   UNL A   1      32.596  25.703  23.672  1.00  0.00     0.033 A 
ATOM     10  C   UNL A   1      32.371  25.839  22.298  1.00  0.00     0.014 A 
ATOM     11  C   UNL A   1      31.487  26.810  21.816  1.00  0.00     0.051 A 
ATOM     12  C   UNL A   1      31.049  27.608  24.055  1.00  0.00     0.175 A 
ATOM     13  C   UNL A   1      30.834  27.706  22.674  1.00  0.00     0.161 A 
BRANCH   9  14
ATOM     14  C   UNL A   1      33.350  24.492  24.209  1.00  0.00     0.321 C 
ATOM     15  C   UNL A   1      36.703  23.518  24.678  1.00  0.00     0.070 C 
ATOM     16  N   UNL A   1      35.809  24.454  24.876  1.00  0.00    -0.178 NA
ATOM     17  C   UNL A   1      36.442  22.741  23.414  1.00  0.00     0.090 C 
ATOM     18  N   UNL A   1      34.815  24.266  23.860  1.00  0.00    -0.246 NA
ATOM     19  C   UNL A   1      34.939  22.853  23.392  1.00  0.00     0.146 C 
ATOM     20  C   UNL A   1      34.140  21.949  24.327  1.00  0.00     0.023 A 
ATOM     21  O   UNL A   1      32.474  23.448  23.698  1.00  0.00    -0.460 OA
ATOM     22  C   UNL A   1      32.796  22.314  24.390  1.00  0.00     0.169 A 
ATOM     23  C   UNL A   1      34.568  20.995  25.242  1.00  0.00     0.010 A 
ATOM     24  C   UNL A   1      31.856  21.742  25.237  1.00  0.00     0.161 A 
ATOM     25  C   UNL A   1      33.658  20.444  26.162  1.00  0.00     0.004 A 
ATOM     26  C   UNL A   1      32.301  20.802  26.149  1.00  0.00     0.050 A 
BRANCH  15  27
ATOM     27  C   UNL A   1      37.863  23.118  25.547  1.00  0.00     0.001 A 
ATOM     28  C   UNL A   1      39.651  23.495  27.149  1.00  0.00     0.119 A 
ATOM     29  C   UNL A   1      40.081  22.170  26.997  1.00  0.00     0.046 A 
ATOM     30  C   UNL A   1      38.523  23.972  26.445  1.00  0.00     0.056 A 
ATOM     31  C   UNL A   1      39.414  21.310  26.148  1.00  0.00     0.005 A 
ATOM     32  C   UNL A   1      38.328  21.790  25.425  1.00  0.00     0.010 A 
BRANCH  28  33
ATOM     33  O   UNL A   1      40.482  24.192  27.982  1.00  0.00    -0.497 OA
ATOM     34  C   UNL A   1      41.862  24.234  27.673  1.00  0.00     0.278 C 
ENDBRANCH  28  33
ENDBRANCH  15  27
BRANCH  24  35
ATOM     35  O   UNL A   1      30.614  22.298  25.210  1.00  0.00    -0.493 OA
ATOM     36  C   UNL A   1      30.002  22.525  26.467  1.00  0.00     0.278 C 
ENDBRANCH  24  35
ENDBRANCH   9  14
BRANCH  12  37
ATOM     37  O   UNL A   1      30.365  28.445  24.901  1.00  0.00    -0.492 OA
ATOM     38  C   UNL A   1      30.882  29.779  24.892  1.00  0.00     0.278 C 
ENDBRANCH  12  37
BRANCH  13  39
ATOM     39  O   UNL A   1      29.988  28.552  22.004  1.00  0.00    -0.493 OA
ATOM     40  C   UNL A   1      28.647  28.671  22.460  1.00  0.00     0.278 C 
ENDBRANCH  13  39
ENDBRANCH   6   8
ENDBRANCH   5   6
ENDBRANCH   4   5
ENDBRANCH   3   4
ENDBRANCH   2   3
ENDBRANCH   1   2
BRANCH   1  41
ATOM     41  C   UNL A   1      35.267  31.305  28.516  1.00  0.00     0.188 C 
BRANCH  41  42
ATOM     42  O   UNL A   1      36.254  32.225  28.077  1.00  0.00    -0.376 OA
BRANCH  42  43
ATOM     43  C   UNL A   1      36.439  33.440  28.770  1.00  0.00     0.202 C 
BRANCH  43  44
ATOM     44  C   UNL A   1      36.263  33.423  30.291  1.00  0.00     0.261 C 
BRANCH  44  45
ATOM     45  O   UNL A   1      37.196  34.224  31.031  1.00  0.00    -0.460 OA
BRANCH  45  46
ATOM     46  C   UNL A   1      38.193  33.539  31.650  1.00  0.00     0.338 C 
ATOM     47  O   UNL A   1      38.075  32.584  32.398  1.00  0.00    -0.246 OA
BRANCH  46  48
ATOM     48  C   UNL A   1      39.503  34.023  31.154  1.00  0.00     0.060 A 
ATOM     49  C   UNL A   1      39.656  34.277  29.781  1.00  0.00     0.016 A 
ATOM     50  C   UNL A   1      40.582  34.183  32.023  1.00  0.00     0.016 A 
ATOM     51  C   UNL A   1      40.895  34.668  29.270  1.00  0.00     0.010 A 
ATOM     52  C   UNL A   1      41.829  34.544  31.505  1.00  0.00     0.010 A 
ATOM     53  C   UNL A   1      41.999  34.756  30.124  1.00  0.00    -0.014 A 
BRANCH  53  54
ATOM     54  C   UNL A   1      43.368  34.874  29.564  1.00  0.00     0.031 A 
ATOM     55  C   UNL A   1      43.829  36.224  29.086  1.00  0.00     0.074 A 
ATOM     56  C   UNL A   1      44.174  33.804  29.446  1.00  0.00     0.049 A 
ATOM     57  N   UNL A   1      44.932  36.553  28.468  1.00  0.00    -0.248 NA
ATOM     58  C   UNL A   1      42.916  37.354  29.332  1.00  0.00     0.031 C 
ATOM     59  C   UNL A   1      43.849  32.447  29.879  1.00  0.00     0.029 A 
ATOM     60  N   UNL A   1      45.423  33.689  28.886  1.00  0.00    -0.354 N 
ATOM     61  C   UNL A   1      44.829  37.915  28.211  1.00  0.00     0.074 A 
ATOM     62  C   UNL A   1      43.557  38.353  28.743  1.00  0.00     0.031 C 
ATOM     63  C   UNL A   1      44.854  31.626  29.530  1.00  0.00     0.029 A 
ATOM     64  C   UNL A   1      45.877  32.393  28.819  1.00  0.00     0.049 A 
ATOM     65  H   UNL A   1      45.943  34.461  28.563  1.00  0.00     0.167 HD
ATOM     66  C   UNL A   1      45.715  38.731  27.594  1.00  0.00     0.034 A 
ATOM     67  C   UNL A   1      46.971  31.881  28.220  1.00  0.00     0.034 A 
ATOM     68  C   UNL A   1      46.985  38.299  27.081  1.00  0.00     0.049 A 
ATOM     69  C   UNL A   1      47.932  32.808  27.515  1.00  0.00     0.074 A 
ATOM     70  C   UNL A   1      47.975  39.061  26.487  1.00  0.00     0.029 A 
ATOM     71  N   UNL A   1      47.437  36.989  27.083  1.00  0.00    -0.354 N 
ATOM     72  N   UNL A   1      47.876  34.110  27.380  1.00  0.00    -0.248 NA
ATOM     73  C   UNL A   1      49.123  32.196  26.905  1.00  0.00     0.031 C 
ATOM     74  C   UNL A   1      49.010  38.206  26.095  1.00  0.00     0.029 A 
ATOM     75  C   UNL A   1      48.684  36.918  26.488  1.00  0.00     0.049 A 
ATOM     76  H   UNL A   1      46.943  36.222  27.455  1.00  0.00     0.167 HD
ATOM     77  C   UNL A   1      49.041  34.477  26.711  1.00  0.00     0.074 A 
ATOM     78  C   UNL A   1      49.790  33.261  26.480  1.00  0.00     0.031 C 
ATOM     79  C   UNL A   1      49.448  35.709  26.317  1.00  0.00     0.034 A 
BRANCH  66  80
ATOM     80  C   UNL A   1      45.345  40.182  27.442  1.00  0.00     0.023 A 
ATOM     81  C   UNL A   1      44.715  40.626  26.262  1.00  0.00     0.012 A 
ATOM     82  C   UNL A   1      45.565  41.092  28.494  1.00  0.00     0.148 A 
ATOM     83  C   UNL A   1      44.337  41.961  26.121  1.00  0.00     0.002 A 
ATOM     84  C   UNL A   1      45.143  42.408  28.365  1.00  0.00     0.091 A 
ATOM     85  F   UNL A   1      46.187  40.652  29.598  1.00  0.00    -0.205 F 
ATOM     86  C   UNL A   1      44.539  42.847  27.175  1.00  0.00     0.022 A 
BRANCH  84  87
ATOM     87  S   UNL A   1      45.284  43.606  29.696  1.00  0.00     0.127 S 
ATOM     88  O   UNL A   1      46.723  43.586  29.959  1.00  0.00    -0.237 OA
ATOM     89  O   UNL A   1      44.797  44.830  29.060  1.00  0.00    -0.237 OA
ATOM     90  O   UNL A   1      44.447  43.106  30.778  1.00  0.00    -0.744 OA
ENDBRANCH  84  87
ENDBRANCH  66  80
BRANCH  67  91
ATOM     91  C   UNL A   1      47.230  30.414  28.260  1.00  0.00     0.023 A 
ATOM     92  C   UNL A   1      46.657  29.576  27.282  1.00  0.00     0.012 A 
ATOM     93  C   UNL A   1      48.038  29.844  29.263  1.00  0.00     0.148 A 
ATOM     94  C   UNL A   1      46.856  28.196  27.324  1.00  0.00     0.002 A 
ATOM     95  C   UNL A   1      48.278  28.475  29.266  1.00  0.00     0.091 A 
ATOM     96  F   UNL A   1      48.559  30.655  30.194  1.00  0.00    -0.205 F 
ATOM     97  C   UNL A   1      47.673  27.646  28.309  1.00  0.00     0.022 A 
BRANCH  95  98
ATOM     98  S   UNL A   1      49.414  27.700  30.421  1.00  0.00     0.127 S 
ATOM     99  O   UNL A   1      50.710  28.131  29.900  1.00  0.00    -0.237 OA
ATOM    100  O   UNL A   1      49.023  28.317  31.688  1.00  0.00    -0.237 OA
ATOM    101  O   UNL A   1      49.144  26.271  30.340  1.00  0.00    -0.744 OA
ENDBRANCH  95  98
ENDBRANCH  67  91
BRANCH  79 102
ATOM    102  C   UNL A   1      50.795  35.830  25.647  1.00  0.00     0.023 A 
ATOM    103  C   UNL A   1      50.899  35.746  24.246  1.00  0.00     0.012 A 
ATOM    104  C   UNL A   1      51.943  36.123  26.410  1.00  0.00     0.148 A 
ATOM    105  C   UNL A   1      52.132  35.920  23.616  1.00  0.00     0.002 A 
ATOM    106  C   UNL A   1      53.157  36.347  25.772  1.00  0.00     0.091 A 
ATOM    107  F   UNL A   1      51.826  36.185  27.745  1.00  0.00    -0.205 F 
ATOM    108  C   UNL A   1      53.256  36.233  24.377  1.00  0.00     0.022 A 
BRANCH 106 109
ATOM    109  S   UNL A   1      54.634  36.855  26.660  1.00  0.00     0.127 S 
ATOM    110  O   UNL A   1      54.176  38.070  27.332  1.00  0.00    -0.237 OA
ATOM    111  O   UNL A   1      54.868  35.717  27.550  1.00  0.00    -0.237 OA
ATOM    112  O   UNL A   1      55.665  37.053  25.649  1.00  0.00    -0.744 OA
ENDBRANCH 106 109
ENDBRANCH  79 102
ENDBRANCH  53  54
ENDBRANCH  46  48
ENDBRANCH  45  46
ENDBRANCH  44  45
ENDBRANCH  43  44
ENDBRANCH  42  43
ENDBRANCH  41  42
ENDBRANCH   1  41
TORSDOF 26
ENDMDL
