MODEL 1
REMARK VINA RESULT:     -11.1      0.000      0.000
REMARK SMILES Cc1ccccc1NC(=O)C[NH+]1CCC(CC(=O)OCCOCCOCCOC(=O)c2ccc(-c3c4nc(c(-c5cccc(S(=O)(=O)[O-])c5F)c5ccc([nH]5)c(-c5cccc(S(=O)(=O)[O-])c5F)c5nc(c(-c6cccc(S(=O)(=O)[O-])c6F)c6ccc3[nH]6)C=C5)C=C4)cc2)CC1
REMARK SMILES IDX 23 1 22 2 21 3 20 4 19 5 17 6 18 7 16 8 15 9 12 10 13 11
REMARK SMILES IDX 95 12 14 14 94 15 11 16 9 17 8 18 10 20 7 21 1 22 2 23 3 24
REMARK SMILES IDX 4 25 6 26 5 27 24 28 25 29 26 30 27 31 28 32 29 33 30 34
REMARK SMILES IDX 31 35 32 36 93 37 33 38 92 39 34 40 35 41 36 42 86 43 37 44
REMARK SMILES IDX 91 45 85 46 87 47 38 48 90 49 84 50 83 51 39 53 71 54 51 55
REMARK SMILES IDX 70 56 52 57 55 58 69 59 88 60 53 61 54 62 68 64 89 65 56 66
REMARK SMILES IDX 40 67 41 68 49 69 42 70 44 71 50 72 43 73 45 74 46 75 47 76
REMARK SMILES IDX 48 77 72 78 73 79 81 80 74 81 76 82 82 83 75 84 77 85 78 86
REMARK SMILES IDX 79 87 80 88 57 89 58 90 66 91 59 92 61 93 67 94 60 95 62 96
REMARK SMILES IDX 63 97 64 98 65 99
REMARK H PARENT 12 13 8 19 87 52 55 63
REMARK Flexibility Score: inf
ROOT
ATOM      1  C   UNL A   1      46.292  19.153  25.399  1.00  0.00     0.188 C 
ENDROOT
BRANCH   1   2
ATOM      2  O   UNL A   1      45.361  18.177  24.996  1.00  0.00    -0.376 OA
BRANCH   2   3
ATOM      3  C   UNL A   1      44.125  18.846  24.664  1.00  0.00     0.202 C 
BRANCH   3   4
ATOM      4  C   UNL A   1      43.044  18.757  25.755  1.00  0.00     0.261 C 
BRANCH   4   5
ATOM      5  O   UNL A   1      41.625  19.469  25.957  1.00  0.00    -0.463 OA
BRANCH   5   6
ATOM      6  C   UNL A   1      40.742  20.383  26.642  1.00  0.00     0.306 C 
ATOM      7  O   UNL A   1      40.787  20.271  27.872  1.00  0.00    -0.252 OA
BRANCH   6   8
ATOM      8  C   UNL A   1      39.704  21.674  26.047  1.00  0.00     0.126 C 
BRANCH   8   9
ATOM      9  C   UNL A   1      38.065  21.494  25.778  1.00  0.00     0.011 C 
ATOM     10  N   UNL A   1      35.074  21.443  25.469  1.00  0.00    -0.327 N 
ATOM     11  C   UNL A   1      35.743  22.561  26.107  1.00  0.00     0.262 C 
ATOM     12  C   UNL A   1      35.962  20.341  25.058  1.00  0.00     0.262 C 
ATOM     13  H   UNL A   1      34.761  21.768  24.554  1.00  0.00     0.348 HD
ATOM     14  C   UNL A   1      37.160  22.774  25.547  1.00  0.00     0.066 C 
ATOM     15  C   UNL A   1      37.460  20.630  24.653  1.00  0.00     0.066 C 
BRANCH  10  16
ATOM     16  C   UNL A   1      33.811  21.075  26.174  1.00  0.00     0.363 C 
BRANCH  16  17
ATOM     17  C   UNL A   1      32.534  20.874  25.311  1.00  0.00     0.279 C 
ATOM     18  N   UNL A   1      31.630  21.862  25.014  1.00  0.00    -0.321 N 
ATOM     19  H   UNL A   1      30.846  21.566  24.497  1.00  0.00     0.170 HD
ATOM     20  O   UNL A   1      32.288  19.757  24.827  1.00  0.00    -0.268 OA
BRANCH  18  21
ATOM     21  C   UNL A   1      31.649  23.229  25.334  1.00  0.00     0.044 A 
ATOM     22  C   UNL A   1      29.786  22.940  27.103  1.00  0.00     0.046 C 
ATOM     23  C   UNL A   1      30.653  23.751  26.180  1.00  0.00    -0.027 A 
ATOM     24  C   UNL A   1      30.401  25.135  26.127  1.00  0.00     0.005 A 
ATOM     25  C   UNL A   1      31.180  25.980  25.337  1.00  0.00     0.000 A 
ATOM     26  C   UNL A   1      32.537  24.102  24.696  1.00  0.00     0.026 A 
ATOM     27  C   UNL A   1      32.288  25.474  24.672  1.00  0.00     0.002 A 
ENDBRANCH  18  21
ENDBRANCH  16  17
ENDBRANCH  10  16
ENDBRANCH   8   9
ENDBRANCH   6   8
ENDBRANCH   5   6
ENDBRANCH   4   5
ENDBRANCH   3   4
ENDBRANCH   2   3
ENDBRANCH   1   2
BRANCH   1  28
ATOM     28  C   UNL A   1      46.207  20.511  24.687  1.00  0.00     0.188 C 
BRANCH  28  29
ATOM     29  O   UNL A   1      45.926  21.593  25.569  1.00  0.00    -0.376 OA
BRANCH  29  30
ATOM     30  C   UNL A   1      44.819  22.413  25.177  1.00  0.00     0.202 C 
BRANCH  30  31
ATOM     31  C   UNL A   1      43.558  22.531  26.121  1.00  0.00     0.261 C 
BRANCH  31  32
ATOM     32  O   UNL A   1      42.540  23.436  25.547  1.00  0.00    -0.460 OA
BRANCH  32  33
ATOM     33  C   UNL A   1      42.591  24.790  25.452  1.00  0.00     0.338 C 
ATOM     34  O   UNL A   1      43.323  25.391  24.650  1.00  0.00    -0.246 OA
BRANCH  33  35
ATOM     35  C   UNL A   1      41.702  25.531  26.449  1.00  0.00     0.060 A 
ATOM     36  C   UNL A   1      41.812  26.876  26.434  1.00  0.00     0.016 A 
ATOM     37  C   UNL A   1      40.762  25.079  27.413  1.00  0.00     0.016 A 
ATOM     38  C   UNL A   1      41.077  27.590  27.409  1.00  0.00     0.010 A 
ATOM     39  C   UNL A   1      40.309  25.879  28.563  1.00  0.00     0.010 A 
ATOM     40  C   UNL A   1      40.602  27.225  28.664  1.00  0.00    -0.014 A 
BRANCH  40  41
ATOM     41  C   UNL A   1      40.415  28.215  29.909  1.00  0.00     0.031 A 
ATOM     42  C   UNL A   1      39.568  29.453  29.823  1.00  0.00     0.074 A 
ATOM     43  C   UNL A   1      41.073  28.361  31.134  1.00  0.00     0.049 A 
ATOM     44  N   UNL A   1      39.789  30.519  30.542  1.00  0.00    -0.248 NA
ATOM     45  C   UNL A   1      38.498  29.622  28.855  1.00  0.00     0.031 C 
ATOM     46  C   UNL A   1      40.346  28.613  32.401  1.00  0.00     0.029 A 
ATOM     47  N   UNL A   1      42.338  28.081  31.646  1.00  0.00    -0.354 N 
ATOM     48  C   UNL A   1      38.716  31.345  30.367  1.00  0.00     0.074 A 
ATOM     49  C   UNL A   1      38.081  30.856  29.157  1.00  0.00     0.031 C 
ATOM     50  C   UNL A   1      41.175  28.503  33.456  1.00  0.00     0.029 A 
ATOM     51  C   UNL A   1      42.531  28.272  32.990  1.00  0.00     0.049 A 
ATOM     52  H   UNL A   1      43.066  27.759  31.067  1.00  0.00     0.167 HD
ATOM     53  C   UNL A   1      38.268  32.168  31.360  1.00  0.00     0.034 A 
ATOM     54  C   UNL A   1      43.730  28.404  33.625  1.00  0.00     0.034 A 
ATOM     55  C   UNL A   1      38.928  31.944  32.664  1.00  0.00     0.049 A 
ATOM     56  C   UNL A   1      43.686  29.665  34.439  1.00  0.00     0.074 A 
ATOM     57  C   UNL A   1      38.533  31.215  33.779  1.00  0.00     0.029 A 
ATOM     58  N   UNL A   1      40.228  32.361  32.937  1.00  0.00    -0.354 N 
ATOM     59  N   UNL A   1      42.570  30.297  34.649  1.00  0.00    -0.248 NA
ATOM     60  C   UNL A   1      44.833  30.405  34.947  1.00  0.00     0.031 C 
ATOM     61  C   UNL A   1      39.556  31.271  34.759  1.00  0.00     0.029 A 
ATOM     62  C   UNL A   1      40.590  32.035  34.250  1.00  0.00     0.049 A 
ATOM     63  H   UNL A   1      40.814  32.822  32.294  1.00  0.00     0.167 HD
ATOM     64  C   UNL A   1      42.832  31.593  34.968  1.00  0.00     0.074 A 
ATOM     65  C   UNL A   1      44.258  31.581  35.270  1.00  0.00     0.031 C 
ATOM     66  C   UNL A   1      41.843  32.531  34.838  1.00  0.00     0.034 A 
BRANCH  53  67
ATOM     67  C   UNL A   1      36.890  32.805  31.233  1.00  0.00     0.023 A 
ATOM     68  C   UNL A   1      35.919  32.533  32.217  1.00  0.00     0.012 A 
ATOM     69  C   UNL A   1      36.464  33.584  30.135  1.00  0.00     0.148 A 
ATOM     70  C   UNL A   1      34.570  32.852  32.039  1.00  0.00     0.002 A 
ATOM     71  C   UNL A   1      35.106  33.815  29.905  1.00  0.00     0.091 A 
ATOM     72  F   UNL A   1      37.382  34.124  29.318  1.00  0.00    -0.205 F 
ATOM     73  C   UNL A   1      34.153  33.440  30.855  1.00  0.00     0.022 A 
BRANCH  71  74
ATOM     74  S   UNL A   1      34.502  34.416  28.317  1.00  0.00     0.127 S 
ATOM     75  O   UNL A   1      35.295  33.637  27.363  1.00  0.00    -0.237 OA
ATOM     76  O   UNL A   1      33.086  34.065  28.358  1.00  0.00    -0.237 OA
ATOM     77  O   UNL A   1      34.810  35.842  28.301  1.00  0.00    -0.744 OA
ENDBRANCH  71  74
ENDBRANCH  53  67
BRANCH  54  78
ATOM     78  C   UNL A   1      44.946  27.782  32.993  1.00  0.00     0.023 A 
ATOM     79  C   UNL A   1      45.267  26.455  33.376  1.00  0.00     0.012 A 
ATOM     80  C   UNL A   1      45.653  28.331  31.905  1.00  0.00     0.148 A 
ATOM     81  C   UNL A   1      46.179  25.675  32.649  1.00  0.00     0.002 A 
ATOM     82  C   UNL A   1      46.563  27.547  31.176  1.00  0.00     0.091 A 
ATOM     83  F   UNL A   1      45.405  29.605  31.572  1.00  0.00    -0.205 F 
ATOM     84  C   UNL A   1      46.806  26.213  31.532  1.00  0.00     0.022 A 
BRANCH  82  85
ATOM     85  S   UNL A   1      47.402  28.165  29.698  1.00  0.00     0.127 S 
ATOM     86  O   UNL A   1      46.343  28.957  29.075  1.00  0.00    -0.237 OA
ATOM     87  O   UNL A   1      48.506  28.965  30.227  1.00  0.00    -0.237 OA
ATOM     88  O   UNL A   1      47.806  26.967  28.974  1.00  0.00    -0.744 OA
ENDBRANCH  82  85
ENDBRANCH  54  78
BRANCH  66  89
ATOM     89  C   UNL A   1      41.944  34.000  35.195  1.00  0.00     0.023 A 
ATOM     90  C   UNL A   1      42.436  34.973  34.310  1.00  0.00     0.012 A 
ATOM     91  C   UNL A   1      41.585  34.459  36.490  1.00  0.00     0.148 A 
ATOM     92  C   UNL A   1      42.442  36.335  34.632  1.00  0.00     0.002 A 
ATOM     93  C   UNL A   1      41.566  35.811  36.804  1.00  0.00     0.091 A 
ATOM     94  F   UNL A   1      41.332  33.582  37.468  1.00  0.00    -0.205 F 
ATOM     95  C   UNL A   1      41.973  36.758  35.867  1.00  0.00     0.022 A 
BRANCH  93  96
ATOM     96  S   UNL A   1      40.987  36.392  38.401  1.00  0.00     0.127 S 
ATOM     97  O   UNL A   1      41.899  37.506  38.656  1.00  0.00    -0.237 OA
ATOM     98  O   UNL A   1      39.610  36.786  38.097  1.00  0.00    -0.237 OA
ATOM     99  O   UNL A   1      41.101  35.257  39.303  1.00  0.00    -0.744 OA
ENDBRANCH  93  96
ENDBRANCH  66  89
ENDBRANCH  40  41
ENDBRANCH  33  35
ENDBRANCH  32  33
ENDBRANCH  31  32
ENDBRANCH  30  31
ENDBRANCH  29  30
ENDBRANCH  28  29
ENDBRANCH   1  28
TORSDOF 24
ENDMDL
MODEL 2
REMARK VINA RESULT:     -10.9      2.041      2.837
REMARK SMILES Cc1ccccc1NC(=O)C[NH+]1CCC(CC(=O)OCCOCCOCCOC(=O)c2ccc(-c3c4nc(c(-c5cccc(S(=O)(=O)[O-])c5F)c5ccc([nH]5)c(-c5cccc(S(=O)(=O)[O-])c5F)c5nc(c(-c6cccc(S(=O)(=O)[O-])c6F)c6ccc3[nH]6)C=C5)C=C4)cc2)CC1
REMARK SMILES IDX 23 1 22 2 21 3 20 4 19 5 17 6 18 7 16 8 15 9 12 10 13 11
REMARK SMILES IDX 95 12 14 14 94 15 11 16 9 17 8 18 10 20 7 21 1 22 2 23 3 24
REMARK SMILES IDX 4 25 6 26 5 27 24 28 25 29 26 30 27 31 28 32 29 33 30 34
REMARK SMILES IDX 31 35 32 36 93 37 33 38 92 39 34 40 35 41 36 42 86 43 37 44
REMARK SMILES IDX 91 45 85 46 87 47 38 48 90 49 84 50 83 51 39 53 71 54 51 55
REMARK SMILES IDX 70 56 52 57 55 58 69 59 88 60 53 61 54 62 68 64 89 65 56 66
REMARK SMILES IDX 40 67 41 68 49 69 42 70 44 71 50 72 43 73 45 74 46 75 47 76
REMARK SMILES IDX 48 77 72 78 73 79 81 80 74 81 76 82 82 83 75 84 77 85 78 86
REMARK SMILES IDX 79 87 80 88 57 89 58 90 66 91 59 92 61 93 67 94 60 95 62 96
REMARK SMILES IDX 63 97 64 98 65 99
REMARK H PARENT 12 13 8 19 87 52 55 63
REMARK Flexibility Score: inf
ROOT
ATOM      1  C   UNL A   1      46.042  19.021  25.502  1.00  0.00     0.188 C 
ENDROOT
BRANCH   1   2
ATOM      2  O   UNL A   1      45.037  18.052  25.324  1.00  0.00    -0.376 OA
BRANCH   2   3
ATOM      3  C   UNL A   1      43.803  18.736  25.017  1.00  0.00     0.202 C 
BRANCH   3   4
ATOM      4  C   UNL A   1      42.740  18.653  26.127  1.00  0.00     0.261 C 
BRANCH   4   5
ATOM      5  O   UNL A   1      41.403  19.477  26.433  1.00  0.00    -0.463 OA
BRANCH   5   6
ATOM      6  C   UNL A   1      40.672  20.517  27.118  1.00  0.00     0.306 C 
ATOM      7  O   UNL A   1      40.801  20.469  28.347  1.00  0.00    -0.252 OA
BRANCH   6   8
ATOM      8  C   UNL A   1      39.730  21.876  26.517  1.00  0.00     0.126 C 
BRANCH   8   9
ATOM      9  C   UNL A   1      38.225  21.717  25.809  1.00  0.00     0.011 C 
ATOM     10  N   UNL A   1      35.445  21.722  24.663  1.00  0.00    -0.327 N 
ATOM     11  C   UNL A   1      35.971  22.881  25.358  1.00  0.00     0.262 C 
ATOM     12  C   UNL A   1      36.346  20.557  24.629  1.00  0.00     0.262 C 
ATOM     13  H   UNL A   1      35.421  21.956  23.671  1.00  0.00     0.348 HD
ATOM     14  C   UNL A   1      37.499  22.991  25.210  1.00  0.00     0.066 C 
ATOM     15  C   UNL A   1      37.911  20.756  24.644  1.00  0.00     0.066 C 
BRANCH  10  16
ATOM     16  C   UNL A   1      34.014  21.469  25.009  1.00  0.00     0.363 C 
BRANCH  16  17
ATOM     17  C   UNL A   1      33.716  20.527  26.207  1.00  0.00     0.279 C 
ATOM     18  N   UNL A   1      33.336  19.213  26.092  1.00  0.00    -0.321 N 
ATOM     19  H   UNL A   1      33.137  18.762  26.944  1.00  0.00     0.170 HD
ATOM     20  O   UNL A   1      33.833  20.952  27.369  1.00  0.00    -0.268 OA
BRANCH  18  21
ATOM     21  C   UNL A   1      33.188  18.414  24.947  1.00  0.00     0.044 A 
ATOM     22  C   UNL A   1      35.292  17.027  25.524  1.00  0.00     0.046 C 
ATOM     23  C   UNL A   1      34.214  17.517  24.596  1.00  0.00    -0.027 A 
ATOM     24  C   UNL A   1      34.279  17.079  23.260  1.00  0.00     0.005 A 
ATOM     25  C   UNL A   1      33.302  17.440  22.334  1.00  0.00     0.000 A 
ATOM     26  C   UNL A   1      32.119  18.615  24.066  1.00  0.00     0.026 A 
ATOM     27  C   UNL A   1      32.188  18.155  22.752  1.00  0.00     0.002 A 
ENDBRANCH  18  21
ENDBRANCH  16  17
ENDBRANCH  10  16
ENDBRANCH   8   9
ENDBRANCH   6   8
ENDBRANCH   5   6
ENDBRANCH   4   5
ENDBRANCH   3   4
ENDBRANCH   2   3
ENDBRANCH   1   2
BRANCH   1  28
ATOM     28  C   UNL A   1      45.984  20.241  24.571  1.00  0.00     0.188 C 
BRANCH  28  29
ATOM     29  O   UNL A   1      45.640  21.448  25.244  1.00  0.00    -0.376 OA
BRANCH  29  30
ATOM     30  C   UNL A   1      44.572  22.187  24.642  1.00  0.00     0.202 C 
BRANCH  30  31
ATOM     31  C   UNL A   1      43.219  22.395  25.432  1.00  0.00     0.261 C 
BRANCH  31  32
ATOM     32  O   UNL A   1      42.507  23.604  24.969  1.00  0.00    -0.460 OA
BRANCH  32  33
ATOM     33  C   UNL A   1      42.769  24.897  25.291  1.00  0.00     0.338 C 
ATOM     34  O   UNL A   1      43.779  25.506  24.904  1.00  0.00    -0.246 OA
BRANCH  33  35
ATOM     35  C   UNL A   1      41.739  25.544  26.215  1.00  0.00     0.060 A 
ATOM     36  C   UNL A   1      41.690  26.892  26.175  1.00  0.00     0.016 A 
ATOM     37  C   UNL A   1      40.799  24.999  27.131  1.00  0.00     0.016 A 
ATOM     38  C   UNL A   1      40.817  27.530  27.086  1.00  0.00     0.010 A 
ATOM     39  C   UNL A   1      40.184  25.758  28.232  1.00  0.00     0.010 A 
ATOM     40  C   UNL A   1      40.310  27.131  28.318  1.00  0.00    -0.014 A 
BRANCH  40  41
ATOM     41  C   UNL A   1      39.930  28.112  29.526  1.00  0.00     0.031 A 
ATOM     42  C   UNL A   1      39.083  29.336  29.323  1.00  0.00     0.074 A 
ATOM     43  C   UNL A   1      40.403  28.263  30.833  1.00  0.00     0.049 A 
ATOM     44  N   UNL A   1      39.182  30.403  30.069  1.00  0.00    -0.248 NA
ATOM     45  C   UNL A   1      38.161  29.493  28.212  1.00  0.00     0.031 C 
ATOM     46  C   UNL A   1      39.498  28.497  31.983  1.00  0.00     0.029 A 
ATOM     47  N   UNL A   1      41.586  28.001  31.521  1.00  0.00    -0.354 N 
ATOM     48  C   UNL A   1      38.130  31.212  29.744  1.00  0.00     0.074 A 
ATOM     49  C   UNL A   1      37.684  30.718  28.454  1.00  0.00     0.031 C 
ATOM     50  C   UNL A   1      40.169  28.395  33.146  1.00  0.00     0.029 A 
ATOM     51  C   UNL A   1      41.581  28.188  32.879  1.00  0.00     0.049 A 
ATOM     52  H   UNL A   1      42.395  27.693  31.051  1.00  0.00     0.167 HD
ATOM     53  C   UNL A   1      37.531  32.023  30.664  1.00  0.00     0.034 A 
ATOM     54  C   UNL A   1      42.674  28.336  33.680  1.00  0.00     0.034 A 
ATOM     55  C   UNL A   1      38.001  31.803  32.049  1.00  0.00     0.049 A 
ATOM     56  C   UNL A   1      42.493  29.593  34.482  1.00  0.00     0.074 A 
ATOM     57  C   UNL A   1      37.462  31.062  33.094  1.00  0.00     0.029 A 
ATOM     58  N   UNL A   1      39.241  32.240  32.506  1.00  0.00    -0.354 N 
ATOM     59  N   UNL A   1      41.348  30.206  34.531  1.00  0.00    -0.248 NA
ATOM     60  C   UNL A   1      43.543  30.349  35.151  1.00  0.00     0.031 C 
ATOM     61  C   UNL A   1      38.334  31.131  34.210  1.00  0.00     0.029 A 
ATOM     62  C   UNL A   1      39.416  31.913  33.857  1.00  0.00     0.049 A 
ATOM     63  H   UNL A   1      39.906  32.714  31.955  1.00  0.00     0.167 HD
ATOM     64  C   UNL A   1      41.540  31.505  34.888  1.00  0.00     0.074 A 
ATOM     65  C   UNL A   1      42.907  31.514  35.391  1.00  0.00     0.031 C 
ATOM     66  C   UNL A   1      40.564  32.427  34.620  1.00  0.00     0.034 A 
BRANCH  53  67
ATOM     67  C   UNL A   1      36.175  32.638  30.342  1.00  0.00     0.023 A 
ATOM     68  C   UNL A   1      35.645  32.483  29.046  1.00  0.00     0.012 A 
ATOM     69  C   UNL A   1      35.433  33.451  31.226  1.00  0.00     0.148 A 
ATOM     70  C   UNL A   1      34.553  33.229  28.594  1.00  0.00     0.002 A 
ATOM     71  C   UNL A   1      34.407  34.273  30.753  1.00  0.00     0.091 A 
ATOM     72  F   UNL A   1      35.707  33.413  32.539  1.00  0.00    -0.205 F 
ATOM     73  C   UNL A   1      33.971  34.170  29.430  1.00  0.00     0.022 A 
BRANCH  71  74
ATOM     74  S   UNL A   1      33.739  35.621  31.744  1.00  0.00     0.127 S 
ATOM     75  O   UNL A   1      33.567  36.686  30.752  1.00  0.00    -0.237 OA
ATOM     76  O   UNL A   1      32.492  35.058  32.252  1.00  0.00    -0.237 OA
ATOM     77  O   UNL A   1      34.764  35.914  32.740  1.00  0.00    -0.744 OA
ENDBRANCH  71  74
ENDBRANCH  53  67
BRANCH  54  78
ATOM     78  C   UNL A   1      43.979  27.737  33.228  1.00  0.00     0.023 A 
ATOM     79  C   UNL A   1      44.287  26.433  33.691  1.00  0.00     0.012 A 
ATOM     80  C   UNL A   1      44.801  28.278  32.220  1.00  0.00     0.148 A 
ATOM     81  C   UNL A   1      45.306  25.664  33.111  1.00  0.00     0.002 A 
ATOM     82  C   UNL A   1      45.820  27.504  31.638  1.00  0.00     0.091 A 
ATOM     83  F   UNL A   1      44.561  29.532  31.817  1.00  0.00    -0.205 F 
ATOM     84  C   UNL A   1      46.054  26.190  32.065  1.00  0.00     0.022 A 
BRANCH  82  85
ATOM     85  S   UNL A   1      46.822  28.106  30.258  1.00  0.00     0.127 S 
ATOM     86  O   UNL A   1      46.811  29.548  30.502  1.00  0.00    -0.237 OA
ATOM     87  O   UNL A   1      48.126  27.480  30.470  1.00  0.00    -0.237 OA
ATOM     88  O   UNL A   1      46.115  27.661  29.065  1.00  0.00    -0.744 OA
ENDBRANCH  82  85
ENDBRANCH  54  78
BRANCH  66  89
ATOM     89  C   UNL A   1      40.589  33.896  34.991  1.00  0.00     0.023 A 
ATOM     90  C   UNL A   1      39.611  34.499  35.800  1.00  0.00     0.012 A 
ATOM     91  C   UNL A   1      41.598  34.756  34.484  1.00  0.00     0.148 A 
ATOM     92  C   UNL A   1      39.700  35.838  36.198  1.00  0.00     0.002 A 
ATOM     93  C   UNL A   1      41.703  36.077  34.897  1.00  0.00     0.091 A 
ATOM     94  F   UNL A   1      42.428  34.329  33.527  1.00  0.00    -0.205 F 
ATOM     95  C   UNL A   1      40.766  36.618  35.775  1.00  0.00     0.022 A 
BRANCH  93  96
ATOM     96  S   UNL A   1      43.057  37.123  34.353  1.00  0.00     0.127 S 
ATOM     97  O   UNL A   1      44.155  36.639  35.188  1.00  0.00    -0.237 OA
ATOM     98  O   UNL A   1      43.162  36.767  32.937  1.00  0.00    -0.237 OA
ATOM     99  O   UNL A   1      42.626  38.491  34.598  1.00  0.00    -0.744 OA
ENDBRANCH  93  96
ENDBRANCH  66  89
ENDBRANCH  40  41
ENDBRANCH  33  35
ENDBRANCH  32  33
ENDBRANCH  31  32
ENDBRANCH  30  31
ENDBRANCH  29  30
ENDBRANCH  28  29
ENDBRANCH   1  28
TORSDOF 24
ENDMDL
MODEL 3
REMARK VINA RESULT:     -10.7      2.113      2.543
REMARK SMILES Cc1ccccc1NC(=O)C[NH+]1CCC(CC(=O)OCCOCCOCCOC(=O)c2ccc(-c3c4nc(c(-c5cccc(S(=O)(=O)[O-])c5F)c5ccc([nH]5)c(-c5cccc(S(=O)(=O)[O-])c5F)c5nc(c(-c6cccc(S(=O)(=O)[O-])c6F)c6ccc3[nH]6)C=C5)C=C4)cc2)CC1
REMARK SMILES IDX 23 1 22 2 21 3 20 4 19 5 17 6 18 7 16 8 15 9 12 10 13 11
REMARK SMILES IDX 95 12 14 14 94 15 11 16 9 17 8 18 10 20 7 21 1 22 2 23 3 24
REMARK SMILES IDX 4 25 6 26 5 27 24 28 25 29 26 30 27 31 28 32 29 33 30 34
REMARK SMILES IDX 31 35 32 36 93 37 33 38 92 39 34 40 35 41 36 42 86 43 37 44
REMARK SMILES IDX 91 45 85 46 87 47 38 48 90 49 84 50 83 51 39 53 71 54 51 55
REMARK SMILES IDX 70 56 52 57 55 58 69 59 88 60 53 61 54 62 68 64 89 65 56 66
REMARK SMILES IDX 40 67 41 68 49 69 42 70 44 71 50 72 43 73 45 74 46 75 47 76
REMARK SMILES IDX 48 77 72 78 73 79 81 80 74 81 76 82 82 83 75 84 77 85 78 86
REMARK SMILES IDX 79 87 80 88 57 89 58 90 66 91 59 92 61 93 67 94 60 95 62 96
REMARK SMILES IDX 63 97 64 98 65 99
REMARK H PARENT 12 13 8 19 87 52 55 63
REMARK Flexibility Score: inf
ROOT
ATOM      1  C   UNL A   1      45.915  19.031  25.466  1.00  0.00     0.188 C 
ENDROOT
BRANCH   1   2
ATOM      2  O   UNL A   1      44.865  18.113  25.276  1.00  0.00    -0.376 OA
BRANCH   2   3
ATOM      3  C   UNL A   1      43.663  18.857  24.982  1.00  0.00     0.202 C 
BRANCH   3   4
ATOM      4  C   UNL A   1      42.623  18.853  26.116  1.00  0.00     0.261 C 
BRANCH   4   5
ATOM      5  O   UNL A   1      41.283  19.688  26.382  1.00  0.00    -0.463 OA
BRANCH   5   6
ATOM      6  C   UNL A   1      40.575  20.833  26.902  1.00  0.00     0.306 C 
ATOM      7  O   UNL A   1      40.808  21.044  28.097  1.00  0.00    -0.252 OA
BRANCH   6   8
ATOM      8  C   UNL A   1      39.535  22.018  26.122  1.00  0.00     0.126 C 
BRANCH   8   9
ATOM      9  C   UNL A   1      37.971  21.696  25.629  1.00  0.00     0.011 C 
ATOM     10  N   UNL A   1      35.095  21.432  24.791  1.00  0.00    -0.327 N 
ATOM     11  C   UNL A   1      35.676  22.729  25.080  1.00  0.00     0.262 C 
ATOM     12  C   UNL A   1      35.998  20.287  25.003  1.00  0.00     0.262 C 
ATOM     13  H   UNL A   1      34.976  21.378  23.779  1.00  0.00     0.348 HD
ATOM     14  C   UNL A   1      37.182  22.764  24.766  1.00  0.00     0.066 C 
ATOM     15  C   UNL A   1      37.557  20.453  24.816  1.00  0.00     0.066 C 
BRANCH  10  16
ATOM     16  C   UNL A   1      33.706  21.313  25.325  1.00  0.00     0.363 C 
BRANCH  16  17
ATOM     17  C   UNL A   1      32.530  21.517  24.330  1.00  0.00     0.279 C 
ATOM     18  N   UNL A   1      31.908  22.717  24.093  1.00  0.00    -0.321 N 
ATOM     19  H   UNL A   1      31.146  22.674  23.470  1.00  0.00     0.170 HD
ATOM     20  O   UNL A   1      32.104  20.552  23.674  1.00  0.00    -0.268 OA
BRANCH  18  21
ATOM     21  C   UNL A   1      32.189  23.995  24.601  1.00  0.00     0.044 A 
ATOM     22  C   UNL A   1      33.084  24.813  22.317  1.00  0.00     0.046 C 
ATOM     23  C   UNL A   1      32.910  24.908  23.808  1.00  0.00    -0.027 A 
ATOM     24  C   UNL A   1      33.572  25.966  24.458  1.00  0.00     0.005 A 
ATOM     25  C   UNL A   1      33.436  26.168  25.831  1.00  0.00     0.000 A 
ATOM     26  C   UNL A   1      31.909  24.314  25.935  1.00  0.00     0.026 A 
ATOM     27  C   UNL A   1      32.554  25.381  26.558  1.00  0.00     0.002 A 
ENDBRANCH  18  21
ENDBRANCH  16  17
ENDBRANCH  10  16
ENDBRANCH   8   9
ENDBRANCH   6   8
ENDBRANCH   5   6
ENDBRANCH   4   5
ENDBRANCH   3   4
ENDBRANCH   2   3
ENDBRANCH   1   2
BRANCH   1  28
ATOM     28  C   UNL A   1      45.942  20.239  24.519  1.00  0.00     0.188 C 
BRANCH  28  29
ATOM     29  O   UNL A   1      45.666  21.474  25.172  1.00  0.00    -0.376 OA
BRANCH  29  30
ATOM     30  C   UNL A   1      44.830  22.371  24.432  1.00  0.00     0.202 C 
BRANCH  30  31
ATOM     31  C   UNL A   1      43.389  22.726  24.975  1.00  0.00     0.261 C 
BRANCH  31  32
ATOM     32  O   UNL A   1      43.014  24.114  24.633  1.00  0.00    -0.460 OA
BRANCH  32  33
ATOM     33  C   UNL A   1      43.377  25.254  25.275  1.00  0.00     0.338 C 
ATOM     34  O   UNL A   1      44.521  25.733  25.222  1.00  0.00    -0.246 OA
BRANCH  33  35
ATOM     35  C   UNL A   1      42.272  25.890  26.116  1.00  0.00     0.060 A 
ATOM     36  C   UNL A   1      42.338  27.233  26.240  1.00  0.00     0.016 A 
ATOM     37  C   UNL A   1      41.163  25.341  26.813  1.00  0.00     0.016 A 
ATOM     38  C   UNL A   1      41.389  27.846  27.090  1.00  0.00     0.010 A 
ATOM     39  C   UNL A   1      40.448  26.027  27.901  1.00  0.00     0.010 A 
ATOM     40  C   UNL A   1      40.669  27.362  28.177  1.00  0.00    -0.014 A 
BRANCH  40  41
ATOM     41  C   UNL A   1      40.187  28.234  29.432  1.00  0.00     0.031 A 
ATOM     42  C   UNL A   1      39.378  29.489  29.268  1.00  0.00     0.074 A 
ATOM     43  C   UNL A   1      40.536  28.252  30.786  1.00  0.00     0.049 A 
ATOM     44  N   UNL A   1      39.417  30.478  30.118  1.00  0.00    -0.248 NA
ATOM     45  C   UNL A   1      38.567  29.768  28.096  1.00  0.00     0.031 C 
ATOM     46  C   UNL A   1      39.528  28.396  31.863  1.00  0.00     0.029 A 
ATOM     47  N   UNL A   1      41.645  27.902  31.553  1.00  0.00    -0.354 N 
ATOM     48  C   UNL A   1      38.411  31.336  29.774  1.00  0.00     0.074 A 
ATOM     49  C   UNL A   1      38.083  30.975  28.408  1.00  0.00     0.031 C 
ATOM     50  C   UNL A   1      40.085  28.171  33.068  1.00  0.00     0.029 A 
ATOM     51  C   UNL A   1      41.513  27.961  32.916  1.00  0.00     0.049 A 
ATOM     52  H   UNL A   1      42.491  27.623  31.134  1.00  0.00     0.167 HD
ATOM     53  C   UNL A   1      37.737  32.069  30.708  1.00  0.00     0.034 A 
ATOM     54  C   UNL A   1      42.527  28.011  33.826  1.00  0.00     0.034 A 
ATOM     55  C   UNL A   1      38.071  31.711  32.104  1.00  0.00     0.049 A 
ATOM     56  C   UNL A   1      42.285  29.190  34.723  1.00  0.00     0.074 A 
ATOM     57  C   UNL A   1      37.426  30.887  33.018  1.00  0.00     0.029 A 
ATOM     58  N   UNL A   1      39.267  32.078  32.714  1.00  0.00    -0.354 N 
ATOM     59  N   UNL A   1      41.148  29.819  34.724  1.00  0.00    -0.248 NA
ATOM     60  C   UNL A   1      43.276  29.859  35.556  1.00  0.00     0.031 C 
ATOM     61  C   UNL A   1      38.189  30.833  34.212  1.00  0.00     0.029 A 
ATOM     62  C   UNL A   1      39.309  31.622  34.038  1.00  0.00     0.049 A 
ATOM     63  H   UNL A   1      39.986  32.587  32.275  1.00  0.00     0.167 HD
ATOM     64  C   UNL A   1      41.321  31.075  35.219  1.00  0.00     0.074 A 
ATOM     65  C   UNL A   1      42.634  31.009  35.846  1.00  0.00     0.031 C 
ATOM     66  C   UNL A   1      40.385  32.039  34.950  1.00  0.00     0.034 A 
BRANCH  53  67
ATOM     67  C   UNL A   1      36.425  32.739  30.321  1.00  0.00     0.023 A 
ATOM     68  C   UNL A   1      36.178  33.025  28.963  1.00  0.00     0.012 A 
ATOM     69  C   UNL A   1      35.456  33.197  31.240  1.00  0.00     0.148 A 
ATOM     70  C   UNL A   1      35.138  33.866  28.557  1.00  0.00     0.002 A 
ATOM     71  C   UNL A   1      34.479  34.117  30.853  1.00  0.00     0.091 A 
ATOM     72  F   UNL A   1      35.466  32.721  32.495  1.00  0.00    -0.205 F 
ATOM     73  C   UNL A   1      34.324  34.461  29.508  1.00  0.00     0.022 A 
BRANCH  71  74
ATOM     74  S   UNL A   1      33.516  35.042  32.062  1.00  0.00     0.127 S 
ATOM     75  O   UNL A   1      34.466  36.065  32.505  1.00  0.00    -0.237 OA
ATOM     76  O   UNL A   1      32.405  35.552  31.265  1.00  0.00    -0.237 OA
ATOM     77  O   UNL A   1      33.171  34.079  33.102  1.00  0.00    -0.744 OA
ENDBRANCH  71  74
ENDBRANCH  53  67
BRANCH  54  78
ATOM     78  C   UNL A   1      43.862  27.430  33.442  1.00  0.00     0.023 A 
ATOM     79  C   UNL A   1      44.770  28.286  32.771  1.00  0.00     0.012 A 
ATOM     80  C   UNL A   1      44.350  26.186  33.887  1.00  0.00     0.148 A 
ATOM     81  C   UNL A   1      46.128  27.961  32.633  1.00  0.00     0.002 A 
ATOM     82  C   UNL A   1      45.712  25.864  33.751  1.00  0.00     0.091 A 
ATOM     83  F   UNL A   1      43.488  25.341  34.467  1.00  0.00    -0.205 F 
ATOM     84  C   UNL A   1      46.604  26.762  33.149  1.00  0.00     0.022 A 
BRANCH  82  85
ATOM     85  S   UNL A   1      46.414  24.336  34.415  1.00  0.00     0.127 S 
ATOM     86  O   UNL A   1      47.826  24.492  34.066  1.00  0.00    -0.237 OA
ATOM     87  O   UNL A   1      46.147  24.419  35.850  1.00  0.00    -0.237 OA
ATOM     88  O   UNL A   1      45.705  23.270  33.720  1.00  0.00    -0.744 OA
ENDBRANCH  82  85
ENDBRANCH  54  78
BRANCH  66  89
ATOM     89  C   UNL A   1      40.392  33.465  35.460  1.00  0.00     0.023 A 
ATOM     90  C   UNL A   1      39.237  34.120  35.922  1.00  0.00     0.012 A 
ATOM     91  C   UNL A   1      41.584  34.236  35.446  1.00  0.00     0.148 A 
ATOM     92  C   UNL A   1      39.283  35.409  36.467  1.00  0.00     0.002 A 
ATOM     93  C   UNL A   1      41.637  35.504  36.008  1.00  0.00     0.091 A 
ATOM     94  F   UNL A   1      42.671  33.783  34.812  1.00  0.00    -0.205 F 
ATOM     95  C   UNL A   1      40.490  36.088  36.542  1.00  0.00     0.022 A 
BRANCH  93  96
ATOM     96  S   UNL A   1      43.177  36.421  36.103  1.00  0.00     0.127 S 
ATOM     97  O   UNL A   1      43.257  37.000  34.762  1.00  0.00    -0.237 OA
ATOM     98  O   UNL A   1      42.892  37.382  37.169  1.00  0.00    -0.237 OA
ATOM     99  O   UNL A   1      44.203  35.444  36.435  1.00  0.00    -0.744 OA
ENDBRANCH  93  96
ENDBRANCH  66  89
ENDBRANCH  40  41
ENDBRANCH  33  35
ENDBRANCH  32  33
ENDBRANCH  31  32
ENDBRANCH  30  31
ENDBRANCH  29  30
ENDBRANCH  28  29
ENDBRANCH   1  28
TORSDOF 24
ENDMDL
