MODEL 1
REMARK VINA RESULT:     -10.9      0.000      0.000
REMARK SMILES C[C@@H]1C(C(=O)OCCOCCOCCOC(=O)c2ccc(-c3c4nc(c(-c5cccc(S(=O)(=O)[O-])c5F)c5ccc([nH]5)c(-c5cccc(S(=O)(=O)[O-])c5F)c5nc(c(-c6cccc(S(=O)(=O)[O-])c6F)c6ccc3[nH]6)C=C5)C=C4)cc2)=NC2=C1C(=O)C[C@H](c1ccccc1)C2
REMARK SMILES IDX 11 1 10 2 9 3 8 4 7 5 6 6 4 7 5 8 3 9 1 10 2 11 83 12 81 13
REMARK SMILES IDX 82 14 84 15 94 16 85 17 86 18 87 19 88 20 89 21 93 22 90 23
REMARK SMILES IDX 92 24 91 25 12 26 13 27 14 28 15 29 16 30 17 31 18 32 19 33
REMARK SMILES IDX 80 34 20 35 79 36 21 37 22 38 23 39 73 40 24 41 78 42 72 43
REMARK SMILES IDX 74 44 25 45 77 46 71 47 70 48 26 50 58 51 38 52 57 53 39 54
REMARK SMILES IDX 42 55 56 56 75 57 40 58 41 59 55 61 76 62 43 63 27 64 28 65
REMARK SMILES IDX 36 66 29 67 31 68 37 69 30 70 32 71 33 72 34 73 35 74 59 75
REMARK SMILES IDX 60 76 68 77 61 78 63 79 69 80 62 81 64 82 65 83 66 84 67 85
REMARK SMILES IDX 44 86 45 87 53 88 46 89 48 90 54 91 47 92 49 93 50 94 51 95
REMARK SMILES IDX 52 96
REMARK H PARENT 74 49 42 60
REMARK Flexibility Score: inf
ROOT
ATOM      1  C   UNL A   1      32.464  30.425  26.808  1.00  0.00     0.188 C 
ENDROOT
BRANCH   1   2
ATOM      2  C   UNL A   1      32.775  28.957  26.609  1.00  0.00     0.188 C 
BRANCH   2   3
ATOM      3  O   UNL A   1      33.692  28.697  25.561  1.00  0.00    -0.376 OA
BRANCH   3   4
ATOM      4  C   UNL A   1      33.297  29.120  24.254  1.00  0.00     0.202 C 
BRANCH   4   5
ATOM      5  C   UNL A   1      32.880  28.078  23.187  1.00  0.00     0.261 C 
BRANCH   5   6
ATOM      6  O   UNL A   1      33.367  26.735  23.418  1.00  0.00    -0.459 OA
BRANCH   6   7
ATOM      7  C   UNL A   1      33.119  25.750  22.526  1.00  0.00     0.353 C 
ATOM      8  O   UNL A   1      33.600  25.633  21.430  1.00  0.00    -0.245 OA
BRANCH   7   9
ATOM      9  C   UNL A   1      32.256  24.683  23.230  1.00  0.00     0.133 C 
ATOM     10  C   UNL A   1      29.847  25.270  23.610  1.00  0.00     0.020 C 
ATOM     11  C   UNL A   1      31.210  25.079  24.265  1.00  0.00     0.078 C 
ATOM     12  C   UNL A   1      31.300  23.774  24.967  1.00  0.00     0.026 C 
ATOM     13  N   UNL A   1      32.428  23.394  23.065  1.00  0.00    -0.249 NA
ATOM     14  C   UNL A   1      31.839  22.841  24.183  1.00  0.00     0.049 C 
ATOM     15  C   UNL A   1      31.319  23.555  26.419  1.00  0.00     0.161 C 
ATOM     16  C   UNL A   1      32.220  21.507  24.749  1.00  0.00     0.065 C 
ATOM     17  O   UNL A   1      30.543  24.190  27.130  1.00  0.00    -0.294 OA
ATOM     18  C   UNL A   1      32.369  22.589  26.997  1.00  0.00     0.089 C 
ATOM     19  C   UNL A   1      33.172  21.754  25.943  1.00  0.00     0.033 C 
BRANCH  19  20
ATOM     20  C   UNL A   1      34.535  22.313  25.492  1.00  0.00    -0.044 A 
ATOM     21  C   UNL A   1      35.370  21.577  24.625  1.00  0.00     0.004 A 
ATOM     22  C   UNL A   1      35.033  23.539  25.946  1.00  0.00     0.004 A 
ATOM     23  C   UNL A   1      36.561  22.094  24.115  1.00  0.00     0.000 A 
ATOM     24  C   UNL A   1      36.238  24.055  25.446  1.00  0.00     0.000 A 
ATOM     25  C   UNL A   1      36.987  23.349  24.512  1.00  0.00     0.000 A 
ENDBRANCH  19  20
ENDBRANCH   7   9
ENDBRANCH   6   7
ENDBRANCH   5   6
ENDBRANCH   4   5
ENDBRANCH   3   4
ENDBRANCH   2   3
ENDBRANCH   1   2
BRANCH   1  26
ATOM     26  O   UNL A   1      33.621  31.241  26.972  1.00  0.00    -0.376 OA
BRANCH  26  27
ATOM     27  C   UNL A   1      33.970  31.592  28.306  1.00  0.00     0.202 C 
BRANCH  27  28
ATOM     28  C   UNL A   1      34.942  32.752  28.431  1.00  0.00     0.261 C 
BRANCH  28  29
ATOM     29  O   UNL A   1      36.257  32.414  28.015  1.00  0.00    -0.460 OA
BRANCH  29  30
ATOM     30  C   UNL A   1      37.231  32.931  28.795  1.00  0.00     0.338 C 
ATOM     31  O   UNL A   1      37.648  34.078  28.809  1.00  0.00    -0.246 OA
BRANCH  30  32
ATOM     32  C   UNL A   1      37.832  31.850  29.573  1.00  0.00     0.060 A 
ATOM     33  C   UNL A   1      38.855  32.216  30.451  1.00  0.00     0.016 A 
ATOM     34  C   UNL A   1      37.596  30.518  29.197  1.00  0.00     0.016 A 
ATOM     35  C   UNL A   1      39.805  31.276  30.752  1.00  0.00     0.010 A 
ATOM     36  C   UNL A   1      38.551  29.581  29.492  1.00  0.00     0.010 A 
ATOM     37  C   UNL A   1      39.688  30.012  30.167  1.00  0.00    -0.014 A 
BRANCH  37  38
ATOM     38  C   UNL A   1      40.862  29.180  30.192  1.00  0.00     0.031 A 
ATOM     39  C   UNL A   1      41.345  28.854  31.542  1.00  0.00     0.074 A 
ATOM     40  C   UNL A   1      41.409  28.737  29.046  1.00  0.00     0.049 A 
ATOM     41  N   UNL A   1      42.454  29.224  32.089  1.00  0.00    -0.248 NA
ATOM     42  C   UNL A   1      40.417  28.158  32.443  1.00  0.00     0.031 C 
ATOM     43  C   UNL A   1      40.834  28.773  27.698  1.00  0.00     0.029 A 
ATOM     44  N   UNL A   1      42.541  28.005  28.884  1.00  0.00    -0.354 N 
ATOM     45  C   UNL A   1      42.464  28.605  33.332  1.00  0.00     0.074 A 
ATOM     46  C   UNL A   1      41.125  28.132  33.571  1.00  0.00     0.031 C 
ATOM     47  C   UNL A   1      41.472  27.861  26.931  1.00  0.00     0.029 A 
ATOM     48  C   UNL A   1      42.559  27.282  27.701  1.00  0.00     0.049 A 
ATOM     49  H   UNL A   1      43.275  27.989  29.540  1.00  0.00     0.167 HD
ATOM     50  C   UNL A   1      43.631  28.293  33.954  1.00  0.00     0.034 A 
ATOM     51  C   UNL A   1      43.330  26.197  27.453  1.00  0.00     0.034 A 
ATOM     52  C   UNL A   1      44.746  29.028  33.417  1.00  0.00     0.049 A 
ATOM     53  C   UNL A   1      44.460  26.225  28.418  1.00  0.00     0.074 A 
ATOM     54  C   UNL A   1      45.034  30.368  33.248  1.00  0.00     0.029 A 
ATOM     55  N   UNL A   1      45.623  28.349  32.604  1.00  0.00    -0.354 N 
ATOM     56  N   UNL A   1      45.398  27.131  28.408  1.00  0.00    -0.248 NA
ATOM     57  C   UNL A   1      44.307  25.500  29.671  1.00  0.00     0.031 C 
ATOM     58  C   UNL A   1      45.723  30.442  32.003  1.00  0.00     0.029 A 
ATOM     59  C   UNL A   1      45.851  29.142  31.510  1.00  0.00     0.049 A 
ATOM     60  H   UNL A   1      46.014  27.462  32.776  1.00  0.00     0.167 HD
ATOM     61  C   UNL A   1      45.645  27.397  29.751  1.00  0.00     0.074 A 
ATOM     62  C   UNL A   1      45.028  26.288  30.475  1.00  0.00     0.031 C 
ATOM     63  C   UNL A   1      46.060  28.631  30.171  1.00  0.00     0.034 A 
BRANCH  50  64
ATOM     64  C   UNL A   1      43.816  27.064  34.799  1.00  0.00     0.023 A 
ATOM     65  C   UNL A   1      44.186  27.248  36.147  1.00  0.00     0.012 A 
ATOM     66  C   UNL A   1      43.908  25.752  34.276  1.00  0.00     0.148 A 
ATOM     67  C   UNL A   1      44.662  26.186  36.923  1.00  0.00     0.002 A 
ATOM     68  C   UNL A   1      44.292  24.687  35.078  1.00  0.00     0.091 A 
ATOM     69  F   UNL A   1      43.768  25.538  32.964  1.00  0.00    -0.205 F 
ATOM     70  C   UNL A   1      44.702  24.901  36.394  1.00  0.00     0.022 A 
BRANCH  68  71
ATOM     71  S   UNL A   1      44.288  23.007  34.441  1.00  0.00     0.127 S 
ATOM     72  O   UNL A   1      42.896  22.853  34.029  1.00  0.00    -0.237 OA
ATOM     73  O   UNL A   1      45.254  23.095  33.346  1.00  0.00    -0.237 OA
ATOM     74  O   UNL A   1      44.732  22.179  35.555  1.00  0.00    -0.744 OA
ENDBRANCH  68  71
ENDBRANCH  50  64
BRANCH  51  75
ATOM     75  C   UNL A   1      42.978  24.999  26.656  1.00  0.00     0.023 A 
ATOM     76  C   UNL A   1      43.767  24.648  25.545  1.00  0.00     0.012 A 
ATOM     77  C   UNL A   1      42.017  24.064  27.110  1.00  0.00     0.148 A 
ATOM     78  C   UNL A   1      43.615  23.403  24.919  1.00  0.00     0.002 A 
ATOM     79  C   UNL A   1      41.852  22.840  26.469  1.00  0.00     0.091 A 
ATOM     80  F   UNL A   1      41.329  24.326  28.229  1.00  0.00    -0.205 F 
ATOM     81  C   UNL A   1      42.660  22.500  25.379  1.00  0.00     0.022 A 
BRANCH  79  82
ATOM     82  S   UNL A   1      40.624  21.644  27.014  1.00  0.00     0.127 S 
ATOM     83  O   UNL A   1      40.945  20.477  26.190  1.00  0.00    -0.237 OA
ATOM     84  O   UNL A   1      40.947  21.499  28.430  1.00  0.00    -0.237 OA
ATOM     85  O   UNL A   1      39.329  22.243  26.712  1.00  0.00    -0.744 OA
ENDBRANCH  79  82
ENDBRANCH  51  75
BRANCH  63  86
ATOM     86  C   UNL A   1      46.469  29.650  29.135  1.00  0.00     0.023 A 
ATOM     87  C   UNL A   1      47.785  29.705  28.629  1.00  0.00     0.012 A 
ATOM     88  C   UNL A   1      45.473  30.421  28.510  1.00  0.00     0.148 A 
ATOM     89  C   UNL A   1      48.104  30.525  27.544  1.00  0.00     0.002 A 
ATOM     90  C   UNL A   1      45.784  31.201  27.401  1.00  0.00     0.091 A 
ATOM     91  F   UNL A   1      44.222  30.354  28.991  1.00  0.00    -0.205 F 
ATOM     92  C   UNL A   1      47.102  31.262  26.921  1.00  0.00     0.022 A 
BRANCH  90  93
ATOM     93  S   UNL A   1      44.514  32.063  26.471  1.00  0.00     0.127 S 
ATOM     94  O   UNL A   1      44.102  33.106  27.408  1.00  0.00    -0.237 OA
ATOM     95  O   UNL A   1      45.249  32.549  25.302  1.00  0.00    -0.237 OA
ATOM     96  O   UNL A   1      43.501  31.062  26.158  1.00  0.00    -0.744 OA
ENDBRANCH  90  93
ENDBRANCH  63  86
ENDBRANCH  37  38
ENDBRANCH  30  32
ENDBRANCH  29  30
ENDBRANCH  28  29
ENDBRANCH  27  28
ENDBRANCH  26  27
ENDBRANCH   1  26
TORSDOF 21
ENDMDL
MODEL 2
REMARK VINA RESULT:     -10.8      1.690      2.275
REMARK SMILES C[C@@H]1C(C(=O)OCCOCCOCCOC(=O)c2ccc(-c3c4nc(c(-c5cccc(S(=O)(=O)[O-])c5F)c5ccc([nH]5)c(-c5cccc(S(=O)(=O)[O-])c5F)c5nc(c(-c6cccc(S(=O)(=O)[O-])c6F)c6ccc3[nH]6)C=C5)C=C4)cc2)=NC2=C1C(=O)C[C@H](c1ccccc1)C2
REMARK SMILES IDX 11 1 10 2 9 3 8 4 7 5 6 6 4 7 5 8 3 9 1 10 2 11 83 12 81 13
REMARK SMILES IDX 82 14 84 15 94 16 85 17 86 18 87 19 88 20 89 21 93 22 90 23
REMARK SMILES IDX 92 24 91 25 12 26 13 27 14 28 15 29 16 30 17 31 18 32 19 33
REMARK SMILES IDX 80 34 20 35 79 36 21 37 22 38 23 39 73 40 24 41 78 42 72 43
REMARK SMILES IDX 74 44 25 45 77 46 71 47 70 48 26 50 58 51 38 52 57 53 39 54
REMARK SMILES IDX 42 55 56 56 75 57 40 58 41 59 55 61 76 62 43 63 27 64 28 65
REMARK SMILES IDX 36 66 29 67 31 68 37 69 30 70 32 71 33 72 34 73 35 74 59 75
REMARK SMILES IDX 60 76 68 77 61 78 63 79 69 80 62 81 64 82 65 83 66 84 67 85
REMARK SMILES IDX 44 86 45 87 53 88 46 89 48 90 54 91 47 92 49 93 50 94 51 95
REMARK SMILES IDX 52 96
REMARK H PARENT 74 49 42 60
REMARK Flexibility Score: inf
ROOT
ATOM      1  C   UNL A   1      33.434  33.517  27.908  1.00  0.00     0.188 C 
ENDROOT
BRANCH   1   2
ATOM      2  C   UNL A   1      32.438  32.519  27.357  1.00  0.00     0.188 C 
BRANCH   2   3
ATOM      3  O   UNL A   1      32.941  31.198  27.255  1.00  0.00    -0.376 OA
BRANCH   3   4
ATOM      4  C   UNL A   1      32.223  30.310  26.395  1.00  0.00     0.202 C 
BRANCH   4   5
ATOM      5  C   UNL A   1      32.970  29.498  25.308  1.00  0.00     0.261 C 
BRANCH   5   6
ATOM      6  O   UNL A   1      32.372  28.223  24.977  1.00  0.00    -0.459 OA
BRANCH   6   7
ATOM      7  C   UNL A   1      33.010  27.068  25.270  1.00  0.00     0.353 C 
ATOM      8  O   UNL A   1      33.989  26.938  25.957  1.00  0.00    -0.245 OA
BRANCH   7   9
ATOM      9  C   UNL A   1      32.150  25.906  24.730  1.00  0.00     0.133 C 
ATOM     10  C   UNL A   1      29.689  26.028  25.199  1.00  0.00     0.020 C 
ATOM     11  C   UNL A   1      30.999  25.335  25.551  1.00  0.00     0.078 C 
ATOM     12  C   UNL A   1      31.101  24.001  24.906  1.00  0.00     0.026 C 
ATOM     13  N   UNL A   1      32.406  25.283  23.606  1.00  0.00    -0.249 NA
ATOM     14  C   UNL A   1      31.756  24.075  23.747  1.00  0.00     0.049 C 
ATOM     15  C   UNL A   1      31.010  22.694  25.569  1.00  0.00     0.161 C 
ATOM     16  C   UNL A   1      32.160  22.824  23.028  1.00  0.00     0.065 C 
ATOM     17  O   UNL A   1      30.143  22.516  26.422  1.00  0.00    -0.294 OA
ATOM     18  C   UNL A   1      32.059  21.623  25.218  1.00  0.00     0.089 C 
ATOM     19  C   UNL A   1      32.992  21.963  24.008  1.00  0.00     0.033 C 
BRANCH  19  20
ATOM     20  C   UNL A   1      34.356  22.605  24.329  1.00  0.00    -0.044 A 
ATOM     21  C   UNL A   1      34.640  23.098  25.620  1.00  0.00     0.004 A 
ATOM     22  C   UNL A   1      35.353  22.776  23.363  1.00  0.00     0.004 A 
ATOM     23  C   UNL A   1      35.896  23.591  25.973  1.00  0.00     0.000 A 
ATOM     24  C   UNL A   1      36.613  23.285  23.712  1.00  0.00     0.000 A 
ATOM     25  C   UNL A   1      36.895  23.665  25.019  1.00  0.00     0.000 A 
ENDBRANCH  19  20
ENDBRANCH   7   9
ENDBRANCH   6   7
ENDBRANCH   5   6
ENDBRANCH   4   5
ENDBRANCH   3   4
ENDBRANCH   2   3
ENDBRANCH   1   2
BRANCH   1  26
ATOM     26  O   UNL A   1      33.029  34.116  29.136  1.00  0.00    -0.376 OA
BRANCH  26  27
ATOM     27  C   UNL A   1      34.064  34.625  29.968  1.00  0.00     0.202 C 
BRANCH  27  28
ATOM     28  C   UNL A   1      34.421  33.750  31.157  1.00  0.00     0.261 C 
BRANCH  28  29
ATOM     29  O   UNL A   1      34.620  32.390  30.797  1.00  0.00    -0.460 OA
BRANCH  29  30
ATOM     30  C   UNL A   1      35.593  31.772  31.501  1.00  0.00     0.338 C 
ATOM     31  O   UNL A   1      35.779  31.802  32.707  1.00  0.00    -0.246 OA
BRANCH  30  32
ATOM     32  C   UNL A   1      36.514  31.131  30.564  1.00  0.00     0.060 A 
ATOM     33  C   UNL A   1      36.606  29.739  30.644  1.00  0.00     0.016 A 
ATOM     34  C   UNL A   1      37.456  31.915  29.880  1.00  0.00     0.016 A 
ATOM     35  C   UNL A   1      37.782  29.154  30.255  1.00  0.00     0.010 A 
ATOM     36  C   UNL A   1      38.635  31.330  29.500  1.00  0.00     0.010 A 
ATOM     37  C   UNL A   1      38.810  29.983  29.801  1.00  0.00    -0.014 A 
BRANCH  37  38
ATOM     38  C   UNL A   1      40.129  29.408  29.755  1.00  0.00     0.031 A 
ATOM     39  C   UNL A   1      40.796  29.315  31.063  1.00  0.00     0.074 A 
ATOM     40  C   UNL A   1      40.645  28.975  28.591  1.00  0.00     0.049 A 
ATOM     41  N   UNL A   1      41.850  29.949  31.452  1.00  0.00    -0.248 NA
ATOM     42  C   UNL A   1      40.123  28.538  32.111  1.00  0.00     0.031 C 
ATOM     43  C   UNL A   1      39.949  28.766  27.317  1.00  0.00     0.029 A 
ATOM     44  N   UNL A   1      41.883  28.470  28.358  1.00  0.00    -0.354 N 
ATOM     45  C   UNL A   1      42.106  29.466  32.729  1.00  0.00     0.074 A 
ATOM     46  C   UNL A   1      40.924  28.762  33.152  1.00  0.00     0.031 C 
ATOM     47  C   UNL A   1      40.687  27.930  26.553  1.00  0.00     0.029 A 
ATOM     48  C   UNL A   1      41.938  27.655  27.237  1.00  0.00     0.049 A 
ATOM     49  H   UNL A   1      42.663  28.664  28.926  1.00  0.00     0.167 HD
ATOM     50  C   UNL A   1      43.367  29.454  33.236  1.00  0.00     0.034 A 
ATOM     51  C   UNL A   1      42.891  26.727  26.985  1.00  0.00     0.034 A 
ATOM     52  C   UNL A   1      44.248  30.341  32.524  1.00  0.00     0.049 A 
ATOM     53  C   UNL A   1      44.077  27.071  27.811  1.00  0.00     0.074 A 
ATOM     54  C   UNL A   1      44.234  31.689  32.225  1.00  0.00     0.029 A 
ATOM     55  N   UNL A   1      45.166  29.775  31.671  1.00  0.00    -0.354 N 
ATOM     56  N   UNL A   1      44.802  28.141  27.628  1.00  0.00    -0.248 NA
ATOM     57  C   UNL A   1      44.198  26.454  29.124  1.00  0.00     0.031 C 
ATOM     58  C   UNL A   1      44.771  31.779  30.908  1.00  0.00     0.029 A 
ATOM     59  C   UNL A   1      45.119  30.489  30.502  1.00  0.00     0.049 A 
ATOM     60  H   UNL A   1      45.747  29.004  31.863  1.00  0.00     0.167 HD
ATOM     61  C   UNL A   1      45.114  28.578  28.911  1.00  0.00     0.074 A 
ATOM     62  C   UNL A   1      44.813  27.443  29.781  1.00  0.00     0.031 C 
ATOM     63  C   UNL A   1      45.301  29.904  29.190  1.00  0.00     0.034 A 
BRANCH  50  64
ATOM     64  C   UNL A   1      43.883  28.373  34.144  1.00  0.00     0.023 A 
ATOM     65  C   UNL A   1      44.607  28.770  35.287  1.00  0.00     0.012 A 
ATOM     66  C   UNL A   1      43.927  27.002  33.796  1.00  0.00     0.148 A 
ATOM     67  C   UNL A   1      45.367  27.855  36.022  1.00  0.00     0.002 A 
ATOM     68  C   UNL A   1      44.608  26.084  34.582  1.00  0.00     0.091 A 
ATOM     69  F   UNL A   1      43.436  26.589  32.623  1.00  0.00    -0.205 F 
ATOM     70  C   UNL A   1      45.357  26.509  35.679  1.00  0.00     0.022 A 
BRANCH  68  71
ATOM     71  S   UNL A   1      44.556  24.329  34.202  1.00  0.00     0.127 S 
ATOM     72  O   UNL A   1      45.197  24.295  32.890  1.00  0.00    -0.237 OA
ATOM     73  O   UNL A   1      45.345  23.758  35.294  1.00  0.00    -0.237 OA
ATOM     74  O   UNL A   1      43.143  23.974  34.245  1.00  0.00    -0.744 OA
ENDBRANCH  68  71
ENDBRANCH  50  64
BRANCH  51  75
ATOM     75  C   UNL A   1      42.722  25.412  26.324  1.00  0.00     0.023 A 
ATOM     76  C   UNL A   1      43.599  25.037  25.290  1.00  0.00     0.012 A 
ATOM     77  C   UNL A   1      41.858  24.423  26.853  1.00  0.00     0.148 A 
ATOM     78  C   UNL A   1      43.626  23.720  24.810  1.00  0.00     0.002 A 
ATOM     79  C   UNL A   1      41.870  23.124  26.356  1.00  0.00     0.091 A 
ATOM     80  F   UNL A   1      41.091  24.724  27.909  1.00  0.00    -0.205 F 
ATOM     81  C   UNL A   1      42.763  22.765  25.341  1.00  0.00     0.022 A 
BRANCH  79  82
ATOM     82  S   UNL A   1      40.767  21.855  26.997  1.00  0.00     0.127 S 
ATOM     83  O   UNL A   1      41.071  20.716  26.128  1.00  0.00    -0.237 OA
ATOM     84  O   UNL A   1      41.232  21.714  28.373  1.00  0.00    -0.237 OA
ATOM     85  O   UNL A   1      39.418  22.384  26.829  1.00  0.00    -0.744 OA
ENDBRANCH  79  82
ENDBRANCH  51  75
BRANCH  63  86
ATOM     86  C   UNL A   1      45.389  30.880  28.041  1.00  0.00     0.023 A 
ATOM     87  C   UNL A   1      44.235  31.364  27.388  1.00  0.00     0.012 A 
ATOM     88  C   UNL A   1      46.628  31.480  27.752  1.00  0.00     0.148 A 
ATOM     89  C   UNL A   1      44.317  32.400  26.456  1.00  0.00     0.002 A 
ATOM     90  C   UNL A   1      46.700  32.543  26.858  1.00  0.00     0.091 A 
ATOM     91  F   UNL A   1      47.719  31.022  28.386  1.00  0.00    -0.205 F 
ATOM     92  C   UNL A   1      45.547  32.999  26.200  1.00  0.00     0.022 A 
BRANCH  90  93
ATOM     93  S   UNL A   1      48.228  33.446  26.591  1.00  0.00     0.127 S 
ATOM     94  O   UNL A   1      47.869  34.340  25.492  1.00  0.00    -0.237 OA
ATOM     95  O   UNL A   1      48.433  34.112  27.878  1.00  0.00    -0.237 OA
ATOM     96  O   UNL A   1      49.235  32.438  26.280  1.00  0.00    -0.744 OA
ENDBRANCH  90  93
ENDBRANCH  63  86
ENDBRANCH  37  38
ENDBRANCH  30  32
ENDBRANCH  29  30
ENDBRANCH  28  29
ENDBRANCH  27  28
ENDBRANCH  26  27
ENDBRANCH   1  26
TORSDOF 21
ENDMDL
MODEL 3
REMARK VINA RESULT:     -10.8      2.672      8.767
REMARK SMILES C[C@@H]1C(C(=O)OCCOCCOCCOC(=O)c2ccc(-c3c4nc(c(-c5cccc(S(=O)(=O)[O-])c5F)c5ccc([nH]5)c(-c5cccc(S(=O)(=O)[O-])c5F)c5nc(c(-c6cccc(S(=O)(=O)[O-])c6F)c6ccc3[nH]6)C=C5)C=C4)cc2)=NC2=C1C(=O)C[C@H](c1ccccc1)C2
REMARK SMILES IDX 11 1 10 2 9 3 8 4 7 5 6 6 4 7 5 8 3 9 1 10 2 11 83 12 81 13
REMARK SMILES IDX 82 14 84 15 94 16 85 17 86 18 87 19 88 20 89 21 93 22 90 23
REMARK SMILES IDX 92 24 91 25 12 26 13 27 14 28 15 29 16 30 17 31 18 32 19 33
REMARK SMILES IDX 80 34 20 35 79 36 21 37 22 38 23 39 73 40 24 41 78 42 72 43
REMARK SMILES IDX 74 44 25 45 77 46 71 47 70 48 26 50 58 51 38 52 57 53 39 54
REMARK SMILES IDX 42 55 56 56 75 57 40 58 41 59 55 61 76 62 43 63 27 64 28 65
REMARK SMILES IDX 36 66 29 67 31 68 37 69 30 70 32 71 33 72 34 73 35 74 59 75
REMARK SMILES IDX 60 76 68 77 61 78 63 79 69 80 62 81 64 82 65 83 66 84 67 85
REMARK SMILES IDX 44 86 45 87 53 88 46 89 48 90 54 91 47 92 49 93 50 94 51 95
REMARK SMILES IDX 52 96
REMARK H PARENT 74 49 42 60
REMARK Flexibility Score: inf
ROOT
ATOM      1  C   UNL A   1      38.582  22.632  26.122  1.00  0.00     0.188 C 
ENDROOT
BRANCH   1   2
ATOM      2  C   UNL A   1      37.398  22.593  25.179  1.00  0.00     0.188 C 
BRANCH   2   3
ATOM      3  O   UNL A   1      36.235  22.006  25.737  1.00  0.00    -0.376 OA
BRANCH   3   4
ATOM      4  C   UNL A   1      35.411  22.863  26.531  1.00  0.00     0.202 C 
BRANCH   4   5
ATOM      5  C   UNL A   1      33.868  22.741  26.471  1.00  0.00     0.261 C 
BRANCH   5   6
ATOM      6  O   UNL A   1      33.153  23.999  26.484  1.00  0.00    -0.459 OA
BRANCH   6   7
ATOM      7  C   UNL A   1      31.807  24.026  26.359  1.00  0.00     0.353 C 
ATOM      8  O   UNL A   1      30.999  23.800  27.220  1.00  0.00    -0.245 OA
BRANCH   7   9
ATOM      9  C   UNL A   1      31.476  24.592  24.962  1.00  0.00     0.133 C 
ATOM     10  C   UNL A   1      31.433  22.945  23.072  1.00  0.00     0.020 C 
ATOM     11  C   UNL A   1      32.201  24.090  23.720  1.00  0.00     0.078 C 
ATOM     12  C   UNL A   1      31.995  25.367  22.991  1.00  0.00     0.026 C 
ATOM     13  N   UNL A   1      30.643  25.586  24.768  1.00  0.00    -0.249 NA
ATOM     14  C   UNL A   1      31.004  26.075  23.531  1.00  0.00     0.049 C 
ATOM     15  C   UNL A   1      32.976  26.072  22.156  1.00  0.00     0.161 C 
ATOM     16  C   UNL A   1      30.759  27.487  23.091  1.00  0.00     0.065 C 
ATOM     17  O   UNL A   1      33.671  25.424  21.375  1.00  0.00    -0.294 OA
ATOM     18  C   UNL A   1      33.145  27.589  22.351  1.00  0.00     0.089 C 
ATOM     19  C   UNL A   1      32.079  28.274  23.272  1.00  0.00     0.033 C 
BRANCH  19  20
ATOM     20  C   UNL A   1      32.445  28.458  24.757  1.00  0.00    -0.044 A 
ATOM     21  C   UNL A   1      31.590  29.157  25.635  1.00  0.00     0.004 A 
ATOM     22  C   UNL A   1      33.648  27.992  25.299  1.00  0.00     0.004 A 
ATOM     23  C   UNL A   1      31.839  29.254  27.004  1.00  0.00     0.000 A 
ATOM     24  C   UNL A   1      33.909  28.101  26.673  1.00  0.00     0.000 A 
ATOM     25  C   UNL A   1      32.995  28.705  27.529  1.00  0.00     0.000 A 
ENDBRANCH  19  20
ENDBRANCH   7   9
ENDBRANCH   6   7
ENDBRANCH   5   6
ENDBRANCH   4   5
ENDBRANCH   3   4
ENDBRANCH   2   3
ENDBRANCH   1   2
BRANCH   1  26
ATOM     26  O   UNL A   1      39.493  21.550  25.948  1.00  0.00    -0.376 OA
BRANCH  26  27
ATOM     27  C   UNL A   1      40.501  21.401  26.940  1.00  0.00     0.202 C 
BRANCH  27  28
ATOM     28  C   UNL A   1      41.900  21.794  26.497  1.00  0.00     0.261 C 
BRANCH  28  29
ATOM     29  O   UNL A   1      41.901  22.882  25.584  1.00  0.00    -0.460 OA
BRANCH  29  30
ATOM     30  C   UNL A   1      42.705  23.904  25.948  1.00  0.00     0.338 C 
ATOM     31  O   UNL A   1      43.830  24.151  25.544  1.00  0.00    -0.246 OA
BRANCH  30  32
ATOM     32  C   UNL A   1      42.063  24.642  27.034  1.00  0.00     0.060 A 
ATOM     33  C   UNL A   1      40.984  25.454  26.677  1.00  0.00     0.016 A 
ATOM     34  C   UNL A   1      42.718  24.754  28.271  1.00  0.00     0.016 A 
ATOM     35  C   UNL A   1      40.725  26.551  27.455  1.00  0.00     0.010 A 
ATOM     36  C   UNL A   1      42.464  25.855  29.044  1.00  0.00     0.010 A 
ATOM     37  C   UNL A   1      41.550  26.785  28.558  1.00  0.00    -0.014 A 
BRANCH  37  38
ATOM     38  C   UNL A   1      41.503  28.105  29.129  1.00  0.00     0.031 A 
ATOM     39  C   UNL A   1      42.525  29.027  28.611  1.00  0.00     0.074 A 
ATOM     40  C   UNL A   1      40.557  28.425  30.030  1.00  0.00     0.049 A 
ATOM     41  N   UNL A   1      43.513  29.546  29.260  1.00  0.00    -0.248 NA
ATOM     42  C   UNL A   1      42.535  29.283  27.166  1.00  0.00     0.031 C 
ATOM     43  C   UNL A   1      39.348  27.672  30.376  1.00  0.00     0.029 A 
ATOM     44  N   UNL A   1      40.406  29.590  30.711  1.00  0.00    -0.354 N 
ATOM     45  C   UNL A   1      44.138  30.386  28.347  1.00  0.00     0.074 A 
ATOM     46  C   UNL A   1      43.624  30.041  27.047  1.00  0.00     0.031 C 
ATOM     47  C   UNL A   1      38.469  28.511  30.967  1.00  0.00     0.029 A 
ATOM     48  C   UNL A   1      39.105  29.806  31.141  1.00  0.00     0.049 A 
ATOM     49  H   UNL A   1      41.144  30.217  30.882  1.00  0.00     0.167 HD
ATOM     50  C   UNL A   1      44.831  31.479  28.758  1.00  0.00     0.034 A 
ATOM     51  C   UNL A   1      38.576  31.006  31.477  1.00  0.00     0.034 A 
ATOM     52  C   UNL A   1      45.184  31.408  30.151  1.00  0.00     0.049 A 
ATOM     53  C   UNL A   1      39.707  31.919  31.784  1.00  0.00     0.074 A 
ATOM     54  C   UNL A   1      45.879  30.504  30.931  1.00  0.00     0.029 A 
ATOM     55  N   UNL A   1      44.476  32.195  31.028  1.00  0.00    -0.354 N 
ATOM     56  N   UNL A   1      40.502  31.769  32.808  1.00  0.00    -0.248 NA
ATOM     57  C   UNL A   1      40.229  32.749  30.708  1.00  0.00     0.031 C 
ATOM     58  C   UNL A   1      45.186  30.482  32.175  1.00  0.00     0.029 A 
ATOM     59  C   UNL A   1      44.139  31.403  32.095  1.00  0.00     0.049 A 
ATOM     60  H   UNL A   1      44.254  33.147  30.912  1.00  0.00     0.167 HD
ATOM     61  C   UNL A   1      41.764  32.101  32.326  1.00  0.00     0.074 A 
ATOM     62  C   UNL A   1      41.515  32.800  31.067  1.00  0.00     0.031 C 
ATOM     63  C   UNL A   1      42.897  31.523  32.829  1.00  0.00     0.034 A 
BRANCH  50  64
ATOM     64  C   UNL A   1      44.874  32.770  27.987  1.00  0.00     0.023 A 
ATOM     65  C   UNL A   1      43.653  33.284  27.507  1.00  0.00     0.012 A 
ATOM     66  C   UNL A   1      46.063  33.352  27.487  1.00  0.00     0.148 A 
ATOM     67  C   UNL A   1      43.618  34.301  26.547  1.00  0.00     0.002 A 
ATOM     68  C   UNL A   1      46.020  34.422  26.605  1.00  0.00     0.091 A 
ATOM     69  F   UNL A   1      47.249  32.788  27.741  1.00  0.00    -0.205 F 
ATOM     70  C   UNL A   1      44.802  34.880  26.105  1.00  0.00     0.022 A 
BRANCH  68  71
ATOM     71  S   UNL A   1      47.530  35.235  26.070  1.00  0.00     0.127 S 
ATOM     72  O   UNL A   1      48.177  34.176  25.300  1.00  0.00    -0.237 OA
ATOM     73  O   UNL A   1      47.011  36.351  25.279  1.00  0.00    -0.237 OA
ATOM     74  O   UNL A   1      48.196  35.643  27.301  1.00  0.00    -0.744 OA
ENDBRANCH  68  71
ENDBRANCH  50  64
BRANCH  51  75
ATOM     75  C   UNL A   1      37.193  31.483  31.246  1.00  0.00     0.023 A 
ATOM     76  C   UNL A   1      36.400  31.869  32.341  1.00  0.00     0.012 A 
ATOM     77  C   UNL A   1      36.722  31.786  29.946  1.00  0.00     0.148 A 
ATOM     78  C   UNL A   1      35.188  32.547  32.150  1.00  0.00     0.002 A 
ATOM     79  C   UNL A   1      35.506  32.435  29.760  1.00  0.00     0.091 A 
ATOM     80  F   UNL A   1      37.506  31.528  28.891  1.00  0.00    -0.205 F 
ATOM     81  C   UNL A   1      34.741  32.830  30.862  1.00  0.00     0.022 A 
BRANCH  79  82
ATOM     82  S   UNL A   1      34.876  32.813  28.117  1.00  0.00     0.127 S 
ATOM     83  O   UNL A   1      34.828  31.489  27.495  1.00  0.00    -0.237 OA
ATOM     84  O   UNL A   1      33.572  33.395  28.417  1.00  0.00    -0.237 OA
ATOM     85  O   UNL A   1      35.855  33.714  27.518  1.00  0.00    -0.744 OA
ENDBRANCH  79  82
ENDBRANCH  51  75
BRANCH  63  86
ATOM     86  C   UNL A   1      42.788  30.681  34.077  1.00  0.00     0.023 A 
ATOM     87  C   UNL A   1      42.807  31.257  35.366  1.00  0.00     0.012 A 
ATOM     88  C   UNL A   1      42.451  29.321  33.953  1.00  0.00     0.148 A 
ATOM     89  C   UNL A   1      42.522  30.494  36.500  1.00  0.00     0.002 A 
ATOM     90  C   UNL A   1      42.122  28.575  35.080  1.00  0.00     0.091 A 
ATOM     91  F   UNL A   1      42.424  28.783  32.723  1.00  0.00    -0.205 F 
ATOM     92  C   UNL A   1      42.166  29.156  36.356  1.00  0.00     0.022 A 
BRANCH  90  93
ATOM     93  S   UNL A   1      41.522  26.889  34.949  1.00  0.00     0.127 S 
ATOM     94  O   UNL A   1      40.411  27.029  34.010  1.00  0.00    -0.237 OA
ATOM     95  O   UNL A   1      42.685  26.176  34.416  1.00  0.00    -0.237 OA
ATOM     96  O   UNL A   1      41.155  26.491  36.303  1.00  0.00    -0.744 OA
ENDBRANCH  90  93
ENDBRANCH  63  86
ENDBRANCH  37  38
ENDBRANCH  30  32
ENDBRANCH  29  30
ENDBRANCH  28  29
ENDBRANCH  27  28
ENDBRANCH  26  27
ENDBRANCH   1  26
TORSDOF 21
ENDMDL
