MODEL 1
REMARK VINA RESULT:     -10.4      0.000      0.000
REMARK SMILES O=C(OCCOCCOCCOC(=O)c1cc(-n2cccc2)ccc1O)c1ccc(-c2c3nc(c(-c4cccc(S(=O)(=O)[O-])c4F)c4ccc([nH]4)c(-c4cccc(S(=O)(=O)[O-])c4F)c4nc(c(-c5cccc(S(=O)(=O)[O-])c5F)c5ccc2[nH]5)C=C4)C=C3)cc1
REMARK SMILES IDX 7 1 6 2 5 3 4 4 3 5 2 6 1 7 27 8 28 9 89 10 29 11 88 12
REMARK SMILES IDX 30 13 31 14 32 15 82 16 33 17 87 18 81 19 83 20 34 21 86 22
REMARK SMILES IDX 80 23 79 24 35 26 67 27 47 28 66 29 48 30 51 31 65 32 84 33
REMARK SMILES IDX 49 34 50 35 64 37 85 38 52 39 36 40 37 41 45 42 38 43 40 44
REMARK SMILES IDX 46 45 39 46 41 47 42 48 43 49 44 50 68 51 69 52 77 53 70 54
REMARK SMILES IDX 72 55 78 56 71 57 73 58 74 59 75 60 76 61 53 62 54 63 62 64
REMARK SMILES IDX 55 65 57 66 63 67 56 68 58 69 59 70 60 71 61 72 8 73 9 74
REMARK SMILES IDX 10 75 11 76 12 77 13 78 14 79 15 80 16 81 25 82 17 83 24 84
REMARK SMILES IDX 23 85 26 86 18 88 19 89 22 90 20 91 21 92
REMARK H PARENT 83 25 51 36 26 87
REMARK Flexibility Score: inf
ROOT
ATOM      1  C   UNL A   1      31.426  29.556  24.844  1.00  0.00     0.188 C 
ENDROOT
BRANCH   1   2
ATOM      2  O   UNL A   1      31.416  29.008  26.153  1.00  0.00    -0.376 OA
BRANCH   2   3
ATOM      3  C   UNL A   1      32.390  29.429  27.081  1.00  0.00     0.202 C 
BRANCH   3   4
ATOM      4  C   UNL A   1      33.778  29.810  26.533  1.00  0.00     0.261 C 
BRANCH   4   5
ATOM      5  O   UNL A   1      34.899  29.300  27.285  1.00  0.00    -0.460 OA
BRANCH   5   6
ATOM      6  C   UNL A   1      35.762  29.859  28.159  1.00  0.00     0.338 C 
ATOM      7  O   UNL A   1      35.381  30.809  28.840  1.00  0.00    -0.246 OA
BRANCH   6   8
ATOM      8  C   UNL A   1      37.164  29.401  28.306  1.00  0.00     0.060 A 
ATOM      9  C   UNL A   1      38.159  29.646  27.365  1.00  0.00     0.016 A 
ATOM     10  C   UNL A   1      37.511  28.741  29.497  1.00  0.00     0.016 A 
ATOM     11  C   UNL A   1      39.431  29.136  27.520  1.00  0.00     0.010 A 
ATOM     12  C   UNL A   1      38.803  28.254  29.685  1.00  0.00     0.010 A 
ATOM     13  C   UNL A   1      39.743  28.416  28.669  1.00  0.00    -0.014 A 
BRANCH  13  14
ATOM     14  C   UNL A   1      41.108  27.871  28.734  1.00  0.00     0.031 A 
ATOM     15  C   UNL A   1      41.156  26.401  28.323  1.00  0.00     0.074 A 
ATOM     16  C   UNL A   1      42.040  28.703  29.285  1.00  0.00     0.049 A 
ATOM     17  N   UNL A   1      41.753  25.393  28.891  1.00  0.00    -0.248 NA
ATOM     18  C   UNL A   1      40.274  25.955  27.215  1.00  0.00     0.031 C 
ATOM     19  C   UNL A   1      41.796  30.124  29.622  1.00  0.00     0.029 A 
ATOM     20  N   UNL A   1      43.348  28.548  29.687  1.00  0.00    -0.354 N 
ATOM     21  C   UNL A   1      41.525  24.268  28.064  1.00  0.00     0.074 A 
ATOM     22  C   UNL A   1      40.466  24.635  27.172  1.00  0.00     0.031 C 
ATOM     23  C   UNL A   1      42.874  30.670  30.217  1.00  0.00     0.029 A 
ATOM     24  C   UNL A   1      43.923  29.673  30.317  1.00  0.00     0.049 A 
ATOM     25  H   UNL A   1      43.847  27.711  29.545  1.00  0.00     0.167 HD
ATOM     26  C   UNL A   1      42.348  23.177  28.044  1.00  0.00     0.034 A 
ATOM     27  C   UNL A   1      45.140  29.801  30.929  1.00  0.00     0.034 A 
ATOM     28  C   UNL A   1      43.451  23.396  28.926  1.00  0.00     0.049 A 
ATOM     29  C   UNL A   1      45.817  28.506  30.772  1.00  0.00     0.074 A 
ATOM     30  C   UNL A   1      43.658  23.304  30.276  1.00  0.00     0.029 A 
ATOM     31  N   UNL A   1      44.531  24.020  28.350  1.00  0.00    -0.354 N 
ATOM     32  N   UNL A   1      46.359  28.082  29.669  1.00  0.00    -0.248 NA
ATOM     33  C   UNL A   1      45.792  27.551  31.888  1.00  0.00     0.031 C 
ATOM     34  C   UNL A   1      44.751  24.164  30.532  1.00  0.00     0.029 A 
ATOM     35  C   UNL A   1      45.189  24.723  29.326  1.00  0.00     0.049 A 
ATOM     36  H   UNL A   1      44.787  23.971  27.401  1.00  0.00     0.167 HD
ATOM     37  C   UNL A   1      46.397  26.722  29.866  1.00  0.00     0.074 A 
ATOM     38  C   UNL A   1      46.372  26.514  31.294  1.00  0.00     0.031 C 
ATOM     39  C   UNL A   1      45.935  25.886  28.900  1.00  0.00     0.034 A 
BRANCH  26  40
ATOM     40  C   UNL A   1      42.485  21.985  27.110  1.00  0.00     0.023 A 
ATOM     41  C   UNL A   1      41.608  20.893  27.387  1.00  0.00     0.012 A 
ATOM     42  C   UNL A   1      43.525  21.738  26.197  1.00  0.00     0.148 A 
ATOM     43  C   UNL A   1      41.822  19.604  26.899  1.00  0.00     0.002 A 
ATOM     44  C   UNL A   1      43.701  20.455  25.660  1.00  0.00     0.091 A 
ATOM     45  F   UNL A   1      44.400  22.704  25.904  1.00  0.00    -0.205 F 
ATOM     46  C   UNL A   1      42.880  19.384  26.041  1.00  0.00     0.022 A 
BRANCH  44  47
ATOM     47  S   UNL A   1      44.972  20.085  24.442  1.00  0.00     0.127 S 
ATOM     48  O   UNL A   1      44.657  18.707  24.079  1.00  0.00    -0.237 OA
ATOM     49  O   UNL A   1      44.687  21.067  23.392  1.00  0.00    -0.237 OA
ATOM     50  O   UNL A   1      46.237  20.311  25.127  1.00  0.00    -0.744 OA
ENDBRANCH  44  47
ENDBRANCH  26  40
BRANCH  27  51
ATOM     51  C   UNL A   1      45.812  30.857  31.770  1.00  0.00     0.023 A 
ATOM     52  C   UNL A   1      45.613  30.995  33.153  1.00  0.00     0.012 A 
ATOM     53  C   UNL A   1      46.724  31.780  31.181  1.00  0.00     0.148 A 
ATOM     54  C   UNL A   1      46.357  31.916  33.915  1.00  0.00     0.002 A 
ATOM     55  C   UNL A   1      47.521  32.627  31.941  1.00  0.00     0.091 A 
ATOM     56  F   UNL A   1      46.806  31.875  29.851  1.00  0.00    -0.205 F 
ATOM     57  C   UNL A   1      47.338  32.704  33.318  1.00  0.00     0.022 A 
BRANCH  55  58
ATOM     58  S   UNL A   1      48.883  33.558  31.212  1.00  0.00     0.127 S 
ATOM     59  O   UNL A   1      48.192  34.688  30.594  1.00  0.00    -0.237 OA
ATOM     60  O   UNL A   1      49.674  33.894  32.396  1.00  0.00    -0.237 OA
ATOM     61  O   UNL A   1      49.549  32.654  30.283  1.00  0.00    -0.744 OA
ENDBRANCH  55  58
ENDBRANCH  27  51
BRANCH  39  62
ATOM     62  C   UNL A   1      45.907  26.516  27.507  1.00  0.00     0.023 A 
ATOM     63  C   UNL A   1      44.659  26.861  26.960  1.00  0.00     0.012 A 
ATOM     64  C   UNL A   1      47.039  26.632  26.666  1.00  0.00     0.148 A 
ATOM     65  C   UNL A   1      44.541  27.283  25.632  1.00  0.00     0.002 A 
ATOM     66  C   UNL A   1      46.924  27.040  25.336  1.00  0.00     0.091 A 
ATOM     67  F   UNL A   1      48.231  26.335  27.172  1.00  0.00    -0.205 F 
ATOM     68  C   UNL A   1      45.668  27.369  24.819  1.00  0.00     0.022 A 
BRANCH  66  69
ATOM     69  S   UNL A   1      48.315  27.101  24.185  1.00  0.00     0.127 S 
ATOM     70  O   UNL A   1      47.659  27.417  22.914  1.00  0.00    -0.237 OA
ATOM     71  O   UNL A   1      49.117  28.191  24.733  1.00  0.00    -0.237 OA
ATOM     72  O   UNL A   1      48.945  25.788  24.214  1.00  0.00    -0.744 OA
ENDBRANCH  66  69
ENDBRANCH  39  62
ENDBRANCH  13  14
ENDBRANCH   6   8
ENDBRANCH   5   6
ENDBRANCH   4   5
ENDBRANCH   3   4
ENDBRANCH   2   3
ENDBRANCH   1   2
BRANCH   1  73
ATOM     73  C   UNL A   1      30.722  28.625  23.832  1.00  0.00     0.188 C 
BRANCH  73  74
ATOM     74  O   UNL A   1      31.495  27.703  23.062  1.00  0.00    -0.376 OA
BRANCH  74  75
ATOM     75  C   UNL A   1      32.911  27.767  23.103  1.00  0.00     0.202 C 
BRANCH  75  76
ATOM     76  C   UNL A   1      33.614  26.965  24.196  1.00  0.00     0.261 C 
BRANCH  76  77
ATOM     77  O   UNL A   1      33.242  25.582  24.257  1.00  0.00    -0.460 OA
BRANCH  77  78
ATOM     78  C   UNL A   1      32.509  25.226  25.334  1.00  0.00     0.342 C 
ATOM     79  O   UNL A   1      31.418  25.681  25.677  1.00  0.00    -0.246 OA
BRANCH  78  80
ATOM     80  C   UNL A   1      33.157  24.122  26.054  1.00  0.00     0.103 A 
ATOM     81  C   UNL A   1      34.422  23.684  25.634  1.00  0.00     0.046 A 
ATOM     82  C   UNL A   1      32.467  23.432  27.054  1.00  0.00     0.130 A 
ATOM     83  C   UNL A   1      34.953  22.513  26.183  1.00  0.00     0.046 A 
ATOM     84  C   UNL A   1      33.005  22.263  27.595  1.00  0.00     0.049 A 
ATOM     85  C   UNL A   1      34.234  21.782  27.136  1.00  0.00     0.030 A 
BRANCH  82  86
ATOM     86  O   UNL A   1      31.254  23.885  27.489  1.00  0.00    -0.507 OA
ATOM     87  H   UNL A   1      30.529  23.294  27.555  1.00  0.00     0.293 HD
ENDBRANCH  82  86
BRANCH  83  88
ATOM     88  N   UNL A   1      36.228  22.057  25.781  1.00  0.00    -0.324 N 
ATOM     89  C   UNL A   1      36.482  20.916  25.052  1.00  0.00     0.091 A 
ATOM     90  C   UNL A   1      37.430  22.649  26.096  1.00  0.00     0.091 A 
ATOM     91  C   UNL A   1      37.847  20.771  24.929  1.00  0.00     0.020 A 
ATOM     92  C   UNL A   1      38.447  21.845  25.626  1.00  0.00     0.020 A 
ENDBRANCH  83  88
ENDBRANCH  78  80
ENDBRANCH  77  78
ENDBRANCH  76  77
ENDBRANCH  75  76
ENDBRANCH  74  75
ENDBRANCH  73  74
ENDBRANCH   1  73
TORSDOF 22
ENDMDL
MODEL 2
REMARK VINA RESULT:     -10.2      1.742      2.229
REMARK SMILES O=C(OCCOCCOCCOC(=O)c1cc(-n2cccc2)ccc1O)c1ccc(-c2c3nc(c(-c4cccc(S(=O)(=O)[O-])c4F)c4ccc([nH]4)c(-c4cccc(S(=O)(=O)[O-])c4F)c4nc(c(-c5cccc(S(=O)(=O)[O-])c5F)c5ccc2[nH]5)C=C4)C=C3)cc1
REMARK SMILES IDX 7 1 6 2 5 3 4 4 3 5 2 6 1 7 27 8 28 9 89 10 29 11 88 12
REMARK SMILES IDX 30 13 31 14 32 15 82 16 33 17 87 18 81 19 83 20 34 21 86 22
REMARK SMILES IDX 80 23 79 24 35 26 67 27 47 28 66 29 48 30 51 31 65 32 84 33
REMARK SMILES IDX 49 34 50 35 64 37 85 38 52 39 36 40 37 41 45 42 38 43 40 44
REMARK SMILES IDX 46 45 39 46 41 47 42 48 43 49 44 50 68 51 69 52 77 53 70 54
REMARK SMILES IDX 72 55 78 56 71 57 73 58 74 59 75 60 76 61 53 62 54 63 62 64
REMARK SMILES IDX 55 65 57 66 63 67 56 68 58 69 59 70 60 71 61 72 8 73 9 74
REMARK SMILES IDX 10 75 11 76 12 77 13 78 14 79 15 80 16 81 25 82 17 83 24 84
REMARK SMILES IDX 23 85 26 86 18 88 19 89 22 90 20 91 21 92
REMARK H PARENT 83 25 51 36 26 87
REMARK Flexibility Score: inf
ROOT
ATOM      1  C   UNL A   1      32.044  28.464  24.596  1.00  0.00     0.188 C 
ENDROOT
BRANCH   1   2
ATOM      2  O   UNL A   1      31.874  27.936  25.903  1.00  0.00    -0.376 OA
BRANCH   2   3
ATOM      3  C   UNL A   1      32.335  28.677  27.009  1.00  0.00     0.202 C 
BRANCH   3   4
ATOM      4  C   UNL A   1      33.518  29.636  26.780  1.00  0.00     0.261 C 
BRANCH   4   5
ATOM      5  O   UNL A   1      34.750  29.261  27.431  1.00  0.00    -0.460 OA
BRANCH   5   6
ATOM      6  C   UNL A   1      35.693  29.954  28.104  1.00  0.00     0.338 C 
ATOM      7  O   UNL A   1      35.394  31.046  28.583  1.00  0.00    -0.246 OA
BRANCH   6   8
ATOM      8  C   UNL A   1      37.085  29.471  28.257  1.00  0.00     0.060 A 
ATOM      9  C   UNL A   1      38.090  29.700  27.323  1.00  0.00     0.016 A 
ATOM     10  C   UNL A   1      37.415  28.803  29.449  1.00  0.00     0.016 A 
ATOM     11  C   UNL A   1      39.352  29.168  27.484  1.00  0.00     0.010 A 
ATOM     12  C   UNL A   1      38.697  28.293  29.643  1.00  0.00     0.010 A 
ATOM     13  C   UNL A   1      39.646  28.441  28.633  1.00  0.00    -0.014 A 
BRANCH  13  14
ATOM     14  C   UNL A   1      41.001  27.871  28.704  1.00  0.00     0.031 A 
ATOM     15  C   UNL A   1      41.028  26.407  28.271  1.00  0.00     0.074 A 
ATOM     16  C   UNL A   1      41.940  28.680  29.278  1.00  0.00     0.049 A 
ATOM     17  N   UNL A   1      41.602  25.381  28.831  1.00  0.00    -0.248 NA
ATOM     18  C   UNL A   1      40.151  25.993  27.147  1.00  0.00     0.031 C 
ATOM     19  C   UNL A   1      41.716  30.099  29.634  1.00  0.00     0.029 A 
ATOM     20  N   UNL A   1      43.240  28.497  29.692  1.00  0.00    -0.354 N 
ATOM     21  C   UNL A   1      41.364  24.273  27.984  1.00  0.00     0.074 A 
ATOM     22  C   UNL A   1      40.322  24.671  27.086  1.00  0.00     0.031 C 
ATOM     23  C   UNL A   1      42.796  30.618  30.249  1.00  0.00     0.029 A 
ATOM     24  C   UNL A   1      43.827  29.602  30.346  1.00  0.00     0.049 A 
ATOM     25  H   UNL A   1      43.727  27.654  29.543  1.00  0.00     0.167 HD
ATOM     26  C   UNL A   1      42.170  23.169  27.957  1.00  0.00     0.034 A 
ATOM     27  C   UNL A   1      45.039  29.700  30.973  1.00  0.00     0.034 A 
ATOM     28  C   UNL A   1      43.266  23.356  28.854  1.00  0.00     0.049 A 
ATOM     29  C   UNL A   1      45.696  28.397  30.803  1.00  0.00     0.074 A 
ATOM     30  C   UNL A   1      43.456  23.240  30.204  1.00  0.00     0.029 A 
ATOM     31  N   UNL A   1      44.363  23.970  28.299  1.00  0.00    -0.354 N 
ATOM     32  N   UNL A   1      46.243  27.980  29.700  1.00  0.00    -0.248 NA
ATOM     33  C   UNL A   1      45.642  27.425  31.904  1.00  0.00     0.031 C 
ATOM     34  C   UNL A   1      44.560  24.078  30.485  1.00  0.00     0.029 A 
ATOM     35  C   UNL A   1      45.021  24.647  29.293  1.00  0.00     0.049 A 
ATOM     36  H   UNL A   1      44.629  23.931  27.352  1.00  0.00     0.167 HD
ATOM     37  C   UNL A   1      46.257  26.617  29.877  1.00  0.00     0.074 A 
ATOM     38  C   UNL A   1      46.212  26.388  31.300  1.00  0.00     0.031 C 
ATOM     39  C   UNL A   1      45.791  25.804  28.893  1.00  0.00     0.034 A 
BRANCH  26  40
ATOM     40  C   UNL A   1      42.297  21.989  27.005  1.00  0.00     0.023 A 
ATOM     41  C   UNL A   1      41.261  21.012  27.109  1.00  0.00     0.012 A 
ATOM     42  C   UNL A   1      43.423  21.630  26.245  1.00  0.00     0.148 A 
ATOM     43  C   UNL A   1      41.385  19.717  26.607  1.00  0.00     0.002 A 
ATOM     44  C   UNL A   1      43.518  20.347  25.689  1.00  0.00     0.091 A 
ATOM     45  F   UNL A   1      44.444  22.483  26.121  1.00  0.00    -0.205 F 
ATOM     46  C   UNL A   1      42.525  19.381  25.904  1.00  0.00     0.022 A 
BRANCH  44  47
ATOM     47  S   UNL A   1      44.902  19.844  24.655  1.00  0.00     0.127 S 
ATOM     48  O   UNL A   1      44.693  18.404  24.542  1.00  0.00    -0.237 OA
ATOM     49  O   UNL A   1      44.650  20.590  23.419  1.00  0.00    -0.237 OA
ATOM     50  O   UNL A   1      46.094  20.280  25.370  1.00  0.00    -0.744 OA
ENDBRANCH  44  47
ENDBRANCH  26  40
BRANCH  27  51
ATOM     51  C   UNL A   1      45.719  30.732  31.837  1.00  0.00     0.023 A 
ATOM     52  C   UNL A   1      45.666  30.731  33.240  1.00  0.00     0.012 A 
ATOM     53  C   UNL A   1      46.487  31.777  31.248  1.00  0.00     0.148 A 
ATOM     54  C   UNL A   1      46.419  31.641  34.005  1.00  0.00     0.002 A 
ATOM     55  C   UNL A   1      47.298  32.620  31.999  1.00  0.00     0.091 A 
ATOM     56  F   UNL A   1      46.413  31.995  29.932  1.00  0.00    -0.205 F 
ATOM     57  C   UNL A   1      47.264  32.560  33.388  1.00  0.00     0.022 A 
BRANCH  55  58
ATOM     58  S   UNL A   1      48.497  33.724  31.225  1.00  0.00     0.127 S 
ATOM     59  O   UNL A   1      49.160  32.841  30.268  1.00  0.00    -0.237 OA
ATOM     60  O   UNL A   1      47.622  34.734  30.629  1.00  0.00    -0.237 OA
ATOM     61  O   UNL A   1      49.347  34.225  32.298  1.00  0.00    -0.744 OA
ENDBRANCH  55  58
ENDBRANCH  27  51
BRANCH  39  62
ATOM     62  C   UNL A   1      45.790  26.455  27.509  1.00  0.00     0.023 A 
ATOM     63  C   UNL A   1      44.552  26.812  26.947  1.00  0.00     0.012 A 
ATOM     64  C   UNL A   1      46.936  26.580  26.690  1.00  0.00     0.148 A 
ATOM     65  C   UNL A   1      44.458  27.256  25.623  1.00  0.00     0.002 A 
ATOM     66  C   UNL A   1      46.845  27.009  25.364  1.00  0.00     0.091 A 
ATOM     67  F   UNL A   1      48.118  26.271  27.212  1.00  0.00    -0.205 F 
ATOM     68  C   UNL A   1      45.599  27.349  24.831  1.00  0.00     0.022 A 
BRANCH  66  69
ATOM     69  S   UNL A   1      48.256  27.083  24.239  1.00  0.00     0.127 S 
ATOM     70  O   UNL A   1      48.819  25.735  24.349  1.00  0.00    -0.237 OA
ATOM     71  O   UNL A   1      47.610  27.359  22.959  1.00  0.00    -0.237 OA
ATOM     72  O   UNL A   1      49.136  28.134  24.733  1.00  0.00    -0.744 OA
ENDBRANCH  66  69
ENDBRANCH  39  62
ENDBRANCH  13  14
ENDBRANCH   6   8
ENDBRANCH   5   6
ENDBRANCH   4   5
ENDBRANCH   3   4
ENDBRANCH   2   3
ENDBRANCH   1   2
BRANCH   1  73
ATOM     73  C   UNL A   1      32.519  27.381  23.602  1.00  0.00     0.188 C 
BRANCH  73  74
ATOM     74  O   UNL A   1      32.815  26.067  24.076  1.00  0.00    -0.376 OA
BRANCH  74  75
ATOM     75  C   UNL A   1      34.106  25.778  24.587  1.00  0.00     0.202 C 
BRANCH  75  76
ATOM     76  C   UNL A   1      34.186  24.842  25.792  1.00  0.00     0.261 C 
BRANCH  76  77
ATOM     77  O   UNL A   1      33.563  23.565  25.601  1.00  0.00    -0.460 OA
BRANCH  77  78
ATOM     78  C   UNL A   1      34.370  22.592  25.126  1.00  0.00     0.342 C 
ATOM     79  O   UNL A   1      35.597  22.533  25.212  1.00  0.00    -0.246 OA
BRANCH  78  80
ATOM     80  C   UNL A   1      33.575  21.514  24.524  1.00  0.00     0.103 A 
ATOM     81  C   UNL A   1      33.808  20.190  24.923  1.00  0.00     0.046 A 
ATOM     82  C   UNL A   1      32.695  21.790  23.473  1.00  0.00     0.130 A 
ATOM     83  C   UNL A   1      33.199  19.149  24.217  1.00  0.00     0.046 A 
ATOM     84  C   UNL A   1      32.094  20.744  22.772  1.00  0.00     0.049 A 
ATOM     85  C   UNL A   1      32.371  19.420  23.121  1.00  0.00     0.030 A 
BRANCH  82  86
ATOM     86  O   UNL A   1      32.440  23.083  23.113  1.00  0.00    -0.507 OA
ATOM     87  H   UNL A   1      32.036  23.269  22.288  1.00  0.00     0.293 HD
ENDBRANCH  82  86
BRANCH  83  88
ATOM     88  N   UNL A   1      33.413  17.809  24.607  1.00  0.00    -0.324 N 
ATOM     89  C   UNL A   1      32.516  17.015  25.286  1.00  0.00     0.091 A 
ATOM     90  C   UNL A   1      34.574  17.091  24.420  1.00  0.00     0.091 A 
ATOM     91  C   UNL A   1      33.117  15.804  25.554  1.00  0.00     0.020 A 
ATOM     92  C   UNL A   1      34.434  15.869  25.043  1.00  0.00     0.020 A 
ENDBRANCH  83  88
ENDBRANCH  78  80
ENDBRANCH  77  78
ENDBRANCH  76  77
ENDBRANCH  75  76
ENDBRANCH  74  75
ENDBRANCH  73  74
ENDBRANCH   1  73
TORSDOF 22
ENDMDL
MODEL 3
REMARK VINA RESULT:      -9.4      3.906      9.809
REMARK SMILES O=C(OCCOCCOCCOC(=O)c1cc(-n2cccc2)ccc1O)c1ccc(-c2c3nc(c(-c4cccc(S(=O)(=O)[O-])c4F)c4ccc([nH]4)c(-c4cccc(S(=O)(=O)[O-])c4F)c4nc(c(-c5cccc(S(=O)(=O)[O-])c5F)c5ccc2[nH]5)C=C4)C=C3)cc1
REMARK SMILES IDX 7 1 6 2 5 3 4 4 3 5 2 6 1 7 27 8 28 9 89 10 29 11 88 12
REMARK SMILES IDX 30 13 31 14 32 15 82 16 33 17 87 18 81 19 83 20 34 21 86 22
REMARK SMILES IDX 80 23 79 24 35 26 67 27 47 28 66 29 48 30 51 31 65 32 84 33
REMARK SMILES IDX 49 34 50 35 64 37 85 38 52 39 36 40 37 41 45 42 38 43 40 44
REMARK SMILES IDX 46 45 39 46 41 47 42 48 43 49 44 50 68 51 69 52 77 53 70 54
REMARK SMILES IDX 72 55 78 56 71 57 73 58 74 59 75 60 76 61 53 62 54 63 62 64
REMARK SMILES IDX 55 65 57 66 63 67 56 68 58 69 59 70 60 71 61 72 8 73 9 74
REMARK SMILES IDX 10 75 11 76 12 77 13 78 14 79 15 80 16 81 25 82 17 83 24 84
REMARK SMILES IDX 23 85 26 86 18 88 19 89 22 90 20 91 21 92
REMARK H PARENT 83 25 51 36 26 87
REMARK Flexibility Score: inf
ROOT
ATOM      1  C   UNL A   1      40.916  20.035  26.548  1.00  0.00     0.188 C 
ENDROOT
BRANCH   1   2
ATOM      2  O   UNL A   1      41.761  19.759  25.442  1.00  0.00    -0.376 OA
BRANCH   2   3
ATOM      3  C   UNL A   1      43.119  19.463  25.672  1.00  0.00     0.202 C 
BRANCH   3   4
ATOM      4  C   UNL A   1      44.155  20.539  25.296  1.00  0.00     0.261 C 
BRANCH   4   5
ATOM      5  O   UNL A   1      43.932  21.840  25.881  1.00  0.00    -0.460 OA
BRANCH   5   6
ATOM      6  C   UNL A   1      43.404  22.990  25.412  1.00  0.00     0.338 C 
ATOM      7  O   UNL A   1      43.141  23.075  24.215  1.00  0.00    -0.246 OA
BRANCH   6   8
ATOM      8  C   UNL A   1      43.163  24.171  26.275  1.00  0.00     0.060 A 
ATOM      9  C   UNL A   1      42.683  24.090  27.578  1.00  0.00     0.016 A 
ATOM     10  C   UNL A   1      43.505  25.433  25.760  1.00  0.00     0.016 A 
ATOM     11  C   UNL A   1      42.412  25.226  28.312  1.00  0.00     0.010 A 
ATOM     12  C   UNL A   1      43.272  26.588  26.506  1.00  0.00     0.010 A 
ATOM     13  C   UNL A   1      42.681  26.475  27.763  1.00  0.00    -0.014 A 
BRANCH  13  14
ATOM     14  C   UNL A   1      42.321  27.634  28.595  1.00  0.00     0.031 A 
ATOM     15  C   UNL A   1      43.278  27.812  29.772  1.00  0.00     0.074 A 
ATOM     16  C   UNL A   1      41.138  28.235  28.271  1.00  0.00     0.049 A 
ATOM     17  N   UNL A   1      43.024  28.042  31.028  1.00  0.00    -0.248 NA
ATOM     18  C   UNL A   1      44.718  27.527  29.553  1.00  0.00     0.031 C 
ATOM     19  C   UNL A   1      40.342  27.916  27.065  1.00  0.00     0.029 A 
ATOM     20  N   UNL A   1      40.359  29.202  28.865  1.00  0.00    -0.354 N 
ATOM     21  C   UNL A   1      44.274  28.180  31.675  1.00  0.00     0.074 A 
ATOM     22  C   UNL A   1      45.256  27.668  30.766  1.00  0.00     0.031 C 
ATOM     23  C   UNL A   1      39.191  28.616  27.048  1.00  0.00     0.029 A 
ATOM     24  C   UNL A   1      39.127  29.462  28.225  1.00  0.00     0.049 A 
ATOM     25  H   UNL A   1      40.640  29.679  29.679  1.00  0.00     0.167 HD
ATOM     26  C   UNL A   1      44.439  28.879  32.839  1.00  0.00     0.034 A 
ATOM     27  C   UNL A   1      38.091  30.262  28.622  1.00  0.00     0.034 A 
ATOM     28  C   UNL A   1      43.191  29.456  33.229  1.00  0.00     0.049 A 
ATOM     29  C   UNL A   1      38.515  30.886  29.883  1.00  0.00     0.074 A 
ATOM     30  C   UNL A   1      42.064  29.012  33.865  1.00  0.00     0.029 A 
ATOM     31  N   UNL A   1      42.947  30.702  32.704  1.00  0.00    -0.354 N 
ATOM     32  N   UNL A   1      39.370  31.861  29.977  1.00  0.00    -0.248 NA
ATOM     33  C   UNL A   1      38.047  30.313  31.152  1.00  0.00     0.031 C 
ATOM     34  C   UNL A   1      41.042  29.893  33.443  1.00  0.00     0.029 A 
ATOM     35  C   UNL A   1      41.590  30.859  32.592  1.00  0.00     0.049 A 
ATOM     36  H   UNL A   1      43.629  31.366  32.453  1.00  0.00     0.167 HD
ATOM     37  C   UNL A   1      39.793  31.754  31.281  1.00  0.00     0.074 A 
ATOM     38  C   UNL A   1      38.747  31.064  31.996  1.00  0.00     0.031 C 
ATOM     39  C   UNL A   1      41.122  31.760  31.561  1.00  0.00     0.034 A 
BRANCH  26  40
ATOM     40  C   UNL A   1      45.659  29.388  33.591  1.00  0.00     0.023 A 
ATOM     41  C   UNL A   1      46.173  28.501  34.585  1.00  0.00     0.012 A 
ATOM     42  C   UNL A   1      46.161  30.701  33.602  1.00  0.00     0.148 A 
ATOM     43  C   UNL A   1      47.027  28.917  35.605  1.00  0.00     0.002 A 
ATOM     44  C   UNL A   1      47.068  31.100  34.594  1.00  0.00     0.091 A 
ATOM     45  F   UNL A   1      45.711  31.595  32.717  1.00  0.00    -0.205 F 
ATOM     46  C   UNL A   1      47.466  30.226  35.615  1.00  0.00     0.022 A 
BRANCH  44  47
ATOM     47  S   UNL A   1      47.796  32.744  34.629  1.00  0.00     0.127 S 
ATOM     48  O   UNL A   1      46.623  33.595  34.806  1.00  0.00    -0.237 OA
ATOM     49  O   UNL A   1      48.671  32.669  35.803  1.00  0.00    -0.237 OA
ATOM     50  O   UNL A   1      48.516  32.873  33.370  1.00  0.00    -0.744 OA
ENDBRANCH  44  47
ENDBRANCH  26  40
BRANCH  27  51
ATOM     51  C   UNL A   1      36.681  30.507  28.145  1.00  0.00     0.023 A 
ATOM     52  C   UNL A   1      35.818  29.489  27.711  1.00  0.00     0.012 A 
ATOM     53  C   UNL A   1      36.140  31.825  28.133  1.00  0.00     0.148 A 
ATOM     54  C   UNL A   1      34.471  29.752  27.394  1.00  0.00     0.002 A 
ATOM     55  C   UNL A   1      34.792  32.074  27.905  1.00  0.00     0.091 A 
ATOM     56  F   UNL A   1      36.946  32.876  28.309  1.00  0.00    -0.205 F 
ATOM     57  C   UNL A   1      33.947  31.035  27.528  1.00  0.00     0.022 A 
BRANCH  55  58
ATOM     58  S   UNL A   1      34.062  33.698  28.198  1.00  0.00     0.127 S 
ATOM     59  O   UNL A   1      32.681  33.501  27.765  1.00  0.00    -0.237 OA
ATOM     60  O   UNL A   1      34.241  33.842  29.643  1.00  0.00    -0.237 OA
ATOM     61  O   UNL A   1      34.833  34.645  27.402  1.00  0.00    -0.744 OA
ENDBRANCH  55  58
ENDBRANCH  27  51
BRANCH  39  62
ATOM     62  C   UNL A   1      41.976  32.403  30.468  1.00  0.00     0.023 A 
ATOM     63  C   UNL A   1      42.812  31.570  29.704  1.00  0.00     0.012 A 
ATOM     64  C   UNL A   1      42.101  33.799  30.277  1.00  0.00     0.148 A 
ATOM     65  C   UNL A   1      43.741  32.103  28.805  1.00  0.00     0.002 A 
ATOM     66  C   UNL A   1      43.037  34.336  29.391  1.00  0.00     0.091 A 
ATOM     67  F   UNL A   1      41.303  34.602  30.972  1.00  0.00    -0.205 F 
ATOM     68  C   UNL A   1      43.859  33.481  28.651  1.00  0.00     0.022 A 
BRANCH  66  69
ATOM     69  S   UNL A   1      43.318  36.108  29.186  1.00  0.00     0.127 S 
ATOM     70  O   UNL A   1      42.021  36.579  28.694  1.00  0.00    -0.237 OA
ATOM     71  O   UNL A   1      43.631  36.527  30.549  1.00  0.00    -0.237 OA
ATOM     72  O   UNL A   1      44.403  36.256  28.224  1.00  0.00    -0.744 OA
ENDBRANCH  66  69
ENDBRANCH  39  62
ENDBRANCH  13  14
ENDBRANCH   6   8
ENDBRANCH   5   6
ENDBRANCH   4   5
ENDBRANCH   3   4
ENDBRANCH   2   3
ENDBRANCH   1   2
BRANCH   1  73
ATOM     73  C   UNL A   1      40.379  21.484  26.507  1.00  0.00     0.188 C 
BRANCH  73  74
ATOM     74  O   UNL A   1      38.981  21.715  26.336  1.00  0.00    -0.376 OA
BRANCH  74  75
ATOM     75  C   UNL A   1      38.499  23.042  26.204  1.00  0.00     0.202 C 
BRANCH  75  76
ATOM     76  C   UNL A   1      37.029  23.217  25.826  1.00  0.00     0.261 C 
BRANCH  76  77
ATOM     77  O   UNL A   1      36.396  22.034  25.321  1.00  0.00    -0.460 OA
BRANCH  77  78
ATOM     78  C   UNL A   1      35.171  21.771  25.827  1.00  0.00     0.342 C 
ATOM     79  O   UNL A   1      34.869  21.631  27.012  1.00  0.00    -0.246 OA
BRANCH  78  80
ATOM     80  C   UNL A   1      34.169  21.741  24.755  1.00  0.00     0.103 A 
ATOM     81  C   UNL A   1      33.838  22.934  24.096  1.00  0.00     0.046 A 
ATOM     82  C   UNL A   1      33.458  20.568  24.487  1.00  0.00     0.130 A 
ATOM     83  C   UNL A   1      32.750  22.949  23.219  1.00  0.00     0.046 A 
ATOM     84  C   UNL A   1      32.372  20.592  23.611  1.00  0.00     0.049 A 
ATOM     85  C   UNL A   1      31.995  21.791  23.000  1.00  0.00     0.030 A 
BRANCH  82  86
ATOM     86  O   UNL A   1      33.808  19.398  25.100  1.00  0.00    -0.507 OA
ATOM     87  H   UNL A   1      34.066  19.399  26.001  1.00  0.00     0.293 HD
ENDBRANCH  82  86
BRANCH  83  88
ATOM     88  N   UNL A   1      32.405  24.138  22.539  1.00  0.00    -0.324 N 
ATOM     89  C   UNL A   1      33.158  24.756  21.564  1.00  0.00     0.091 A 
ATOM     90  C   UNL A   1      31.286  24.904  22.775  1.00  0.00     0.091 A 
ATOM     91  C   UNL A   1      32.529  25.927  21.203  1.00  0.00     0.020 A 
ATOM     92  C   UNL A   1      31.367  26.042  22.000  1.00  0.00     0.020 A 
ENDBRANCH  83  88
ENDBRANCH  78  80
ENDBRANCH  77  78
ENDBRANCH  76  77
ENDBRANCH  75  76
ENDBRANCH  74  75
ENDBRANCH  73  74
ENDBRANCH   1  73
TORSDOF 22
ENDMDL
