MODEL 1
REMARK VINA RESULT:     -11.2      0.000      0.000
REMARK SMILES O=C(Cc1cncnc1N1CCC2(CC1)OCCC[C@@H]2O)OCCOCCOCCOC(=O)c1ccc(-c2c3nc(c(-c4cccc(S(=O)(=O)[O-])c4F)c4ccc([nH]4)c(-c4cccc(S(=O)(=O)[O-])c4F)c4nc(c(-c5cccc(S(=O)(=O)[O-])c5F)c5ccc2[nH]5)C=C4)C=C3)cc1
REMARK SMILES IDX 26 1 25 2 24 3 23 4 22 5 2 6 1 7 3 8 4 9 5 10 9 11 6 12 8 13
REMARK SMILES IDX 7 14 10 15 11 16 15 17 12 18 14 19 13 20 16 21 20 22 17 23
REMARK SMILES IDX 19 24 18 25 21 26 27 28 28 29 29 30 30 31 31 32 32 33 33 34
REMARK SMILES IDX 34 35 35 36 96 37 36 38 95 39 37 40 38 41 39 42 89 43 40 44
REMARK SMILES IDX 94 45 88 46 90 47 41 48 93 49 87 50 86 51 42 53 74 54 54 55
REMARK SMILES IDX 73 56 55 57 58 58 72 59 91 60 56 61 57 62 71 64 92 65 59 66
REMARK SMILES IDX 43 67 44 68 52 69 45 70 47 71 53 72 46 73 48 74 49 75 50 76
REMARK SMILES IDX 51 77 75 78 76 79 84 80 77 81 79 82 85 83 78 84 80 85 81 86
REMARK SMILES IDX 82 87 83 88 60 89 61 90 69 91 62 92 64 93 70 94 63 95 65 96
REMARK SMILES IDX 66 97 67 98 68 99
REMARK H PARENT 21 27 90 52 58 63
REMARK Flexibility Score: inf
ROOT
ATOM      1  C   UNL A   1      33.304  27.592  22.422  1.00  0.00     0.188 C 
ENDROOT
BRANCH   1   2
ATOM      2  O   UNL A   1      33.606  26.517  21.556  1.00  0.00    -0.376 OA
BRANCH   2   3
ATOM      3  C   UNL A   1      32.693  25.449  21.367  1.00  0.00     0.202 C 
BRANCH   3   4
ATOM      4  C   UNL A   1      33.195  24.010  21.518  1.00  0.00     0.261 C 
BRANCH   4   5
ATOM      5  O   UNL A   1      33.644  23.514  22.801  1.00  0.00    -0.463 OA
BRANCH   5   6
ATOM      6  C   UNL A   1      34.730  23.869  23.520  1.00  0.00     0.310 C 
ATOM      7  O   UNL A   1      35.828  23.940  22.970  1.00  0.00    -0.252 OA
BRANCH   6   8
ATOM      8  C   UNL A   1      34.604  23.991  25.010  1.00  0.00     0.163 C 
BRANCH   8   9
ATOM      9  C   UNL A   1      33.213  24.212  25.500  1.00  0.00     0.024 A 
ATOM     10  C   UNL A   1      32.678  25.486  25.577  1.00  0.00     0.121 A 
ATOM     11  C   UNL A   1      32.333  23.161  25.730  1.00  0.00     0.135 A 
ATOM     12  N   UNL A   1      31.401  25.749  25.882  1.00  0.00    -0.244 NA
ATOM     13  N   UNL A   1      31.049  23.390  26.040  1.00  0.00    -0.219 NA
ATOM     14  C   UNL A   1      30.640  24.666  26.094  1.00  0.00     0.224 A 
BRANCH  11  15
ATOM     15  N   UNL A   1      32.751  21.858  25.507  1.00  0.00    -0.356 N 
ATOM     16  C   UNL A   1      31.856  21.001  24.736  1.00  0.00     0.121 C 
ATOM     17  C   UNL A   1      33.495  21.168  26.555  1.00  0.00     0.121 C 
ATOM     18  C   UNL A   1      32.729  19.972  24.020  1.00  0.00     0.060 C 
ATOM     19  C   UNL A   1      34.429  20.160  25.879  1.00  0.00     0.060 C 
ATOM     20  C   UNL A   1      33.648  19.175  24.981  1.00  0.00     0.097 C 
ATOM     21  O   UNL A   1      32.883  18.370  25.901  1.00  0.00    -0.372 OA
ATOM     22  C   UNL A   1      34.636  18.292  24.153  1.00  0.00     0.146 C 
ATOM     23  C   UNL A   1      32.189  17.280  25.305  1.00  0.00     0.161 C 
ATOM     24  C   UNL A   1      33.972  17.043  23.584  1.00  0.00     0.037 C 
ATOM     25  C   UNL A   1      33.147  16.314  24.630  1.00  0.00     0.031 C 
BRANCH  22  26
ATOM     26  O   UNL A   1      35.758  17.847  24.927  1.00  0.00    -0.390 OA
ATOM     27  H   UNL A   1      36.144  17.058  24.516  1.00  0.00     0.211 HD
ENDBRANCH  22  26
ENDBRANCH  11  15
ENDBRANCH   8   9
ENDBRANCH   6   8
ENDBRANCH   5   6
ENDBRANCH   4   5
ENDBRANCH   3   4
ENDBRANCH   2   3
ENDBRANCH   1   2
BRANCH   1  28
ATOM     28  C   UNL A   1      31.807  27.726  22.747  1.00  0.00     0.188 C 
BRANCH  28  29
ATOM     29  O   UNL A   1      31.322  28.985  23.190  1.00  0.00    -0.376 OA
BRANCH  29  30
ATOM     30  C   UNL A   1      31.245  29.219  24.596  1.00  0.00     0.202 C 
BRANCH  30  31
ATOM     31  C   UNL A   1      32.416  29.915  25.314  1.00  0.00     0.261 C 
BRANCH  31  32
ATOM     32  O   UNL A   1      32.187  30.295  26.689  1.00  0.00    -0.460 OA
BRANCH  32  33
ATOM     33  C   UNL A   1      32.842  31.402  27.112  1.00  0.00     0.338 C 
ATOM     34  O   UNL A   1      32.368  32.533  27.224  1.00  0.00    -0.246 OA
BRANCH  33  35
ATOM     35  C   UNL A   1      34.214  31.093  27.559  1.00  0.00     0.060 A 
ATOM     36  C   UNL A   1      34.536  29.768  27.878  1.00  0.00     0.016 A 
ATOM     37  C   UNL A   1      35.139  32.111  27.804  1.00  0.00     0.016 A 
ATOM     38  C   UNL A   1      35.779  29.463  28.445  1.00  0.00     0.010 A 
ATOM     39  C   UNL A   1      36.377  31.803  28.394  1.00  0.00     0.010 A 
ATOM     40  C   UNL A   1      36.711  30.477  28.725  1.00  0.00    -0.014 A 
BRANCH  40  41
ATOM     41  C   UNL A   1      37.989  30.147  29.424  1.00  0.00     0.031 A 
ATOM     42  C   UNL A   1      38.121  30.402  30.903  1.00  0.00     0.074 A 
ATOM     43  C   UNL A   1      39.029  29.596  28.762  1.00  0.00     0.049 A 
ATOM     44  N   UNL A   1      39.069  30.029  31.724  1.00  0.00    -0.248 NA
ATOM     45  C   UNL A   1      37.054  31.197  31.533  1.00  0.00     0.031 C 
ATOM     46  C   UNL A   1      39.033  29.283  27.337  1.00  0.00     0.029 A 
ATOM     47  N   UNL A   1      40.246  29.119  29.211  1.00  0.00    -0.354 N 
ATOM     48  C   UNL A   1      38.776  30.640  32.938  1.00  0.00     0.074 A 
ATOM     49  C   UNL A   1      37.505  31.314  32.775  1.00  0.00     0.031 C 
ATOM     50  C   UNL A   1      40.126  28.555  27.054  1.00  0.00     0.029 A 
ATOM     51  C   UNL A   1      40.907  28.347  28.272  1.00  0.00     0.049 A 
ATOM     52  H   UNL A   1      40.605  29.308  30.107  1.00  0.00     0.167 HD
ATOM     53  C   UNL A   1      39.527  30.696  34.063  1.00  0.00     0.034 A 
ATOM     54  C   UNL A   1      41.950  27.494  28.414  1.00  0.00     0.034 A 
ATOM     55  C   UNL A   1      40.781  30.021  34.252  1.00  0.00     0.049 A 
ATOM     56  C   UNL A   1      42.660  27.413  29.747  1.00  0.00     0.074 A 
ATOM     57  C   UNL A   1      41.620  30.061  35.355  1.00  0.00     0.029 A 
ATOM     58  N   UNL A   1      41.389  29.199  33.320  1.00  0.00    -0.354 N 
ATOM     59  N   UNL A   1      42.293  27.868  30.918  1.00  0.00    -0.248 NA
ATOM     60  C   UNL A   1      43.944  26.688  29.760  1.00  0.00     0.031 C 
ATOM     61  C   UNL A   1      42.752  29.291  35.074  1.00  0.00     0.029 A 
ATOM     62  C   UNL A   1      42.606  28.753  33.806  1.00  0.00     0.049 A 
ATOM     63  H   UNL A   1      41.011  28.966  32.441  1.00  0.00     0.167 HD
ATOM     64  C   UNL A   1      43.318  27.518  31.795  1.00  0.00     0.074 A 
ATOM     65  C   UNL A   1      44.254  26.707  31.048  1.00  0.00     0.031 C 
ATOM     66  C   UNL A   1      43.514  27.909  33.079  1.00  0.00     0.034 A 
BRANCH  53  67
ATOM     67  C   UNL A   1      39.068  31.611  35.163  1.00  0.00     0.023 A 
ATOM     68  C   UNL A   1      38.208  31.149  36.175  1.00  0.00     0.012 A 
ATOM     69  C   UNL A   1      39.583  32.923  35.227  1.00  0.00     0.148 A 
ATOM     70  C   UNL A   1      37.858  31.988  37.234  1.00  0.00     0.002 A 
ATOM     71  C   UNL A   1      39.263  33.737  36.303  1.00  0.00     0.091 A 
ATOM     72  F   UNL A   1      40.381  33.342  34.234  1.00  0.00    -0.205 F 
ATOM     73  C   UNL A   1      38.395  33.274  37.304  1.00  0.00     0.022 A 
BRANCH  71  74
ATOM     74  S   UNL A   1      39.966  35.375  36.516  1.00  0.00     0.127 S 
ATOM     75  O   UNL A   1      39.388  36.092  35.381  1.00  0.00    -0.237 OA
ATOM     76  O   UNL A   1      39.436  35.768  37.822  1.00  0.00    -0.237 OA
ATOM     77  O   UNL A   1      41.412  35.204  36.470  1.00  0.00    -0.744 OA
ENDBRANCH  71  74
ENDBRANCH  53  67
BRANCH  54  78
ATOM     78  C   UNL A   1      42.308  26.501  27.346  1.00  0.00     0.023 A 
ATOM     79  C   UNL A   1      43.230  26.897  26.348  1.00  0.00     0.012 A 
ATOM     80  C   UNL A   1      41.796  25.197  27.285  1.00  0.00     0.148 A 
ATOM     81  C   UNL A   1      43.633  26.027  25.334  1.00  0.00     0.002 A 
ATOM     82  C   UNL A   1      42.259  24.307  26.315  1.00  0.00     0.091 A 
ATOM     83  F   UNL A   1      40.859  24.826  28.169  1.00  0.00    -0.205 F 
ATOM     84  C   UNL A   1      43.164  24.721  25.329  1.00  0.00     0.022 A 
BRANCH  82  85
ATOM     85  S   UNL A   1      41.803  22.573  26.402  1.00  0.00     0.127 S 
ATOM     86  O   UNL A   1      42.451  22.023  25.217  1.00  0.00    -0.237 OA
ATOM     87  O   UNL A   1      42.381  22.145  27.675  1.00  0.00    -0.237 OA
ATOM     88  O   UNL A   1      40.343  22.605  26.395  1.00  0.00    -0.744 OA
ENDBRANCH  82  85
ENDBRANCH  54  78
BRANCH  66  89
ATOM     89  C   UNL A   1      44.829  27.552  33.732  1.00  0.00     0.023 A 
ATOM     90  C   UNL A   1      45.908  28.455  33.608  1.00  0.00     0.012 A 
ATOM     91  C   UNL A   1      44.984  26.407  34.538  1.00  0.00     0.148 A 
ATOM     92  C   UNL A   1      47.126  28.209  34.237  1.00  0.00     0.002 A 
ATOM     93  C   UNL A   1      46.189  26.193  35.203  1.00  0.00     0.091 A 
ATOM     94  F   UNL A   1      43.955  25.556  34.646  1.00  0.00    -0.205 F 
ATOM     95  C   UNL A   1      47.263  27.085  35.043  1.00  0.00     0.022 A 
BRANCH  93  96
ATOM     96  S   UNL A   1      46.444  24.826  36.343  1.00  0.00     0.127 S 
ATOM     97  O   UNL A   1      45.990  23.686  35.546  1.00  0.00    -0.237 OA
ATOM     98  O   UNL A   1      47.888  24.876  36.567  1.00  0.00    -0.237 OA
ATOM     99  O   UNL A   1      45.635  25.124  37.517  1.00  0.00    -0.744 OA
ENDBRANCH  93  96
ENDBRANCH  66  89
ENDBRANCH  40  41
ENDBRANCH  33  35
ENDBRANCH  32  33
ENDBRANCH  31  32
ENDBRANCH  30  31
ENDBRANCH  29  30
ENDBRANCH  28  29
ENDBRANCH   1  28
TORSDOF 23
ENDMDL
MODEL 2
REMARK VINA RESULT:     -10.6      0.541      7.311
REMARK SMILES O=C(Cc1cncnc1N1CCC2(CC1)OCCC[C@@H]2O)OCCOCCOCCOC(=O)c1ccc(-c2c3nc(c(-c4cccc(S(=O)(=O)[O-])c4F)c4ccc([nH]4)c(-c4cccc(S(=O)(=O)[O-])c4F)c4nc(c(-c5cccc(S(=O)(=O)[O-])c5F)c5ccc2[nH]5)C=C4)C=C3)cc1
REMARK SMILES IDX 26 1 25 2 24 3 23 4 22 5 2 6 1 7 3 8 4 9 5 10 9 11 6 12 8 13
REMARK SMILES IDX 7 14 10 15 11 16 15 17 12 18 14 19 13 20 16 21 20 22 17 23
REMARK SMILES IDX 19 24 18 25 21 26 27 28 28 29 29 30 30 31 31 32 32 33 33 34
REMARK SMILES IDX 34 35 35 36 96 37 36 38 95 39 37 40 38 41 39 42 89 43 40 44
REMARK SMILES IDX 94 45 88 46 90 47 41 48 93 49 87 50 86 51 42 53 74 54 54 55
REMARK SMILES IDX 73 56 55 57 58 58 72 59 91 60 56 61 57 62 71 64 92 65 59 66
REMARK SMILES IDX 43 67 44 68 52 69 45 70 47 71 53 72 46 73 48 74 49 75 50 76
REMARK SMILES IDX 51 77 75 78 76 79 84 80 77 81 79 82 85 83 78 84 80 85 81 86
REMARK SMILES IDX 82 87 83 88 60 89 61 90 69 91 62 92 64 93 70 94 63 95 65 96
REMARK SMILES IDX 66 97 67 98 68 99
REMARK H PARENT 21 27 90 52 58 63
REMARK Flexibility Score: inf
ROOT
ATOM      1  C   UNL A   1      33.638  27.080  22.525  1.00  0.00     0.188 C 
ENDROOT
BRANCH   1   2
ATOM      2  O   UNL A   1      33.616  26.402  21.285  1.00  0.00    -0.376 OA
BRANCH   2   3
ATOM      3  C   UNL A   1      32.679  25.370  21.030  1.00  0.00     0.202 C 
BRANCH   3   4
ATOM      4  C   UNL A   1      33.049  23.928  21.386  1.00  0.00     0.261 C 
BRANCH   4   5
ATOM      5  O   UNL A   1      33.431  23.574  22.737  1.00  0.00    -0.463 OA
BRANCH   5   6
ATOM      6  C   UNL A   1      34.640  23.661  23.332  1.00  0.00     0.310 C 
ATOM      7  O   UNL A   1      35.646  23.309  22.720  1.00  0.00    -0.252 OA
BRANCH   6   8
ATOM      8  C   UNL A   1      34.706  24.014  24.788  1.00  0.00     0.163 C 
BRANCH   8   9
ATOM      9  C   UNL A   1      33.382  24.267  25.428  1.00  0.00     0.024 A 
ATOM     10  C   UNL A   1      32.882  25.552  25.546  1.00  0.00     0.121 A 
ATOM     11  C   UNL A   1      32.516  23.236  25.768  1.00  0.00     0.135 A 
ATOM     12  N   UNL A   1      31.651  25.842  25.988  1.00  0.00    -0.244 NA
ATOM     13  N   UNL A   1      31.278  23.491  26.217  1.00  0.00    -0.219 NA
ATOM     14  C   UNL A   1      30.901  24.776  26.298  1.00  0.00     0.224 A 
BRANCH  11  15
ATOM     15  N   UNL A   1      32.884  21.923  25.518  1.00  0.00    -0.356 N 
ATOM     16  C   UNL A   1      31.939  21.106  24.764  1.00  0.00     0.121 C 
ATOM     17  C   UNL A   1      33.634  21.195  26.536  1.00  0.00     0.121 C 
ATOM     18  C   UNL A   1      32.756  20.058  24.010  1.00  0.00     0.060 C 
ATOM     19  C   UNL A   1      34.514  20.165  25.821  1.00  0.00     0.060 C 
ATOM     20  C   UNL A   1      33.676  19.218  24.935  1.00  0.00     0.097 C 
ATOM     21  O   UNL A   1      32.911  18.427  25.866  1.00  0.00    -0.372 OA
ATOM     22  C   UNL A   1      34.611  18.314  24.067  1.00  0.00     0.146 C 
ATOM     23  C   UNL A   1      32.165  17.368  25.278  1.00  0.00     0.161 C 
ATOM     24  C   UNL A   1      33.889  17.095  23.504  1.00  0.00     0.037 C 
ATOM     25  C   UNL A   1      33.070  16.380  24.565  1.00  0.00     0.031 C 
BRANCH  22  26
ATOM     26  O   UNL A   1      35.739  17.823  24.804  1.00  0.00    -0.390 OA
ATOM     27  H   UNL A   1      35.512  16.975  25.217  1.00  0.00     0.211 HD
ENDBRANCH  22  26
ENDBRANCH  11  15
ENDBRANCH   8   9
ENDBRANCH   6   8
ENDBRANCH   5   6
ENDBRANCH   4   5
ENDBRANCH   3   4
ENDBRANCH   2   3
ENDBRANCH   1   2
BRANCH   1  28
ATOM     28  C   UNL A   1      33.674  28.612  22.395  1.00  0.00     0.188 C 
BRANCH  28  29
ATOM     29  O   UNL A   1      32.647  29.368  23.020  1.00  0.00    -0.376 OA
BRANCH  29  30
ATOM     30  C   UNL A   1      32.345  29.090  24.387  1.00  0.00     0.202 C 
BRANCH  30  31
ATOM     31  C   UNL A   1      33.094  29.849  25.499  1.00  0.00     0.261 C 
BRANCH  31  32
ATOM     32  O   UNL A   1      32.286  30.680  26.361  1.00  0.00    -0.460 OA
BRANCH  32  33
ATOM     33  C   UNL A   1      32.941  31.672  27.008  1.00  0.00     0.338 C 
ATOM     34  O   UNL A   1      32.525  32.814  27.206  1.00  0.00    -0.246 OA
BRANCH  33  35
ATOM     35  C   UNL A   1      34.217  31.205  27.585  1.00  0.00     0.060 A 
ATOM     36  C   UNL A   1      34.349  29.852  27.919  1.00  0.00     0.016 A 
ATOM     37  C   UNL A   1      35.225  32.108  27.931  1.00  0.00     0.016 A 
ATOM     38  C   UNL A   1      35.485  29.403  28.602  1.00  0.00     0.010 A 
ATOM     39  C   UNL A   1      36.354  31.657  28.636  1.00  0.00     0.010 A 
ATOM     40  C   UNL A   1      36.497  30.302  28.984  1.00  0.00    -0.014 A 
BRANCH  40  41
ATOM     41  C   UNL A   1      37.652  29.825  29.802  1.00  0.00     0.031 A 
ATOM     42  C   UNL A   1      38.800  29.113  29.134  1.00  0.00     0.074 A 
ATOM     43  C   UNL A   1      37.704  30.039  31.134  1.00  0.00     0.049 A 
ATOM     44  N   UNL A   1      39.964  28.779  29.628  1.00  0.00    -0.248 NA
ATOM     45  C   UNL A   1      38.600  28.712  27.732  1.00  0.00     0.031 C 
ATOM     46  C   UNL A   1      36.673  30.725  31.905  1.00  0.00     0.029 A 
ATOM     47  N   UNL A   1      38.699  29.787  32.060  1.00  0.00    -0.354 N 
ATOM     48  C   UNL A   1      40.589  28.027  28.640  1.00  0.00     0.074 A 
ATOM     49  C   UNL A   1      39.723  28.051  27.480  1.00  0.00     0.031 C 
ATOM     50  C   UNL A   1      37.136  30.956  33.145  1.00  0.00     0.029 A 
ATOM     51  C   UNL A   1      38.498  30.436  33.265  1.00  0.00     0.049 A 
ATOM     52  H   UNL A   1      39.472  29.205  31.880  1.00  0.00     0.167 HD
ATOM     53  C   UNL A   1      41.743  27.322  28.712  1.00  0.00     0.034 A 
ATOM     54  C   UNL A   1      39.352  30.669  34.290  1.00  0.00     0.034 A 
ATOM     55  C   UNL A   1      42.626  27.299  29.845  1.00  0.00     0.049 A 
ATOM     56  C   UNL A   1      40.726  30.038  34.263  1.00  0.00     0.074 A 
ATOM     57  C   UNL A   1      43.798  26.577  30.006  1.00  0.00     0.029 A 
ATOM     58  N   UNL A   1      42.435  28.011  31.015  1.00  0.00    -0.354 N 
ATOM     59  N   UNL A   1      41.362  29.463  33.274  1.00  0.00    -0.248 NA
ATOM     60  C   UNL A   1      41.496  30.096  35.519  1.00  0.00     0.031 C 
ATOM     61  C   UNL A   1      44.295  26.826  31.288  1.00  0.00     0.029 A 
ATOM     62  C   UNL A   1      43.446  27.721  31.915  1.00  0.00     0.049 A 
ATOM     63  H   UNL A   1      41.690  28.633  31.183  1.00  0.00     0.167 HD
ATOM     64  C   UNL A   1      42.587  29.059  33.800  1.00  0.00     0.074 A 
ATOM     65  C   UNL A   1      42.654  29.566  35.153  1.00  0.00     0.031 C 
ATOM     66  C   UNL A   1      43.535  28.262  33.244  1.00  0.00     0.034 A 
BRANCH  53  67
ATOM     67  C   UNL A   1      42.080  26.416  27.561  1.00  0.00     0.023 A 
ATOM     68  C   UNL A   1      42.932  26.847  26.530  1.00  0.00     0.012 A 
ATOM     69  C   UNL A   1      41.606  25.088  27.570  1.00  0.00     0.148 A 
ATOM     70  C   UNL A   1      43.301  25.966  25.512  1.00  0.00     0.002 A 
ATOM     71  C   UNL A   1      42.009  24.207  26.577  1.00  0.00     0.091 A 
ATOM     72  F   UNL A   1      40.775  24.715  28.554  1.00  0.00    -0.205 F 
ATOM     73  C   UNL A   1      42.851  24.645  25.543  1.00  0.00     0.022 A 
BRANCH  71  74
ATOM     74  S   UNL A   1      41.542  22.473  26.579  1.00  0.00     0.127 S 
ATOM     75  O   UNL A   1      40.118  22.552  26.259  1.00  0.00    -0.237 OA
ATOM     76  O   UNL A   1      42.380  21.929  25.511  1.00  0.00    -0.237 OA
ATOM     77  O   UNL A   1      41.852  21.973  27.912  1.00  0.00    -0.744 OA
ENDBRANCH  71  74
ENDBRANCH  53  67
BRANCH  54  78
ATOM     78  C   UNL A   1      39.043  31.676  35.361  1.00  0.00     0.023 A 
ATOM     79  C   UNL A   1      38.234  31.267  36.448  1.00  0.00     0.012 A 
ATOM     80  C   UNL A   1      39.520  32.994  35.359  1.00  0.00     0.148 A 
ATOM     81  C   UNL A   1      37.919  32.133  37.496  1.00  0.00     0.002 A 
ATOM     82  C   UNL A   1      39.267  33.833  36.445  1.00  0.00     0.091 A 
ATOM     83  F   UNL A   1      40.218  33.429  34.300  1.00  0.00    -0.205 F 
ATOM     84  C   UNL A   1      38.455  33.413  37.507  1.00  0.00     0.022 A 
BRANCH  82  85
ATOM     85  S   UNL A   1      40.096  35.421  36.560  1.00  0.00     0.127 S 
ATOM     86  O   UNL A   1      39.421  36.198  35.526  1.00  0.00    -0.237 OA
ATOM     87  O   UNL A   1      39.810  35.842  37.931  1.00  0.00    -0.237 OA
ATOM     88  O   UNL A   1      41.498  35.091  36.321  1.00  0.00    -0.744 OA
ENDBRANCH  82  85
ENDBRANCH  54  78
BRANCH  66  89
ATOM     89  C   UNL A   1      44.675  27.804  34.122  1.00  0.00     0.023 A 
ATOM     90  C   UNL A   1      45.841  28.599  34.180  1.00  0.00     0.012 A 
ATOM     91  C   UNL A   1      44.577  26.673  34.956  1.00  0.00     0.148 A 
ATOM     92  C   UNL A   1      46.901  28.259  35.016  1.00  0.00     0.002 A 
ATOM     93  C   UNL A   1      45.621  26.366  35.826  1.00  0.00     0.091 A 
ATOM     94  F   UNL A   1      43.467  25.924  34.890  1.00  0.00    -0.205 F 
ATOM     95  C   UNL A   1      46.787  27.150  35.847  1.00  0.00     0.022 A 
BRANCH  93  96
ATOM     96  S   UNL A   1      45.540  25.014  37.008  1.00  0.00     0.127 S 
ATOM     97  O   UNL A   1      44.261  25.272  37.668  1.00  0.00    -0.237 OA
ATOM     98  O   UNL A   1      45.550  23.840  36.135  1.00  0.00    -0.237 OA
ATOM     99  O   UNL A   1      46.716  25.151  37.856  1.00  0.00    -0.744 OA
ENDBRANCH  93  96
ENDBRANCH  66  89
ENDBRANCH  40  41
ENDBRANCH  33  35
ENDBRANCH  32  33
ENDBRANCH  31  32
ENDBRANCH  30  31
ENDBRANCH  29  30
ENDBRANCH  28  29
ENDBRANCH   1  28
TORSDOF 23
ENDMDL
MODEL 3
REMARK VINA RESULT:     -10.1      1.749      7.358
REMARK SMILES O=C(Cc1cncnc1N1CCC2(CC1)OCCC[C@@H]2O)OCCOCCOCCOC(=O)c1ccc(-c2c3nc(c(-c4cccc(S(=O)(=O)[O-])c4F)c4ccc([nH]4)c(-c4cccc(S(=O)(=O)[O-])c4F)c4nc(c(-c5cccc(S(=O)(=O)[O-])c5F)c5ccc2[nH]5)C=C4)C=C3)cc1
REMARK SMILES IDX 26 1 25 2 24 3 23 4 22 5 2 6 1 7 3 8 4 9 5 10 9 11 6 12 8 13
REMARK SMILES IDX 7 14 10 15 11 16 15 17 12 18 14 19 13 20 16 21 20 22 17 23
REMARK SMILES IDX 19 24 18 25 21 26 27 28 28 29 29 30 30 31 31 32 32 33 33 34
REMARK SMILES IDX 34 35 35 36 96 37 36 38 95 39 37 40 38 41 39 42 89 43 40 44
REMARK SMILES IDX 94 45 88 46 90 47 41 48 93 49 87 50 86 51 42 53 74 54 54 55
REMARK SMILES IDX 73 56 55 57 58 58 72 59 91 60 56 61 57 62 71 64 92 65 59 66
REMARK SMILES IDX 43 67 44 68 52 69 45 70 47 71 53 72 46 73 48 74 49 75 50 76
REMARK SMILES IDX 51 77 75 78 76 79 84 80 77 81 79 82 85 83 78 84 80 85 81 86
REMARK SMILES IDX 82 87 83 88 60 89 61 90 69 91 62 92 64 93 70 94 63 95 65 96
REMARK SMILES IDX 66 97 67 98 68 99
REMARK H PARENT 21 27 90 52 58 63
REMARK Flexibility Score: inf
ROOT
ATOM      1  C   UNL A   1      33.482  27.003  22.434  1.00  0.00     0.188 C 
ENDROOT
BRANCH   1   2
ATOM      2  O   UNL A   1      33.650  26.277  21.233  1.00  0.00    -0.376 OA
BRANCH   2   3
ATOM      3  C   UNL A   1      32.790  25.199  20.902  1.00  0.00     0.202 C 
BRANCH   3   4
ATOM      4  C   UNL A   1      33.115  23.801  21.435  1.00  0.00     0.261 C 
BRANCH   4   5
ATOM      5  O   UNL A   1      33.435  23.599  22.832  1.00  0.00    -0.463 OA
BRANCH   5   6
ATOM      6  C   UNL A   1      34.619  23.744  23.465  1.00  0.00     0.310 C 
ATOM      7  O   UNL A   1      35.663  23.478  22.872  1.00  0.00    -0.252 OA
BRANCH   6   8
ATOM      8  C   UNL A   1      34.621  24.050  24.934  1.00  0.00     0.163 C 
BRANCH   8   9
ATOM      9  C   UNL A   1      33.270  24.270  25.526  1.00  0.00     0.024 A 
ATOM     10  C   UNL A   1      32.739  25.544  25.635  1.00  0.00     0.121 A 
ATOM     11  C   UNL A   1      32.413  23.218  25.826  1.00  0.00     0.135 A 
ATOM     12  N   UNL A   1      31.487  25.805  26.033  1.00  0.00    -0.244 NA
ATOM     13  N   UNL A   1      31.155  23.445  26.230  1.00  0.00    -0.219 NA
ATOM     14  C   UNL A   1      30.748  24.721  26.308  1.00  0.00     0.224 A 
BRANCH  11  15
ATOM     15  N   UNL A   1      32.817  21.915  25.580  1.00  0.00    -0.356 N 
ATOM     16  C   UNL A   1      31.922  21.088  24.778  1.00  0.00     0.121 C 
ATOM     17  C   UNL A   1      33.538  21.192  26.622  1.00  0.00     0.121 C 
ATOM     18  C   UNL A   1      32.791  20.064  24.050  1.00  0.00     0.060 C 
ATOM     19  C   UNL A   1      34.468  20.187  25.936  1.00  0.00     0.060 C 
ATOM     20  C   UNL A   1      33.687  19.233  25.006  1.00  0.00     0.097 C 
ATOM     21  O   UNL A   1      32.898  18.418  25.896  1.00  0.00    -0.372 OA
ATOM     22  C   UNL A   1      34.675  18.355  24.171  1.00  0.00     0.146 C 
ATOM     23  C   UNL A   1      32.199  17.350  25.266  1.00  0.00     0.161 C 
ATOM     24  C   UNL A   1      34.003  17.128  23.566  1.00  0.00     0.037 C 
ATOM     25  C   UNL A   1      33.153  16.387  24.584  1.00  0.00     0.031 C 
BRANCH  22  26
ATOM     26  O   UNL A   1      35.780  17.879  24.951  1.00  0.00    -0.390 OA
ATOM     27  H   UNL A   1      36.613  18.149  24.532  1.00  0.00     0.211 HD
ENDBRANCH  22  26
ENDBRANCH  11  15
ENDBRANCH   8   9
ENDBRANCH   6   8
ENDBRANCH   5   6
ENDBRANCH   4   5
ENDBRANCH   3   4
ENDBRANCH   2   3
ENDBRANCH   1   2
BRANCH   1  28
ATOM     28  C   UNL A   1      33.798  28.502  22.303  1.00  0.00     0.188 C 
BRANCH  28  29
ATOM     29  O   UNL A   1      32.959  29.430  22.976  1.00  0.00    -0.376 OA
BRANCH  29  30
ATOM     30  C   UNL A   1      32.421  29.054  24.243  1.00  0.00     0.202 C 
BRANCH  30  31
ATOM     31  C   UNL A   1      32.994  29.681  25.528  1.00  0.00     0.261 C 
BRANCH  31  32
ATOM     32  O   UNL A   1      32.128  30.596  26.234  1.00  0.00    -0.460 OA
BRANCH  32  33
ATOM     33  C   UNL A   1      32.747  31.594  26.907  1.00  0.00     0.338 C 
ATOM     34  O   UNL A   1      32.290  32.715  27.133  1.00  0.00    -0.246 OA
BRANCH  33  35
ATOM     35  C   UNL A   1      34.037  31.158  27.476  1.00  0.00     0.060 A 
ATOM     36  C   UNL A   1      34.196  29.813  27.829  1.00  0.00     0.016 A 
ATOM     37  C   UNL A   1      35.034  32.082  27.796  1.00  0.00     0.016 A 
ATOM     38  C   UNL A   1      35.349  29.394  28.505  1.00  0.00     0.010 A 
ATOM     39  C   UNL A   1      36.179  31.662  28.494  1.00  0.00     0.010 A 
ATOM     40  C   UNL A   1      36.349  30.316  28.860  1.00  0.00    -0.014 A 
BRANCH  40  41
ATOM     41  C   UNL A   1      37.522  29.870  29.672  1.00  0.00     0.031 A 
ATOM     42  C   UNL A   1      38.705  29.233  28.990  1.00  0.00     0.074 A 
ATOM     43  C   UNL A   1      37.558  30.050  31.009  1.00  0.00     0.049 A 
ATOM     44  N   UNL A   1      39.882  28.941  29.481  1.00  0.00    -0.248 NA
ATOM     45  C   UNL A   1      38.531  28.862  27.576  1.00  0.00     0.031 C 
ATOM     46  C   UNL A   1      36.492  30.665  31.793  1.00  0.00     0.029 A 
ATOM     47  N   UNL A   1      38.560  29.819  31.933  1.00  0.00    -0.354 N 
ATOM     48  C   UNL A   1      40.546  28.247  28.476  1.00  0.00     0.074 A 
ATOM     49  C   UNL A   1      39.684  28.262  27.313  1.00  0.00     0.031 C 
ATOM     50  C   UNL A   1      36.939  30.882  33.041  1.00  0.00     0.029 A 
ATOM     51  C   UNL A   1      38.323  30.424  33.155  1.00  0.00     0.049 A 
ATOM     52  H   UNL A   1      39.361  29.280  31.741  1.00  0.00     0.167 HD
ATOM     53  C   UNL A   1      41.732  27.596  28.535  1.00  0.00     0.034 A 
ATOM     54  C   UNL A   1      39.161  30.669  34.190  1.00  0.00     0.034 A 
ATOM     55  C   UNL A   1      42.610  27.583  29.672  1.00  0.00     0.049 A 
ATOM     56  C   UNL A   1      40.563  30.104  34.154  1.00  0.00     0.074 A 
ATOM     57  C   UNL A   1      43.814  26.912  29.819  1.00  0.00     0.029 A 
ATOM     58  N   UNL A   1      42.380  28.252  30.860  1.00  0.00    -0.354 N 
ATOM     59  N   UNL A   1      41.230  29.588  33.153  1.00  0.00    -0.248 NA
ATOM     60  C   UNL A   1      41.325  30.163  35.415  1.00  0.00     0.031 C 
ATOM     61  C   UNL A   1      44.294  27.149  31.111  1.00  0.00     0.029 A 
ATOM     62  C   UNL A   1      43.400  27.985  31.758  1.00  0.00     0.049 A 
ATOM     63  H   UNL A   1      41.606  28.833  31.041  1.00  0.00     0.167 HD
ATOM     64  C   UNL A   1      42.471  29.228  33.674  1.00  0.00     0.074 A 
ATOM     65  C   UNL A   1      42.508  29.699  35.041  1.00  0.00     0.031 C 
ATOM     66  C   UNL A   1      43.458  28.493  33.102  1.00  0.00     0.034 A 
BRANCH  53  67
ATOM     67  C   UNL A   1      42.116  26.739  27.361  1.00  0.00     0.023 A 
ATOM     68  C   UNL A   1      42.850  27.274  26.288  1.00  0.00     0.012 A 
ATOM     69  C   UNL A   1      41.814  25.362  27.387  1.00  0.00     0.148 A 
ATOM     70  C   UNL A   1      43.270  26.445  25.246  1.00  0.00     0.002 A 
ATOM     71  C   UNL A   1      42.269  24.538  26.367  1.00  0.00     0.091 A 
ATOM     72  F   UNL A   1      41.091  24.888  28.412  1.00  0.00    -0.205 F 
ATOM     73  C   UNL A   1      42.991  25.079  25.293  1.00  0.00     0.022 A 
BRANCH  71  74
ATOM     74  S   UNL A   1      42.024  22.760  26.383  1.00  0.00     0.127 S 
ATOM     75  O   UNL A   1      40.566  22.664  26.379  1.00  0.00    -0.237 OA
ATOM     76  O   UNL A   1      42.667  22.352  25.135  1.00  0.00    -0.237 OA
ATOM     77  O   UNL A   1      42.675  22.273  27.592  1.00  0.00    -0.744 OA
ENDBRANCH  71  74
ENDBRANCH  53  67
BRANCH  54  78
ATOM     78  C   UNL A   1      38.800  31.629  35.287  1.00  0.00     0.023 A 
ATOM     79  C   UNL A   1      39.005  33.011  35.060  1.00  0.00     0.012 A 
ATOM     80  C   UNL A   1      38.257  31.242  36.521  1.00  0.00     0.148 A 
ATOM     81  C   UNL A   1      38.675  33.970  36.018  1.00  0.00     0.002 A 
ATOM     82  C   UNL A   1      37.858  32.208  37.445  1.00  0.00     0.091 A 
ATOM     83  F   UNL A   1      38.132  29.935  36.792  1.00  0.00    -0.205 F 
ATOM     84  C   UNL A   1      38.079  33.570  37.205  1.00  0.00     0.022 A 
BRANCH  82  85
ATOM     85  S   UNL A   1      36.926  31.721  38.901  1.00  0.00     0.127 S 
ATOM     86  O   UNL A   1      36.452  30.392  38.534  1.00  0.00    -0.237 OA
ATOM     87  O   UNL A   1      37.935  31.745  39.960  1.00  0.00    -0.237 OA
ATOM     88  O   UNL A   1      35.915  32.767  39.022  1.00  0.00    -0.744 OA
ENDBRANCH  82  85
ENDBRANCH  54  78
BRANCH  66  89
ATOM     89  C   UNL A   1      44.615  28.065  33.973  1.00  0.00     0.023 A 
ATOM     90  C   UNL A   1      44.450  26.934  34.802  1.00  0.00     0.012 A 
ATOM     91  C   UNL A   1      45.876  28.691  33.912  1.00  0.00     0.148 A 
ATOM     92  C   UNL A   1      45.500  26.457  35.583  1.00  0.00     0.002 A 
ATOM     93  C   UNL A   1      46.934  28.179  34.659  1.00  0.00     0.091 A 
ATOM     94  F   UNL A   1      46.019  29.765  33.124  1.00  0.00    -0.205 F 
ATOM     95  C   UNL A   1      46.744  27.072  35.503  1.00  0.00     0.022 A 
BRANCH  93  96
ATOM     96  S   UNL A   1      48.605  28.836  34.560  1.00  0.00     0.127 S 
ATOM     97  O   UNL A   1      48.910  29.086  35.968  1.00  0.00    -0.237 OA
ATOM     98  O   UNL A   1      49.341  27.720  33.965  1.00  0.00    -0.237 OA
ATOM     99  O   UNL A   1      48.521  30.025  33.722  1.00  0.00    -0.744 OA
ENDBRANCH  93  96
ENDBRANCH  66  89
ENDBRANCH  40  41
ENDBRANCH  33  35
ENDBRANCH  32  33
ENDBRANCH  31  32
ENDBRANCH  30  31
ENDBRANCH  29  30
ENDBRANCH  28  29
ENDBRANCH   1  28
TORSDOF 23
ENDMDL
