MODEL 1
REMARK VINA RESULT:     -10.5      0.000      0.000
REMARK SMILES O=C(OCCOCCOCCOC(=O)[C@@H]1CSc2ccccc21)c1ccc(-c2c3nc(c(-c4cccc(S(=O)(=O)[O-])c4F)c4ccc([nH]4)c(-c4cccc(S(=O)(=O)[O-])c4F)c4nc(c(-c5cccc(S(=O)(=O)[O-])c5F)c5ccc2[nH]5)C=C4)C=C3)cc1
REMARK SMILES IDX 6 1 5 2 4 3 3 4 2 5 1 6 24 7 25 8 86 9 26 10 85 11 27 12
REMARK SMILES IDX 28 13 29 14 79 15 30 16 84 17 78 18 80 19 31 20 83 21 77 22
REMARK SMILES IDX 76 23 32 25 64 26 44 27 63 28 45 29 48 30 62 31 81 32 46 33
REMARK SMILES IDX 47 34 61 36 82 37 49 38 33 39 34 40 42 41 35 42 37 43 43 44
REMARK SMILES IDX 36 45 38 46 39 47 40 48 41 49 65 50 66 51 74 52 67 53 69 54
REMARK SMILES IDX 75 55 68 56 70 57 71 58 72 59 73 60 50 61 51 62 59 63 52 64
REMARK SMILES IDX 54 65 60 66 53 67 55 68 56 69 57 70 58 71 7 72 8 73 9 74
REMARK SMILES IDX 10 75 11 76 12 77 13 78 14 79 15 80 16 81 23 82 17 83 18 84
REMARK SMILES IDX 22 85 19 86 21 87 20 88
REMARK H PARENT 80 24 48 35
REMARK Flexibility Score: inf
ROOT
ATOM      1  O   UNL A   1      31.282  28.461  26.210  1.00  0.00    -0.376 OA
ENDROOT
BRANCH   1   2
ATOM      2  C   UNL A   1      31.534  29.743  25.624  1.00  0.00     0.202 C 
BRANCH   2   3
ATOM      3  C   UNL A   1      32.301  30.743  26.508  1.00  0.00     0.261 C 
BRANCH   3   4
ATOM      4  O   UNL A   1      33.693  30.436  26.685  1.00  0.00    -0.460 OA
BRANCH   4   5
ATOM      5  C   UNL A   1      34.614  31.028  27.485  1.00  0.00     0.338 C 
ATOM      6  O   UNL A   1      34.471  32.232  27.712  1.00  0.00    -0.246 OA
BRANCH   5   7
ATOM      7  C   UNL A   1      35.819  30.343  28.066  1.00  0.00     0.060 A 
ATOM      8  C   UNL A   1      36.983  30.342  27.276  1.00  0.00     0.016 A 
ATOM      9  C   UNL A   1      35.889  29.688  29.298  1.00  0.00     0.016 A 
ATOM     10  C   UNL A   1      38.149  29.695  27.701  1.00  0.00     0.010 A 
ATOM     11  C   UNL A   1      37.057  29.070  29.744  1.00  0.00     0.010 A 
ATOM     12  C   UNL A   1      38.194  29.054  28.947  1.00  0.00    -0.014 A 
BRANCH  12  13
ATOM     13  C   UNL A   1      39.469  28.559  29.499  1.00  0.00     0.031 A 
ATOM     14  C   UNL A   1      40.167  29.202  30.654  1.00  0.00     0.074 A 
ATOM     15  C   UNL A   1      40.048  27.526  28.867  1.00  0.00     0.049 A 
ATOM     16  N   UNL A   1      40.987  28.652  31.509  1.00  0.00    -0.248 NA
ATOM     17  C   UNL A   1      39.919  30.627  30.906  1.00  0.00     0.031 C 
ATOM     18  C   UNL A   1      39.562  26.924  27.623  1.00  0.00     0.029 A 
ATOM     19  N   UNL A   1      41.183  26.829  29.162  1.00  0.00    -0.354 N 
ATOM     20  C   UNL A   1      41.220  29.619  32.479  1.00  0.00     0.074 A 
ATOM     21  C   UNL A   1      40.532  30.817  32.070  1.00  0.00     0.031 C 
ATOM     22  C   UNL A   1      40.403  25.949  27.255  1.00  0.00     0.029 A 
ATOM     23  C   UNL A   1      41.472  25.854  28.244  1.00  0.00     0.049 A 
ATOM     24  H   UNL A   1      41.738  27.007  29.955  1.00  0.00     0.167 HD
ATOM     25  C   UNL A   1      41.950  29.498  33.608  1.00  0.00     0.034 A 
ATOM     26  C   UNL A   1      42.487  24.974  28.213  1.00  0.00     0.034 A 
ATOM     27  C   UNL A   1      42.868  28.417  33.816  1.00  0.00     0.049 A 
ATOM     28  C   UNL A   1      43.433  24.948  29.374  1.00  0.00     0.074 A 
ATOM     29  C   UNL A   1      43.720  28.197  34.880  1.00  0.00     0.029 A 
ATOM     30  N   UNL A   1      43.146  27.449  32.861  1.00  0.00    -0.354 N 
ATOM     31  N   UNL A   1      43.395  25.667  30.472  1.00  0.00    -0.248 NA
ATOM     32  C   UNL A   1      44.533  23.982  29.319  1.00  0.00     0.031 C 
ATOM     33  C   UNL A   1      44.587  27.161  34.518  1.00  0.00     0.029 A 
ATOM     34  C   UNL A   1      44.229  26.698  33.257  1.00  0.00     0.049 A 
ATOM     35  H   UNL A   1      42.642  27.320  32.025  1.00  0.00     0.167 HD
ATOM     36  C   UNL A   1      44.459  25.233  31.250  1.00  0.00     0.074 A 
ATOM     37  C   UNL A   1      45.118  24.183  30.495  1.00  0.00     0.031 C 
ATOM     38  C   UNL A   1      44.854  25.662  32.472  1.00  0.00     0.034 A 
BRANCH  25  39
ATOM     39  C   UNL A   1      41.814  30.544  34.677  1.00  0.00     0.023 A 
ATOM     40  C   UNL A   1      42.910  31.396  34.923  1.00  0.00     0.012 A 
ATOM     41  C   UNL A   1      40.597  30.769  35.345  1.00  0.00     0.148 A 
ATOM     42  C   UNL A   1      42.793  32.469  35.806  1.00  0.00     0.002 A 
ATOM     43  C   UNL A   1      40.486  31.845  36.220  1.00  0.00     0.091 A 
ATOM     44  F   UNL A   1      39.577  29.935  35.105  1.00  0.00    -0.205 F 
ATOM     45  C   UNL A   1      41.580  32.699  36.448  1.00  0.00     0.022 A 
BRANCH  43  46
ATOM     46  S   UNL A   1      38.968  32.229  37.100  1.00  0.00     0.127 S 
ATOM     47  O   UNL A   1      38.277  30.936  37.070  1.00  0.00    -0.237 OA
ATOM     48  O   UNL A   1      39.470  32.619  38.419  1.00  0.00    -0.237 OA
ATOM     49  O   UNL A   1      38.318  33.285  36.344  1.00  0.00    -0.744 OA
ENDBRANCH  43  46
ENDBRANCH  25  39
BRANCH  26  50
ATOM     50  C   UNL A   1      42.557  24.034  27.068  1.00  0.00     0.023 A 
ATOM     51  C   UNL A   1      43.377  24.344  25.969  1.00  0.00     0.012 A 
ATOM     52  C   UNL A   1      41.981  22.751  27.166  1.00  0.00     0.148 A 
ATOM     53  C   UNL A   1      43.634  23.385  24.990  1.00  0.00     0.002 A 
ATOM     54  C   UNL A   1      42.272  21.789  26.208  1.00  0.00     0.091 A 
ATOM     55  F   UNL A   1      41.213  22.482  28.232  1.00  0.00    -0.205 F 
ATOM     56  C   UNL A   1      43.097  22.105  25.116  1.00  0.00     0.022 A 
BRANCH  54  57
ATOM     57  S   UNL A   1      41.735  20.081  26.360  1.00  0.00     0.127 S 
ATOM     58  O   UNL A   1      40.287  20.211  26.221  1.00  0.00    -0.237 OA
ATOM     59  O   UNL A   1      42.410  19.450  25.224  1.00  0.00    -0.237 OA
ATOM     60  O   UNL A   1      42.203  19.631  27.663  1.00  0.00    -0.744 OA
ENDBRANCH  54  57
ENDBRANCH  26  50
BRANCH  38  61
ATOM     61  C   UNL A   1      46.073  25.031  33.074  1.00  0.00     0.023 A 
ATOM     62  C   UNL A   1      47.316  25.678  32.948  1.00  0.00     0.012 A 
ATOM     63  C   UNL A   1      45.945  23.905  33.907  1.00  0.00     0.148 A 
ATOM     64  C   UNL A   1      48.422  25.210  33.652  1.00  0.00     0.002 A 
ATOM     65  C   UNL A   1      47.040  23.470  34.637  1.00  0.00     0.091 A 
ATOM     66  F   UNL A   1      44.743  23.316  34.000  1.00  0.00    -0.205 F 
ATOM     67  C   UNL A   1      48.280  24.118  34.507  1.00  0.00     0.022 A 
BRANCH  65  68
ATOM     68  S   UNL A   1      46.930  22.135  35.831  1.00  0.00     0.127 S 
ATOM     69  O   UNL A   1      45.886  22.628  36.730  1.00  0.00    -0.237 OA
ATOM     70  O   UNL A   1      46.531  21.005  34.993  1.00  0.00    -0.237 OA
ATOM     71  O   UNL A   1      48.253  22.015  36.430  1.00  0.00    -0.744 OA
ENDBRANCH  65  68
ENDBRANCH  38  61
ENDBRANCH  12  13
ENDBRANCH   5   7
ENDBRANCH   4   5
ENDBRANCH   3   4
ENDBRANCH   2   3
ENDBRANCH   1   2
BRANCH   1  72
ATOM     72  C   UNL A   1      31.744  27.379  25.396  1.00  0.00     0.188 C 
BRANCH  72  73
ATOM     73  C   UNL A   1      30.768  26.212  25.267  1.00  0.00     0.188 C 
BRANCH  73  74
ATOM     74  O   UNL A   1      30.584  25.365  26.392  1.00  0.00    -0.376 OA
BRANCH  74  75
ATOM     75  C   UNL A   1      31.095  24.040  26.288  1.00  0.00     0.202 C 
BRANCH  75  76
ATOM     76  C   UNL A   1      32.468  23.703  26.906  1.00  0.00     0.261 C 
BRANCH  76  77
ATOM     77  O   UNL A   1      33.606  24.411  26.378  1.00  0.00    -0.463 OA
BRANCH  77  78
ATOM     78  C   UNL A   1      34.602  23.641  25.844  1.00  0.00     0.314 C 
ATOM     79  O   UNL A   1      35.515  23.150  26.501  1.00  0.00    -0.252 OA
BRANCH  78  80
ATOM     80  C   UNL A   1      34.447  23.379  24.355  1.00  0.00     0.140 C 
ATOM     81  C   UNL A   1      33.762  24.547  23.641  1.00  0.00     0.095 C 
ATOM     82  C   UNL A   1      33.680  22.128  23.971  1.00  0.00    -0.019 A 
ATOM     83  S   UNL A   1      33.102  23.870  22.090  1.00  0.00    -0.125 SA
ATOM     84  C   UNL A   1      32.905  22.279  22.815  1.00  0.00     0.011 A 
ATOM     85  C   UNL A   1      33.764  20.874  24.565  1.00  0.00     0.006 A 
ATOM     86  C   UNL A   1      32.129  21.249  22.310  1.00  0.00     0.015 A 
ATOM     87  C   UNL A   1      32.979  19.828  24.070  1.00  0.00     0.000 A 
ATOM     88  C   UNL A   1      32.147  20.019  22.960  1.00  0.00     0.001 A 
ENDBRANCH  78  80
ENDBRANCH  77  78
ENDBRANCH  76  77
ENDBRANCH  75  76
ENDBRANCH  74  75
ENDBRANCH  73  74
ENDBRANCH  72  73
ENDBRANCH   1  72
TORSDOF 20
ENDMDL
MODEL 2
REMARK VINA RESULT:     -10.2      5.228      8.492
REMARK SMILES O=C(OCCOCCOCCOC(=O)[C@@H]1CSc2ccccc21)c1ccc(-c2c3nc(c(-c4cccc(S(=O)(=O)[O-])c4F)c4ccc([nH]4)c(-c4cccc(S(=O)(=O)[O-])c4F)c4nc(c(-c5cccc(S(=O)(=O)[O-])c5F)c5ccc2[nH]5)C=C4)C=C3)cc1
REMARK SMILES IDX 6 1 5 2 4 3 3 4 2 5 1 6 24 7 25 8 86 9 26 10 85 11 27 12
REMARK SMILES IDX 28 13 29 14 79 15 30 16 84 17 78 18 80 19 31 20 83 21 77 22
REMARK SMILES IDX 76 23 32 25 64 26 44 27 63 28 45 29 48 30 62 31 81 32 46 33
REMARK SMILES IDX 47 34 61 36 82 37 49 38 33 39 34 40 42 41 35 42 37 43 43 44
REMARK SMILES IDX 36 45 38 46 39 47 40 48 41 49 65 50 66 51 74 52 67 53 69 54
REMARK SMILES IDX 75 55 68 56 70 57 71 58 72 59 73 60 50 61 51 62 59 63 52 64
REMARK SMILES IDX 54 65 60 66 53 67 55 68 56 69 57 70 58 71 7 72 8 73 9 74
REMARK SMILES IDX 10 75 11 76 12 77 13 78 14 79 15 80 16 81 23 82 17 83 18 84
REMARK SMILES IDX 22 85 19 86 21 87 20 88
REMARK H PARENT 80 24 48 35
REMARK Flexibility Score: inf
ROOT
ATOM      1  O   UNL A   1      36.970  21.177  25.700  1.00  0.00    -0.376 OA
ENDROOT
BRANCH   1   2
ATOM      2  C   UNL A   1      37.716  20.301  24.849  1.00  0.00     0.202 C 
BRANCH   2   3
ATOM      3  C   UNL A   1      38.618  19.279  25.565  1.00  0.00     0.261 C 
BRANCH   3   4
ATOM      4  O   UNL A   1      39.962  19.731  25.799  1.00  0.00    -0.460 OA
BRANCH   4   5
ATOM      5  C   UNL A   1      40.503  20.299  26.905  1.00  0.00     0.338 C 
ATOM      6  O   UNL A   1      40.756  19.554  27.853  1.00  0.00    -0.246 OA
BRANCH   5   7
ATOM      7  C   UNL A   1      40.761  21.770  27.079  1.00  0.00     0.060 A 
ATOM      8  C   UNL A   1      41.661  22.133  28.097  1.00  0.00     0.016 A 
ATOM      9  C   UNL A   1      40.178  22.808  26.348  1.00  0.00     0.016 A 
ATOM     10  C   UNL A   1      41.940  23.476  28.375  1.00  0.00     0.010 A 
ATOM     11  C   UNL A   1      40.478  24.148  26.595  1.00  0.00     0.010 A 
ATOM     12  C   UNL A   1      41.349  24.497  27.618  1.00  0.00    -0.014 A 
BRANCH  12  13
ATOM     13  C   UNL A   1      41.795  25.897  27.754  1.00  0.00     0.031 A 
ATOM     14  C   UNL A   1      40.907  26.996  28.243  1.00  0.00     0.074 A 
ATOM     15  C   UNL A   1      43.039  26.185  27.341  1.00  0.00     0.049 A 
ATOM     16  N   UNL A   1      41.250  28.107  28.835  1.00  0.00    -0.248 NA
ATOM     17  C   UNL A   1      39.457  26.844  28.067  1.00  0.00     0.031 C 
ATOM     18  C   UNL A   1      43.943  25.241  26.678  1.00  0.00     0.029 A 
ATOM     19  N   UNL A   1      43.739  27.355  27.383  1.00  0.00    -0.354 N 
ATOM     20  C   UNL A   1      40.060  28.700  29.239  1.00  0.00     0.074 A 
ATOM     21  C   UNL A   1      38.981  27.879  28.752  1.00  0.00     0.031 C 
ATOM     22  C   UNL A   1      45.080  25.876  26.366  1.00  0.00     0.029 A 
ATOM     23  C   UNL A   1      44.984  27.260  26.819  1.00  0.00     0.049 A 
ATOM     24  H   UNL A   1      43.386  28.185  27.778  1.00  0.00     0.167 HD
ATOM     25  C   UNL A   1      39.902  29.833  29.955  1.00  0.00     0.034 A 
ATOM     26  C   UNL A   1      45.945  28.190  26.694  1.00  0.00     0.034 A 
ATOM     27  C   UNL A   1      40.964  30.778  30.140  1.00  0.00     0.049 A 
ATOM     28  C   UNL A   1      45.714  29.531  27.318  1.00  0.00     0.074 A 
ATOM     29  C   UNL A   1      40.934  31.998  30.785  1.00  0.00     0.029 A 
ATOM     30  N   UNL A   1      42.213  30.657  29.547  1.00  0.00    -0.354 N 
ATOM     31  N   UNL A   1      44.683  29.936  28.023  1.00  0.00    -0.248 NA
ATOM     32  C   UNL A   1      46.776  30.531  27.167  1.00  0.00     0.031 C 
ATOM     33  C   UNL A   1      42.131  32.660  30.489  1.00  0.00     0.029 A 
ATOM     34  C   UNL A   1      42.925  31.824  29.714  1.00  0.00     0.049 A 
ATOM     35  H   UNL A   1      42.541  29.856  29.078  1.00  0.00     0.167 HD
ATOM     36  C   UNL A   1      44.973  31.235  28.414  1.00  0.00     0.074 A 
ATOM     37  C   UNL A   1      46.282  31.545  27.870  1.00  0.00     0.031 C 
ATOM     38  C   UNL A   1      44.226  32.091  29.153  1.00  0.00     0.034 A 
BRANCH  25  39
ATOM     39  C   UNL A   1      38.561  30.129  30.561  1.00  0.00     0.023 A 
ATOM     40  C   UNL A   1      38.276  29.608  31.840  1.00  0.00     0.012 A 
ATOM     41  C   UNL A   1      37.643  30.999  29.947  1.00  0.00     0.148 A 
ATOM     42  C   UNL A   1      37.103  29.962  32.508  1.00  0.00     0.002 A 
ATOM     43  C   UNL A   1      36.478  31.353  30.622  1.00  0.00     0.091 A 
ATOM     44  F   UNL A   1      37.931  31.467  28.726  1.00  0.00    -0.205 F 
ATOM     45  C   UNL A   1      36.209  30.840  31.903  1.00  0.00     0.022 A 
BRANCH  43  46
ATOM     46  S   UNL A   1      35.259  32.476  29.931  1.00  0.00     0.127 S 
ATOM     47  O   UNL A   1      34.732  31.686  28.815  1.00  0.00    -0.237 OA
ATOM     48  O   UNL A   1      34.329  32.643  31.050  1.00  0.00    -0.237 OA
ATOM     49  O   UNL A   1      35.985  33.672  29.543  1.00  0.00    -0.744 OA
ENDBRANCH  43  46
ENDBRANCH  25  39
BRANCH  26  50
ATOM     50  C   UNL A   1      47.204  27.800  26.012  1.00  0.00     0.023 A 
ATOM     51  C   UNL A   1      48.152  27.027  26.702  1.00  0.00     0.012 A 
ATOM     52  C   UNL A   1      47.358  28.018  24.627  1.00  0.00     0.148 A 
ATOM     53  C   UNL A   1      49.231  26.462  26.021  1.00  0.00     0.002 A 
ATOM     54  C   UNL A   1      48.412  27.421  23.948  1.00  0.00     0.091 A 
ATOM     55  F   UNL A   1      46.430  28.750  23.995  1.00  0.00    -0.205 F 
ATOM     56  C   UNL A   1      49.352  26.645  24.644  1.00  0.00     0.022 A 
BRANCH  54  57
ATOM     57  S   UNL A   1      48.572  27.491  22.160  1.00  0.00     0.127 S 
ATOM     58  O   UNL A   1      48.720  26.078  21.819  1.00  0.00    -0.237 OA
ATOM     59  O   UNL A   1      47.295  28.089  21.766  1.00  0.00    -0.237 OA
ATOM     60  O   UNL A   1      49.735  28.326  21.896  1.00  0.00    -0.744 OA
ENDBRANCH  54  57
ENDBRANCH  26  50
BRANCH  38  61
ATOM     61  C   UNL A   1      44.777  33.462  29.401  1.00  0.00     0.023 A 
ATOM     62  C   UNL A   1      45.559  33.693  30.547  1.00  0.00     0.012 A 
ATOM     63  C   UNL A   1      44.666  34.456  28.411  1.00  0.00     0.148 A 
ATOM     64  C   UNL A   1      46.231  34.902  30.703  1.00  0.00     0.002 A 
ATOM     65  C   UNL A   1      45.371  35.640  28.553  1.00  0.00     0.091 A 
ATOM     66  F   UNL A   1      43.910  34.198  27.333  1.00  0.00    -0.205 F 
ATOM     67  C   UNL A   1      46.151  35.867  29.700  1.00  0.00     0.022 A 
BRANCH  65  68
ATOM     68  S   UNL A   1      45.404  36.899  27.275  1.00  0.00     0.127 S 
ATOM     69  O   UNL A   1      43.979  37.184  27.105  1.00  0.00    -0.237 OA
ATOM     70  O   UNL A   1      46.169  37.968  27.916  1.00  0.00    -0.237 OA
ATOM     71  O   UNL A   1      46.052  36.291  26.121  1.00  0.00    -0.744 OA
ENDBRANCH  65  68
ENDBRANCH  38  61
ENDBRANCH  12  13
ENDBRANCH   5   7
ENDBRANCH   4   5
ENDBRANCH   3   4
ENDBRANCH   2   3
ENDBRANCH   1   2
BRANCH   1  72
ATOM     72  C   UNL A   1      35.720  21.574  25.130  1.00  0.00     0.188 C 
BRANCH  72  73
ATOM     73  C   UNL A   1      34.695  20.452  24.987  1.00  0.00     0.188 C 
BRANCH  73  74
ATOM     74  O   UNL A   1      33.347  20.806  24.715  1.00  0.00    -0.376 OA
BRANCH  74  75
ATOM     75  C   UNL A   1      33.116  21.629  23.576  1.00  0.00     0.202 C 
BRANCH  75  76
ATOM     76  C   UNL A   1      32.319  22.939  23.732  1.00  0.00     0.261 C 
BRANCH  76  77
ATOM     77  O   UNL A   1      32.993  24.035  24.380  1.00  0.00    -0.463 OA
BRANCH  77  78
ATOM     78  C   UNL A   1      33.666  24.899  23.562  1.00  0.00     0.314 C 
ATOM     79  O   UNL A   1      34.118  24.590  22.464  1.00  0.00    -0.252 OA
BRANCH  78  80
ATOM     80  C   UNL A   1      33.751  26.318  24.100  1.00  0.00     0.140 C 
ATOM     81  C   UNL A   1      33.970  26.338  25.616  1.00  0.00     0.095 C 
ATOM     82  C   UNL A   1      32.557  27.212  23.826  1.00  0.00    -0.019 A 
ATOM     83  S   UNL A   1      33.439  27.981  26.178  1.00  0.00    -0.125 SA
ATOM     84  C   UNL A   1      32.273  28.104  24.866  1.00  0.00     0.011 A 
ATOM     85  C   UNL A   1      31.829  27.302  22.645  1.00  0.00     0.006 A 
ATOM     86  C   UNL A   1      31.217  28.997  24.802  1.00  0.00     0.015 A 
ATOM     87  C   UNL A   1      30.754  28.195  22.571  1.00  0.00     0.000 A 
ATOM     88  C   UNL A   1      30.434  29.023  23.652  1.00  0.00     0.001 A 
ENDBRANCH  78  80
ENDBRANCH  77  78
ENDBRANCH  76  77
ENDBRANCH  75  76
ENDBRANCH  74  75
ENDBRANCH  73  74
ENDBRANCH  72  73
ENDBRANCH   1  72
TORSDOF 20
ENDMDL
MODEL 3
REMARK VINA RESULT:     -10.1      1.929      2.718
REMARK SMILES O=C(OCCOCCOCCOC(=O)[C@@H]1CSc2ccccc21)c1ccc(-c2c3nc(c(-c4cccc(S(=O)(=O)[O-])c4F)c4ccc([nH]4)c(-c4cccc(S(=O)(=O)[O-])c4F)c4nc(c(-c5cccc(S(=O)(=O)[O-])c5F)c5ccc2[nH]5)C=C4)C=C3)cc1
REMARK SMILES IDX 6 1 5 2 4 3 3 4 2 5 1 6 24 7 25 8 86 9 26 10 85 11 27 12
REMARK SMILES IDX 28 13 29 14 79 15 30 16 84 17 78 18 80 19 31 20 83 21 77 22
REMARK SMILES IDX 76 23 32 25 64 26 44 27 63 28 45 29 48 30 62 31 81 32 46 33
REMARK SMILES IDX 47 34 61 36 82 37 49 38 33 39 34 40 42 41 35 42 37 43 43 44
REMARK SMILES IDX 36 45 38 46 39 47 40 48 41 49 65 50 66 51 74 52 67 53 69 54
REMARK SMILES IDX 75 55 68 56 70 57 71 58 72 59 73 60 50 61 51 62 59 63 52 64
REMARK SMILES IDX 54 65 60 66 53 67 55 68 56 69 57 70 58 71 7 72 8 73 9 74
REMARK SMILES IDX 10 75 11 76 12 77 13 78 14 79 15 80 16 81 23 82 17 83 18 84
REMARK SMILES IDX 22 85 19 86 21 87 20 88
REMARK H PARENT 80 24 48 35
REMARK Flexibility Score: inf
ROOT
ATOM      1  O   UNL A   1      32.748  29.504  26.367  1.00  0.00    -0.376 OA
ENDROOT
BRANCH   1   2
ATOM      2  C   UNL A   1      31.704  30.458  26.144  1.00  0.00     0.202 C 
BRANCH   2   3
ATOM      3  C   UNL A   1      31.746  31.715  27.032  1.00  0.00     0.261 C 
BRANCH   3   4
ATOM      4  O   UNL A   1      32.952  32.487  26.916  1.00  0.00    -0.460 OA
BRANCH   4   5
ATOM      5  C   UNL A   1      33.767  32.966  27.887  1.00  0.00     0.338 C 
ATOM      6  O   UNL A   1      33.500  34.077  28.350  1.00  0.00    -0.246 OA
BRANCH   5   7
ATOM      7  C   UNL A   1      34.999  32.272  28.398  1.00  0.00     0.060 A 
ATOM      8  C   UNL A   1      36.180  33.035  28.438  1.00  0.00     0.016 A 
ATOM      9  C   UNL A   1      35.090  30.941  28.812  1.00  0.00     0.016 A 
ATOM     10  C   UNL A   1      37.393  32.475  28.854  1.00  0.00     0.010 A 
ATOM     11  C   UNL A   1      36.288  30.385  29.262  1.00  0.00     0.010 A 
ATOM     12  C   UNL A   1      37.454  31.139  29.275  1.00  0.00    -0.014 A 
BRANCH  12  13
ATOM     13  C   UNL A   1      38.668  30.601  29.916  1.00  0.00     0.031 A 
ATOM     14  C   UNL A   1      39.189  31.095  31.228  1.00  0.00     0.074 A 
ATOM     15  C   UNL A   1      39.362  29.678  29.232  1.00  0.00     0.049 A 
ATOM     16  N   UNL A   1      39.917  30.451  32.100  1.00  0.00    -0.248 NA
ATOM     17  C   UNL A   1      38.856  32.466  31.634  1.00  0.00     0.031 C 
ATOM     18  C   UNL A   1      39.061  29.243  27.866  1.00  0.00     0.029 A 
ATOM     19  N   UNL A   1      40.478  28.973  29.576  1.00  0.00    -0.354 N 
ATOM     20  C   UNL A   1      39.988  31.280  33.212  1.00  0.00     0.074 A 
ATOM     21  C   UNL A   1      39.310  32.508  32.881  1.00  0.00     0.031 C 
ATOM     22  C   UNL A   1      39.980  28.346  27.484  1.00  0.00     0.029 A 
ATOM     23  C   UNL A   1      40.919  28.140  28.581  1.00  0.00     0.049 A 
ATOM     24  H   UNL A   1      40.923  29.052  30.452  1.00  0.00     0.167 HD
ATOM     25  C   UNL A   1      40.575  31.022  34.401  1.00  0.00     0.034 A 
ATOM     26  C   UNL A   1      41.964  27.296  28.566  1.00  0.00     0.034 A 
ATOM     27  C   UNL A   1      41.502  29.943  34.580  1.00  0.00     0.049 A 
ATOM     28  C   UNL A   1      42.757  27.132  29.825  1.00  0.00     0.074 A 
ATOM     29  C   UNL A   1      42.221  29.598  35.706  1.00  0.00     0.029 A 
ATOM     30  N   UNL A   1      41.936  29.122  33.548  1.00  0.00    -0.354 N 
ATOM     31  N   UNL A   1      42.554  27.692  30.995  1.00  0.00    -0.248 NA
ATOM     32  C   UNL A   1      43.893  26.207  29.784  1.00  0.00     0.031 C 
ATOM     33  C   UNL A   1      43.168  28.641  35.324  1.00  0.00     0.029 A 
ATOM     34  C   UNL A   1      42.990  28.348  33.977  1.00  0.00     0.049 A 
ATOM     35  H   UNL A   1      41.546  29.098  32.644  1.00  0.00     0.167 HD
ATOM     36  C   UNL A   1      43.528  27.179  31.839  1.00  0.00     0.074 A 
ATOM     37  C   UNL A   1      44.317  26.258  31.043  1.00  0.00     0.031 C 
ATOM     38  C   UNL A   1      43.749  27.445  33.149  1.00  0.00     0.034 A 
BRANCH  25  39
ATOM     39  C   UNL A   1      40.264  31.907  35.573  1.00  0.00     0.023 A 
ATOM     40  C   UNL A   1      41.108  33.008  35.822  1.00  0.00     0.012 A 
ATOM     41  C   UNL A   1      39.101  31.737  36.344  1.00  0.00     0.148 A 
ATOM     42  C   UNL A   1      40.791  33.939  36.811  1.00  0.00     0.002 A 
ATOM     43  C   UNL A   1      38.787  32.673  37.325  1.00  0.00     0.091 A 
ATOM     44  F   UNL A   1      38.325  30.674  36.097  1.00  0.00    -0.205 F 
ATOM     45  C   UNL A   1      39.627  33.776  37.557  1.00  0.00     0.022 A 
BRANCH  43  46
ATOM     46  S   UNL A   1      37.312  32.556  38.343  1.00  0.00     0.127 S 
ATOM     47  O   UNL A   1      36.305  33.170  37.472  1.00  0.00    -0.237 OA
ATOM     48  O   UNL A   1      37.170  31.108  38.509  1.00  0.00    -0.237 OA
ATOM     49  O   UNL A   1      37.600  33.296  39.558  1.00  0.00    -0.744 OA
ENDBRANCH  43  46
ENDBRANCH  25  39
BRANCH  26  50
ATOM     50  C   UNL A   1      42.215  26.524  27.323  1.00  0.00     0.023 A 
ATOM     51  C   UNL A   1      42.982  27.100  26.296  1.00  0.00     0.012 A 
ATOM     52  C   UNL A   1      41.873  25.159  27.255  1.00  0.00     0.148 A 
ATOM     53  C   UNL A   1      43.418  26.323  25.223  1.00  0.00     0.002 A 
ATOM     54  C   UNL A   1      42.343  24.381  26.205  1.00  0.00     0.091 A 
ATOM     55  F   UNL A   1      41.151  24.636  28.257  1.00  0.00    -0.205 F 
ATOM     56  C   UNL A   1      43.113  24.963  25.185  1.00  0.00     0.022 A 
BRANCH  54  57
ATOM     57  S   UNL A   1      42.114  22.600  26.143  1.00  0.00     0.127 S 
ATOM     58  O   UNL A   1      42.775  22.259  24.886  1.00  0.00    -0.237 OA
ATOM     59  O   UNL A   1      42.820  22.163  27.349  1.00  0.00    -0.237 OA
ATOM     60  O   UNL A   1      40.675  22.382  26.176  1.00  0.00    -0.744 OA
ENDBRANCH  54  57
ENDBRANCH  26  50
BRANCH  38  61
ATOM     61  C   UNL A   1      44.907  26.764  33.814  1.00  0.00     0.023 A 
ATOM     62  C   UNL A   1      46.186  27.343  33.729  1.00  0.00     0.012 A 
ATOM     63  C   UNL A   1      44.685  25.663  34.661  1.00  0.00     0.148 A 
ATOM     64  C   UNL A   1      47.236  26.833  34.488  1.00  0.00     0.002 A 
ATOM     65  C   UNL A   1      45.724  25.188  35.445  1.00  0.00     0.091 A 
ATOM     66  F   UNL A   1      43.452  25.139  34.714  1.00  0.00    -0.205 F 
ATOM     67  C   UNL A   1      47.001  25.768  35.357  1.00  0.00     0.022 A 
BRANCH  65  68
ATOM     68  S   UNL A   1      45.495  23.885  36.658  1.00  0.00     0.127 S 
ATOM     69  O   UNL A   1      45.059  22.771  35.816  1.00  0.00    -0.237 OA
ATOM     70  O   UNL A   1      46.840  23.742  37.213  1.00  0.00    -0.237 OA
ATOM     71  O   UNL A   1      44.495  24.375  37.597  1.00  0.00    -0.744 OA
ENDBRANCH  65  68
ENDBRANCH  38  61
ENDBRANCH  12  13
ENDBRANCH   5   7
ENDBRANCH   4   5
ENDBRANCH   3   4
ENDBRANCH   2   3
ENDBRANCH   1   2
BRANCH   1  72
ATOM     72  C   UNL A   1      33.583  29.318  25.220  1.00  0.00     0.188 C 
BRANCH  72  73
ATOM     73  C   UNL A   1      33.622  27.890  24.681  1.00  0.00     0.188 C 
BRANCH  73  74
ATOM     74  O   UNL A   1      32.841  26.903  25.340  1.00  0.00    -0.376 OA
BRANCH  74  75
ATOM     75  C   UNL A   1      33.058  25.550  24.955  1.00  0.00     0.202 C 
BRANCH  75  76
ATOM     76  C   UNL A   1      32.504  24.410  25.834  1.00  0.00     0.261 C 
BRANCH  76  77
ATOM     77  O   UNL A   1      31.576  23.503  25.209  1.00  0.00    -0.463 OA
BRANCH  77  78
ATOM     78  C   UNL A   1      31.886  23.101  23.939  1.00  0.00     0.314 C 
ATOM     79  O   UNL A   1      31.614  23.747  22.931  1.00  0.00    -0.252 OA
BRANCH  78  80
ATOM     80  C   UNL A   1      32.670  21.801  23.877  1.00  0.00     0.140 C 
ATOM     81  C   UNL A   1      32.206  20.807  24.945  1.00  0.00     0.095 C 
ATOM     82  C   UNL A   1      34.176  21.918  24.024  1.00  0.00    -0.019 A 
ATOM     83  S   UNL A   1      33.571  19.629  25.163  1.00  0.00    -0.125 SA
ATOM     84  C   UNL A   1      34.756  20.851  24.718  1.00  0.00     0.011 A 
ATOM     85  C   UNL A   1      35.003  22.882  23.458  1.00  0.00     0.006 A 
ATOM     86  C   UNL A   1      36.119  20.782  24.957  1.00  0.00     0.015 A 
ATOM     87  C   UNL A   1      36.380  22.829  23.699  1.00  0.00     0.000 A 
ATOM     88  C   UNL A   1      36.934  21.796  24.463  1.00  0.00     0.001 A 
ENDBRANCH  78  80
ENDBRANCH  77  78
ENDBRANCH  76  77
ENDBRANCH  75  76
ENDBRANCH  74  75
ENDBRANCH  73  74
ENDBRANCH  72  73
ENDBRANCH   1  72
TORSDOF 20
ENDMDL
