MODEL 1
REMARK VINA RESULT:      -9.2      0.000      0.000
REMARK SMILES CC(C)C[C@@H](CNC(=O)N(C)CCC#N)C(=O)OCCOCCOCCOC(=O)c1ccc(-c2c3nc(c(-c4cccc(S(=O)(=O)[O-])c4F)c4ccc([nH]4)c(-c4cccc(S(=O)(=O)[O-])c4F)c4nc(c(-c5cccc(S(=O)(=O)[O-])c5F)c5ccc2[nH]5)C=C4)C=C3)cc1
REMARK SMILES IDX 21 1 20 2 19 3 18 4 16 5 17 6 5 7 4 8 2 9 1 10 3 11 6 12
REMARK SMILES IDX 7 13 8 14 9 16 10 17 11 18 12 19 13 20 14 21 15 22 22 23
REMARK SMILES IDX 23 24 24 25 25 26 26 27 27 28 28 29 29 30 30 31 31 32 92 33
REMARK SMILES IDX 32 34 91 35 33 36 34 37 35 38 85 39 36 40 90 41 84 42 86 43
REMARK SMILES IDX 37 44 89 45 83 46 82 47 38 49 70 50 50 51 69 52 51 53 54 54
REMARK SMILES IDX 68 55 87 56 52 57 53 58 67 60 88 61 55 62 39 63 40 64 48 65
REMARK SMILES IDX 41 66 43 67 49 68 42 69 44 70 45 71 46 72 47 73 71 74 72 75
REMARK SMILES IDX 80 76 73 77 75 78 81 79 74 80 76 81 77 82 78 83 79 84 56 85
REMARK SMILES IDX 57 86 65 87 58 88 60 89 66 90 59 91 61 92 62 93 63 94 64 95
REMARK H PARENT 7 15 86 48 54 59
REMARK Flexibility Score: inf
ROOT
ATOM      1  O   UNL A   1      35.068  22.694  26.874  1.00  0.00    -0.376 OA
ENDROOT
BRANCH   1   2
ATOM      2  C   UNL A   1      33.894  22.093  27.410  1.00  0.00     0.202 C 
BRANCH   2   3
ATOM      3  C   UNL A   1      32.604  22.918  27.403  1.00  0.00     0.261 C 
BRANCH   3   4
ATOM      4  O   UNL A   1      32.309  23.637  26.175  1.00  0.00    -0.463 OA
BRANCH   4   5
ATOM      5  C   UNL A   1      31.967  24.945  26.320  1.00  0.00     0.310 C 
ATOM      6  O   UNL A   1      30.998  25.340  26.963  1.00  0.00    -0.252 OA
BRANCH   5   7
ATOM      7  C   UNL A   1      32.808  25.929  25.514  1.00  0.00     0.119 C 
BRANCH   7   8
ATOM      8  C   UNL A   1      33.421  27.131  26.264  1.00  0.00     0.020 C 
BRANCH   8   9
ATOM      9  C   UNL A   1      32.781  28.500  25.893  1.00  0.00    -0.017 C 
ATOM     10  C   UNL A   1      31.800  28.402  24.719  1.00  0.00     0.007 C 
ATOM     11  C   UNL A   1      32.063  29.112  27.098  1.00  0.00     0.007 C 
ENDBRANCH   8   9
ENDBRANCH   7   8
BRANCH   7  12
ATOM     12  C   UNL A   1      33.862  25.137  24.726  1.00  0.00     0.133 C 
BRANCH  12  13
ATOM     13  N   UNL A   1      33.530  25.054  23.323  1.00  0.00    -0.337 N 
ATOM     14  C   UNL A   1      33.086  23.998  22.617  1.00  0.00     0.317 C 
ATOM     15  H   UNL A   1      33.647  25.886  22.810  1.00  0.00     0.165 HD
ATOM     16  O   UNL A   1      33.653  23.796  21.541  1.00  0.00    -0.249 OA
BRANCH  14  17
ATOM     17  N   UNL A   1      31.960  23.309  22.972  1.00  0.00    -0.327 N 
ATOM     18  C   UNL A   1      30.633  23.811  23.294  1.00  0.00     0.148 C 
BRANCH  17  19
ATOM     19  C   UNL A   1      32.050  21.861  22.786  1.00  0.00     0.136 C 
BRANCH  19  20
ATOM     20  C   UNL A   1      32.945  21.240  23.859  1.00  0.00     0.141 C 
BRANCH  20  21
ATOM     21  C   UNL A   1      32.513  19.816  24.169  1.00  0.00     0.064 C 
ATOM     22  N   UNL A   1      32.156  18.634  24.425  1.00  0.00    -0.198 NA
ENDBRANCH  20  21
ENDBRANCH  19  20
ENDBRANCH  17  19
ENDBRANCH  14  17
ENDBRANCH  12  13
ENDBRANCH   7  12
ENDBRANCH   5   7
ENDBRANCH   4   5
ENDBRANCH   3   4
ENDBRANCH   2   3
ENDBRANCH   1   2
BRANCH   1  23
ATOM     23  C   UNL A   1      35.738  21.995  25.837  1.00  0.00     0.188 C 
BRANCH  23  24
ATOM     24  C   UNL A   1      37.134  22.492  25.442  1.00  0.00     0.188 C 
BRANCH  24  25
ATOM     25  O   UNL A   1      38.151  21.515  25.579  1.00  0.00    -0.376 OA
BRANCH  25  26
ATOM     26  C   UNL A   1      37.944  20.242  24.983  1.00  0.00     0.202 C 
BRANCH  26  27
ATOM     27  C   UNL A   1      38.999  19.193  25.380  1.00  0.00     0.261 C 
BRANCH  27  28
ATOM     28  O   UNL A   1      39.787  19.529  26.539  1.00  0.00    -0.460 OA
BRANCH  28  29
ATOM     29  C   UNL A   1      41.123  19.683  26.364  1.00  0.00     0.338 C 
ATOM     30  O   UNL A   1      41.872  18.915  25.785  1.00  0.00    -0.246 OA
BRANCH  29  31
ATOM     31  C   UNL A   1      41.476  21.083  26.733  1.00  0.00     0.060 A 
ATOM     32  C   UNL A   1      41.300  22.088  25.770  1.00  0.00     0.016 A 
ATOM     33  C   UNL A   1      41.861  21.424  28.033  1.00  0.00     0.016 A 
ATOM     34  C   UNL A   1      41.564  23.424  26.089  1.00  0.00     0.010 A 
ATOM     35  C   UNL A   1      42.131  22.760  28.350  1.00  0.00     0.010 A 
ATOM     36  C   UNL A   1      42.022  23.762  27.370  1.00  0.00    -0.014 A 
BRANCH  36  37
ATOM     37  C   UNL A   1      42.611  25.102  27.628  1.00  0.00     0.031 A 
ATOM     38  C   UNL A   1      41.728  26.143  28.265  1.00  0.00     0.074 A 
ATOM     39  C   UNL A   1      43.876  25.414  27.290  1.00  0.00     0.049 A 
ATOM     40  N   UNL A   1      41.985  27.394  28.542  1.00  0.00    -0.248 NA
ATOM     41  C   UNL A   1      40.367  25.713  28.633  1.00  0.00     0.031 C 
ATOM     42  C   UNL A   1      44.840  24.511  26.667  1.00  0.00     0.029 A 
ATOM     43  N   UNL A   1      44.556  26.606  27.401  1.00  0.00    -0.354 N 
ATOM     44  C   UNL A   1      40.815  27.907  29.089  1.00  0.00     0.074 A 
ATOM     45  C   UNL A   1      39.843  26.837  29.095  1.00  0.00     0.031 C 
ATOM     46  C   UNL A   1      45.977  25.188  26.420  1.00  0.00     0.029 A 
ATOM     47  C   UNL A   1      45.815  26.578  26.848  1.00  0.00     0.049 A 
ATOM     48  H   UNL A   1      44.175  27.403  27.835  1.00  0.00     0.167 HD
ATOM     49  C   UNL A   1      40.569  29.151  29.560  1.00  0.00     0.034 A 
ATOM     50  C   UNL A   1      46.721  27.566  26.687  1.00  0.00     0.034 A 
ATOM     51  C   UNL A   1      41.531  30.217  29.575  1.00  0.00     0.049 A 
ATOM     52  C   UNL A   1      46.412  28.955  27.197  1.00  0.00     0.074 A 
ATOM     53  C   UNL A   1      41.383  31.498  30.078  1.00  0.00     0.029 A 
ATOM     54  N   UNL A   1      42.810  30.135  29.054  1.00  0.00    -0.354 N 
ATOM     55  N   UNL A   1      45.350  29.386  27.835  1.00  0.00    -0.248 NA
ATOM     56  C   UNL A   1      47.441  29.987  26.991  1.00  0.00     0.031 C 
ATOM     57  C   UNL A   1      42.568  32.199  29.839  1.00  0.00     0.029 A 
ATOM     58  C   UNL A   1      43.462  31.346  29.213  1.00  0.00     0.049 A 
ATOM     59  H   UNL A   1      43.199  29.335  28.633  1.00  0.00     0.167 HD
ATOM     60  C   UNL A   1      45.601  30.721  28.139  1.00  0.00     0.074 A 
ATOM     61  C   UNL A   1      46.922  31.025  27.634  1.00  0.00     0.031 C 
ATOM     62  C   UNL A   1      44.803  31.620  28.769  1.00  0.00     0.034 A 
BRANCH  49  63
ATOM     63  C   UNL A   1      39.204  29.420  30.131  1.00  0.00     0.023 A 
ATOM     64  C   UNL A   1      38.895  28.974  31.431  1.00  0.00     0.012 A 
ATOM     65  C   UNL A   1      38.252  30.160  29.404  1.00  0.00     0.148 A 
ATOM     66  C   UNL A   1      37.648  29.240  31.993  1.00  0.00     0.002 A 
ATOM     67  C   UNL A   1      37.028  30.459  29.987  1.00  0.00     0.091 A 
ATOM     68  F   UNL A   1      38.560  30.550  28.159  1.00  0.00    -0.205 F 
ATOM     69  C   UNL A   1      36.720  29.992  31.277  1.00  0.00     0.022 A 
BRANCH  67  70
ATOM     70  S   UNL A   1      35.795  31.484  29.177  1.00  0.00     0.127 S 
ATOM     71  O   UNL A   1      35.016  31.964  30.318  1.00  0.00    -0.237 OA
ATOM     72  O   UNL A   1      36.620  32.503  28.530  1.00  0.00    -0.237 OA
ATOM     73  O   UNL A   1      35.082  30.605  28.260  1.00  0.00    -0.744 OA
ENDBRANCH  67  70
ENDBRANCH  49  63
BRANCH  50  74
ATOM     74  C   UNL A   1      48.035  27.286  26.036  1.00  0.00     0.023 A 
ATOM     75  C   UNL A   1      49.118  26.841  26.821  1.00  0.00     0.012 A 
ATOM     76  C   UNL A   1      48.225  27.481  24.655  1.00  0.00     0.148 A 
ATOM     77  C   UNL A   1      50.373  26.631  26.250  1.00  0.00     0.002 A 
ATOM     78  C   UNL A   1      49.465  27.216  24.082  1.00  0.00     0.091 A 
ATOM     79  F   UNL A   1      47.193  27.930  23.928  1.00  0.00    -0.205 F 
ATOM     80  C   UNL A   1      50.545  26.809  24.880  1.00  0.00     0.022 A 
BRANCH  78  81
ATOM     81  S   UNL A   1      49.746  27.306  22.310  1.00  0.00     0.127 S 
ATOM     82  O   UNL A   1      48.846  26.271  21.811  1.00  0.00    -0.237 OA
ATOM     83  O   UNL A   1      49.336  28.678  22.008  1.00  0.00    -0.237 OA
ATOM     84  O   UNL A   1      51.168  27.053  22.128  1.00  0.00    -0.744 OA
ENDBRANCH  78  81
ENDBRANCH  50  74
BRANCH  62  85
ATOM     85  C   UNL A   1      45.339  33.011  28.998  1.00  0.00     0.023 A 
ATOM     86  C   UNL A   1      46.161  33.271  30.112  1.00  0.00     0.012 A 
ATOM     87  C   UNL A   1      45.107  34.034  28.058  1.00  0.00     0.148 A 
ATOM     88  C   UNL A   1      46.719  34.536  30.302  1.00  0.00     0.002 A 
ATOM     89  C   UNL A   1      45.705  35.279  28.228  1.00  0.00     0.091 A 
ATOM     90  F   UNL A   1      44.310  33.773  27.011  1.00  0.00    -0.205 F 
ATOM     91  C   UNL A   1      46.501  35.534  29.354  1.00  0.00     0.022 A 
BRANCH  89  92
ATOM     92  S   UNL A   1      45.558  36.592  27.010  1.00  0.00     0.127 S 
ATOM     93  O   UNL A   1      46.109  37.734  27.736  1.00  0.00    -0.237 OA
ATOM     94  O   UNL A   1      46.398  36.100  25.918  1.00  0.00    -0.237 OA
ATOM     95  O   UNL A   1      44.140  36.681  26.686  1.00  0.00    -0.744 OA
ENDBRANCH  89  92
ENDBRANCH  62  85
ENDBRANCH  36  37
ENDBRANCH  29  31
ENDBRANCH  28  29
ENDBRANCH  27  28
ENDBRANCH  26  27
ENDBRANCH  25  26
ENDBRANCH  24  25
ENDBRANCH  23  24
ENDBRANCH   1  23
TORSDOF 28
ENDMDL
MODEL 2
REMARK VINA RESULT:      -8.2      2.101      2.655
REMARK SMILES CC(C)C[C@@H](CNC(=O)N(C)CCC#N)C(=O)OCCOCCOCCOC(=O)c1ccc(-c2c3nc(c(-c4cccc(S(=O)(=O)[O-])c4F)c4ccc([nH]4)c(-c4cccc(S(=O)(=O)[O-])c4F)c4nc(c(-c5cccc(S(=O)(=O)[O-])c5F)c5ccc2[nH]5)C=C4)C=C3)cc1
REMARK SMILES IDX 21 1 20 2 19 3 18 4 16 5 17 6 5 7 4 8 2 9 1 10 3 11 6 12
REMARK SMILES IDX 7 13 8 14 9 16 10 17 11 18 12 19 13 20 14 21 15 22 22 23
REMARK SMILES IDX 23 24 24 25 25 26 26 27 27 28 28 29 29 30 30 31 31 32 92 33
REMARK SMILES IDX 32 34 91 35 33 36 34 37 35 38 85 39 36 40 90 41 84 42 86 43
REMARK SMILES IDX 37 44 89 45 83 46 82 47 38 49 70 50 50 51 69 52 51 53 54 54
REMARK SMILES IDX 68 55 87 56 52 57 53 58 67 60 88 61 55 62 39 63 40 64 48 65
REMARK SMILES IDX 41 66 43 67 49 68 42 69 44 70 45 71 46 72 47 73 71 74 72 75
REMARK SMILES IDX 80 76 73 77 75 78 81 79 74 80 76 81 77 82 78 83 79 84 56 85
REMARK SMILES IDX 57 86 65 87 58 88 60 89 66 90 59 91 61 92 62 93 63 94 64 95
REMARK H PARENT 7 15 86 48 54 59
REMARK Flexibility Score: inf
ROOT
ATOM      1  O   UNL A   1      34.683  22.595  27.231  1.00  0.00    -0.376 OA
ENDROOT
BRANCH   1   2
ATOM      2  C   UNL A   1      33.375  22.134  27.548  1.00  0.00     0.202 C 
BRANCH   2   3
ATOM      3  C   UNL A   1      32.190  23.008  27.126  1.00  0.00     0.261 C 
BRANCH   3   4
ATOM      4  O   UNL A   1      31.673  22.785  25.786  1.00  0.00    -0.463 OA
BRANCH   4   5
ATOM      5  C   UNL A   1      31.608  23.882  24.984  1.00  0.00     0.310 C 
ATOM      6  O   UNL A   1      30.701  24.709  25.018  1.00  0.00    -0.252 OA
BRANCH   5   7
ATOM      7  C   UNL A   1      32.693  23.973  23.917  1.00  0.00     0.119 C 
BRANCH   7   8
ATOM      8  C   UNL A   1      33.855  24.959  24.159  1.00  0.00     0.020 C 
BRANCH   8   9
ATOM      9  C   UNL A   1      33.668  26.337  23.462  1.00  0.00    -0.017 C 
ATOM     10  C   UNL A   1      32.711  26.277  22.266  1.00  0.00     0.007 C 
ATOM     11  C   UNL A   1      33.167  27.388  24.455  1.00  0.00     0.007 C 
ENDBRANCH   8   9
ENDBRANCH   7   8
BRANCH   7  12
ATOM     12  C   UNL A   1      33.191  22.553  23.607  1.00  0.00     0.133 C 
BRANCH  12  13
ATOM     13  N   UNL A   1      32.169  21.753  22.973  1.00  0.00    -0.337 N 
ATOM     14  C   UNL A   1      32.209  20.459  22.607  1.00  0.00     0.317 C 
ATOM     15  H   UNL A   1      31.325  22.221  22.781  1.00  0.00     0.165 HD
ATOM     16  O   UNL A   1      31.799  20.211  21.471  1.00  0.00    -0.249 OA
BRANCH  14  17
ATOM     17  N   UNL A   1      32.504  19.462  23.495  1.00  0.00    -0.327 N 
ATOM     18  C   UNL A   1      32.586  19.512  24.946  1.00  0.00     0.148 C 
BRANCH  17  19
ATOM     19  C   UNL A   1      32.521  18.120  22.915  1.00  0.00     0.136 C 
BRANCH  19  20
ATOM     20  C   UNL A   1      33.805  17.386  23.304  1.00  0.00     0.141 C 
BRANCH  20  21
ATOM     21  C   UNL A   1      33.503  16.199  24.202  1.00  0.00     0.064 C 
ATOM     22  N   UNL A   1      33.250  15.214  24.947  1.00  0.00    -0.198 NA
ENDBRANCH  20  21
ENDBRANCH  19  20
ENDBRANCH  17  19
ENDBRANCH  14  17
ENDBRANCH  12  13
ENDBRANCH   7  12
ENDBRANCH   5   7
ENDBRANCH   4   5
ENDBRANCH   3   4
ENDBRANCH   2   3
ENDBRANCH   1   2
BRANCH   1  23
ATOM     23  C   UNL A   1      35.417  21.853  26.269  1.00  0.00     0.188 C 
BRANCH  23  24
ATOM     24  C   UNL A   1      36.692  22.495  25.708  1.00  0.00     0.188 C 
BRANCH  24  25
ATOM     25  O   UNL A   1      37.844  21.680  25.827  1.00  0.00    -0.376 OA
BRANCH  25  26
ATOM     26  C   UNL A   1      37.939  20.526  25.005  1.00  0.00     0.202 C 
BRANCH  26  27
ATOM     27  C   UNL A   1      39.073  19.567  25.411  1.00  0.00     0.261 C 
BRANCH  27  28
ATOM     28  O   UNL A   1      39.871  20.004  26.530  1.00  0.00    -0.460 OA
BRANCH  28  29
ATOM     29  C   UNL A   1      41.214  20.064  26.355  1.00  0.00     0.338 C 
ATOM     30  O   UNL A   1      41.910  19.235  25.793  1.00  0.00    -0.246 OA
BRANCH  29  31
ATOM     31  C   UNL A   1      41.661  21.443  26.696  1.00  0.00     0.060 A 
ATOM     32  C   UNL A   1      41.582  22.433  25.705  1.00  0.00     0.016 A 
ATOM     33  C   UNL A   1      42.041  21.790  27.997  1.00  0.00     0.016 A 
ATOM     34  C   UNL A   1      41.936  23.754  25.995  1.00  0.00     0.010 A 
ATOM     35  C   UNL A   1      42.401  23.111  28.286  1.00  0.00     0.010 A 
ATOM     36  C   UNL A   1      42.389  24.092  27.278  1.00  0.00    -0.014 A 
BRANCH  36  37
ATOM     37  C   UNL A   1      43.069  25.391  27.517  1.00  0.00     0.031 A 
ATOM     38  C   UNL A   1      42.257  26.505  28.123  1.00  0.00     0.074 A 
ATOM     39  C   UNL A   1      44.356  25.606  27.187  1.00  0.00     0.049 A 
ATOM     40  N   UNL A   1      42.599  27.740  28.380  1.00  0.00    -0.248 NA
ATOM     41  C   UNL A   1      40.865  26.180  28.485  1.00  0.00     0.031 C 
ATOM     42  C   UNL A   1      45.260  24.624  26.593  1.00  0.00     0.029 A 
ATOM     43  N   UNL A   1      45.118  26.748  27.282  1.00  0.00    -0.354 N 
ATOM     44  C   UNL A   1      41.463  28.345  28.903  1.00  0.00     0.074 A 
ATOM     45  C   UNL A   1      40.417  27.348  28.920  1.00  0.00     0.031 C 
ATOM     46  C   UNL A   1      46.444  25.214  26.345  1.00  0.00     0.029 A 
ATOM     47  C   UNL A   1      46.378  26.620  26.744  1.00  0.00     0.049 A 
ATOM     48  H   UNL A   1      44.791  27.579  27.697  1.00  0.00     0.167 HD
ATOM     49  C   UNL A   1      41.302  29.613  29.347  1.00  0.00     0.034 A 
ATOM     50  C   UNL A   1      47.353  27.538  26.574  1.00  0.00     0.034 A 
ATOM     51  C   UNL A   1      42.337  30.608  29.353  1.00  0.00     0.049 A 
ATOM     52  C   UNL A   1      47.139  28.955  27.054  1.00  0.00     0.074 A 
ATOM     53  C   UNL A   1      42.276  31.906  29.829  1.00  0.00     0.029 A 
ATOM     54  N   UNL A   1      43.612  30.425  28.847  1.00  0.00    -0.354 N 
ATOM     55  N   UNL A   1      46.104  29.473  27.671  1.00  0.00    -0.248 NA
ATOM     56  C   UNL A   1      48.241  29.907  26.839  1.00  0.00     0.031 C 
ATOM     57  C   UNL A   1      43.510  32.516  29.590  1.00  0.00     0.029 A 
ATOM     58  C   UNL A   1      44.347  31.590  28.990  1.00  0.00     0.049 A 
ATOM     59  H   UNL A   1      43.947  29.591  28.446  1.00  0.00     0.167 HD
ATOM     60  C   UNL A   1      46.446  30.793  27.953  1.00  0.00     0.074 A 
ATOM     61  C   UNL A   1      47.791  30.992  27.456  1.00  0.00     0.031 C 
ATOM     62  C   UNL A   1      45.708  31.759  28.555  1.00  0.00     0.034 A 
BRANCH  49  63
ATOM     63  C   UNL A   1      39.954  29.990  29.897  1.00  0.00     0.023 A 
ATOM     64  C   UNL A   1      38.947  30.439  29.020  1.00  0.00     0.012 A 
ATOM     65  C   UNL A   1      39.669  29.846  31.269  1.00  0.00     0.148 A 
ATOM     66  C   UNL A   1      37.681  30.762  29.503  1.00  0.00     0.002 A 
ATOM     67  C   UNL A   1      38.392  30.129  31.735  1.00  0.00     0.091 A 
ATOM     68  F   UNL A   1      40.652  29.443  32.087  1.00  0.00    -0.205 F 
ATOM     69  C   UNL A   1      37.400  30.595  30.856  1.00  0.00     0.022 A 
BRANCH  67  70
ATOM     70  S   UNL A   1      37.910  29.874  33.447  1.00  0.00     0.127 S 
ATOM     71  O   UNL A   1      37.184  28.608  33.362  1.00  0.00    -0.237 OA
ATOM     72  O   UNL A   1      39.205  29.791  34.122  1.00  0.00    -0.237 OA
ATOM     73  O   UNL A   1      37.105  31.032  33.813  1.00  0.00    -0.744 OA
ENDBRANCH  67  70
ENDBRANCH  49  63
BRANCH  50  74
ATOM     74  C   UNL A   1      48.651  27.153  25.944  1.00  0.00     0.023 A 
ATOM     75  C   UNL A   1      48.772  27.168  24.540  1.00  0.00     0.012 A 
ATOM     76  C   UNL A   1      49.753  26.750  26.722  1.00  0.00     0.148 A 
ATOM     77  C   UNL A   1      49.953  26.755  23.922  1.00  0.00     0.002 A 
ATOM     78  C   UNL A   1      50.945  26.393  26.102  1.00  0.00     0.091 A 
ATOM     79  F   UNL A   1      49.611  26.716  28.054  1.00  0.00    -0.205 F 
ATOM     80  C   UNL A   1      51.042  26.377  24.702  1.00  0.00     0.022 A 
BRANCH  78  81
ATOM     81  S   UNL A   1      52.434  26.003  27.029  1.00  0.00     0.127 S 
ATOM     82  O   UNL A   1      53.243  27.199  26.812  1.00  0.00    -0.237 OA
ATOM     83  O   UNL A   1      51.912  25.850  28.387  1.00  0.00    -0.237 OA
ATOM     84  O   UNL A   1      52.948  24.774  26.442  1.00  0.00    -0.744 OA
ENDBRANCH  78  81
ENDBRANCH  50  74
BRANCH  62  85
ATOM     85  C   UNL A   1      46.340  33.112  28.764  1.00  0.00     0.023 A 
ATOM     86  C   UNL A   1      47.248  33.307  29.823  1.00  0.00     0.012 A 
ATOM     87  C   UNL A   1      46.108  34.162  27.852  1.00  0.00     0.148 A 
ATOM     88  C   UNL A   1      47.891  34.534  29.989  1.00  0.00     0.002 A 
ATOM     89  C   UNL A   1      46.788  35.366  27.996  1.00  0.00     0.091 A 
ATOM     90  F   UNL A   1      45.229  33.963  26.858  1.00  0.00    -0.205 F 
ATOM     91  C   UNL A   1      47.671  35.558  29.069  1.00  0.00     0.022 A 
BRANCH  89  92
ATOM     92  S   UNL A   1      46.639  36.704  26.805  1.00  0.00     0.127 S 
ATOM     93  O   UNL A   1      47.110  36.065  25.579  1.00  0.00    -0.237 OA
ATOM     94  O   UNL A   1      45.203  36.988  26.832  1.00  0.00    -0.237 OA
ATOM     95  O   UNL A   1      47.475  37.784  27.310  1.00  0.00    -0.744 OA
ENDBRANCH  89  92
ENDBRANCH  62  85
ENDBRANCH  36  37
ENDBRANCH  29  31
ENDBRANCH  28  29
ENDBRANCH  27  28
ENDBRANCH  26  27
ENDBRANCH  25  26
ENDBRANCH  24  25
ENDBRANCH  23  24
ENDBRANCH   1  23
TORSDOF 28
ENDMDL
MODEL 3
REMARK VINA RESULT:      -8.2      1.523      2.407
REMARK SMILES CC(C)C[C@@H](CNC(=O)N(C)CCC#N)C(=O)OCCOCCOCCOC(=O)c1ccc(-c2c3nc(c(-c4cccc(S(=O)(=O)[O-])c4F)c4ccc([nH]4)c(-c4cccc(S(=O)(=O)[O-])c4F)c4nc(c(-c5cccc(S(=O)(=O)[O-])c5F)c5ccc2[nH]5)C=C4)C=C3)cc1
REMARK SMILES IDX 21 1 20 2 19 3 18 4 16 5 17 6 5 7 4 8 2 9 1 10 3 11 6 12
REMARK SMILES IDX 7 13 8 14 9 16 10 17 11 18 12 19 13 20 14 21 15 22 22 23
REMARK SMILES IDX 23 24 24 25 25 26 26 27 27 28 28 29 29 30 30 31 31 32 92 33
REMARK SMILES IDX 32 34 91 35 33 36 34 37 35 38 85 39 36 40 90 41 84 42 86 43
REMARK SMILES IDX 37 44 89 45 83 46 82 47 38 49 70 50 50 51 69 52 51 53 54 54
REMARK SMILES IDX 68 55 87 56 52 57 53 58 67 60 88 61 55 62 39 63 40 64 48 65
REMARK SMILES IDX 41 66 43 67 49 68 42 69 44 70 45 71 46 72 47 73 71 74 72 75
REMARK SMILES IDX 80 76 73 77 75 78 81 79 74 80 76 81 77 82 78 83 79 84 56 85
REMARK SMILES IDX 57 86 65 87 58 88 60 89 66 90 59 91 61 92 62 93 63 94 64 95
REMARK H PARENT 7 15 86 48 54 59
REMARK Flexibility Score: inf
ROOT
ATOM      1  O   UNL A   1      34.266  22.431  27.395  1.00  0.00    -0.376 OA
ENDROOT
BRANCH   1   2
ATOM      2  C   UNL A   1      32.856  22.596  27.507  1.00  0.00     0.202 C 
BRANCH   2   3
ATOM      3  C   UNL A   1      32.141  23.382  26.404  1.00  0.00     0.261 C 
BRANCH   3   4
ATOM      4  O   UNL A   1      31.647  22.604  25.280  1.00  0.00    -0.463 OA
BRANCH   4   5
ATOM      5  C   UNL A   1      31.415  23.298  24.134  1.00  0.00     0.310 C 
ATOM      6  O   UNL A   1      30.466  24.059  23.967  1.00  0.00    -0.252 OA
BRANCH   5   7
ATOM      7  C   UNL A   1      32.358  22.979  22.979  1.00  0.00     0.119 C 
BRANCH   7   8
ATOM      8  C   UNL A   1      33.364  24.070  22.553  1.00  0.00     0.020 C 
BRANCH   8   9
ATOM      9  C   UNL A   1      32.701  25.419  22.154  1.00  0.00    -0.017 C 
ATOM     10  C   UNL A   1      33.518  26.639  22.593  1.00  0.00     0.007 C 
ATOM     11  C   UNL A   1      32.467  25.488  20.644  1.00  0.00     0.007 C 
ENDBRANCH   8   9
ENDBRANCH   7   8
BRANCH   7  12
ATOM     12  C   UNL A   1      33.045  21.636  23.268  1.00  0.00     0.133 C 
BRANCH  12  13
ATOM     13  N   UNL A   1      32.196  20.517  22.931  1.00  0.00    -0.337 N 
ATOM     14  C   UNL A   1      32.431  19.200  23.074  1.00  0.00     0.317 C 
ATOM     15  H   UNL A   1      31.323  20.751  22.541  1.00  0.00     0.165 HD
ATOM     16  O   UNL A   1      32.167  18.500  22.094  1.00  0.00    -0.249 OA
BRANCH  14  17
ATOM     17  N   UNL A   1      32.760  18.647  24.280  1.00  0.00    -0.327 N 
ATOM     18  C   UNL A   1      32.574  19.180  25.621  1.00  0.00     0.148 C 
BRANCH  17  19
ATOM     19  C   UNL A   1      33.147  17.239  24.217  1.00  0.00     0.136 C 
BRANCH  19  20
ATOM     20  C   UNL A   1      33.187  16.632  25.620  1.00  0.00     0.141 C 
BRANCH  20  21
ATOM     21  C   UNL A   1      33.184  15.114  25.557  1.00  0.00     0.064 C 
ATOM     22  N   UNL A   1      33.184  13.854  25.505  1.00  0.00    -0.198 NA
ENDBRANCH  20  21
ENDBRANCH  19  20
ENDBRANCH  17  19
ENDBRANCH  14  17
ENDBRANCH  12  13
ENDBRANCH   7  12
ENDBRANCH   5   7
ENDBRANCH   4   5
ENDBRANCH   3   4
ENDBRANCH   2   3
ENDBRANCH   1   2
BRANCH   1  23
ATOM     23  C   UNL A   1      34.736  21.546  26.391  1.00  0.00     0.188 C 
BRANCH  23  24
ATOM     24  C   UNL A   1      35.959  21.988  25.578  1.00  0.00     0.188 C 
BRANCH  24  25
ATOM     25  O   UNL A   1      37.126  21.227  25.836  1.00  0.00    -0.376 OA
BRANCH  25  26
ATOM     26  C   UNL A   1      37.493  20.223  24.901  1.00  0.00     0.202 C 
BRANCH  26  27
ATOM     27  C   UNL A   1      38.749  19.431  25.304  1.00  0.00     0.261 C 
BRANCH  27  28
ATOM     28  O   UNL A   1      39.614  20.095  26.249  1.00  0.00    -0.460 OA
BRANCH  28  29
ATOM     29  C   UNL A   1      40.937  19.807  26.196  1.00  0.00     0.338 C 
ATOM     30  O   UNL A   1      41.439  18.781  25.767  1.00  0.00    -0.246 OA
BRANCH  29  31
ATOM     31  C   UNL A   1      41.692  21.061  26.469  1.00  0.00     0.060 A 
ATOM     32  C   UNL A   1      42.087  21.325  27.789  1.00  0.00     0.016 A 
ATOM     33  C   UNL A   1      42.109  21.906  25.436  1.00  0.00     0.016 A 
ATOM     34  C   UNL A   1      42.847  22.461  28.085  1.00  0.00     0.010 A 
ATOM     35  C   UNL A   1      42.864  23.046  25.733  1.00  0.00     0.010 A 
ATOM     36  C   UNL A   1      43.204  23.351  27.063  1.00  0.00    -0.014 A 
BRANCH  36  37
ATOM     37  C   UNL A   1      43.719  24.706  27.392  1.00  0.00     0.031 A 
ATOM     38  C   UNL A   1      42.762  25.684  28.021  1.00  0.00     0.074 A 
ATOM     39  C   UNL A   1      44.981  25.086  27.121  1.00  0.00     0.049 A 
ATOM     40  N   UNL A   1      42.948  26.935  28.351  1.00  0.00    -0.248 NA
ATOM     41  C   UNL A   1      41.407  25.180  28.313  1.00  0.00     0.031 C 
ATOM     42  C   UNL A   1      46.013  24.249  26.514  1.00  0.00     0.029 A 
ATOM     43  N   UNL A   1      45.600  26.303  27.302  1.00  0.00    -0.354 N 
ATOM     44  C   UNL A   1      41.732  27.375  28.860  1.00  0.00     0.074 A 
ATOM     45  C   UNL A   1      40.811  26.263  28.788  1.00  0.00     0.031 C 
ATOM     46  C   UNL A   1      47.126  24.986  26.341  1.00  0.00     0.029 A 
ATOM     47  C   UNL A   1      46.882  26.351  26.806  1.00  0.00     0.049 A 
ATOM     48  H   UNL A   1      45.164  27.066  27.744  1.00  0.00     0.167 HD
ATOM     49  C   UNL A   1      41.408  28.590  29.360  1.00  0.00     0.034 A 
ATOM     50  C   UNL A   1      47.747  27.383  26.718  1.00  0.00     0.034 A 
ATOM     51  C   UNL A   1      42.318  29.697  29.453  1.00  0.00     0.049 A 
ATOM     52  C   UNL A   1      47.351  28.739  27.259  1.00  0.00     0.074 A 
ATOM     53  C   UNL A   1      42.089  30.952  29.991  1.00  0.00     0.029 A 
ATOM     54  N   UNL A   1      43.621  29.691  28.988  1.00  0.00    -0.354 N 
ATOM     55  N   UNL A   1      46.244  29.099  27.862  1.00  0.00    -0.248 NA
ATOM     56  C   UNL A   1      48.340  29.823  27.134  1.00  0.00     0.031 C 
ATOM     57  C   UNL A   1      43.249  31.713  29.829  1.00  0.00     0.029 A 
ATOM     58  C   UNL A   1      44.208  30.924  29.216  1.00  0.00     0.049 A 
ATOM     59  H   UNL A   1      44.065  28.924  28.559  1.00  0.00     0.167 HD
ATOM     60  C   UNL A   1      46.419  30.433  28.221  1.00  0.00     0.074 A 
ATOM     61  C   UNL A   1      47.746  30.813  27.786  1.00  0.00     0.031 C 
ATOM     62  C   UNL A   1      45.553  31.273  28.842  1.00  0.00     0.034 A 
BRANCH  49  63
ATOM     63  C   UNL A   1      40.008  28.778  29.876  1.00  0.00     0.023 A 
ATOM     64  C   UNL A   1      39.685  28.345  31.178  1.00  0.00     0.012 A 
ATOM     65  C   UNL A   1      39.034  29.430  29.098  1.00  0.00     0.148 A 
ATOM     66  C   UNL A   1      38.403  28.538  31.689  1.00  0.00     0.002 A 
ATOM     67  C   UNL A   1      37.772  29.657  29.631  1.00  0.00     0.091 A 
ATOM     68  F   UNL A   1      39.358  29.808  27.853  1.00  0.00    -0.205 F 
ATOM     69  C   UNL A   1      37.452  29.204  30.922  1.00  0.00     0.022 A 
BRANCH  67  70
ATOM     70  S   UNL A   1      36.501  30.572  28.751  1.00  0.00     0.127 S 
ATOM     71  O   UNL A   1      35.555  30.867  29.825  1.00  0.00    -0.237 OA
ATOM     72  O   UNL A   1      37.243  31.731  28.256  1.00  0.00    -0.237 OA
ATOM     73  O   UNL A   1      36.007  29.677  27.713  1.00  0.00    -0.744 OA
ENDBRANCH  67  70
ENDBRANCH  49  63
BRANCH  50  74
ATOM     74  C   UNL A   1      49.100  27.186  26.119  1.00  0.00     0.023 A 
ATOM     75  C   UNL A   1      50.153  26.707  26.925  1.00  0.00     0.012 A 
ATOM     76  C   UNL A   1      49.356  27.491  24.769  1.00  0.00     0.148 A 
ATOM     77  C   UNL A   1      51.441  26.571  26.406  1.00  0.00     0.002 A 
ATOM     78  C   UNL A   1      50.629  27.301  24.244  1.00  0.00     0.091 A 
ATOM     79  F   UNL A   1      48.350  27.971  24.025  1.00  0.00    -0.205 F 
ATOM     80  C   UNL A   1      51.678  26.858  25.066  1.00  0.00     0.022 A 
BRANCH  78  81
ATOM     81  S   UNL A   1      50.999  27.534  22.502  1.00  0.00     0.127 S 
ATOM     82  O   UNL A   1      51.051  28.990  22.399  1.00  0.00    -0.237 OA
ATOM     83  O   UNL A   1      52.291  26.860  22.374  1.00  0.00    -0.237 OA
ATOM     84  O   UNL A   1      49.911  26.886  21.783  1.00  0.00    -0.744 OA
ENDBRANCH  78  81
ENDBRANCH  50  74
BRANCH  62  85
ATOM     85  C   UNL A   1      46.014  32.677  29.141  1.00  0.00     0.023 A 
ATOM     86  C   UNL A   1      47.006  32.898  30.117  1.00  0.00     0.012 A 
ATOM     87  C   UNL A   1      45.533  33.767  28.387  1.00  0.00     0.148 A 
ATOM     88  C   UNL A   1      47.490  34.184  30.358  1.00  0.00     0.002 A 
ATOM     89  C   UNL A   1      46.054  35.039  28.600  1.00  0.00     0.091 A 
ATOM     90  F   UNL A   1      44.578  33.540  27.473  1.00  0.00    -0.205 F 
ATOM     91  C   UNL A   1      47.024  35.251  29.592  1.00  0.00     0.022 A 
BRANCH  89  92
ATOM     92  S   UNL A   1      45.582  36.452  27.595  1.00  0.00     0.127 S 
ATOM     93  O   UNL A   1      46.084  36.063  26.279  1.00  0.00    -0.237 OA
ATOM     94  O   UNL A   1      44.124  36.450  27.718  1.00  0.00    -0.237 OA
ATOM     95  O   UNL A   1      46.234  37.607  28.198  1.00  0.00    -0.744 OA
ENDBRANCH  89  92
ENDBRANCH  62  85
ENDBRANCH  36  37
ENDBRANCH  29  31
ENDBRANCH  28  29
ENDBRANCH  27  28
ENDBRANCH  26  27
ENDBRANCH  25  26
ENDBRANCH  24  25
ENDBRANCH  23  24
ENDBRANCH   1  23
TORSDOF 28
ENDMDL
