MODEL 1
REMARK VINA RESULT:     -10.2      0.000      0.000
REMARK SMILES COc1cc(Cn2cc(C(=O)OCCOCCOCCOC(=O)c3ccc(-c4c5nc(c(-c6cccc(S(=O)(=O)[O-])c6F)c6ccc([nH]6)c(-c6cccc(S(=O)(=O)[O-])c6F)c6nc(c(-c7cccc(S(=O)(=O)[O-])c7F)c7ccc4[nH]7)C=C6)C=C5)cc3)c(=O)[nH]c2=O)ccn1
REMARK SMILES IDX 16 1 15 2 14 3 13 4 12 5 10 6 11 7 9 8 7 9 8 10 90 11 89 12
REMARK SMILES IDX 91 13 87 14 88 16 6 17 5 18 3 19 4 20 94 21 93 22 92 23 2 24
REMARK SMILES IDX 1 25 17 26 18 27 19 28 20 29 21 30 22 31 23 32 24 33 25 34
REMARK SMILES IDX 86 35 26 36 85 37 27 38 28 39 29 40 79 41 30 42 84 43 78 44
REMARK SMILES IDX 80 45 31 46 83 47 77 48 76 49 32 51 64 52 44 53 63 54 45 55
REMARK SMILES IDX 48 56 62 57 81 58 46 59 47 60 61 62 82 63 49 64 33 65 34 66
REMARK SMILES IDX 42 67 35 68 37 69 43 70 36 71 38 72 39 73 40 74 41 75 65 76
REMARK SMILES IDX 66 77 74 78 67 79 69 80 75 81 68 82 70 83 71 84 72 85 73 86
REMARK SMILES IDX 50 87 51 88 59 89 52 90 54 91 60 92 53 93 55 94 56 95 57 96
REMARK SMILES IDX 58 97
REMARK H PARENT 89 15 80 50 48 61
REMARK Flexibility Score: inf
ROOT
ATOM      1  C   UNL A   1      36.066  22.302  25.447  1.00  0.00     0.188 C 
ENDROOT
BRANCH   1   2
ATOM      2  O   UNL A   1      35.546  20.983  25.504  1.00  0.00    -0.376 OA
BRANCH   2   3
ATOM      3  C   UNL A   1      34.456  20.695  24.645  1.00  0.00     0.202 C 
BRANCH   3   4
ATOM      4  C   UNL A   1      33.277  21.671  24.718  1.00  0.00     0.261 C 
BRANCH   4   5
ATOM      5  O   UNL A   1      32.438  21.528  25.872  1.00  0.00    -0.459 OA
BRANCH   5   6
ATOM      6  C   UNL A   1      32.729  22.287  26.962  1.00  0.00     0.345 C 
ATOM      7  O   UNL A   1      33.361  21.912  27.932  1.00  0.00    -0.246 OA
BRANCH   6   8
ATOM      8  C   UNL A   1      32.171  23.641  26.762  1.00  0.00     0.141 A 
ATOM      9  N   UNL A   1      32.583  25.945  26.248  1.00  0.00    -0.295 N 
ATOM     10  C   UNL A   1      33.007  24.659  26.529  1.00  0.00     0.112 A 
ATOM     11  C   UNL A   1      31.231  26.269  26.222  1.00  0.00     0.328 A 
ATOM     12  N   UNL A   1      30.378  25.231  26.515  1.00  0.00    -0.273 N 
ATOM     13  O   UNL A   1      30.799  27.390  25.971  1.00  0.00    -0.248 OA
ATOM     14  C   UNL A   1      30.736  23.951  26.861  1.00  0.00     0.268 A 
ATOM     15  H   UNL A   1      29.414  25.425  26.473  1.00  0.00     0.175 HD
ATOM     16  O   UNL A   1      29.931  23.158  27.331  1.00  0.00    -0.268 OA
BRANCH   9  17
ATOM     17  C   UNL A   1      33.578  26.976  25.921  1.00  0.00     0.162 C 
BRANCH  17  18
ATOM     18  C   UNL A   1      33.593  27.280  24.438  1.00  0.00    -0.021 A 
ATOM     19  C   UNL A   1      33.603  26.553  22.161  1.00  0.00     0.213 A 
ATOM     20  C   UNL A   1      33.433  26.253  23.505  1.00  0.00     0.074 A 
ATOM     21  N   UNL A   1      33.955  27.768  21.695  1.00  0.00    -0.222 NA
ATOM     22  C   UNL A   1      34.113  28.743  22.610  1.00  0.00     0.115 A 
ATOM     23  C   UNL A   1      33.913  28.561  23.969  1.00  0.00     0.026 A 
BRANCH  19  24
ATOM     24  O   UNL A   1      33.467  25.578  21.210  1.00  0.00    -0.481 OA
ATOM     25  C   UNL A   1      32.887  24.416  21.793  1.00  0.00     0.280 C 
ENDBRANCH  19  24
ENDBRANCH  17  18
ENDBRANCH   9  17
ENDBRANCH   6   8
ENDBRANCH   5   6
ENDBRANCH   4   5
ENDBRANCH   3   4
ENDBRANCH   2   3
ENDBRANCH   1   2
BRANCH   1  26
ATOM     26  C   UNL A   1      37.594  22.360  25.659  1.00  0.00     0.188 C 
BRANCH  26  27
ATOM     27  O   UNL A   1      38.402  21.228  25.350  1.00  0.00    -0.376 OA
BRANCH  27  28
ATOM     28  C   UNL A   1      39.536  20.949  26.161  1.00  0.00     0.202 C 
BRANCH  28  29
ATOM     29  C   UNL A   1      40.263  19.606  25.999  1.00  0.00     0.261 C 
BRANCH  29  30
ATOM     30  O   UNL A   1      41.539  19.518  26.653  1.00  0.00    -0.460 OA
BRANCH  30  31
ATOM     31  C   UNL A   1      42.571  20.133  26.018  1.00  0.00     0.338 C 
ATOM     32  O   UNL A   1      43.220  19.696  25.081  1.00  0.00    -0.246 OA
BRANCH  31  33
ATOM     33  C   UNL A   1      42.675  21.526  26.504  1.00  0.00     0.060 A 
ATOM     34  C   UNL A   1      42.701  21.816  27.869  1.00  0.00     0.016 A 
ATOM     35  C   UNL A   1      42.742  22.561  25.560  1.00  0.00     0.016 A 
ATOM     36  C   UNL A   1      42.809  23.147  28.286  1.00  0.00     0.010 A 
ATOM     37  C   UNL A   1      42.824  23.889  25.979  1.00  0.00     0.010 A 
ATOM     38  C   UNL A   1      42.875  24.191  27.346  1.00  0.00    -0.014 A 
BRANCH  38  39
ATOM     39  C   UNL A   1      43.157  25.579  27.787  1.00  0.00     0.031 A 
ATOM     40  C   UNL A   1      44.546  26.144  27.796  1.00  0.00     0.074 A 
ATOM     41  C   UNL A   1      42.125  26.325  28.226  1.00  0.00     0.049 A 
ATOM     42  N   UNL A   1      44.927  27.364  28.080  1.00  0.00    -0.248 NA
ATOM     43  C   UNL A   1      45.647  25.235  27.448  1.00  0.00     0.031 C 
ATOM     44  C   UNL A   1      40.740  25.861  28.328  1.00  0.00     0.029 A 
ATOM     45  N   UNL A   1      42.081  27.619  28.679  1.00  0.00    -0.354 N 
ATOM     46  C   UNL A   1      46.308  27.376  27.943  1.00  0.00     0.074 A 
ATOM     47  C   UNL A   1      46.702  26.033  27.567  1.00  0.00     0.031 C 
ATOM     48  C   UNL A   1      39.980  26.858  28.810  1.00  0.00     0.029 A 
ATOM     49  C   UNL A   1      40.823  28.025  29.056  1.00  0.00     0.049 A 
ATOM     50  H   UNL A   1      42.873  28.200  28.730  1.00  0.00     0.167 HD
ATOM     51  C   UNL A   1      47.162  28.417  28.096  1.00  0.00     0.034 A 
ATOM     52  C   UNL A   1      40.389  29.205  29.538  1.00  0.00     0.034 A 
ATOM     53  C   UNL A   1      46.767  29.751  28.470  1.00  0.00     0.049 A 
ATOM     54  C   UNL A   1      41.357  30.342  29.694  1.00  0.00     0.074 A 
ATOM     55  C   UNL A   1      47.560  30.881  28.579  1.00  0.00     0.029 A 
ATOM     56  N   UNL A   1      45.480  30.133  28.815  1.00  0.00    -0.354 N 
ATOM     57  N   UNL A   1      42.634  30.378  29.402  1.00  0.00    -0.248 NA
ATOM     58  C   UNL A   1      40.820  31.608  30.212  1.00  0.00     0.031 C 
ATOM     59  C   UNL A   1      46.756  31.943  29.005  1.00  0.00     0.029 A 
ATOM     60  C   UNL A   1      45.460  31.478  29.150  1.00  0.00     0.049 A 
ATOM     61  H   UNL A   1      44.697  29.538  28.820  1.00  0.00     0.167 HD
ATOM     62  C   UNL A   1      43.052  31.671  29.687  1.00  0.00     0.074 A 
ATOM     63  C   UNL A   1      41.887  32.396  30.155  1.00  0.00     0.031 C 
ATOM     64  C   UNL A   1      44.294  32.203  29.584  1.00  0.00     0.034 A 
BRANCH  51  65
ATOM     65  C   UNL A   1      48.618  28.191  27.792  1.00  0.00     0.023 A 
ATOM     66  C   UNL A   1      49.483  27.837  28.847  1.00  0.00     0.012 A 
ATOM     67  C   UNL A   1      49.100  28.195  26.469  1.00  0.00     0.148 A 
ATOM     68  C   UNL A   1      50.809  27.495  28.591  1.00  0.00     0.002 A 
ATOM     69  C   UNL A   1      50.418  27.828  26.218  1.00  0.00     0.091 A 
ATOM     70  F   UNL A   1      48.258  28.540  25.484  1.00  0.00    -0.205 F 
ATOM     71  C   UNL A   1      51.273  27.481  27.278  1.00  0.00     0.022 A 
BRANCH  69  72
ATOM     72  S   UNL A   1      51.104  27.717  24.562  1.00  0.00     0.127 S 
ATOM     73  O   UNL A   1      51.211  29.129  24.190  1.00  0.00    -0.237 OA
ATOM     74  O   UNL A   1      52.383  27.053  24.803  1.00  0.00    -0.237 OA
ATOM     75  O   UNL A   1      50.149  26.945  23.778  1.00  0.00    -0.744 OA
ENDBRANCH  69  72
ENDBRANCH  51  65
BRANCH  52  76
ATOM     76  C   UNL A   1      38.943  29.379  29.828  1.00  0.00     0.023 A 
ATOM     77  C   UNL A   1      38.471  29.138  31.132  1.00  0.00     0.012 A 
ATOM     78  C   UNL A   1      38.055  29.855  28.845  1.00  0.00     0.148 A 
ATOM     79  C   UNL A   1      37.132  29.363  31.452  1.00  0.00     0.002 A 
ATOM     80  C   UNL A   1      36.731  30.114  29.181  1.00  0.00     0.091 A 
ATOM     81  F   UNL A   1      38.534  30.076  27.613  1.00  0.00    -0.205 F 
ATOM     82  C   UNL A   1      36.267  29.860  30.482  1.00  0.00     0.022 A 
BRANCH  80  83
ATOM     83  S   UNL A   1      35.564  30.848  28.031  1.00  0.00     0.127 S 
ATOM     84  O   UNL A   1      35.541  29.858  26.956  1.00  0.00    -0.237 OA
ATOM     85  O   UNL A   1      34.347  30.908  28.840  1.00  0.00    -0.237 OA
ATOM     86  O   UNL A   1      36.119  32.146  27.673  1.00  0.00    -0.744 OA
ENDBRANCH  80  83
ENDBRANCH  52  76
BRANCH  64  87
ATOM     87  C   UNL A   1      44.480  33.640  29.990  1.00  0.00     0.023 A 
ATOM     88  C   UNL A   1      44.909  33.934  31.298  1.00  0.00     0.012 A 
ATOM     89  C   UNL A   1      44.326  34.684  29.057  1.00  0.00     0.148 A 
ATOM     90  C   UNL A   1      45.170  35.250  31.677  1.00  0.00     0.002 A 
ATOM     91  C   UNL A   1      44.620  35.990  29.433  1.00  0.00     0.091 A 
ATOM     92  F   UNL A   1      43.903  34.380  27.821  1.00  0.00    -0.205 F 
ATOM     93  C   UNL A   1      45.037  36.274  30.743  1.00  0.00     0.022 A 
BRANCH  91  94
ATOM     94  S   UNL A   1      44.544  37.370  28.284  1.00  0.00     0.127 S 
ATOM     95  O   UNL A   1      43.290  37.105  27.583  1.00  0.00    -0.237 OA
ATOM     96  O   UNL A   1      44.506  38.522  29.186  1.00  0.00    -0.237 OA
ATOM     97  O   UNL A   1      45.745  37.281  27.465  1.00  0.00    -0.744 OA
ENDBRANCH  91  94
ENDBRANCH  64  87
ENDBRANCH  38  39
ENDBRANCH  31  33
ENDBRANCH  30  31
ENDBRANCH  29  30
ENDBRANCH  28  29
ENDBRANCH  27  28
ENDBRANCH  26  27
ENDBRANCH   1  26
TORSDOF 23
ENDMDL
MODEL 2
REMARK VINA RESULT:     -10.1      0.647      7.291
REMARK SMILES COc1cc(Cn2cc(C(=O)OCCOCCOCCOC(=O)c3ccc(-c4c5nc(c(-c6cccc(S(=O)(=O)[O-])c6F)c6ccc([nH]6)c(-c6cccc(S(=O)(=O)[O-])c6F)c6nc(c(-c7cccc(S(=O)(=O)[O-])c7F)c7ccc4[nH]7)C=C6)C=C5)cc3)c(=O)[nH]c2=O)ccn1
REMARK SMILES IDX 16 1 15 2 14 3 13 4 12 5 10 6 11 7 9 8 7 9 8 10 90 11 89 12
REMARK SMILES IDX 91 13 87 14 88 16 6 17 5 18 3 19 4 20 94 21 93 22 92 23 2 24
REMARK SMILES IDX 1 25 17 26 18 27 19 28 20 29 21 30 22 31 23 32 24 33 25 34
REMARK SMILES IDX 86 35 26 36 85 37 27 38 28 39 29 40 79 41 30 42 84 43 78 44
REMARK SMILES IDX 80 45 31 46 83 47 77 48 76 49 32 51 64 52 44 53 63 54 45 55
REMARK SMILES IDX 48 56 62 57 81 58 46 59 47 60 61 62 82 63 49 64 33 65 34 66
REMARK SMILES IDX 42 67 35 68 37 69 43 70 36 71 38 72 39 73 40 74 41 75 65 76
REMARK SMILES IDX 66 77 74 78 67 79 69 80 75 81 68 82 70 83 71 84 72 85 73 86
REMARK SMILES IDX 50 87 51 88 59 89 52 90 54 91 60 92 53 93 55 94 56 95 57 96
REMARK SMILES IDX 58 97
REMARK H PARENT 89 15 80 50 48 61
REMARK Flexibility Score: inf
ROOT
ATOM      1  C   UNL A   1      35.831  22.368  25.510  1.00  0.00     0.188 C 
ENDROOT
BRANCH   1   2
ATOM      2  O   UNL A   1      35.442  21.004  25.553  1.00  0.00    -0.376 OA
BRANCH   2   3
ATOM      3  C   UNL A   1      34.313  20.643  24.774  1.00  0.00     0.202 C 
BRANCH   3   4
ATOM      4  C   UNL A   1      33.160  21.652  24.768  1.00  0.00     0.261 C 
BRANCH   4   5
ATOM      5  O   UNL A   1      32.278  21.577  25.895  1.00  0.00    -0.459 OA
BRANCH   5   6
ATOM      6  C   UNL A   1      32.571  22.342  26.980  1.00  0.00     0.345 C 
ATOM      7  O   UNL A   1      33.194  21.968  27.957  1.00  0.00    -0.246 OA
BRANCH   6   8
ATOM      8  C   UNL A   1      32.031  23.700  26.765  1.00  0.00     0.141 A 
ATOM      9  N   UNL A   1      32.473  25.994  26.234  1.00  0.00    -0.295 N 
ATOM     10  C   UNL A   1      32.880  24.706  26.529  1.00  0.00     0.112 A 
ATOM     11  C   UNL A   1      31.126  26.334  26.197  1.00  0.00     0.328 A 
ATOM     12  N   UNL A   1      30.258  25.309  26.494  1.00  0.00    -0.273 N 
ATOM     13  O   UNL A   1      30.708  27.458  25.934  1.00  0.00    -0.248 OA
ATOM     14  C   UNL A   1      30.600  24.028  26.854  1.00  0.00     0.268 A 
ATOM     15  H   UNL A   1      29.297  25.514  26.445  1.00  0.00     0.175 HD
ATOM     16  O   UNL A   1      29.783  23.248  27.326  1.00  0.00    -0.268 OA
BRANCH   9  17
ATOM     17  C   UNL A   1      33.482  27.011  25.903  1.00  0.00     0.162 C 
BRANCH  17  18
ATOM     18  C   UNL A   1      33.521  27.289  24.416  1.00  0.00    -0.021 A 
ATOM     19  C   UNL A   1      33.617  26.523  22.153  1.00  0.00     0.213 A 
ATOM     20  C   UNL A   1      33.427  26.240  23.499  1.00  0.00     0.074 A 
ATOM     21  N   UNL A   1      33.930  27.743  21.673  1.00  0.00    -0.222 NA
ATOM     22  C   UNL A   1      34.025  28.740  22.574  1.00  0.00     0.115 A 
ATOM     23  C   UNL A   1      33.800  28.574  23.931  1.00  0.00     0.026 A 
BRANCH  19  24
ATOM     24  O   UNL A   1      33.545  25.526  21.218  1.00  0.00    -0.481 OA
ATOM     25  C   UNL A   1      32.845  24.411  21.758  1.00  0.00     0.280 C 
ENDBRANCH  19  24
ENDBRANCH  17  18
ENDBRANCH   9  17
ENDBRANCH   6   8
ENDBRANCH   5   6
ENDBRANCH   4   5
ENDBRANCH   3   4
ENDBRANCH   2   3
ENDBRANCH   1   2
BRANCH   1  26
ATOM     26  C   UNL A   1      37.348  22.557  25.290  1.00  0.00     0.188 C 
BRANCH  26  27
ATOM     27  O   UNL A   1      38.169  21.439  24.969  1.00  0.00    -0.376 OA
BRANCH  27  28
ATOM     28  C   UNL A   1      39.030  20.908  25.968  1.00  0.00     0.202 C 
BRANCH  28  29
ATOM     29  C   UNL A   1      39.778  19.594  25.694  1.00  0.00     0.261 C 
BRANCH  29  30
ATOM     30  O   UNL A   1      40.932  19.365  26.517  1.00  0.00    -0.460 OA
BRANCH  30  31
ATOM     31  C   UNL A   1      42.107  19.853  26.037  1.00  0.00     0.338 C 
ATOM     32  O   UNL A   1      42.866  19.301  25.257  1.00  0.00    -0.246 OA
BRANCH  31  33
ATOM     33  C   UNL A   1      42.244  21.267  26.447  1.00  0.00     0.060 A 
ATOM     34  C   UNL A   1      42.305  21.627  27.794  1.00  0.00     0.016 A 
ATOM     35  C   UNL A   1      42.310  22.250  25.450  1.00  0.00     0.016 A 
ATOM     36  C   UNL A   1      42.444  22.975  28.140  1.00  0.00     0.010 A 
ATOM     37  C   UNL A   1      42.423  23.596  25.797  1.00  0.00     0.010 A 
ATOM     38  C   UNL A   1      42.508  23.968  27.146  1.00  0.00    -0.014 A 
BRANCH  38  39
ATOM     39  C   UNL A   1      42.824  25.372  27.507  1.00  0.00     0.031 A 
ATOM     40  C   UNL A   1      41.779  26.314  28.026  1.00  0.00     0.074 A 
ATOM     41  C   UNL A   1      44.085  25.806  27.317  1.00  0.00     0.049 A 
ATOM     42  N   UNL A   1      41.930  27.541  28.455  1.00  0.00    -0.248 NA
ATOM     43  C   UNL A   1      40.393  25.826  28.070  1.00  0.00     0.031 C 
ATOM     44  C   UNL A   1      45.172  25.001  26.753  1.00  0.00     0.029 A 
ATOM     45  N   UNL A   1      44.662  27.026  27.561  1.00  0.00    -0.354 N 
ATOM     46  C   UNL A   1      40.665  27.976  28.824  1.00  0.00     0.074 A 
ATOM     47  C   UNL A   1      39.752  26.885  28.552  1.00  0.00     0.031 C 
ATOM     48  C   UNL A   1      46.285  25.749  26.698  1.00  0.00     0.029 A 
ATOM     49  C   UNL A   1      45.991  27.082  27.216  1.00  0.00     0.049 A 
ATOM     50  H   UNL A   1      44.172  27.786  27.947  1.00  0.00     0.167 HD
ATOM     51  C   UNL A   1      40.306  29.168  29.361  1.00  0.00     0.034 A 
ATOM     52  C   UNL A   1      46.879  28.089  27.311  1.00  0.00     0.034 A 
ATOM     53  C   UNL A   1      41.218  30.251  29.631  1.00  0.00     0.049 A 
ATOM     54  C   UNL A   1      46.456  29.398  27.913  1.00  0.00     0.074 A 
ATOM     55  C   UNL A   1      40.948  31.466  30.238  1.00  0.00     0.029 A 
ATOM     56  N   UNL A   1      42.562  30.263  29.296  1.00  0.00    -0.354 N 
ATOM     57  N   UNL A   1      45.289  29.733  28.407  1.00  0.00    -0.248 NA
ATOM     58  C   UNL A   1      47.475  30.453  28.000  1.00  0.00     0.031 C 
ATOM     59  C   UNL A   1      42.127  32.220  30.256  1.00  0.00     0.029 A 
ATOM     60  C   UNL A   1      43.133  31.469  29.671  1.00  0.00     0.049 A 
ATOM     61  H   UNL A   1      43.041  29.524  28.857  1.00  0.00     0.167 HD
ATOM     62  C   UNL A   1      45.436  31.031  28.878  1.00  0.00     0.074 A 
ATOM     63  C   UNL A   1      46.811  31.416  28.630  1.00  0.00     0.031 C 
ATOM     64  C   UNL A   1      44.508  31.835  29.451  1.00  0.00     0.034 A 
BRANCH  51  65
ATOM     65  C   UNL A   1      38.871  29.359  29.769  1.00  0.00     0.023 A 
ATOM     66  C   UNL A   1      38.477  28.965  31.064  1.00  0.00     0.012 A 
ATOM     67  C   UNL A   1      37.957  30.037  28.940  1.00  0.00     0.148 A 
ATOM     68  C   UNL A   1      37.192  29.239  31.527  1.00  0.00     0.002 A 
ATOM     69  C   UNL A   1      36.684  30.330  29.418  1.00  0.00     0.091 A 
ATOM     70  F   UNL A   1      38.355  30.398  27.711  1.00  0.00    -0.205 F 
ATOM     71  C   UNL A   1      36.300  29.929  30.710  1.00  0.00     0.022 A 
BRANCH  69  72
ATOM     72  S   UNL A   1      35.477  31.267  28.474  1.00  0.00     0.127 S 
ATOM     73  O   UNL A   1      34.670  31.866  29.538  1.00  0.00    -0.237 OA
ATOM     74  O   UNL A   1      36.322  32.212  27.747  1.00  0.00    -0.237 OA
ATOM     75  O   UNL A   1      34.776  30.301  27.639  1.00  0.00    -0.744 OA
ENDBRANCH  69  72
ENDBRANCH  51  65
BRANCH  52  76
ATOM     76  C   UNL A   1      48.285  27.854  26.891  1.00  0.00     0.023 A 
ATOM     77  C   UNL A   1      49.238  27.487  27.860  1.00  0.00     0.012 A 
ATOM     78  C   UNL A   1      48.660  27.913  25.535  1.00  0.00     0.148 A 
ATOM     79  C   UNL A   1      50.548  27.190  27.485  1.00  0.00     0.002 A 
ATOM     80  C   UNL A   1      49.956  27.578  25.165  1.00  0.00     0.091 A 
ATOM     81  F   UNL A   1      47.730  28.265  24.636  1.00  0.00    -0.205 F 
ATOM     82  C   UNL A   1      50.904  27.225  26.139  1.00  0.00     0.022 A 
BRANCH  80  83
ATOM     83  S   UNL A   1      50.486  27.496  23.451  1.00  0.00     0.127 S 
ATOM     84  O   UNL A   1      49.291  26.970  22.795  1.00  0.00    -0.237 OA
ATOM     85  O   UNL A   1      50.781  28.898  23.163  1.00  0.00    -0.237 OA
ATOM     86  O   UNL A   1      51.647  26.615  23.435  1.00  0.00    -0.744 OA
ENDBRANCH  80  83
ENDBRANCH  52  76
BRANCH  64  87
ATOM     87  C   UNL A   1      44.929  33.224  29.848  1.00  0.00     0.023 A 
ATOM     88  C   UNL A   1      45.518  33.429  31.110  1.00  0.00     0.012 A 
ATOM     89  C   UNL A   1      44.833  34.299  28.943  1.00  0.00     0.148 A 
ATOM     90  C   UNL A   1      45.994  34.688  31.473  1.00  0.00     0.002 A 
ATOM     91  C   UNL A   1      45.340  35.544  29.299  1.00  0.00     0.091 A 
ATOM     92  F   UNL A   1      44.257  34.082  27.752  1.00  0.00    -0.205 F 
ATOM     93  C   UNL A   1      45.916  35.741  30.565  1.00  0.00     0.022 A 
BRANCH  91  94
ATOM     94  S   UNL A   1      45.347  36.946  28.174  1.00  0.00     0.127 S 
ATOM     95  O   UNL A   1      43.920  37.236  28.052  1.00  0.00    -0.237 OA
ATOM     96  O   UNL A   1      46.110  37.942  28.926  1.00  0.00    -0.237 OA
ATOM     97  O   UNL A   1      45.993  36.482  26.954  1.00  0.00    -0.744 OA
ENDBRANCH  91  94
ENDBRANCH  64  87
ENDBRANCH  38  39
ENDBRANCH  31  33
ENDBRANCH  30  31
ENDBRANCH  29  30
ENDBRANCH  28  29
ENDBRANCH  27  28
ENDBRANCH  26  27
ENDBRANCH   1  26
TORSDOF 23
ENDMDL
MODEL 3
REMARK VINA RESULT:      -9.8      6.812     10.852
REMARK SMILES COc1cc(Cn2cc(C(=O)OCCOCCOCCOC(=O)c3ccc(-c4c5nc(c(-c6cccc(S(=O)(=O)[O-])c6F)c6ccc([nH]6)c(-c6cccc(S(=O)(=O)[O-])c6F)c6nc(c(-c7cccc(S(=O)(=O)[O-])c7F)c7ccc4[nH]7)C=C6)C=C5)cc3)c(=O)[nH]c2=O)ccn1
REMARK SMILES IDX 16 1 15 2 14 3 13 4 12 5 10 6 11 7 9 8 7 9 8 10 90 11 89 12
REMARK SMILES IDX 91 13 87 14 88 16 6 17 5 18 3 19 4 20 94 21 93 22 92 23 2 24
REMARK SMILES IDX 1 25 17 26 18 27 19 28 20 29 21 30 22 31 23 32 24 33 25 34
REMARK SMILES IDX 86 35 26 36 85 37 27 38 28 39 29 40 79 41 30 42 84 43 78 44
REMARK SMILES IDX 80 45 31 46 83 47 77 48 76 49 32 51 64 52 44 53 63 54 45 55
REMARK SMILES IDX 48 56 62 57 81 58 46 59 47 60 61 62 82 63 49 64 33 65 34 66
REMARK SMILES IDX 42 67 35 68 37 69 43 70 36 71 38 72 39 73 40 74 41 75 65 76
REMARK SMILES IDX 66 77 74 78 67 79 69 80 75 81 68 82 70 83 71 84 72 85 73 86
REMARK SMILES IDX 50 87 51 88 59 89 52 90 54 91 60 92 53 93 55 94 56 95 57 96
REMARK SMILES IDX 58 97
REMARK H PARENT 89 15 80 50 48 61
REMARK Flexibility Score: inf
ROOT
ATOM      1  C   UNL A   1      34.857  31.417  28.341  1.00  0.00     0.188 C 
ENDROOT
BRANCH   1   2
ATOM      2  O   UNL A   1      34.636  30.462  27.315  1.00  0.00    -0.376 OA
BRANCH   2   3
ATOM      3  C   UNL A   1      33.286  30.227  26.951  1.00  0.00     0.202 C 
BRANCH   3   4
ATOM      4  C   UNL A   1      33.076  29.382  25.689  1.00  0.00     0.261 C 
BRANCH   4   5
ATOM      5  O   UNL A   1      32.248  28.224  25.861  1.00  0.00    -0.459 OA
BRANCH   5   6
ATOM      6  C   UNL A   1      32.484  27.154  25.057  1.00  0.00     0.345 C 
ATOM      7  O   UNL A   1      33.188  27.162  24.064  1.00  0.00    -0.246 OA
BRANCH   6   8
ATOM      8  C   UNL A   1      31.764  25.983  25.599  1.00  0.00     0.141 A 
ATOM      9  N   UNL A   1      31.879  23.918  26.808  1.00  0.00    -0.295 N 
ATOM     10  C   UNL A   1      32.463  25.012  26.197  1.00  0.00     0.112 A 
ATOM     11  C   UNL A   1      30.500  23.743  26.810  1.00  0.00     0.328 A 
ATOM     12  N   UNL A   1      29.789  24.716  26.147  1.00  0.00    -0.273 N 
ATOM     13  O   UNL A   1      29.928  22.796  27.343  1.00  0.00    -0.248 OA
ATOM     14  C   UNL A   1      30.311  25.791  25.470  1.00  0.00     0.268 A 
ATOM     15  H   UNL A   1      28.808  24.634  26.160  1.00  0.00     0.175 HD
ATOM     16  O   UNL A   1      29.630  26.474  24.716  1.00  0.00    -0.268 OA
BRANCH   9  17
ATOM     17  C   UNL A   1      32.729  22.948  27.515  1.00  0.00     0.162 C 
BRANCH  17  18
ATOM     18  C   UNL A   1      33.620  22.190  26.555  1.00  0.00    -0.021 A 
ATOM     19  C   UNL A   1      34.021  20.325  25.114  1.00  0.00     0.213 A 
ATOM     20  C   UNL A   1      33.130  21.077  25.867  1.00  0.00     0.074 A 
ATOM     21  N   UNL A   1      35.344  20.573  25.035  1.00  0.00    -0.222 NA
ATOM     22  C   UNL A   1      35.798  21.644  25.713  1.00  0.00     0.115 A 
ATOM     23  C   UNL A   1      34.984  22.491  26.448  1.00  0.00     0.026 A 
BRANCH  19  24
ATOM     24  O   UNL A   1      33.590  19.220  24.430  1.00  0.00    -0.481 OA
ATOM     25  C   UNL A   1      32.480  19.566  23.610  1.00  0.00     0.280 C 
ENDBRANCH  19  24
ENDBRANCH  17  18
ENDBRANCH   9  17
ENDBRANCH   6   8
ENDBRANCH   5   6
ENDBRANCH   4   5
ENDBRANCH   3   4
ENDBRANCH   2   3
ENDBRANCH   1   2
BRANCH   1  26
ATOM     26  C   UNL A   1      34.178  32.775  28.060  1.00  0.00     0.188 C 
BRANCH  26  27
ATOM     27  O   UNL A   1      34.610  33.946  28.747  1.00  0.00    -0.376 OA
BRANCH  27  28
ATOM     28  C   UNL A   1      34.048  35.202  28.388  1.00  0.00     0.202 C 
BRANCH  28  29
ATOM     29  C   UNL A   1      33.031  35.866  29.330  1.00  0.00     0.261 C 
BRANCH  29  30
ATOM     30  O   UNL A   1      32.594  35.053  30.430  1.00  0.00    -0.460 OA
BRANCH  30  31
ATOM     31  C   UNL A   1      32.814  35.567  31.668  1.00  0.00     0.338 C 
ATOM     32  O   UNL A   1      32.092  36.337  32.281  1.00  0.00    -0.246 OA
BRANCH  31  33
ATOM     33  C   UNL A   1      33.983  34.891  32.271  1.00  0.00     0.060 A 
ATOM     34  C   UNL A   1      33.828  33.775  33.095  1.00  0.00     0.016 A 
ATOM     35  C   UNL A   1      35.262  35.397  32.000  1.00  0.00     0.016 A 
ATOM     36  C   UNL A   1      34.960  33.159  33.638  1.00  0.00     0.010 A 
ATOM     37  C   UNL A   1      36.388  34.796  32.563  1.00  0.00     0.010 A 
ATOM     38  C   UNL A   1      36.247  33.661  33.373  1.00  0.00    -0.014 A 
BRANCH  38  39
ATOM     39  C   UNL A   1      37.450  32.910  33.809  1.00  0.00     0.031 A 
ATOM     40  C   UNL A   1      37.983  31.743  33.035  1.00  0.00     0.074 A 
ATOM     41  C   UNL A   1      38.042  33.279  34.962  1.00  0.00     0.049 A 
ATOM     42  N   UNL A   1      39.069  31.046  33.257  1.00  0.00    -0.248 NA
ATOM     43  C   UNL A   1      37.208  31.295  31.869  1.00  0.00     0.031 C 
ATOM     44  C   UNL A   1      37.572  34.356  35.837  1.00  0.00     0.029 A 
ATOM     45  N   UNL A   1      39.151  32.786  35.600  1.00  0.00    -0.354 N 
ATOM     46  C   UNL A   1      39.115  30.080  32.261  1.00  0.00     0.074 A 
ATOM     47  C   UNL A   1      37.936  30.269  31.441  1.00  0.00     0.031 C 
ATOM     48  C   UNL A   1      38.391  34.444  36.898  1.00  0.00     0.029 A 
ATOM     49  C   UNL A   1      39.435  33.430  36.781  1.00  0.00     0.049 A 
ATOM     50  H   UNL A   1      39.691  32.043  35.247  1.00  0.00     0.167 HD
ATOM     51  C   UNL A   1      40.066  29.139  32.042  1.00  0.00     0.034 A 
ATOM     52  C   UNL A   1      40.429  33.236  37.668  1.00  0.00     0.034 A 
ATOM     53  C   UNL A   1      41.237  28.955  32.860  1.00  0.00     0.049 A 
ATOM     54  C   UNL A   1      41.470  32.189  37.398  1.00  0.00     0.074 A 
ATOM     55  C   UNL A   1      42.286  28.071  32.667  1.00  0.00     0.029 A 
ATOM     56  N   UNL A   1      41.509  29.644  34.030  1.00  0.00    -0.354 N 
ATOM     57  N   UNL A   1      41.584  31.394  36.363  1.00  0.00    -0.248 NA
ATOM     58  C   UNL A   1      42.536  32.034  38.398  1.00  0.00     0.031 C 
ATOM     59  C   UNL A   1      43.184  28.215  33.730  1.00  0.00     0.029 A 
ATOM     60  C   UNL A   1      42.701  29.197  34.578  1.00  0.00     0.049 A 
ATOM     61  H   UNL A   1      40.940  30.348  34.415  1.00  0.00     0.167 HD
ATOM     62  C   UNL A   1      42.740  30.655  36.578  1.00  0.00     0.074 A 
ATOM     63  C   UNL A   1      43.304  31.110  37.832  1.00  0.00     0.031 C 
ATOM     64  C   UNL A   1      43.275  29.675  35.809  1.00  0.00     0.034 A 
BRANCH  51  65
ATOM     65  C   UNL A   1      39.932  28.266  30.825  1.00  0.00     0.023 A 
ATOM     66  C   UNL A   1      39.048  27.169  30.873  1.00  0.00     0.012 A 
ATOM     67  C   UNL A   1      40.564  28.598  29.611  1.00  0.00     0.148 A 
ATOM     68  C   UNL A   1      38.798  26.411  29.730  1.00  0.00     0.002 A 
ATOM     69  C   UNL A   1      40.289  27.852  28.469  1.00  0.00     0.091 A 
ATOM     70  F   UNL A   1      41.403  29.644  29.593  1.00  0.00    -0.205 F 
ATOM     71  C   UNL A   1      39.409  26.758  28.528  1.00  0.00     0.022 A 
BRANCH  69  72
ATOM     72  S   UNL A   1      40.974  28.248  26.856  1.00  0.00     0.127 S 
ATOM     73  O   UNL A   1      40.861  26.963  26.164  1.00  0.00    -0.237 OA
ATOM     74  O   UNL A   1      40.055  29.279  26.377  1.00  0.00    -0.237 OA
ATOM     75  O   UNL A   1      42.337  28.702  27.093  1.00  0.00    -0.744 OA
ENDBRANCH  69  72
ENDBRANCH  51  65
BRANCH  52  76
ATOM     76  C   UNL A   1      40.517  34.121  38.859  1.00  0.00     0.023 A 
ATOM     77  C   UNL A   1      41.427  35.195  38.849  1.00  0.00     0.012 A 
ATOM     78  C   UNL A   1      39.653  33.952  39.957  1.00  0.00     0.148 A 
ATOM     79  C   UNL A   1      41.481  36.085  39.921  1.00  0.00     0.002 A 
ATOM     80  C   UNL A   1      39.685  34.865  41.004  1.00  0.00     0.091 A 
ATOM     81  F   UNL A   1      38.797  32.921  39.937  1.00  0.00    -0.205 F 
ATOM     82  C   UNL A   1      40.605  35.927  40.992  1.00  0.00     0.022 A 
BRANCH  80  83
ATOM     83  S   UNL A   1      38.533  34.806  42.380  1.00  0.00     0.127 S 
ATOM     84  O   UNL A   1      37.246  34.889  41.694  1.00  0.00    -0.237 OA
ATOM     85  O   UNL A   1      38.836  33.502  42.967  1.00  0.00    -0.237 OA
ATOM     86  O   UNL A   1      38.864  35.945  43.226  1.00  0.00    -0.744 OA
ENDBRANCH  80  83
ENDBRANCH  52  76
BRANCH  64  87
ATOM     87  C   UNL A   1      44.534  29.010  36.294  1.00  0.00     0.023 A 
ATOM     88  C   UNL A   1      45.776  29.624  36.045  1.00  0.00     0.012 A 
ATOM     89  C   UNL A   1      44.482  27.837  37.073  1.00  0.00     0.148 A 
ATOM     90  C   UNL A   1      46.952  29.074  36.554  1.00  0.00     0.002 A 
ATOM     91  C   UNL A   1      45.655  27.313  37.604  1.00  0.00     0.091 A 
ATOM     92  F   UNL A   1      43.289  27.263  37.285  1.00  0.00    -0.205 F 
ATOM     93  C   UNL A   1      46.890  27.928  37.342  1.00  0.00     0.022 A 
BRANCH  91  94
ATOM     94  S   UNL A   1      45.673  25.878  38.686  1.00  0.00     0.127 S 
ATOM     95  O   UNL A   1      44.826  26.326  39.789  1.00  0.00    -0.237 OA
ATOM     96  O   UNL A   1      45.077  24.845  37.840  1.00  0.00    -0.237 OA
ATOM     97  O   UNL A   1      47.071  25.649  39.030  1.00  0.00    -0.744 OA
ENDBRANCH  91  94
ENDBRANCH  64  87
ENDBRANCH  38  39
ENDBRANCH  31  33
ENDBRANCH  30  31
ENDBRANCH  29  30
ENDBRANCH  28  29
ENDBRANCH  27  28
ENDBRANCH  26  27
ENDBRANCH   1  26
TORSDOF 23
ENDMDL
