MODEL 1
REMARK VINA RESULT:      -7.8      0.000      0.000
REMARK SMILES CCC[N@@H+]1CC2(CC[NH+](c3nccnc3C)CC2)C[C@H]1C(=O)OCCOCCOCCOC(=O)c1ccc(-c2c3nc(c(-c4cccc(S(=O)(=O)[O-])c4F)c4ccc([nH]4)c(-c4cccc(S(=O)(=O)[O-])c4F)c4nc(c(-c5cccc(S(=O)(=O)[O-])c5F)c5ccc2[nH]5)C=C4)C=C3)cc1
REMARK SMILES IDX 28 1 27 2 26 3 25 4 24 5 23 6 21 7 22 8 20 9 4 10 5 11 6 13
REMARK SMILES IDX 19 14 7 15 18 16 8 17 17 18 9 19 3 21 2 22 1 23 10 24 11 25
REMARK SMILES IDX 15 26 12 27 14 28 16 29 13 30 29 31 30 32 31 33 32 34 33 35
REMARK SMILES IDX 34 36 35 37 36 38 97 39 37 40 96 41 38 42 39 43 40 44 90 45
REMARK SMILES IDX 41 46 95 47 89 48 91 49 42 50 94 51 88 52 87 53 43 55 75 56
REMARK SMILES IDX 55 57 74 58 56 59 59 60 73 61 92 62 57 63 58 64 72 66 93 67
REMARK SMILES IDX 60 68 44 69 45 70 53 71 46 72 48 73 54 74 47 75 49 76 50 77
REMARK SMILES IDX 51 78 52 79 76 80 77 81 85 82 78 83 80 84 86 85 79 86 81 87
REMARK SMILES IDX 82 88 83 89 84 90 61 91 62 92 70 93 63 94 65 95 71 96 64 97
REMARK SMILES IDX 66 98 67 99 68 100 69 101
REMARK H PARENT 4 12 9 20 91 54 59 65
REMARK Flexibility Score: inf
ROOT
ATOM      1  C   UNL A   1      44.914  18.889  24.620  1.00  0.00     0.188 C 
ENDROOT
BRANCH   1   2
ATOM      2  C   UNL A   1      46.249  19.294  25.258  1.00  0.00     0.188 C 
BRANCH   2   3
ATOM      3  O   UNL A   1      46.464  20.687  25.179  1.00  0.00    -0.376 OA
BRANCH   3   4
ATOM      4  C   UNL A   1      45.345  21.531  24.974  1.00  0.00     0.202 C 
BRANCH   4   5
ATOM      5  C   UNL A   1      45.329  22.811  24.102  1.00  0.00     0.261 C 
BRANCH   5   6
ATOM      6  O   UNL A   1      46.499  23.639  24.041  1.00  0.00    -0.459 OA
BRANCH   6   7
ATOM      7  C   UNL A   1      46.835  24.328  25.159  1.00  0.00     0.365 C 
ATOM      8  O   UNL A   1      47.009  23.792  26.250  1.00  0.00    -0.245 OA
BRANCH   7   9
ATOM      9  C   UNL A   1      46.912  25.861  24.994  1.00  0.00     0.295 C 
ATOM     10  N   UNL A   1      46.930  26.717  26.225  1.00  0.00    -0.323 N 
ATOM     11  C   UNL A   1      48.301  26.680  26.714  1.00  0.00     0.270 C 
ATOM     12  H   UNL A   1      46.319  26.369  26.963  1.00  0.00     0.348 HD
ATOM     13  C   UNL A   1      49.201  26.536  25.473  1.00  0.00     0.036 C 
ATOM     14  C   UNL A   1      48.235  26.175  24.322  1.00  0.00     0.091 C 
ATOM     15  C   UNL A   1      50.238  25.411  25.723  1.00  0.00     0.075 C 
ATOM     16  C   UNL A   1      49.898  27.861  25.096  1.00  0.00     0.075 C 
ATOM     17  C   UNL A   1      51.390  25.857  26.631  1.00  0.00     0.269 C 
ATOM     18  C   UNL A   1      50.987  28.249  26.089  1.00  0.00     0.269 C 
ATOM     19  N   UNL A   1      51.898  27.129  26.159  1.00  0.00    -0.284 N 
ATOM     20  H   UNL A   1      52.286  26.252  26.382  1.00  0.00     0.355 HD
BRANCH  10  21
ATOM     21  C   UNL A   1      46.370  28.057  25.960  1.00  0.00     0.262 C 
BRANCH  21  22
ATOM     22  C   UNL A   1      45.491  28.723  27.043  1.00  0.00     0.058 C 
ATOM     23  C   UNL A   1      43.989  28.634  26.794  1.00  0.00     0.010 C 
ENDBRANCH  21  22
ENDBRANCH  10  21
BRANCH  19  24
ATOM     24  C   UNL A   1      53.217  27.376  25.889  1.00  0.00     0.247 A 
ATOM     25  N   UNL A   1      53.935  27.978  26.869  1.00  0.00    -0.202 NA
ATOM     26  C   UNL A   1      53.791  27.165  24.619  1.00  0.00     0.119 A 
ATOM     27  C   UNL A   1      55.201  28.329  26.570  1.00  0.00     0.137 A 
ATOM     28  N   UNL A   1      55.080  27.505  24.333  1.00  0.00    -0.252 NA
ATOM     29  C   UNL A   1      52.994  26.628  23.468  1.00  0.00     0.075 C 
ATOM     30  C   UNL A   1      55.762  28.095  25.332  1.00  0.00     0.132 A 
ENDBRANCH  19  24
ENDBRANCH   7   9
ENDBRANCH   6   7
ENDBRANCH   5   6
ENDBRANCH   4   5
ENDBRANCH   3   4
ENDBRANCH   2   3
ENDBRANCH   1   2
BRANCH   1  31
ATOM     31  O   UNL A   1      44.077  18.031  25.364  1.00  0.00    -0.376 OA
BRANCH  31  32
ATOM     32  C   UNL A   1      43.116  18.598  26.237  1.00  0.00     0.202 C 
BRANCH  32  33
ATOM     33  C   UNL A   1      41.957  19.542  25.827  1.00  0.00     0.261 C 
BRANCH  33  34
ATOM     34  O   UNL A   1      41.263  20.292  26.832  1.00  0.00    -0.460 OA
BRANCH  34  35
ATOM     35  C   UNL A   1      40.620  21.417  26.431  1.00  0.00     0.338 C 
ATOM     36  O   UNL A   1      39.577  21.478  25.796  1.00  0.00    -0.246 OA
BRANCH  35  37
ATOM     37  C   UNL A   1      41.264  22.579  27.090  1.00  0.00     0.060 A 
ATOM     38  C   UNL A   1      41.764  22.442  28.395  1.00  0.00     0.016 A 
ATOM     39  C   UNL A   1      41.391  23.794  26.417  1.00  0.00     0.016 A 
ATOM     40  C   UNL A   1      42.380  23.522  29.034  1.00  0.00     0.010 A 
ATOM     41  C   UNL A   1      41.980  24.883  27.070  1.00  0.00     0.010 A 
ATOM     42  C   UNL A   1      42.455  24.761  28.390  1.00  0.00    -0.014 A 
BRANCH  42  43
ATOM     43  C   UNL A   1      42.874  25.973  29.142  1.00  0.00     0.031 A 
ATOM     44  C   UNL A   1      44.322  26.115  29.529  1.00  0.00     0.074 A 
ATOM     45  C   UNL A   1      41.988  26.919  29.507  1.00  0.00     0.049 A 
ATOM     46  N   UNL A   1      44.901  27.034  30.256  1.00  0.00    -0.248 NA
ATOM     47  C   UNL A   1      45.239  25.073  29.034  1.00  0.00     0.031 C 
ATOM     48  C   UNL A   1      40.562  26.911  29.192  1.00  0.00     0.029 A 
ATOM     49  N   UNL A   1      42.161  28.057  30.259  1.00  0.00    -0.354 N 
ATOM     50  C   UNL A   1      46.238  26.664  30.341  1.00  0.00     0.074 A 
ATOM     51  C   UNL A   1      46.386  25.436  29.590  1.00  0.00     0.031 C 
ATOM     52  C   UNL A   1      39.979  27.968  29.784  1.00  0.00     0.029 A 
ATOM     53  C   UNL A   1      40.984  28.710  30.545  1.00  0.00     0.049 A 
ATOM     54  H   UNL A   1      43.042  28.373  30.565  1.00  0.00     0.167 HD
ATOM     55  C   UNL A   1      47.253  27.290  30.982  1.00  0.00     0.034 A 
ATOM     56  C   UNL A   1      40.740  29.760  31.357  1.00  0.00     0.034 A 
ATOM     57  C   UNL A   1      47.113  28.519  31.716  1.00  0.00     0.049 A 
ATOM     58  C   UNL A   1      41.885  30.423  32.084  1.00  0.00     0.074 A 
ATOM     59  C   UNL A   1      48.099  29.258  32.344  1.00  0.00     0.029 A 
ATOM     60  N   UNL A   1      45.915  29.175  31.942  1.00  0.00    -0.354 N 
ATOM     61  N   UNL A   1      43.164  30.134  32.050  1.00  0.00    -0.248 NA
ATOM     62  C   UNL A   1      41.557  31.577  32.935  1.00  0.00     0.031 C 
ATOM     63  C   UNL A   1      47.492  30.338  32.991  1.00  0.00     0.029 A 
ATOM     64  C   UNL A   1      46.133  30.300  32.722  1.00  0.00     0.049 A 
ATOM     65  H   UNL A   1      45.038  28.886  31.601  1.00  0.00     0.167 HD
ATOM     66  C   UNL A   1      43.793  31.089  32.844  1.00  0.00     0.074 A 
ATOM     67  C   UNL A   1      42.759  31.979  33.326  1.00  0.00     0.031 C 
ATOM     68  C   UNL A   1      45.108  31.211  33.156  1.00  0.00     0.034 A 
BRANCH  55  69
ATOM     69  C   UNL A   1      48.620  26.661  30.918  1.00  0.00     0.023 A 
ATOM     70  C   UNL A   1      49.554  27.102  29.961  1.00  0.00     0.012 A 
ATOM     71  C   UNL A   1      49.002  25.687  31.863  1.00  0.00     0.148 A 
ATOM     72  C   UNL A   1      50.841  26.566  29.928  1.00  0.00     0.002 A 
ATOM     73  C   UNL A   1      50.299  25.192  31.854  1.00  0.00     0.091 A 
ATOM     74  F   UNL A   1      48.089  25.268  32.751  1.00  0.00    -0.205 F 
ATOM     75  C   UNL A   1      51.216  25.621  30.880  1.00  0.00     0.022 A 
BRANCH  73  76
ATOM     76  S   UNL A   1      50.905  24.039  33.089  1.00  0.00     0.127 S 
ATOM     77  O   UNL A   1      52.314  23.920  32.716  1.00  0.00    -0.237 OA
ATOM     78  O   UNL A   1      50.663  24.770  34.333  1.00  0.00    -0.237 OA
ATOM     79  O   UNL A   1      50.117  22.825  32.931  1.00  0.00    -0.744 OA
ENDBRANCH  73  76
ENDBRANCH  55  69
BRANCH  56  80
ATOM     80  C   UNL A   1      39.347  30.262  31.537  1.00  0.00     0.023 A 
ATOM     81  C   UNL A   1      38.543  29.744  32.573  1.00  0.00     0.012 A 
ATOM     82  C   UNL A   1      38.809  31.238  30.674  1.00  0.00     0.148 A 
ATOM     83  C   UNL A   1      37.218  30.160  32.721  1.00  0.00     0.002 A 
ATOM     84  C   UNL A   1      37.509  31.691  30.865  1.00  0.00     0.091 A 
ATOM     85  F   UNL A   1      39.581  31.703  29.683  1.00  0.00    -0.205 F 
ATOM     86  C   UNL A   1      36.705  31.138  31.875  1.00  0.00     0.022 A 
BRANCH  84  87
ATOM     87  S   UNL A   1      36.805  33.033  29.902  1.00  0.00     0.127 S 
ATOM     88  O   UNL A   1      37.793  34.091  30.095  1.00  0.00    -0.237 OA
ATOM     89  O   UNL A   1      36.777  32.454  28.558  1.00  0.00    -0.237 OA
ATOM     90  O   UNL A   1      35.491  33.285  30.476  1.00  0.00    -0.744 OA
ENDBRANCH  84  87
ENDBRANCH  56  80
BRANCH  68  91
ATOM     91  C   UNL A   1      45.525  32.375  34.021  1.00  0.00     0.023 A 
ATOM     92  C   UNL A   1      45.661  32.212  35.413  1.00  0.00     0.012 A 
ATOM     93  C   UNL A   1      45.856  33.616  33.437  1.00  0.00     0.148 A 
ATOM     94  C   UNL A   1      46.082  33.273  36.215  1.00  0.00     0.002 A 
ATOM     95  C   UNL A   1      46.325  34.652  34.235  1.00  0.00     0.091 A 
ATOM     96  F   UNL A   1      45.709  33.758  32.111  1.00  0.00    -0.205 F 
ATOM     97  C   UNL A   1      46.425  34.488  35.625  1.00  0.00     0.022 A 
BRANCH  95  98
ATOM     98  S   UNL A   1      46.884  36.219  33.555  1.00  0.00     0.127 S 
ATOM     99  O   UNL A   1      45.658  36.734  32.949  1.00  0.00    -0.237 OA
ATOM    100  O   UNL A   1      47.322  36.937  34.752  1.00  0.00    -0.237 OA
ATOM    101  O   UNL A   1      47.952  35.895  32.619  1.00  0.00    -0.744 OA
ENDBRANCH  95  98
ENDBRANCH  68  91
ENDBRANCH  42  43
ENDBRANCH  35  37
ENDBRANCH  34  35
ENDBRANCH  33  34
ENDBRANCH  32  33
ENDBRANCH  31  32
ENDBRANCH   1  31
TORSDOF 23
ENDMDL
MODEL 2
REMARK VINA RESULT:      -7.8      5.114      9.680
REMARK SMILES CCC[N@@H+]1CC2(CC[NH+](c3nccnc3C)CC2)C[C@H]1C(=O)OCCOCCOCCOC(=O)c1ccc(-c2c3nc(c(-c4cccc(S(=O)(=O)[O-])c4F)c4ccc([nH]4)c(-c4cccc(S(=O)(=O)[O-])c4F)c4nc(c(-c5cccc(S(=O)(=O)[O-])c5F)c5ccc2[nH]5)C=C4)C=C3)cc1
REMARK SMILES IDX 28 1 27 2 26 3 25 4 24 5 23 6 21 7 22 8 20 9 4 10 5 11 6 13
REMARK SMILES IDX 19 14 7 15 18 16 8 17 17 18 9 19 3 21 2 22 1 23 10 24 11 25
REMARK SMILES IDX 15 26 12 27 14 28 16 29 13 30 29 31 30 32 31 33 32 34 33 35
REMARK SMILES IDX 34 36 35 37 36 38 97 39 37 40 96 41 38 42 39 43 40 44 90 45
REMARK SMILES IDX 41 46 95 47 89 48 91 49 42 50 94 51 88 52 87 53 43 55 75 56
REMARK SMILES IDX 55 57 74 58 56 59 59 60 73 61 92 62 57 63 58 64 72 66 93 67
REMARK SMILES IDX 60 68 44 69 45 70 53 71 46 72 48 73 54 74 47 75 49 76 50 77
REMARK SMILES IDX 51 78 52 79 76 80 77 81 85 82 78 83 80 84 86 85 79 86 81 87
REMARK SMILES IDX 82 88 83 89 84 90 61 91 62 92 70 93 63 94 65 95 71 96 64 97
REMARK SMILES IDX 66 98 67 99 68 100 69 101
REMARK H PARENT 4 12 9 20 91 54 59 65
REMARK Flexibility Score: inf
ROOT
ATOM      1  C   UNL A   1      41.824  20.289  27.101  1.00  0.00     0.188 C 
ENDROOT
BRANCH   1   2
ATOM      2  C   UNL A   1      40.477  20.220  26.370  1.00  0.00     0.188 C 
BRANCH   2   3
ATOM      3  O   UNL A   1      39.628  21.285  26.740  1.00  0.00    -0.376 OA
BRANCH   3   4
ATOM      4  C   UNL A   1      38.779  21.844  25.752  1.00  0.00     0.202 C 
BRANCH   4   5
ATOM      5  C   UNL A   1      37.327  21.398  25.453  1.00  0.00     0.261 C 
BRANCH   5   6
ATOM      6  O   UNL A   1      36.245  22.312  25.682  1.00  0.00    -0.459 OA
BRANCH   6   7
ATOM      7  C   UNL A   1      35.053  21.788  26.054  1.00  0.00     0.365 C 
ATOM      8  O   UNL A   1      34.747  21.579  27.225  1.00  0.00    -0.245 OA
BRANCH   7   9
ATOM      9  C   UNL A   1      34.114  21.390  24.894  1.00  0.00     0.295 C 
ATOM     10  N   UNL A   1      32.702  21.000  25.213  1.00  0.00    -0.323 N 
ATOM     11  C   UNL A   1      31.978  22.251  25.397  1.00  0.00     0.270 C 
ATOM     12  H   UNL A   1      32.621  20.456  26.072  1.00  0.00     0.348 HD
ATOM     13  C   UNL A   1      32.641  23.277  24.461  1.00  0.00     0.036 C 
ATOM     14  C   UNL A   1      33.956  22.608  24.004  1.00  0.00     0.091 C 
ATOM     15  C   UNL A   1      32.909  24.586  25.249  1.00  0.00     0.075 C 
ATOM     16  C   UNL A   1      31.796  23.552  23.198  1.00  0.00     0.075 C 
ATOM     17  C   UNL A   1      31.644  25.430  25.445  1.00  0.00     0.269 C 
ATOM     18  C   UNL A   1      30.533  24.346  23.504  1.00  0.00     0.269 C 
ATOM     19  N   UNL A   1      30.958  25.554  24.176  1.00  0.00    -0.284 N 
ATOM     20  H   UNL A   1      31.276  26.175  24.870  1.00  0.00     0.355 HD
BRANCH  10  21
ATOM     21  C   UNL A   1      32.154  20.074  24.202  1.00  0.00     0.262 C 
BRANCH  21  22
ATOM     22  C   UNL A   1      32.897  18.746  23.930  1.00  0.00     0.058 C 
ATOM     23  C   UNL A   1      32.539  18.069  22.612  1.00  0.00     0.010 C 
ENDBRANCH  21  22
ENDBRANCH  10  21
BRANCH  19  24
ATOM     24  C   UNL A   1      30.574  26.746  23.624  1.00  0.00     0.247 A 
ATOM     25  N   UNL A   1      29.272  27.094  23.775  1.00  0.00    -0.202 NA
ATOM     26  C   UNL A   1      31.423  27.522  22.809  1.00  0.00     0.119 A 
ATOM     27  C   UNL A   1      28.859  28.207  23.137  1.00  0.00     0.137 A 
ATOM     28  N   UNL A   1      31.001  28.658  22.185  1.00  0.00    -0.252 NA
ATOM     29  C   UNL A   1      32.830  27.102  22.504  1.00  0.00     0.075 C 
ATOM     30  C   UNL A   1      29.705  28.973  22.362  1.00  0.00     0.132 A 
ENDBRANCH  19  24
ENDBRANCH   7   9
ENDBRANCH   6   7
ENDBRANCH   5   6
ENDBRANCH   4   5
ENDBRANCH   3   4
ENDBRANCH   2   3
ENDBRANCH   1   2
BRANCH   1  31
ATOM     31  O   UNL A   1      42.936  20.747  26.363  1.00  0.00    -0.376 OA
BRANCH  31  32
ATOM     32  C   UNL A   1      43.494  19.904  25.371  1.00  0.00     0.202 C 
BRANCH  32  33
ATOM     33  C   UNL A   1      44.847  20.121  24.646  1.00  0.00     0.261 C 
BRANCH  33  34
ATOM     34  O   UNL A   1      45.609  21.307  24.905  1.00  0.00    -0.460 OA
BRANCH  34  35
ATOM     35  C   UNL A   1      45.115  22.477  24.429  1.00  0.00     0.338 C 
ATOM     36  O   UNL A   1      44.696  22.690  23.301  1.00  0.00    -0.246 OA
BRANCH  35  37
ATOM     37  C   UNL A   1      44.945  23.406  25.572  1.00  0.00     0.060 A 
ATOM     38  C   UNL A   1      44.988  24.792  25.346  1.00  0.00     0.016 A 
ATOM     39  C   UNL A   1      44.723  22.914  26.858  1.00  0.00     0.016 A 
ATOM     40  C   UNL A   1      44.824  25.687  26.407  1.00  0.00     0.010 A 
ATOM     41  C   UNL A   1      44.591  23.812  27.924  1.00  0.00     0.010 A 
ATOM     42  C   UNL A   1      44.666  25.202  27.710  1.00  0.00    -0.014 A 
BRANCH  42  43
ATOM     43  C   UNL A   1      44.743  26.128  28.870  1.00  0.00     0.031 A 
ATOM     44  C   UNL A   1      46.061  26.276  29.585  1.00  0.00     0.074 A 
ATOM     45  C   UNL A   1      43.665  26.804  29.308  1.00  0.00     0.049 A 
ATOM     46  N   UNL A   1      46.347  26.953  30.666  1.00  0.00    -0.248 NA
ATOM     47  C   UNL A   1      47.207  25.557  29.003  1.00  0.00     0.031 C 
ATOM     48  C   UNL A   1      42.335  26.759  28.706  1.00  0.00     0.029 A 
ATOM     49  N   UNL A   1      43.516  27.636  30.392  1.00  0.00    -0.354 N 
ATOM     50  C   UNL A   1      47.691  26.711  30.920  1.00  0.00     0.074 A 
ATOM     51  C   UNL A   1      48.167  25.826  29.878  1.00  0.00     0.031 C 
ATOM     52  C   UNL A   1      41.492  27.493  29.454  1.00  0.00     0.029 A 
ATOM     53  C   UNL A   1      42.216  28.035  30.604  1.00  0.00     0.049 A 
ATOM     54  H   UNL A   1      44.267  27.918  30.963  1.00  0.00     0.167 HD
ATOM     55  C   UNL A   1      48.464  27.185  31.925  1.00  0.00     0.034 A 
ATOM     56  C   UNL A   1      41.667  28.723  31.626  1.00  0.00     0.034 A 
ATOM     57  C   UNL A   1      48.000  28.077  32.953  1.00  0.00     0.049 A 
ATOM     58  C   UNL A   1      42.545  29.216  32.751  1.00  0.00     0.074 A 
ATOM     59  C   UNL A   1      48.728  28.659  33.976  1.00  0.00     0.029 A 
ATOM     60  N   UNL A   1      46.689  28.497  33.106  1.00  0.00    -0.354 N 
ATOM     61  N   UNL A   1      43.841  29.084  32.907  1.00  0.00    -0.248 NA
ATOM     62  C   UNL A   1      41.890  29.980  33.824  1.00  0.00     0.031 C 
ATOM     63  C   UNL A   1      47.849  29.394  34.776  1.00  0.00     0.029 A 
ATOM     64  C   UNL A   1      46.582  29.312  34.221  1.00  0.00     0.049 A 
ATOM     65  H   UNL A   1      45.944  28.253  32.512  1.00  0.00     0.167 HD
ATOM     66  C   UNL A   1      44.158  29.777  34.073  1.00  0.00     0.074 A 
ATOM     67  C   UNL A   1      42.924  30.347  34.569  1.00  0.00     0.031 C 
ATOM     68  C   UNL A   1      45.361  29.918  34.683  1.00  0.00     0.034 A 
BRANCH  55  69
ATOM     69  C   UNL A   1      49.907  26.754  31.968  1.00  0.00     0.023 A 
ATOM     70  C   UNL A   1      50.920  27.642  31.558  1.00  0.00     0.012 A 
ATOM     71  C   UNL A   1      50.259  25.494  32.492  1.00  0.00     0.148 A 
ATOM     72  C   UNL A   1      52.262  27.273  31.645  1.00  0.00     0.002 A 
ATOM     73  C   UNL A   1      51.599  25.152  32.619  1.00  0.00     0.091 A 
ATOM     74  F   UNL A   1      49.277  24.657  32.857  1.00  0.00    -0.205 F 
ATOM     75  C   UNL A   1      52.601  26.036  32.185  1.00  0.00     0.022 A 
BRANCH  73  76
ATOM     76  S   UNL A   1      52.141  23.620  33.381  1.00  0.00     0.127 S 
ATOM     77  O   UNL A   1      51.531  23.717  34.706  1.00  0.00    -0.237 OA
ATOM     78  O   UNL A   1      51.539  22.614  32.505  1.00  0.00    -0.237 OA
ATOM     79  O   UNL A   1      53.596  23.651  33.364  1.00  0.00    -0.744 OA
ENDBRANCH  73  76
ENDBRANCH  55  69
BRANCH  56  80
ATOM     80  C   UNL A   1      40.200  28.994  31.647  1.00  0.00     0.023 A 
ATOM     81  C   UNL A   1      39.339  28.139  32.364  1.00  0.00     0.012 A 
ATOM     82  C   UNL A   1      39.653  30.085  30.943  1.00  0.00     0.148 A 
ATOM     83  C   UNL A   1      37.958  28.343  32.347  1.00  0.00     0.002 A 
ATOM     84  C   UNL A   1      38.283  30.318  30.981  1.00  0.00     0.091 A 
ATOM     85  F   UNL A   1      40.484  30.875  30.250  1.00  0.00    -0.205 F 
ATOM     86  C   UNL A   1      37.431  29.436  31.665  1.00  0.00     0.022 A 
BRANCH  84  87
ATOM     87  S   UNL A   1      37.531  31.766  30.233  1.00  0.00     0.127 S 
ATOM     88  O   UNL A   1      37.718  31.501  28.809  1.00  0.00    -0.237 OA
ATOM     89  O   UNL A   1      36.148  31.661  30.702  1.00  0.00    -0.237 OA
ATOM     90  O   UNL A   1      38.260  32.909  30.764  1.00  0.00    -0.744 OA
ENDBRANCH  84  87
ENDBRANCH  56  80
BRANCH  68  91
ATOM     91  C   UNL A   1      45.427  30.762  35.932  1.00  0.00     0.023 A 
ATOM     92  C   UNL A   1      45.303  30.162  37.200  1.00  0.00     0.012 A 
ATOM     93  C   UNL A   1      45.687  32.146  35.847  1.00  0.00     0.148 A 
ATOM     94  C   UNL A   1      45.398  30.930  38.362  1.00  0.00     0.002 A 
ATOM     95  C   UNL A   1      45.834  32.894  37.008  1.00  0.00     0.091 A 
ATOM     96  F   UNL A   1      45.789  32.703  34.631  1.00  0.00    -0.205 F 
ATOM     97  C   UNL A   1      45.675  32.292  38.266  1.00  0.00     0.022 A 
BRANCH  95  98
ATOM     98  S   UNL A   1      46.288  34.633  36.986  1.00  0.00     0.127 S 
ATOM     99  O   UNL A   1      47.553  34.601  36.254  1.00  0.00    -0.237 OA
ATOM    100  O   UNL A   1      45.174  35.235  36.254  1.00  0.00    -0.237 OA
ATOM    101  O   UNL A   1      46.387  35.042  38.381  1.00  0.00    -0.744 OA
ENDBRANCH  95  98
ENDBRANCH  68  91
ENDBRANCH  42  43
ENDBRANCH  35  37
ENDBRANCH  34  35
ENDBRANCH  33  34
ENDBRANCH  32  33
ENDBRANCH  31  32
ENDBRANCH   1  31
TORSDOF 23
ENDMDL
MODEL 3
REMARK VINA RESULT:      -7.7      5.528     11.977
REMARK SMILES CCC[N@@H+]1CC2(CC[NH+](c3nccnc3C)CC2)C[C@H]1C(=O)OCCOCCOCCOC(=O)c1ccc(-c2c3nc(c(-c4cccc(S(=O)(=O)[O-])c4F)c4ccc([nH]4)c(-c4cccc(S(=O)(=O)[O-])c4F)c4nc(c(-c5cccc(S(=O)(=O)[O-])c5F)c5ccc2[nH]5)C=C4)C=C3)cc1
REMARK SMILES IDX 28 1 27 2 26 3 25 4 24 5 23 6 21 7 22 8 20 9 4 10 5 11 6 13
REMARK SMILES IDX 19 14 7 15 18 16 8 17 17 18 9 19 3 21 2 22 1 23 10 24 11 25
REMARK SMILES IDX 15 26 12 27 14 28 16 29 13 30 29 31 30 32 31 33 32 34 33 35
REMARK SMILES IDX 34 36 35 37 36 38 97 39 37 40 96 41 38 42 39 43 40 44 90 45
REMARK SMILES IDX 41 46 95 47 89 48 91 49 42 50 94 51 88 52 87 53 43 55 75 56
REMARK SMILES IDX 55 57 74 58 56 59 59 60 73 61 92 62 57 63 58 64 72 66 93 67
REMARK SMILES IDX 60 68 44 69 45 70 53 71 46 72 48 73 54 74 47 75 49 76 50 77
REMARK SMILES IDX 51 78 52 79 76 80 77 81 85 82 78 83 80 84 86 85 79 86 81 87
REMARK SMILES IDX 82 88 83 89 84 90 61 91 62 92 70 93 63 94 65 95 71 96 64 97
REMARK SMILES IDX 66 98 67 99 68 100 69 101
REMARK H PARENT 4 12 9 20 91 54 59 65
REMARK Flexibility Score: inf
ROOT
ATOM      1  C   UNL A   1      41.479  22.846  27.811  1.00  0.00     0.188 C 
ENDROOT
BRANCH   1   2
ATOM      2  C   UNL A   1      40.889  23.889  26.853  1.00  0.00     0.188 C 
BRANCH   2   3
ATOM      3  O   UNL A   1      39.576  24.251  27.220  1.00  0.00    -0.376 OA
BRANCH   3   4
ATOM      4  C   UNL A   1      38.503  23.820  26.400  1.00  0.00     0.202 C 
BRANCH   4   5
ATOM      5  C   UNL A   1      38.216  22.355  25.988  1.00  0.00     0.261 C 
BRANCH   5   6
ATOM      6  O   UNL A   1      36.859  21.913  25.847  1.00  0.00    -0.459 OA
BRANCH   6   7
ATOM      7  C   UNL A   1      36.354  21.840  24.592  1.00  0.00     0.365 C 
ATOM      8  O   UNL A   1      36.982  22.185  23.594  1.00  0.00    -0.245 OA
BRANCH   7   9
ATOM      9  C   UNL A   1      34.890  21.361  24.494  1.00  0.00     0.295 C 
ATOM     10  N   UNL A   1      34.028  21.427  25.719  1.00  0.00    -0.323 N 
ATOM     11  C   UNL A   1      33.588  22.812  25.820  1.00  0.00     0.270 C 
ATOM     12  H   UNL A   1      34.528  21.188  26.575  1.00  0.00     0.348 HD
ATOM     13  C   UNL A   1      33.476  23.338  24.378  1.00  0.00     0.036 C 
ATOM     14  C   UNL A   1      34.182  22.273  23.510  1.00  0.00     0.091 C 
ATOM     15  C   UNL A   1      34.183  24.715  24.281  1.00  0.00     0.075 C 
ATOM     16  C   UNL A   1      32.011  23.431  23.899  1.00  0.00     0.075 C 
ATOM     17  C   UNL A   1      33.344  25.855  24.869  1.00  0.00     0.269 C 
ATOM     18  C   UNL A   1      31.245  24.556  24.582  1.00  0.00     0.269 C 
ATOM     19  N   UNL A   1      31.996  25.768  24.347  1.00  0.00    -0.284 N 
ATOM     20  H   UNL A   1      32.685  26.468  24.410  1.00  0.00     0.355 HD
BRANCH  10  21
ATOM     21  C   UNL A   1      32.960  20.407  25.685  1.00  0.00     0.262 C 
BRANCH  21  22
ATOM     22  C   UNL A   1      33.248  19.053  24.999  1.00  0.00     0.058 C 
ATOM     23  C   UNL A   1      32.596  17.845  25.665  1.00  0.00     0.010 C 
ENDBRANCH  21  22
ENDBRANCH  10  21
BRANCH  19  24
ATOM     24  C   UNL A   1      31.337  26.807  23.747  1.00  0.00     0.247 A 
ATOM     25  N   UNL A   1      30.574  27.587  24.551  1.00  0.00    -0.202 NA
ATOM     26  C   UNL A   1      31.312  26.993  22.350  1.00  0.00     0.119 A 
ATOM     27  C   UNL A   1      29.831  28.540  23.952  1.00  0.00     0.137 A 
ATOM     28  N   UNL A   1      30.574  27.973  21.755  1.00  0.00    -0.252 NA
ATOM     29  C   UNL A   1      32.032  26.069  21.414  1.00  0.00     0.075 C 
ATOM     30  C   UNL A   1      29.834  28.730  22.586  1.00  0.00     0.132 A 
ENDBRANCH  19  24
ENDBRANCH   7   9
ENDBRANCH   6   7
ENDBRANCH   5   6
ENDBRANCH   4   5
ENDBRANCH   3   4
ENDBRANCH   2   3
ENDBRANCH   1   2
BRANCH   1  31
ATOM     31  O   UNL A   1      41.125  21.497  27.594  1.00  0.00    -0.376 OA
BRANCH  31  32
ATOM     32  C   UNL A   1      41.607  20.841  26.435  1.00  0.00     0.202 C 
BRANCH  32  33
ATOM     33  C   UNL A   1      43.094  20.686  26.026  1.00  0.00     0.261 C 
BRANCH  33  34
ATOM     34  O   UNL A   1      43.805  21.812  25.494  1.00  0.00    -0.460 OA
BRANCH  34  35
ATOM     35  C   UNL A   1      45.086  21.985  25.903  1.00  0.00     0.338 C 
ATOM     36  O   UNL A   1      46.023  21.223  25.718  1.00  0.00    -0.246 OA
BRANCH  35  37
ATOM     37  C   UNL A   1      45.226  23.369  26.415  1.00  0.00     0.060 A 
ATOM     38  C   UNL A   1      45.610  23.575  27.750  1.00  0.00     0.016 A 
ATOM     39  C   UNL A   1      44.998  24.461  25.577  1.00  0.00     0.016 A 
ATOM     40  C   UNL A   1      45.754  24.871  28.254  1.00  0.00     0.010 A 
ATOM     41  C   UNL A   1      45.111  25.758  26.092  1.00  0.00     0.010 A 
ATOM     42  C   UNL A   1      45.465  25.971  27.438  1.00  0.00    -0.014 A 
BRANCH  42  43
ATOM     43  C   UNL A   1      45.368  27.334  28.024  1.00  0.00     0.031 A 
ATOM     44  C   UNL A   1      44.033  27.800  28.543  1.00  0.00     0.074 A 
ATOM     45  C   UNL A   1      46.429  28.160  28.069  1.00  0.00     0.049 A 
ATOM     46  N   UNL A   1      43.689  28.970  29.014  1.00  0.00    -0.248 NA
ATOM     47  C   UNL A   1      42.940  26.814  28.521  1.00  0.00     0.031 C 
ATOM     48  C   UNL A   1      47.777  27.835  27.610  1.00  0.00     0.029 A 
ATOM     49  N   UNL A   1      46.524  29.464  28.494  1.00  0.00    -0.354 N 
ATOM     50  C   UNL A   1      42.333  28.876  29.305  1.00  0.00     0.074 A 
ATOM     51  C   UNL A   1      41.917  27.534  28.960  1.00  0.00     0.031 C 
ATOM     52  C   UNL A   1      48.556  28.924  27.735  1.00  0.00     0.029 A 
ATOM     53  C   UNL A   1      47.754  30.032  28.255  1.00  0.00     0.049 A 
ATOM     54  H   UNL A   1      45.783  29.946  28.927  1.00  0.00     0.167 HD
ATOM     55  C   UNL A   1      41.508  29.819  29.818  1.00  0.00     0.034 A 
ATOM     56  C   UNL A   1      48.174  31.306  28.400  1.00  0.00     0.034 A 
ATOM     57  C   UNL A   1      41.921  31.149  30.177  1.00  0.00     0.049 A 
ATOM     58  C   UNL A   1      47.226  32.346  28.946  1.00  0.00     0.074 A 
ATOM     59  C   UNL A   1      41.168  32.152  30.762  1.00  0.00     0.029 A 
ATOM     60  N   UNL A   1      43.186  31.672  29.965  1.00  0.00    -0.354 N 
ATOM     61  N   UNL A   1      45.982  32.208  29.336  1.00  0.00    -0.248 NA
ATOM     62  C   UNL A   1      47.751  33.712  29.103  1.00  0.00     0.031 C 
ATOM     63  C   UNL A   1      41.963  33.296  30.861  1.00  0.00     0.029 A 
ATOM     64  C   UNL A   1      43.229  32.991  30.385  1.00  0.00     0.049 A 
ATOM     65  H   UNL A   1      43.942  31.179  29.572  1.00  0.00     0.167 HD
ATOM     66  C   UNL A   1      45.590  33.455  29.815  1.00  0.00     0.074 A 
ATOM     67  C   UNL A   1      46.735  34.330  29.689  1.00  0.00     0.031 C 
ATOM     68  C   UNL A   1      44.385  33.843  30.304  1.00  0.00     0.034 A 
BRANCH  55  69
ATOM     69  C   UNL A   1      40.063  29.450  30.031  1.00  0.00     0.023 A 
ATOM     70  C   UNL A   1      39.666  28.824  31.228  1.00  0.00     0.012 A 
ATOM     71  C   UNL A   1      39.089  29.800  29.075  1.00  0.00     0.148 A 
ATOM     72  C   UNL A   1      38.323  28.527  31.460  1.00  0.00     0.002 A 
ATOM     73  C   UNL A   1      37.749  29.544  29.333  1.00  0.00     0.091 A 
ATOM     74  F   UNL A   1      39.493  30.378  27.934  1.00  0.00    -0.205 F 
ATOM     75  C   UNL A   1      37.365  28.897  30.519  1.00  0.00     0.022 A 
BRANCH  73  76
ATOM     76  S   UNL A   1      36.433  30.059  28.226  1.00  0.00     0.127 S 
ATOM     77  O   UNL A   1      36.407  31.504  28.451  1.00  0.00    -0.237 OA
ATOM     78  O   UNL A   1      36.957  29.655  26.921  1.00  0.00    -0.237 OA
ATOM     79  O   UNL A   1      35.240  29.343  28.654  1.00  0.00    -0.744 OA
ENDBRANCH  73  76
ENDBRANCH  55  69
BRANCH  56  80
ATOM     80  C   UNL A   1      49.567  31.686  28.021  1.00  0.00     0.023 A 
ATOM     81  C   UNL A   1      49.825  32.216  26.741  1.00  0.00     0.012 A 
ATOM     82  C   UNL A   1      50.638  31.507  28.918  1.00  0.00     0.148 A 
ATOM     83  C   UNL A   1      51.129  32.523  26.348  1.00  0.00     0.002 A 
ATOM     84  C   UNL A   1      51.925  31.872  28.542  1.00  0.00     0.091 A 
ATOM     85  F   UNL A   1      50.376  30.983  30.123  1.00  0.00    -0.205 F 
ATOM     86  C   UNL A   1      52.176  32.360  27.250  1.00  0.00     0.022 A 
BRANCH  84  87
ATOM     87  S   UNL A   1      53.315  31.811  29.677  1.00  0.00     0.127 S 
ATOM     88  O   UNL A   1      53.804  30.450  29.480  1.00  0.00    -0.237 OA
ATOM     89  O   UNL A   1      54.184  32.862  29.144  1.00  0.00    -0.237 OA
ATOM     90  O   UNL A   1      52.762  32.099  30.993  1.00  0.00    -0.744 OA
ENDBRANCH  84  87
ENDBRANCH  56  80
BRANCH  68  91
ATOM     91  C   UNL A   1      44.244  35.264  30.792  1.00  0.00     0.023 A 
ATOM     92  C   UNL A   1      44.517  35.582  32.137  1.00  0.00     0.012 A 
ATOM     93  C   UNL A   1      43.911  36.298  29.893  1.00  0.00     0.148 A 
ATOM     94  C   UNL A   1      44.424  36.899  32.588  1.00  0.00     0.002 A 
ATOM     95  C   UNL A   1      43.872  37.614  30.337  1.00  0.00     0.091 A 
ATOM     96  F   UNL A   1      43.641  35.976  28.619  1.00  0.00    -0.205 F 
ATOM     97  C   UNL A   1      44.114  37.915  31.686  1.00  0.00     0.022 A 
BRANCH  95  98
ATOM     98  S   UNL A   1      43.579  39.000  29.231  1.00  0.00     0.127 S 
ATOM     99  O   UNL A   1      44.801  39.005  28.430  1.00  0.00    -0.237 OA
ATOM    100  O   UNL A   1      42.379  38.572  28.510  1.00  0.00    -0.237 OA
ATOM    101  O   UNL A   1      43.389  40.165  30.084  1.00  0.00    -0.744 OA
ENDBRANCH  95  98
ENDBRANCH  68  91
ENDBRANCH  42  43
ENDBRANCH  35  37
ENDBRANCH  34  35
ENDBRANCH  33  34
ENDBRANCH  32  33
ENDBRANCH  31  32
ENDBRANCH   1  31
TORSDOF 23
ENDMDL
