MODEL 1
REMARK VINA RESULT:     -10.6      0.000      0.000
REMARK SMILES CS(=O)(=O)c1ccc(/C=C(/C(=O)OCCOCCOCCOC(=O)c2ccc(-c3c4nc(c(-c5cccc(S(=O)(=O)[O-])c5F)c5ccc([nH]5)c(-c5cccc(S(=O)(=O)[O-])c5F)c5nc(c(-c6cccc(S(=O)(=O)[O-])c6F)c6ccc3[nH]6)C=C5)C=C4)cc2)c2cccc(-c3ccc(S(C)(=O)=O)cc3)c2)cc1
REMARK SMILES IDX 17 1 16 2 15 3 14 4 13 5 11 6 12 7 10 8 9 9 8 10 5 11 6 12
REMARK SMILES IDX 105 13 7 14 104 15 2 16 1 17 3 18 4 19 88 20 89 21 103 22
REMARK SMILES IDX 90 23 92 24 91 25 93 26 94 27 102 28 95 29 101 30 96 31
REMARK SMILES IDX 97 32 98 33 99 34 100 35 18 36 19 37 20 38 21 39 22 40 23 41
REMARK SMILES IDX 24 42 25 43 26 44 87 45 27 46 86 47 28 48 29 49 30 50 80 51
REMARK SMILES IDX 31 52 85 53 79 54 81 55 32 56 84 57 78 58 77 59 33 61 65 62
REMARK SMILES IDX 45 63 64 64 46 65 49 66 63 67 82 68 47 69 48 70 62 72 83 73
REMARK SMILES IDX 50 74 34 75 35 76 43 77 36 78 38 79 44 80 37 81 39 82 40 83
REMARK SMILES IDX 41 84 42 85 66 86 67 87 75 88 68 89 70 90 76 91 69 92 71 93
REMARK SMILES IDX 72 94 73 95 74 96 51 97 52 98 60 99 53 100 55 101 61 102
REMARK SMILES IDX 54 103 56 104 57 105 58 106 59 107
REMARK H PARENT 81 60 49 71
REMARK Flexibility Score: inf
ROOT
ATOM      1  C   UNL A   1      33.681  28.820  25.617  1.00  0.00     0.188 C 
ENDROOT
BRANCH   1   2
ATOM      2  O   UNL A   1      32.810  27.705  25.531  1.00  0.00    -0.376 OA
BRANCH   2   3
ATOM      3  C   UNL A   1      32.319  27.236  26.779  1.00  0.00     0.202 C 
BRANCH   3   4
ATOM      4  C   UNL A   1      31.550  25.904  26.734  1.00  0.00     0.261 C 
BRANCH   4   5
ATOM      5  O   UNL A   1      32.296  24.764  26.264  1.00  0.00    -0.460 OA
BRANCH   5   6
ATOM      6  C   UNL A   1      31.973  24.260  25.048  1.00  0.00     0.338 C 
ATOM      7  O   UNL A   1      31.359  24.866  24.183  1.00  0.00    -0.246 OA
BRANCH   6   8
ATOM      8  C   UNL A   1      32.561  22.886  24.855  1.00  0.00     0.067 C 
ATOM      9  C   UNL A   1      31.911  21.799  25.351  1.00  0.00     0.024 C 
BRANCH   9  10
ATOM     10  C   UNL A   1      32.195  20.349  25.148  1.00  0.00    -0.025 A 
ATOM     11  C   UNL A   1      33.155  17.764  24.557  1.00  0.00     0.067 A 
ATOM     12  C   UNL A   1      33.084  18.192  25.879  1.00  0.00     0.021 A 
ATOM     13  C   UNL A   1      32.631  18.558  23.537  1.00  0.00     0.021 A 
ATOM     14  C   UNL A   1      32.558  19.457  26.169  1.00  0.00     0.009 A 
ATOM     15  C   UNL A   1      32.163  19.845  23.836  1.00  0.00     0.009 A 
BRANCH  11  16
ATOM     16  S   UNL A   1      33.946  16.218  24.173  1.00  0.00     0.175 S 
ATOM     17  C   UNL A   1      35.392  16.180  25.202  1.00  0.00     0.163 C 
ATOM     18  O   UNL A   1      34.377  16.300  22.790  1.00  0.00    -0.224 OA
ATOM     19  O   UNL A   1      33.073  15.151  24.624  1.00  0.00    -0.224 OA
ENDBRANCH  11  16
ENDBRANCH   9  10
BRANCH   8  20
ATOM     20  C   UNL A   1      33.821  22.781  24.090  1.00  0.00    -0.010 A 
ATOM     21  C   UNL A   1      33.910  23.274  22.780  1.00  0.00     0.009 A 
ATOM     22  C   UNL A   1      34.987  22.340  24.719  1.00  0.00     0.017 A 
ATOM     23  C   UNL A   1      35.141  23.349  22.129  1.00  0.00     0.001 A 
ATOM     24  C   UNL A   1      36.242  22.473  24.099  1.00  0.00    -0.018 A 
ATOM     25  C   UNL A   1      36.302  22.965  22.790  1.00  0.00     0.009 A 
BRANCH  24  26
ATOM     26  C   UNL A   1      37.454  22.193  24.870  1.00  0.00    -0.018 A 
ATOM     27  C   UNL A   1      38.023  23.179  25.694  1.00  0.00     0.010 A 
ATOM     28  C   UNL A   1      38.013  20.905  24.868  1.00  0.00     0.010 A 
ATOM     29  C   UNL A   1      39.113  22.883  26.511  1.00  0.00     0.021 A 
ATOM     30  C   UNL A   1      39.104  20.600  25.677  1.00  0.00     0.021 A 
ATOM     31  C   UNL A   1      39.647  21.593  26.491  1.00  0.00     0.067 A 
BRANCH  31  32
ATOM     32  S   UNL A   1      41.033  21.216  27.529  1.00  0.00     0.175 S 
ATOM     33  C   UNL A   1      42.393  21.158  26.392  1.00  0.00     0.163 C 
ATOM     34  O   UNL A   1      41.216  22.342  28.425  1.00  0.00    -0.224 OA
ATOM     35  O   UNL A   1      40.841  19.878  28.058  1.00  0.00    -0.224 OA
ENDBRANCH  31  32
ENDBRANCH  24  26
ENDBRANCH   8  20
ENDBRANCH   6   8
ENDBRANCH   5   6
ENDBRANCH   4   5
ENDBRANCH   3   4
ENDBRANCH   2   3
ENDBRANCH   1   2
BRANCH   1  36
ATOM     36  C   UNL A   1      33.809  29.399  27.044  1.00  0.00     0.188 C 
BRANCH  36  37
ATOM     37  O   UNL A   1      33.022  30.507  27.452  1.00  0.00    -0.376 OA
BRANCH  37  38
ATOM     38  C   UNL A   1      33.655  31.763  27.638  1.00  0.00     0.202 C 
BRANCH  38  39
ATOM     39  C   UNL A   1      32.814  33.053  27.667  1.00  0.00     0.261 C 
BRANCH  39  40
ATOM     40  O   UNL A   1      33.524  34.288  27.868  1.00  0.00    -0.460 OA
BRANCH  40  41
ATOM     41  C   UNL A   1      33.507  34.784  29.130  1.00  0.00     0.338 C 
ATOM     42  O   UNL A   1      32.630  35.475  29.634  1.00  0.00    -0.246 OA
BRANCH  41  43
ATOM     43  C   UNL A   1      34.626  34.209  29.912  1.00  0.00     0.060 A 
ATOM     44  C   UNL A   1      35.938  34.456  29.483  1.00  0.00     0.016 A 
ATOM     45  C   UNL A   1      34.397  33.399  31.026  1.00  0.00     0.016 A 
ATOM     46  C   UNL A   1      37.022  33.888  30.157  1.00  0.00     0.010 A 
ATOM     47  C   UNL A   1      35.484  32.808  31.684  1.00  0.00     0.010 A 
ATOM     48  C   UNL A   1      36.800  33.031  31.242  1.00  0.00    -0.014 A 
BRANCH  48  49
ATOM     49  C   UNL A   1      37.929  32.236  31.791  1.00  0.00     0.031 A 
ATOM     50  C   UNL A   1      38.465  32.590  33.150  1.00  0.00     0.074 A 
ATOM     51  C   UNL A   1      38.473  31.215  31.104  1.00  0.00     0.049 A 
ATOM     52  N   UNL A   1      39.451  32.051  33.819  1.00  0.00    -0.248 NA
ATOM     53  C   UNL A   1      37.805  33.708  33.843  1.00  0.00     0.031 C 
ATOM     54  C   UNL A   1      38.051  30.767  29.780  1.00  0.00     0.029 A 
ATOM     55  N   UNL A   1      39.514  30.378  31.426  1.00  0.00    -0.354 N 
ATOM     56  C   UNL A   1      39.555  32.784  34.995  1.00  0.00     0.074 A 
ATOM     57  C   UNL A   1      38.530  33.805  34.948  1.00  0.00     0.031 C 
ATOM     58  C   UNL A   1      38.826  29.737  29.399  1.00  0.00     0.029 A 
ATOM     59  C   UNL A   1      39.835  29.485  30.429  1.00  0.00     0.049 A 
ATOM     60  H   UNL A   1      39.987  30.413  32.289  1.00  0.00     0.167 HD
ATOM     61  C   UNL A   1      40.424  32.628  36.021  1.00  0.00     0.034 A 
ATOM     62  C   UNL A   1      40.844  28.594  30.342  1.00  0.00     0.034 A 
ATOM     63  C   UNL A   1      41.451  31.622  36.069  1.00  0.00     0.049 A 
ATOM     64  C   UNL A   1      41.824  28.466  31.482  1.00  0.00     0.074 A 
ATOM     65  C   UNL A   1      42.354  31.364  37.086  1.00  0.00     0.029 A 
ATOM     66  N   UNL A   1      41.733  30.727  35.049  1.00  0.00    -0.354 N 
ATOM     67  N   UNL A   1      41.839  29.090  32.635  1.00  0.00    -0.248 NA
ATOM     68  C   UNL A   1      42.916  27.493  31.316  1.00  0.00     0.031 C 
ATOM     69  C   UNL A   1      43.211  30.344  36.661  1.00  0.00     0.029 A 
ATOM     70  C   UNL A   1      42.808  29.929  35.402  1.00  0.00     0.049 A 
ATOM     71  H   UNL A   1      41.241  30.668  34.198  1.00  0.00     0.167 HD
ATOM     72  C   UNL A   1      42.917  28.563  33.342  1.00  0.00     0.074 A 
ATOM     73  C   UNL A   1      43.517  27.552  32.496  1.00  0.00     0.031 C 
ATOM     74  C   UNL A   1      43.373  28.892  34.577  1.00  0.00     0.034 A 
BRANCH  61  75
ATOM     75  C   UNL A   1      40.307  33.583  37.180  1.00  0.00     0.023 A 
ATOM     76  C   UNL A   1      39.304  33.395  38.152  1.00  0.00     0.012 A 
ATOM     77  C   UNL A   1      41.217  34.650  37.323  1.00  0.00     0.148 A 
ATOM     78  C   UNL A   1      39.181  34.276  39.225  1.00  0.00     0.002 A 
ATOM     79  C   UNL A   1      41.119  35.494  38.422  1.00  0.00     0.091 A 
ATOM     80  F   UNL A   1      42.150  34.826  36.377  1.00  0.00    -0.205 F 
ATOM     81  C   UNL A   1      40.094  35.318  39.366  1.00  0.00     0.022 A 
BRANCH  79  82
ATOM     82  S   UNL A   1      42.296  36.815  38.734  1.00  0.00     0.127 S 
ATOM     83  O   UNL A   1      41.489  37.749  39.515  1.00  0.00    -0.237 OA
ATOM     84  O   UNL A   1      43.337  36.123  39.494  1.00  0.00    -0.237 OA
ATOM     85  O   UNL A   1      42.717  37.295  37.425  1.00  0.00    -0.744 OA
ENDBRANCH  79  82
ENDBRANCH  61  75
BRANCH  62  86
ATOM     86  C   UNL A   1      40.986  27.737  29.130  1.00  0.00     0.023 A 
ATOM     87  C   UNL A   1      40.315  26.498  29.067  1.00  0.00     0.012 A 
ATOM     88  C   UNL A   1      41.788  28.137  28.043  1.00  0.00     0.148 A 
ATOM     89  C   UNL A   1      40.466  25.662  27.960  1.00  0.00     0.002 A 
ATOM     90  C   UNL A   1      41.887  27.326  26.919  1.00  0.00     0.091 A 
ATOM     91  F   UNL A   1      42.433  29.309  28.129  1.00  0.00    -0.205 F 
ATOM     92  C   UNL A   1      41.243  26.080  26.883  1.00  0.00     0.022 A 
BRANCH  90  93
ATOM     93  S   UNL A   1      42.766  27.832  25.437  1.00  0.00     0.127 S 
ATOM     94  O   UNL A   1      44.109  28.077  25.955  1.00  0.00    -0.237 OA
ATOM     95  O   UNL A   1      42.636  26.645  24.594  1.00  0.00    -0.237 OA
ATOM     96  O   UNL A   1      42.060  29.005  24.940  1.00  0.00    -0.744 OA
ENDBRANCH  90  93
ENDBRANCH  62  86
BRANCH  74  97
ATOM     97  C   UNL A   1      44.548  28.122  35.128  1.00  0.00     0.023 A 
ATOM     98  C   UNL A   1      45.863  28.570  34.894  1.00  0.00     0.012 A 
ATOM     99  C   UNL A   1      44.340  26.995  35.948  1.00  0.00     0.148 A 
ATOM    100  C   UNL A   1      46.953  27.887  35.438  1.00  0.00     0.002 A 
ATOM    101  C   UNL A   1      45.426  26.352  36.530  1.00  0.00     0.091 A 
ATOM    102  F   UNL A   1      43.083  26.573  36.147  1.00  0.00    -0.205 F 
ATOM    103  C   UNL A   1      46.734  26.788  36.265  1.00  0.00     0.022 A 
BRANCH 101 104
ATOM    104  S   UNL A   1      45.236  24.991  37.687  1.00  0.00     0.127 S 
ATOM    105  O   UNL A   1      44.275  24.139  36.989  1.00  0.00    -0.237 OA
ATOM    106  O   UNL A   1      46.594  24.450  37.755  1.00  0.00    -0.237 OA
ATOM    107  O   UNL A   1      44.757  25.581  38.930  1.00  0.00    -0.744 OA
ENDBRANCH 101 104
ENDBRANCH  74  97
ENDBRANCH  48  49
ENDBRANCH  41  43
ENDBRANCH  40  41
ENDBRANCH  39  40
ENDBRANCH  38  39
ENDBRANCH  37  38
ENDBRANCH  36  37
ENDBRANCH   1  36
TORSDOF 25
ENDMDL
MODEL 2
REMARK VINA RESULT:      -9.4      7.706     13.852
REMARK SMILES CS(=O)(=O)c1ccc(/C=C(/C(=O)OCCOCCOCCOC(=O)c2ccc(-c3c4nc(c(-c5cccc(S(=O)(=O)[O-])c5F)c5ccc([nH]5)c(-c5cccc(S(=O)(=O)[O-])c5F)c5nc(c(-c6cccc(S(=O)(=O)[O-])c6F)c6ccc3[nH]6)C=C5)C=C4)cc2)c2cccc(-c3ccc(S(C)(=O)=O)cc3)c2)cc1
REMARK SMILES IDX 17 1 16 2 15 3 14 4 13 5 11 6 12 7 10 8 9 9 8 10 5 11 6 12
REMARK SMILES IDX 105 13 7 14 104 15 2 16 1 17 3 18 4 19 88 20 89 21 103 22
REMARK SMILES IDX 90 23 92 24 91 25 93 26 94 27 102 28 95 29 101 30 96 31
REMARK SMILES IDX 97 32 98 33 99 34 100 35 18 36 19 37 20 38 21 39 22 40 23 41
REMARK SMILES IDX 24 42 25 43 26 44 87 45 27 46 86 47 28 48 29 49 30 50 80 51
REMARK SMILES IDX 31 52 85 53 79 54 81 55 32 56 84 57 78 58 77 59 33 61 65 62
REMARK SMILES IDX 45 63 64 64 46 65 49 66 63 67 82 68 47 69 48 70 62 72 83 73
REMARK SMILES IDX 50 74 34 75 35 76 43 77 36 78 38 79 44 80 37 81 39 82 40 83
REMARK SMILES IDX 41 84 42 85 66 86 67 87 75 88 68 89 70 90 76 91 69 92 71 93
REMARK SMILES IDX 72 94 73 95 74 96 51 97 52 98 60 99 53 100 55 101 61 102
REMARK SMILES IDX 54 103 56 104 57 105 58 106 59 107
REMARK H PARENT 81 60 49 71
REMARK Flexibility Score: inf
ROOT
ATOM      1  C   UNL A   1      39.630  27.250  28.301  1.00  0.00     0.188 C 
ENDROOT
BRANCH   1   2
ATOM      2  O   UNL A   1      40.028  27.520  29.634  1.00  0.00    -0.376 OA
BRANCH   2   3
ATOM      3  C   UNL A   1      38.981  27.452  30.592  1.00  0.00     0.202 C 
BRANCH   3   4
ATOM      4  C   UNL A   1      37.937  28.580  30.520  1.00  0.00     0.261 C 
BRANCH   4   5
ATOM      5  O   UNL A   1      37.589  29.195  31.776  1.00  0.00    -0.460 OA
BRANCH   5   6
ATOM      6  C   UNL A   1      38.080  30.433  32.026  1.00  0.00     0.338 C 
ATOM      7  O   UNL A   1      39.251  30.682  32.270  1.00  0.00    -0.246 OA
BRANCH   6   8
ATOM      8  C   UNL A   1      37.014  31.485  31.861  1.00  0.00     0.067 C 
ATOM      9  C   UNL A   1      36.449  32.050  32.961  1.00  0.00     0.024 C 
BRANCH   9  10
ATOM     10  C   UNL A   1      35.515  33.209  33.060  1.00  0.00    -0.025 A 
ATOM     11  C   UNL A   1      33.851  35.467  32.764  1.00  0.00     0.067 A 
ATOM     12  C   UNL A   1      33.287  34.212  32.963  1.00  0.00     0.021 A 
ATOM     13  C   UNL A   1      35.234  35.631  32.841  1.00  0.00     0.021 A 
ATOM     14  C   UNL A   1      34.119  33.103  33.161  1.00  0.00     0.009 A 
ATOM     15  C   UNL A   1      36.057  34.504  32.980  1.00  0.00     0.009 A 
BRANCH  11  16
ATOM     16  S   UNL A   1      32.805  36.852  32.376  1.00  0.00     0.175 S 
ATOM     17  C   UNL A   1      33.875  38.267  32.464  1.00  0.00     0.163 C 
ATOM     18  O   UNL A   1      31.831  36.955  33.447  1.00  0.00    -0.224 OA
ATOM     19  O   UNL A   1      32.388  36.718  30.993  1.00  0.00    -0.224 OA
ENDBRANCH  11  16
ENDBRANCH   9  10
BRANCH   8  20
ATOM     20  C   UNL A   1      36.653  31.884  30.484  1.00  0.00    -0.010 A 
ATOM     21  C   UNL A   1      37.385  32.869  29.807  1.00  0.00     0.009 A 
ATOM     22  C   UNL A   1      35.681  31.170  29.781  1.00  0.00     0.017 A 
ATOM     23  C   UNL A   1      37.167  33.111  28.451  1.00  0.00     0.001 A 
ATOM     24  C   UNL A   1      35.500  31.357  28.399  1.00  0.00    -0.018 A 
ATOM     25  C   UNL A   1      36.242  32.350  27.747  1.00  0.00     0.009 A 
BRANCH  24  26
ATOM     26  C   UNL A   1      34.623  30.447  27.662  1.00  0.00    -0.018 A 
ATOM     27  C   UNL A   1      35.092  29.197  27.223  1.00  0.00     0.010 A 
ATOM     28  C   UNL A   1      33.271  30.770  27.466  1.00  0.00     0.010 A 
ATOM     29  C   UNL A   1      34.231  28.284  26.617  1.00  0.00     0.021 A 
ATOM     30  C   UNL A   1      32.402  29.868  26.858  1.00  0.00     0.021 A 
ATOM     31  C   UNL A   1      32.890  28.632  26.436  1.00  0.00     0.067 A 
BRANCH  31  32
ATOM     32  S   UNL A   1      31.794  27.472  25.665  1.00  0.00     0.175 S 
ATOM     33  C   UNL A   1      30.949  28.452  24.451  1.00  0.00     0.163 C 
ATOM     34  O   UNL A   1      32.617  26.490  24.987  1.00  0.00    -0.224 OA
ATOM     35  O   UNL A   1      30.818  27.057  26.657  1.00  0.00    -0.224 OA
ENDBRANCH  31  32
ENDBRANCH  24  26
ENDBRANCH   8  20
ENDBRANCH   6   8
ENDBRANCH   5   6
ENDBRANCH   4   5
ENDBRANCH   3   4
ENDBRANCH   2   3
ENDBRANCH   1   2
BRANCH   1  36
ATOM     36  C   UNL A   1      40.672  26.444  27.493  1.00  0.00     0.188 C 
BRANCH  36  37
ATOM     37  O   UNL A   1      40.555  25.037  27.356  1.00  0.00    -0.376 OA
BRANCH  37  38
ATOM     38  C   UNL A   1      41.239  24.202  28.275  1.00  0.00     0.202 C 
BRANCH  38  39
ATOM     39  C   UNL A   1      41.737  22.813  27.833  1.00  0.00     0.261 C 
BRANCH  39  40
ATOM     40  O   UNL A   1      43.155  22.578  27.901  1.00  0.00    -0.460 OA
BRANCH  40  41
ATOM     41  C   UNL A   1      43.846  22.779  26.751  1.00  0.00     0.338 C 
ATOM     42  O   UNL A   1      43.900  22.024  25.789  1.00  0.00    -0.246 OA
BRANCH  41  43
ATOM     43  C   UNL A   1      44.391  24.155  26.724  1.00  0.00     0.060 A 
ATOM     44  C   UNL A   1      44.455  24.826  25.494  1.00  0.00     0.016 A 
ATOM     45  C   UNL A   1      44.877  24.771  27.879  1.00  0.00     0.016 A 
ATOM     46  C   UNL A   1      45.013  26.103  25.411  1.00  0.00     0.010 A 
ATOM     47  C   UNL A   1      45.462  26.041  27.791  1.00  0.00     0.010 A 
ATOM     48  C   UNL A   1      45.553  26.706  26.555  1.00  0.00    -0.014 A 
BRANCH  48  49
ATOM     49  C   UNL A   1      46.365  27.943  26.418  1.00  0.00     0.031 A 
ATOM     50  C   UNL A   1      47.845  27.810  26.187  1.00  0.00     0.074 A 
ATOM     51  C   UNL A   1      45.809  29.165  26.493  1.00  0.00     0.049 A 
ATOM     52  N   UNL A   1      48.751  28.743  26.057  1.00  0.00    -0.248 NA
ATOM     53  C   UNL A   1      48.373  26.439  26.101  1.00  0.00     0.031 C 
ATOM     54  C   UNL A   1      44.391  29.436  26.713  1.00  0.00     0.029 A 
ATOM     55  N   UNL A   1      46.380  30.412  26.407  1.00  0.00    -0.354 N 
ATOM     56  C   UNL A   1      49.962  28.077  25.909  1.00  0.00     0.074 A 
ATOM     57  C   UNL A   1      49.672  26.660  25.963  1.00  0.00     0.031 C 
ATOM     58  C   UNL A   1      44.201  30.767  26.747  1.00  0.00     0.029 A 
ATOM     59  C   UNL A   1      45.490  31.443  26.603  1.00  0.00     0.049 A 
ATOM     60  H   UNL A   1      47.337  30.555  26.222  1.00  0.00     0.167 HD
ATOM     61  C   UNL A   1      51.203  28.592  25.745  1.00  0.00     0.034 A 
ATOM     62  C   UNL A   1      45.696  32.773  26.692  1.00  0.00     0.034 A 
ATOM     63  C   UNL A   1      51.497  29.999  25.700  1.00  0.00     0.049 A 
ATOM     64  C   UNL A   1      47.093  33.321  26.546  1.00  0.00     0.074 A 
ATOM     65  C   UNL A   1      52.721  30.615  25.499  1.00  0.00     0.029 A 
ATOM     66  N   UNL A   1      50.568  31.011  25.886  1.00  0.00    -0.354 N 
ATOM     67  N   UNL A   1      48.211  32.683  26.294  1.00  0.00    -0.248 NA
ATOM     68  C   UNL A   1      47.255  34.779  26.677  1.00  0.00     0.031 C 
ATOM     69  C   UNL A   1      52.539  31.997  25.610  1.00  0.00     0.029 A 
ATOM     70  C   UNL A   1      51.193  32.246  25.825  1.00  0.00     0.049 A 
ATOM     71  H   UNL A   1      49.606  30.872  26.039  1.00  0.00     0.167 HD
ATOM     72  C   UNL A   1      49.199  33.661  26.202  1.00  0.00     0.074 A 
ATOM     73  C   UNL A   1      48.543  34.937  26.404  1.00  0.00     0.031 C 
ATOM     74  C   UNL A   1      50.529  33.515  25.979  1.00  0.00     0.034 A 
BRANCH  61  75
ATOM     75  C   UNL A   1      52.346  27.620  25.614  1.00  0.00     0.023 A 
ATOM     76  C   UNL A   1      52.692  27.105  24.348  1.00  0.00     0.012 A 
ATOM     77  C   UNL A   1      53.099  27.244  26.743  1.00  0.00     0.148 A 
ATOM     78  C   UNL A   1      53.744  26.199  24.214  1.00  0.00     0.002 A 
ATOM     79  C   UNL A   1      54.177  26.380  26.595  1.00  0.00     0.091 A 
ATOM     80  F   UNL A   1      52.740  27.727  27.941  1.00  0.00    -0.205 F 
ATOM     81  C   UNL A   1      54.492  25.846  25.335  1.00  0.00     0.022 A 
BRANCH  79  82
ATOM     82  S   UNL A   1      55.249  25.928  27.963  1.00  0.00     0.127 S 
ATOM     83  O   UNL A   1      56.257  26.985  27.908  1.00  0.00    -0.237 OA
ATOM     84  O   UNL A   1      54.338  26.013  29.105  1.00  0.00    -0.237 OA
ATOM     85  O   UNL A   1      55.733  24.587  27.669  1.00  0.00    -0.744 OA
ENDBRANCH  79  82
ENDBRANCH  61  75
BRANCH  62  86
ATOM     86  C   UNL A   1      44.548  33.697  26.927  1.00  0.00     0.023 A 
ATOM     87  C   UNL A   1      44.053  34.480  25.864  1.00  0.00     0.012 A 
ATOM     88  C   UNL A   1      43.950  33.808  28.197  1.00  0.00     0.148 A 
ATOM     89  C   UNL A   1      43.007  35.380  26.071  1.00  0.00     0.002 A 
ATOM     90  C   UNL A   1      42.870  34.663  28.381  1.00  0.00     0.091 A 
ATOM     91  F   UNL A   1      44.446  33.070  29.198  1.00  0.00    -0.205 F 
ATOM     92  C   UNL A   1      42.409  35.464  27.326  1.00  0.00     0.022 A 
BRANCH  90  93
ATOM     93  S   UNL A   1      41.961  34.751  29.928  1.00  0.00     0.127 S 
ATOM     94  O   UNL A   1      42.012  33.365  30.385  1.00  0.00    -0.237 OA
ATOM     95  O   UNL A   1      42.777  35.686  30.700  1.00  0.00    -0.237 OA
ATOM     96  O   UNL A   1      40.637  35.250  29.580  1.00  0.00    -0.744 OA
ENDBRANCH  90  93
ENDBRANCH  62  86
BRANCH  74  97
ATOM     97  C   UNL A   1      51.374  34.762  25.884  1.00  0.00     0.023 A 
ATOM     98  C   UNL A   1      51.491  35.450  24.660  1.00  0.00     0.012 A 
ATOM     99  C   UNL A   1      51.990  35.294  27.035  1.00  0.00     0.148 A 
ATOM    100  C   UNL A   1      52.235  36.628  24.576  1.00  0.00     0.002 A 
ATOM    101  C   UNL A   1      52.684  36.496  26.955  1.00  0.00     0.091 A 
ATOM    102  F   UNL A   1      51.883  34.618  28.187  1.00  0.00    -0.205 F 
ATOM    103  C   UNL A   1      52.820  37.157  25.724  1.00  0.00     0.022 A 
BRANCH 101 104
ATOM    104  S   UNL A   1      53.386  37.302  28.399  1.00  0.00     0.127 S 
ATOM    105  O   UNL A   1      52.189  37.610  29.180  1.00  0.00    -0.237 OA
ATOM    106  O   UNL A   1      54.229  36.248  28.964  1.00  0.00    -0.237 OA
ATOM    107  O   UNL A   1      54.117  38.460  27.900  1.00  0.00    -0.744 OA
ENDBRANCH 101 104
ENDBRANCH  74  97
ENDBRANCH  48  49
ENDBRANCH  41  43
ENDBRANCH  40  41
ENDBRANCH  39  40
ENDBRANCH  38  39
ENDBRANCH  37  38
ENDBRANCH  36  37
ENDBRANCH   1  36
TORSDOF 25
ENDMDL
MODEL 3
REMARK VINA RESULT:      -9.1      2.498      2.919
REMARK SMILES CS(=O)(=O)c1ccc(/C=C(/C(=O)OCCOCCOCCOC(=O)c2ccc(-c3c4nc(c(-c5cccc(S(=O)(=O)[O-])c5F)c5ccc([nH]5)c(-c5cccc(S(=O)(=O)[O-])c5F)c5nc(c(-c6cccc(S(=O)(=O)[O-])c6F)c6ccc3[nH]6)C=C5)C=C4)cc2)c2cccc(-c3ccc(S(C)(=O)=O)cc3)c2)cc1
REMARK SMILES IDX 17 1 16 2 15 3 14 4 13 5 11 6 12 7 10 8 9 9 8 10 5 11 6 12
REMARK SMILES IDX 105 13 7 14 104 15 2 16 1 17 3 18 4 19 88 20 89 21 103 22
REMARK SMILES IDX 90 23 92 24 91 25 93 26 94 27 102 28 95 29 101 30 96 31
REMARK SMILES IDX 97 32 98 33 99 34 100 35 18 36 19 37 20 38 21 39 22 40 23 41
REMARK SMILES IDX 24 42 25 43 26 44 87 45 27 46 86 47 28 48 29 49 30 50 80 51
REMARK SMILES IDX 31 52 85 53 79 54 81 55 32 56 84 57 78 58 77 59 33 61 65 62
REMARK SMILES IDX 45 63 64 64 46 65 49 66 63 67 82 68 47 69 48 70 62 72 83 73
REMARK SMILES IDX 50 74 34 75 35 76 43 77 36 78 38 79 44 80 37 81 39 82 40 83
REMARK SMILES IDX 41 84 42 85 66 86 67 87 75 88 68 89 70 90 76 91 69 92 71 93
REMARK SMILES IDX 72 94 73 95 74 96 51 97 52 98 60 99 53 100 55 101 61 102
REMARK SMILES IDX 54 103 56 104 57 105 58 106 59 107
REMARK H PARENT 81 60 49 71
REMARK Flexibility Score: inf
ROOT
ATOM      1  C   UNL A   1      33.824  28.690  25.683  1.00  0.00     0.188 C 
ENDROOT
BRANCH   1   2
ATOM      2  O   UNL A   1      32.931  27.605  25.498  1.00  0.00    -0.376 OA
BRANCH   2   3
ATOM      3  C   UNL A   1      32.070  27.349  26.598  1.00  0.00     0.202 C 
BRANCH   3   4
ATOM      4  C   UNL A   1      31.635  25.884  26.777  1.00  0.00     0.261 C 
BRANCH   4   5
ATOM      5  O   UNL A   1      32.429  24.904  26.079  1.00  0.00    -0.460 OA
BRANCH   5   6
ATOM      6  C   UNL A   1      31.842  24.231  25.060  1.00  0.00     0.338 C 
ATOM      7  O   UNL A   1      30.977  24.688  24.329  1.00  0.00    -0.246 OA
BRANCH   6   8
ATOM      8  C   UNL A   1      32.470  22.874  24.872  1.00  0.00     0.067 C 
ATOM      9  C   UNL A   1      31.846  21.769  25.362  1.00  0.00     0.024 C 
BRANCH   9  10
ATOM     10  C   UNL A   1      32.171  20.327  25.161  1.00  0.00    -0.025 A 
ATOM     11  C   UNL A   1      33.202  17.770  24.565  1.00  0.00     0.067 A 
ATOM     12  C   UNL A   1      33.141  18.203  25.886  1.00  0.00     0.021 A 
ATOM     13  C   UNL A   1      32.636  18.542  23.551  1.00  0.00     0.021 A 
ATOM     14  C   UNL A   1      32.581  19.452  26.179  1.00  0.00     0.009 A 
ATOM     15  C   UNL A   1      32.132  19.815  23.851  1.00  0.00     0.009 A 
BRANCH  11  16
ATOM     16  S   UNL A   1      34.034  16.248  24.174  1.00  0.00     0.175 S 
ATOM     17  C   UNL A   1      35.537  16.298  25.118  1.00  0.00     0.163 C 
ATOM     18  O   UNL A   1      34.382  16.310  22.767  1.00  0.00    -0.224 OA
ATOM     19  O   UNL A   1      33.235  15.158  24.702  1.00  0.00    -0.224 OA
ENDBRANCH  11  16
ENDBRANCH   9  10
BRANCH   8  20
ATOM     20  C   UNL A   1      33.740  22.804  24.119  1.00  0.00    -0.010 A 
ATOM     21  C   UNL A   1      33.797  23.177  22.769  1.00  0.00     0.009 A 
ATOM     22  C   UNL A   1      34.934  22.524  24.786  1.00  0.00     0.017 A 
ATOM     23  C   UNL A   1      35.021  23.294  22.113  1.00  0.00     0.001 A 
ATOM     24  C   UNL A   1      36.178  22.704  24.156  1.00  0.00    -0.018 A 
ATOM     25  C   UNL A   1      36.206  23.073  22.806  1.00  0.00     0.009 A 
BRANCH  24  26
ATOM     26  C   UNL A   1      37.404  22.602  24.949  1.00  0.00    -0.018 A 
ATOM     27  C   UNL A   1      37.852  23.689  25.719  1.00  0.00     0.010 A 
ATOM     28  C   UNL A   1      38.099  21.385  25.025  1.00  0.00     0.010 A 
ATOM     29  C   UNL A   1      38.957  23.561  26.559  1.00  0.00     0.021 A 
ATOM     30  C   UNL A   1      39.207  21.247  25.856  1.00  0.00     0.021 A 
ATOM     31  C   UNL A   1      39.629  22.338  26.615  1.00  0.00     0.067 A 
BRANCH  31  32
ATOM     32  S   UNL A   1      41.035  22.173  27.682  1.00  0.00     0.175 S 
ATOM     33  C   UNL A   1      42.372  21.876  26.555  1.00  0.00     0.163 C 
ATOM     34  O   UNL A   1      41.238  23.457  28.325  1.00  0.00    -0.224 OA
ATOM     35  O   UNL A   1      40.851  20.973  28.477  1.00  0.00    -0.224 OA
ENDBRANCH  31  32
ENDBRANCH  24  26
ENDBRANCH   8  20
ENDBRANCH   6   8
ENDBRANCH   5   6
ENDBRANCH   4   5
ENDBRANCH   3   4
ENDBRANCH   2   3
ENDBRANCH   1   2
BRANCH   1  36
ATOM     36  C   UNL A   1      33.821  29.259  27.120  1.00  0.00     0.188 C 
BRANCH  36  37
ATOM     37  O   UNL A   1      33.264  30.535  27.395  1.00  0.00    -0.376 OA
BRANCH  37  38
ATOM     38  C   UNL A   1      34.109  31.554  27.903  1.00  0.00     0.202 C 
BRANCH  38  39
ATOM     39  C   UNL A   1      33.711  33.034  27.748  1.00  0.00     0.261 C 
BRANCH  39  40
ATOM     40  O   UNL A   1      34.480  33.996  28.492  1.00  0.00    -0.460 OA
BRANCH  40  41
ATOM     41  C   UNL A   1      34.144  34.143  29.797  1.00  0.00     0.338 C 
ATOM     42  O   UNL A   1      33.027  34.370  30.245  1.00  0.00    -0.246 OA
BRANCH  41  43
ATOM     43  C   UNL A   1      35.298  33.793  30.657  1.00  0.00     0.060 A 
ATOM     44  C   UNL A   1      36.443  34.603  30.603  1.00  0.00     0.016 A 
ATOM     45  C   UNL A   1      35.283  32.661  31.473  1.00  0.00     0.016 A 
ATOM     46  C   UNL A   1      37.575  34.279  31.354  1.00  0.00     0.010 A 
ATOM     47  C   UNL A   1      36.430  32.322  32.204  1.00  0.00     0.010 A 
ATOM     48  C   UNL A   1      37.589  33.116  32.133  1.00  0.00    -0.014 A 
BRANCH  48  49
ATOM     49  C   UNL A   1      38.868  32.644  32.724  1.00  0.00     0.031 A 
ATOM     50  C   UNL A   1      39.114  32.876  34.189  1.00  0.00     0.074 A 
ATOM     51  C   UNL A   1      39.799  32.017  31.982  1.00  0.00     0.049 A 
ATOM     52  N   UNL A   1      40.158  32.570  34.913  1.00  0.00    -0.248 NA
ATOM     53  C   UNL A   1      38.040  33.553  34.933  1.00  0.00     0.031 C 
ATOM     54  C   UNL A   1      39.689  31.729  30.555  1.00  0.00     0.029 A 
ATOM     55  N   UNL A   1      41.033  31.523  32.330  1.00  0.00    -0.354 N 
ATOM     56  C   UNL A   1      39.886  33.047  36.189  1.00  0.00     0.074 A 
ATOM     57  C   UNL A   1      38.576  33.661  36.140  1.00  0.00     0.031 C 
ATOM     58  C   UNL A   1      40.810  31.109  30.146  1.00  0.00     0.029 A 
ATOM     59  C   UNL A   1      41.740  31.003  31.271  1.00  0.00     0.049 A 
ATOM     60  H   UNL A   1      41.380  31.539  33.252  1.00  0.00     0.167 HD
ATOM     61  C   UNL A   1      40.653  32.984  37.304  1.00  0.00     0.034 A 
ATOM     62  C   UNL A   1      43.002  30.530  31.207  1.00  0.00     0.034 A 
ATOM     63  C   UNL A   1      41.959  32.384  37.356  1.00  0.00     0.049 A 
ATOM     64  C   UNL A   1      43.852  30.507  32.453  1.00  0.00     0.074 A 
ATOM     65  C   UNL A   1      42.795  32.240  38.450  1.00  0.00     0.029 A 
ATOM     66  N   UNL A   1      42.634  31.854  36.267  1.00  0.00    -0.354 N 
ATOM     67  N   UNL A   1      43.537  30.859  33.677  1.00  0.00    -0.248 NA
ATOM     68  C   UNL A   1      45.227  30.001  32.313  1.00  0.00     0.031 C 
ATOM     69  C   UNL A   1      43.993  31.665  38.014  1.00  0.00     0.029 A 
ATOM     70  C   UNL A   1      43.883  31.400  36.658  1.00  0.00     0.049 A 
ATOM     71  H   UNL A   1      42.277  31.807  35.351  1.00  0.00     0.167 HD
ATOM     72  C   UNL A   1      44.660  30.585  34.455  1.00  0.00     0.074 A 
ATOM     73  C   UNL A   1      45.655  30.019  33.568  1.00  0.00     0.031 C 
ATOM     74  C   UNL A   1      44.851  30.793  35.782  1.00  0.00     0.034 A 
BRANCH  61  75
ATOM     75  C   UNL A   1      40.099  33.596  38.563  1.00  0.00     0.023 A 
ATOM     76  C   UNL A   1      39.497  32.778  39.540  1.00  0.00     0.012 A 
ATOM     77  C   UNL A   1      40.205  34.982  38.792  1.00  0.00     0.148 A 
ATOM     78  C   UNL A   1      38.974  33.333  40.707  1.00  0.00     0.002 A 
ATOM     79  C   UNL A   1      39.726  35.522  39.979  1.00  0.00     0.091 A 
ATOM     80  F   UNL A   1      40.760  35.747  37.841  1.00  0.00    -0.205 F 
ATOM     81  C   UNL A   1      39.098  34.702  40.931  1.00  0.00     0.022 A 
BRANCH  79  82
ATOM     82  S   UNL A   1      39.910  37.260  40.394  1.00  0.00     0.127 S 
ATOM     83  O   UNL A   1      39.207  37.903  39.286  1.00  0.00    -0.237 OA
ATOM     84  O   UNL A   1      39.221  37.340  41.683  1.00  0.00    -0.237 OA
ATOM     85  O   UNL A   1      41.343  37.509  40.455  1.00  0.00    -0.744 OA
ENDBRANCH  79  82
ENDBRANCH  61  75
BRANCH  62  86
ATOM     86  C   UNL A   1      43.551  30.027  29.914  1.00  0.00     0.023 A 
ATOM     87  C   UNL A   1      43.425  28.662  29.586  1.00  0.00     0.012 A 
ATOM     88  C   UNL A   1      44.204  30.891  29.014  1.00  0.00     0.148 A 
ATOM     89  C   UNL A   1      43.966  28.162  28.401  1.00  0.00     0.002 A 
ATOM     90  C   UNL A   1      44.689  30.398  27.809  1.00  0.00     0.091 A 
ATOM     91  F   UNL A   1      44.331  32.181  29.353  1.00  0.00    -0.205 F 
ATOM     92  C   UNL A   1      44.589  29.031  27.509  1.00  0.00     0.022 A 
BRANCH  90  93
ATOM     93  S   UNL A   1      45.399  31.459  26.546  1.00  0.00     0.127 S 
ATOM     94  O   UNL A   1      44.221  32.169  26.055  1.00  0.00    -0.237 OA
ATOM     95  O   UNL A   1      46.328  32.272  27.329  1.00  0.00    -0.237 OA
ATOM     96  O   UNL A   1      46.037  30.564  25.591  1.00  0.00    -0.744 OA
ENDBRANCH  90  93
ENDBRANCH  62  86
BRANCH  74  97
ATOM     97  C   UNL A   1      46.165  30.360  36.386  1.00  0.00     0.023 A 
ATOM     98  C   UNL A   1      46.322  29.051  36.882  1.00  0.00     0.012 A 
ATOM     99  C   UNL A   1      47.271  31.234  36.386  1.00  0.00     0.148 A 
ATOM    100  C   UNL A   1      47.548  28.631  37.401  1.00  0.00     0.002 A 
ATOM    101  C   UNL A   1      48.502  30.792  36.855  1.00  0.00     0.091 A 
ATOM    102  F   UNL A   1      47.100  32.481  35.926  1.00  0.00    -0.205 F 
ATOM    103  C   UNL A   1      48.640  29.495  37.376  1.00  0.00     0.022 A 
BRANCH 101 104
ATOM    104  S   UNL A   1      49.987  31.801  36.771  1.00  0.00     0.127 S 
ATOM    105  O   UNL A   1      49.656  32.894  37.683  1.00  0.00    -0.237 OA
ATOM    106  O   UNL A   1      51.014  30.883  37.265  1.00  0.00    -0.237 OA
ATOM    107  O   UNL A   1      50.137  32.182  35.373  1.00  0.00    -0.744 OA
ENDBRANCH 101 104
ENDBRANCH  74  97
ENDBRANCH  48  49
ENDBRANCH  41  43
ENDBRANCH  40  41
ENDBRANCH  39  40
ENDBRANCH  38  39
ENDBRANCH  37  38
ENDBRANCH  36  37
ENDBRANCH   1  36
TORSDOF 25
ENDMDL
