MODEL 1
REMARK VINA RESULT:     -10.9      0.000      0.000
REMARK SMILES CCCc1cc(S(F)(F)(F)(F)F)cc2c1O[C@@H](C(F)(F)F)C(C(=O)OCCOCCOCCOC(=O)c1ccc(-c3c4nc(c(-c5cccc(S(=O)(=O)[O-])c5F)c5ccc([nH]5)c(-c5cccc(S(=O)(=O)[O-])c5F)c5nc(c(-c6cccc(S(=O)(=O)[O-])c6F)c6ccc3[nH]6)C=C5)C=C4)cc1)=C2
REMARK SMILES IDX 30 1 29 2 28 3 27 4 26 5 25 6 23 7 24 8 22 9 4 10 5 11 15 12
REMARK SMILES IDX 6 13 14 14 16 15 13 16 100 17 17 18 3 19 2 20 1 21 7 22 8 23
REMARK SMILES IDX 9 24 10 25 11 26 12 27 18 28 19 29 20 30 21 31 31 32 32 33
REMARK SMILES IDX 33 34 34 35 35 36 36 37 37 38 38 39 99 40 39 41 98 42 40 43
REMARK SMILES IDX 41 44 42 45 92 46 43 47 97 48 91 49 93 50 44 51 96 52 90 53
REMARK SMILES IDX 89 54 45 56 77 57 57 58 76 59 58 60 61 61 75 62 94 63 59 64
REMARK SMILES IDX 60 65 74 67 95 68 62 69 46 70 47 71 55 72 48 73 50 74 56 75
REMARK SMILES IDX 49 76 51 77 52 78 53 79 54 80 78 81 79 82 87 83 80 84 82 85
REMARK SMILES IDX 88 86 81 87 83 88 84 89 85 90 86 91 63 92 64 93 72 94 65 95
REMARK SMILES IDX 67 96 73 97 66 98 68 99 69 100 70 101 71 102
REMARK H PARENT 93 55 61 66
REMARK Flexibility Score: inf
ROOT
ATOM      1  C   UNL A   1      35.036  33.412  28.257  1.00  0.00     0.188 C 
ENDROOT
BRANCH   1   2
ATOM      2  C   UNL A   1      34.324  32.079  28.416  1.00  0.00     0.188 C 
BRANCH   2   3
ATOM      3  O   UNL A   1      33.900  31.614  27.142  1.00  0.00    -0.376 OA
BRANCH   3   4
ATOM      4  C   UNL A   1      33.550  30.242  27.231  1.00  0.00     0.202 C 
BRANCH   4   5
ATOM      5  C   UNL A   1      33.028  29.764  25.886  1.00  0.00     0.261 C 
BRANCH   5   6
ATOM      6  O   UNL A   1      31.743  29.186  26.055  1.00  0.00    -0.460 OA
BRANCH   6   7
ATOM      7  C   UNL A   1      31.621  27.851  26.525  1.00  0.00     0.338 C 
ATOM      8  O   UNL A   1      30.994  27.612  27.604  1.00  0.00    -0.246 OA
BRANCH   7   9
ATOM      9  C   UNL A   1      32.240  26.708  25.736  1.00  0.00     0.087 C 
ATOM     10  C   UNL A   1      33.575  23.273  23.771  1.00  0.00    -0.004 A 
ATOM     11  C   UNL A   1      34.800  22.721  24.101  1.00  0.00     0.032 A 
ATOM     12  C   UNL A   1      33.136  24.371  24.469  1.00  0.00     0.131 A 
ATOM     13  C   UNL A   1      35.563  23.251  25.108  1.00  0.00     0.108 A 
ATOM     14  C   UNL A   1      33.889  24.944  25.479  1.00  0.00     0.019 A 
ATOM     15  O   UNL A   1      31.872  24.838  24.208  1.00  0.00    -0.475 OA
ATOM     16  C   UNL A   1      35.112  24.363  25.789  1.00  0.00     0.036 A 
ATOM     17  C   UNL A   1      33.319  26.080  26.185  1.00  0.00     0.027 C 
ATOM     18  C   UNL A   1      31.634  26.259  24.413  1.00  0.00     0.316 C 
BRANCH  10  19
ATOM     19  C   UNL A   1      32.761  22.736  22.605  1.00  0.00     0.039 C 
BRANCH  19  20
ATOM     20  C   UNL A   1      32.350  21.301  22.893  1.00  0.00     0.001 C 
ATOM     21  C   UNL A   1      31.753  20.684  21.638  1.00  0.00     0.004 C 
ENDBRANCH  19  20
ENDBRANCH  10  19
BRANCH  13  22
ATOM     22  S   UNL A   1      37.152  22.499  25.540  1.00  0.00     0.310 S 
ATOM     23  F   UNL A   1      37.572  21.929  24.122  1.00  0.00    -0.094 F 
ATOM     24  F   UNL A   1      36.473  21.106  25.823  1.00  0.00    -0.094 F 
ATOM     25  F   UNL A   1      38.511  21.977  26.084  1.00  0.00    -0.094 F 
ATOM     26  F   UNL A   1      37.848  23.853  25.122  1.00  0.00    -0.094 F 
ATOM     27  F   UNL A   1      35.807  23.004  24.882  1.00  0.00    -0.094 F 
ENDBRANCH  13  22
BRANCH  18  28
ATOM     28  C   UNL A   1      30.135  26.511  24.442  1.00  0.00     0.430 C 
ATOM     29  F   UNL A   1      29.900  27.806  24.249  1.00  0.00    -0.167 F 
ATOM     30  F   UNL A   1      29.548  25.807  23.480  1.00  0.00    -0.167 F 
ATOM     31  F   UNL A   1      29.647  26.144  25.623  1.00  0.00    -0.167 F 
ENDBRANCH  18  28
ENDBRANCH   7   9
ENDBRANCH   6   7
ENDBRANCH   5   6
ENDBRANCH   4   5
ENDBRANCH   3   4
ENDBRANCH   2   3
ENDBRANCH   1   2
BRANCH   1  32
ATOM     32  O   UNL A   1      34.557  34.324  29.232  1.00  0.00    -0.376 OA
BRANCH  32  33
ATOM     33  C   UNL A   1      33.245  34.744  28.885  1.00  0.00     0.202 C 
BRANCH  33  34
ATOM     34  C   UNL A   1      32.851  35.936  29.741  1.00  0.00     0.261 C 
BRANCH  34  35
ATOM     35  O   UNL A   1      32.197  35.479  30.916  1.00  0.00    -0.460 OA
BRANCH  35  36
ATOM     36  C   UNL A   1      32.792  35.692  32.188  1.00  0.00     0.338 C 
ATOM     37  O   UNL A   1      32.271  36.516  33.004  1.00  0.00    -0.246 OA
BRANCH  36  38
ATOM     38  C   UNL A   1      34.051  34.933  32.573  1.00  0.00     0.060 A 
ATOM     39  C   UNL A   1      35.286  35.544  32.428  1.00  0.00     0.016 A 
ATOM     40  C   UNL A   1      33.947  33.691  33.029  1.00  0.00     0.016 A 
ATOM     41  C   UNL A   1      36.381  34.653  32.519  1.00  0.00     0.010 A 
ATOM     42  C   UNL A   1      35.069  32.921  33.225  1.00  0.00     0.010 A 
ATOM     43  C   UNL A   1      36.320  33.442  33.042  1.00  0.00    -0.014 A 
BRANCH  43  44
ATOM     44  C   UNL A   1      37.572  32.670  33.422  1.00  0.00     0.031 A 
ATOM     45  C   UNL A   1      37.985  31.637  32.578  1.00  0.00     0.074 A 
ATOM     46  C   UNL A   1      38.243  33.042  34.574  1.00  0.00     0.049 A 
ATOM     47  N   UNL A   1      39.071  30.873  32.699  1.00  0.00    -0.248 NA
ATOM     48  C   UNL A   1      37.256  31.217  31.371  1.00  0.00     0.031 C 
ATOM     49  C   UNL A   1      37.838  34.088  35.427  1.00  0.00     0.029 A 
ATOM     50  N   UNL A   1      39.390  32.490  35.100  1.00  0.00    -0.354 N 
ATOM     51  C   UNL A   1      39.138  30.005  31.687  1.00  0.00     0.074 A 
ATOM     52  C   UNL A   1      37.969  30.210  30.822  1.00  0.00     0.031 C 
ATOM     53  C   UNL A   1      38.721  34.158  36.457  1.00  0.00     0.029 A 
ATOM     54  C   UNL A   1      39.693  33.158  36.266  1.00  0.00     0.049 A 
ATOM     55  H   UNL A   1      39.905  31.746  34.711  1.00  0.00     0.167 HD
ATOM     56  C   UNL A   1      40.131  29.052  31.450  1.00  0.00     0.034 A 
ATOM     57  C   UNL A   1      40.752  32.922  37.129  1.00  0.00     0.034 A 
ATOM     58  C   UNL A   1      41.213  28.845  32.290  1.00  0.00     0.049 A 
ATOM     59  C   UNL A   1      41.713  31.929  36.923  1.00  0.00     0.074 A 
ATOM     60  C   UNL A   1      42.226  27.894  32.062  1.00  0.00     0.029 A 
ATOM     61  N   UNL A   1      41.504  29.496  33.468  1.00  0.00    -0.354 N 
ATOM     62  N   UNL A   1      41.802  31.089  35.891  1.00  0.00    -0.248 NA
ATOM     63  C   UNL A   1      42.821  31.648  37.846  1.00  0.00     0.031 C 
ATOM     64  C   UNL A   1      43.111  27.965  33.093  1.00  0.00     0.029 A 
ATOM     65  C   UNL A   1      42.663  28.960  33.983  1.00  0.00     0.049 A 
ATOM     66  H   UNL A   1      40.974  30.221  33.874  1.00  0.00     0.167 HD
ATOM     67  C   UNL A   1      42.866  30.296  36.034  1.00  0.00     0.074 A 
ATOM     68  C   UNL A   1      43.533  30.640  37.297  1.00  0.00     0.031 C 
ATOM     69  C   UNL A   1      43.310  29.303  35.159  1.00  0.00     0.034 A 
BRANCH  56  70
ATOM     70  C   UNL A   1      40.017  28.194  30.201  1.00  0.00     0.023 A 
ATOM     71  C   UNL A   1      39.090  27.166  30.152  1.00  0.00     0.012 A 
ATOM     72  C   UNL A   1      40.801  28.464  29.163  1.00  0.00     0.148 A 
ATOM     73  C   UNL A   1      39.267  26.286  29.058  1.00  0.00     0.002 A 
ATOM     74  C   UNL A   1      40.823  27.635  28.069  1.00  0.00     0.091 A 
ATOM     75  F   UNL A   1      41.572  29.548  29.186  1.00  0.00    -0.205 F 
ATOM     76  C   UNL A   1      39.976  26.565  27.980  1.00  0.00     0.022 A 
BRANCH  74  77
ATOM     77  S   UNL A   1      41.991  27.962  26.725  1.00  0.00     0.127 S 
ATOM     78  O   UNL A   1      41.990  29.458  26.403  1.00  0.00    -0.237 OA
ATOM     79  O   UNL A   1      43.396  27.534  27.154  1.00  0.00    -0.237 OA
ATOM     80  O   UNL A   1      41.524  27.080  25.337  1.00  0.00    -0.744 OA
ENDBRANCH  74  77
ENDBRANCH  56  70
BRANCH  57  81
ATOM     81  C   UNL A   1      40.875  33.791  38.369  1.00  0.00     0.023 A 
ATOM     82  C   UNL A   1      41.707  34.898  38.354  1.00  0.00     0.012 A 
ATOM     83  C   UNL A   1      40.190  33.458  39.458  1.00  0.00     0.148 A 
ATOM     84  C   UNL A   1      41.976  35.430  39.638  1.00  0.00     0.002 A 
ATOM     85  C   UNL A   1      40.406  34.111  40.647  1.00  0.00     0.091 A 
ATOM     86  F   UNL A   1      39.287  32.483  39.395  1.00  0.00    -0.205 F 
ATOM     87  C   UNL A   1      41.260  35.177  40.719  1.00  0.00     0.022 A 
BRANCH  85  88
ATOM     88  S   UNL A   1      39.547  33.553  42.140  1.00  0.00     0.127 S 
ATOM     89  O   UNL A   1      39.809  34.543  43.278  1.00  0.00    -0.237 OA
ATOM     90  O   UNL A   1      38.044  33.476  41.865  1.00  0.00    -0.237 OA
ATOM     91  O   UNL A   1      40.126  32.007  42.585  1.00  0.00    -0.744 OA
ENDBRANCH  85  88
ENDBRANCH  57  81
BRANCH  69  92
ATOM     92  C   UNL A   1      44.582  28.552  35.519  1.00  0.00     0.023 A 
ATOM     93  C   UNL A   1      45.807  29.039  35.093  1.00  0.00     0.012 A 
ATOM     94  C   UNL A   1      44.495  27.428  36.222  1.00  0.00     0.148 A 
ATOM     95  C   UNL A   1      46.867  28.111  35.211  1.00  0.00     0.002 A 
ATOM     96  C   UNL A   1      45.602  26.636  36.414  1.00  0.00     0.091 A 
ATOM     97  F   UNL A   1      43.327  27.066  36.744  1.00  0.00    -0.205 F 
ATOM     98  C   UNL A   1      46.833  27.028  35.968  1.00  0.00     0.022 A 
BRANCH  96  99
ATOM     99  S   UNL A   1      45.426  25.052  37.270  1.00  0.00     0.127 S 
ATOM    100  O   UNL A   1      46.738  24.269  37.170  1.00  0.00    -0.237 OA
ATOM    101  O   UNL A   1      45.092  25.301  38.743  1.00  0.00    -0.237 OA
ATOM    102  O   UNL A   1      44.168  24.148  36.545  1.00  0.00    -0.744 OA
ENDBRANCH  96  99
ENDBRANCH  69  92
ENDBRANCH  43  44
ENDBRANCH  36  38
ENDBRANCH  35  36
ENDBRANCH  34  35
ENDBRANCH  33  34
ENDBRANCH  32  33
ENDBRANCH   1  32
TORSDOF 24
ENDMDL
MODEL 2
REMARK VINA RESULT:      -9.9      5.879     10.772
REMARK SMILES CCCc1cc(S(F)(F)(F)(F)F)cc2c1O[C@@H](C(F)(F)F)C(C(=O)OCCOCCOCCOC(=O)c1ccc(-c3c4nc(c(-c5cccc(S(=O)(=O)[O-])c5F)c5ccc([nH]5)c(-c5cccc(S(=O)(=O)[O-])c5F)c5nc(c(-c6cccc(S(=O)(=O)[O-])c6F)c6ccc3[nH]6)C=C5)C=C4)cc1)=C2
REMARK SMILES IDX 30 1 29 2 28 3 27 4 26 5 25 6 23 7 24 8 22 9 4 10 5 11 15 12
REMARK SMILES IDX 6 13 14 14 16 15 13 16 100 17 17 18 3 19 2 20 1 21 7 22 8 23
REMARK SMILES IDX 9 24 10 25 11 26 12 27 18 28 19 29 20 30 21 31 31 32 32 33
REMARK SMILES IDX 33 34 34 35 35 36 36 37 37 38 38 39 99 40 39 41 98 42 40 43
REMARK SMILES IDX 41 44 42 45 92 46 43 47 97 48 91 49 93 50 44 51 96 52 90 53
REMARK SMILES IDX 89 54 45 56 77 57 57 58 76 59 58 60 61 61 75 62 94 63 59 64
REMARK SMILES IDX 60 65 74 67 95 68 62 69 46 70 47 71 55 72 48 73 50 74 56 75
REMARK SMILES IDX 49 76 51 77 52 78 53 79 54 80 78 81 79 82 87 83 80 84 82 85
REMARK SMILES IDX 88 86 81 87 83 88 84 89 85 90 86 91 63 92 64 93 72 94 65 95
REMARK SMILES IDX 67 96 73 97 66 98 68 99 69 100 70 101 71 102
REMARK H PARENT 93 55 61 66
REMARK Flexibility Score: inf
ROOT
ATOM      1  C   UNL A   1      39.492  21.672  26.145  1.00  0.00     0.188 C 
ENDROOT
BRANCH   1   2
ATOM      2  C   UNL A   1      38.763  20.443  25.627  1.00  0.00     0.188 C 
BRANCH   2   3
ATOM      3  O   UNL A   1      37.540  20.838  25.023  1.00  0.00    -0.376 OA
BRANCH   3   4
ATOM      4  C   UNL A   1      37.546  22.242  24.814  1.00  0.00     0.202 C 
BRANCH   4   5
ATOM      5  C   UNL A   1      36.160  22.801  25.087  1.00  0.00     0.261 C 
BRANCH   5   6
ATOM      6  O   UNL A   1      35.278  21.740  25.420  1.00  0.00    -0.460 OA
BRANCH   6   7
ATOM      7  C   UNL A   1      34.020  22.022  26.017  1.00  0.00     0.338 C 
ATOM      8  O   UNL A   1      33.531  21.224  26.875  1.00  0.00    -0.246 OA
BRANCH   7   9
ATOM      9  C   UNL A   1      33.260  23.281  25.628  1.00  0.00     0.087 C 
ATOM     10  C   UNL A   1      31.475  26.753  24.145  1.00  0.00    -0.004 A 
ATOM     11  C   UNL A   1      31.622  27.949  24.824  1.00  0.00     0.032 A 
ATOM     12  C   UNL A   1      32.117  25.638  24.626  1.00  0.00     0.131 A 
ATOM     13  C   UNL A   1      32.397  28.028  25.953  1.00  0.00     0.108 A 
ATOM     14  C   UNL A   1      32.891  25.676  25.772  1.00  0.00     0.019 A 
ATOM     15  O   UNL A   1      32.054  24.487  23.880  1.00  0.00    -0.475 OA
ATOM     16  C   UNL A   1      33.022  26.894  26.428  1.00  0.00     0.036 A 
ATOM     17  C   UNL A   1      33.561  24.451  26.177  1.00  0.00     0.027 C 
ATOM     18  C   UNL A   1      32.139  23.225  24.599  1.00  0.00     0.316 C 
BRANCH  10  19
ATOM     19  C   UNL A   1      30.557  26.644  22.939  1.00  0.00     0.039 C 
BRANCH  19  20
ATOM     20  C   UNL A   1      29.271  27.406  23.211  1.00  0.00     0.001 C 
ATOM     21  C   UNL A   1      28.317  26.525  24.000  1.00  0.00     0.004 C 
ENDBRANCH  19  20
ENDBRANCH  10  19
BRANCH  13  22
ATOM     22  S   UNL A   1      32.596  29.608  26.813  1.00  0.00     0.310 S 
ATOM     23  F   UNL A   1      33.687  29.192  27.885  1.00  0.00    -0.094 F 
ATOM     24  F   UNL A   1      31.501  29.222  27.879  1.00  0.00    -0.094 F 
ATOM     25  F   UNL A   1      32.678  31.053  27.380  1.00  0.00    -0.094 F 
ATOM     26  F   UNL A   1      33.788  29.934  25.830  1.00  0.00    -0.094 F 
ATOM     27  F   UNL A   1      32.603  28.113  26.301  1.00  0.00    -0.094 F 
ENDBRANCH  13  22
BRANCH  18  28
ATOM     28  C   UNL A   1      32.429  22.108  23.609  1.00  0.00     0.430 C 
ATOM     29  F   UNL A   1      33.627  22.300  23.063  1.00  0.00    -0.167 F 
ATOM     30  F   UNL A   1      32.413  20.939  24.241  1.00  0.00    -0.167 F 
ATOM     31  F   UNL A   1      31.502  22.110  22.655  1.00  0.00    -0.167 F 
ENDBRANCH  18  28
ENDBRANCH   7   9
ENDBRANCH   6   7
ENDBRANCH   5   6
ENDBRANCH   4   5
ENDBRANCH   3   4
ENDBRANCH   2   3
ENDBRANCH   1   2
BRANCH   1  32
ATOM     32  O   UNL A   1      40.484  21.275  27.079  1.00  0.00    -0.376 OA
BRANCH  32  33
ATOM     33  C   UNL A   1      41.544  22.221  27.074  1.00  0.00     0.202 C 
BRANCH  33  34
ATOM     34  C   UNL A   1      42.541  21.859  25.985  1.00  0.00     0.261 C 
BRANCH  34  35
ATOM     35  O   UNL A   1      42.545  22.874  24.991  1.00  0.00    -0.460 OA
BRANCH  35  36
ATOM     36  C   UNL A   1      43.673  23.725  24.851  1.00  0.00     0.338 C 
ATOM     37  O   UNL A   1      44.629  23.392  24.082  1.00  0.00    -0.246 OA
BRANCH  36  38
ATOM     38  C   UNL A   1      43.737  25.035  25.619  1.00  0.00     0.060 A 
ATOM     39  C   UNL A   1      44.234  25.042  26.912  1.00  0.00     0.016 A 
ATOM     40  C   UNL A   1      43.299  26.148  25.044  1.00  0.00     0.016 A 
ATOM     41  C   UNL A   1      43.960  26.233  27.625  1.00  0.00     0.010 A 
ATOM     42  C   UNL A   1      43.185  27.312  25.766  1.00  0.00     0.010 A 
ATOM     43  C   UNL A   1      43.602  27.375  27.066  1.00  0.00    -0.014 A 
BRANCH  43  44
ATOM     44  C   UNL A   1      43.652  28.689  27.828  1.00  0.00     0.031 A 
ATOM     45  C   UNL A   1      42.471  29.151  28.413  1.00  0.00     0.074 A 
ATOM     46  C   UNL A   1      44.866  29.347  27.913  1.00  0.00     0.049 A 
ATOM     47  N   UNL A   1      42.307  30.245  29.157  1.00  0.00    -0.248 NA
ATOM     48  C   UNL A   1      41.172  28.471  28.295  1.00  0.00     0.031 C 
ATOM     49  C   UNL A   1      46.064  28.884  27.334  1.00  0.00     0.029 A 
ATOM     50  N   UNL A   1      45.140  30.537  28.551  1.00  0.00    -0.354 N 
ATOM     51  C   UNL A   1      41.036  30.345  29.554  1.00  0.00     0.074 A 
ATOM     52  C   UNL A   1      40.287  29.209  29.000  1.00  0.00     0.031 C 
ATOM     53  C   UNL A   1      47.042  29.786  27.609  1.00  0.00     0.029 A 
ATOM     54  C   UNL A   1      46.474  30.828  28.364  1.00  0.00     0.049 A 
ATOM     55  H   UNL A   1      44.495  31.085  29.054  1.00  0.00     0.167 HD
ATOM     56  C   UNL A   1      40.473  31.338  30.358  1.00  0.00     0.034 A 
ATOM     57  C   UNL A   1      47.172  31.936  28.819  1.00  0.00     0.034 A 
ATOM     58  C   UNL A   1      41.181  32.423  30.849  1.00  0.00     0.049 A 
ATOM     59  C   UNL A   1      46.596  32.959  29.575  1.00  0.00     0.074 A 
ATOM     60  C   UNL A   1      40.631  33.428  31.667  1.00  0.00     0.029 A 
ATOM     61  N   UNL A   1      42.509  32.727  30.643  1.00  0.00    -0.354 N 
ATOM     62  N   UNL A   1      45.335  33.038  30.004  1.00  0.00    -0.248 NA
ATOM     63  C   UNL A   1      47.317  34.153  30.034  1.00  0.00     0.031 C 
ATOM     64  C   UNL A   1      41.611  34.331  31.942  1.00  0.00     0.029 A 
ATOM     65  C   UNL A   1      42.789  33.904  31.300  1.00  0.00     0.049 A 
ATOM     66  H   UNL A   1      43.148  32.194  30.115  1.00  0.00     0.167 HD
ATOM     67  C   UNL A   1      45.161  34.155  30.715  1.00  0.00     0.074 A 
ATOM     68  C   UNL A   1      46.432  34.891  30.738  1.00  0.00     0.031 C 
ATOM     69  C   UNL A   1      43.994  34.586  31.348  1.00  0.00     0.034 A 
BRANCH  56  70
ATOM     70  C   UNL A   1      39.000  31.222  30.715  1.00  0.00     0.023 A 
ATOM     71  C   UNL A   1      38.612  30.455  31.801  1.00  0.00     0.012 A 
ATOM     72  C   UNL A   1      38.109  31.883  29.985  1.00  0.00     0.148 A 
ATOM     73  C   UNL A   1      37.219  30.214  31.864  1.00  0.00     0.002 A 
ATOM     74  C   UNL A   1      36.763  31.701  30.191  1.00  0.00     0.091 A 
ATOM     75  F   UNL A   1      38.524  32.727  29.045  1.00  0.00    -0.205 F 
ATOM     76  C   UNL A   1      36.308  30.909  31.209  1.00  0.00     0.022 A 
BRANCH  74  77
ATOM     77  S   UNL A   1      35.575  32.521  29.099  1.00  0.00     0.127 S 
ATOM     78  O   UNL A   1      35.608  31.858  27.721  1.00  0.00    -0.237 OA
ATOM     79  O   UNL A   1      34.169  32.398  29.691  1.00  0.00    -0.237 OA
ATOM     80  O   UNL A   1      35.988  34.173  28.947  1.00  0.00    -0.744 OA
ENDBRANCH  74  77
ENDBRANCH  56  70
BRANCH  57  81
ATOM     81  C   UNL A   1      48.649  32.043  28.476  1.00  0.00     0.023 A 
ATOM     82  C   UNL A   1      49.598  31.555  29.358  1.00  0.00     0.012 A 
ATOM     83  C   UNL A   1      49.002  32.625  27.335  1.00  0.00     0.148 A 
ATOM     84  C   UNL A   1      50.916  31.990  29.081  1.00  0.00     0.002 A 
ATOM     85  C   UNL A   1      50.322  32.899  27.070  1.00  0.00     0.091 A 
ATOM     86  F   UNL A   1      48.070  32.947  26.443  1.00  0.00    -0.205 F 
ATOM     87  C   UNL A   1      51.310  32.498  27.927  1.00  0.00     0.022 A 
BRANCH  85  88
ATOM     88  S   UNL A   1      50.761  33.803  25.564  1.00  0.00     0.127 S 
ATOM     89  O   UNL A   1      49.530  34.545  25.038  1.00  0.00    -0.237 OA
ATOM     90  O   UNL A   1      51.869  34.810  25.879  1.00  0.00    -0.237 OA
ATOM     91  O   UNL A   1      51.312  32.701  24.379  1.00  0.00    -0.744 OA
ENDBRANCH  85  88
ENDBRANCH  57  81
BRANCH  69  92
ATOM     92  C   UNL A   1      44.049  35.883  32.139  1.00  0.00     0.023 A 
ATOM     93  C   UNL A   1      44.184  35.837  33.517  1.00  0.00     0.012 A 
ATOM     94  C   UNL A   1      43.949  37.040  31.496  1.00  0.00     0.148 A 
ATOM     95  C   UNL A   1      43.909  37.065  34.162  1.00  0.00     0.002 A 
ATOM     96  C   UNL A   1      43.819  38.219  32.192  1.00  0.00     0.091 A 
ATOM     97  F   UNL A   1      43.972  37.060  30.166  1.00  0.00    -0.205 F 
ATOM     98  C   UNL A   1      43.884  38.239  33.556  1.00  0.00     0.022 A 
BRANCH  96  99
ATOM     99  S   UNL A   1      43.561  39.765  31.287  1.00  0.00     0.127 S 
ATOM    100  O   UNL A   1      43.070  39.453  29.872  1.00  0.00    -0.237 OA
ATOM    101  O   UNL A   1      42.515  40.613  32.015  1.00  0.00    -0.237 OA
ATOM    102  O   UNL A   1      45.035  40.628  31.201  1.00  0.00    -0.744 OA
ENDBRANCH  96  99
ENDBRANCH  69  92
ENDBRANCH  43  44
ENDBRANCH  36  38
ENDBRANCH  35  36
ENDBRANCH  34  35
ENDBRANCH  33  34
ENDBRANCH  32  33
ENDBRANCH   1  32
TORSDOF 24
ENDMDL
MODEL 3
REMARK VINA RESULT:      -9.7      5.884     10.900
REMARK SMILES CCCc1cc(S(F)(F)(F)(F)F)cc2c1O[C@@H](C(F)(F)F)C(C(=O)OCCOCCOCCOC(=O)c1ccc(-c3c4nc(c(-c5cccc(S(=O)(=O)[O-])c5F)c5ccc([nH]5)c(-c5cccc(S(=O)(=O)[O-])c5F)c5nc(c(-c6cccc(S(=O)(=O)[O-])c6F)c6ccc3[nH]6)C=C5)C=C4)cc1)=C2
REMARK SMILES IDX 30 1 29 2 28 3 27 4 26 5 25 6 23 7 24 8 22 9 4 10 5 11 15 12
REMARK SMILES IDX 6 13 14 14 16 15 13 16 100 17 17 18 3 19 2 20 1 21 7 22 8 23
REMARK SMILES IDX 9 24 10 25 11 26 12 27 18 28 19 29 20 30 21 31 31 32 32 33
REMARK SMILES IDX 33 34 34 35 35 36 36 37 37 38 38 39 99 40 39 41 98 42 40 43
REMARK SMILES IDX 41 44 42 45 92 46 43 47 97 48 91 49 93 50 44 51 96 52 90 53
REMARK SMILES IDX 89 54 45 56 77 57 57 58 76 59 58 60 61 61 75 62 94 63 59 64
REMARK SMILES IDX 60 65 74 67 95 68 62 69 46 70 47 71 55 72 48 73 50 74 56 75
REMARK SMILES IDX 49 76 51 77 52 78 53 79 54 80 78 81 79 82 87 83 80 84 82 85
REMARK SMILES IDX 88 86 81 87 83 88 84 89 85 90 86 91 63 92 64 93 72 94 65 95
REMARK SMILES IDX 67 96 73 97 66 98 68 99 69 100 70 101 71 102
REMARK H PARENT 93 55 61 66
REMARK Flexibility Score: inf
ROOT
ATOM      1  C   UNL A   1      38.893  21.798  25.728  1.00  0.00     0.188 C 
ENDROOT
BRANCH   1   2
ATOM      2  C   UNL A   1      38.010  20.626  25.333  1.00  0.00     0.188 C 
BRANCH   2   3
ATOM      3  O   UNL A   1      37.021  21.067  24.414  1.00  0.00    -0.376 OA
BRANCH   3   4
ATOM      4  C   UNL A   1      36.967  22.485  24.421  1.00  0.00     0.202 C 
BRANCH   4   5
ATOM      5  C   UNL A   1      35.699  22.947  23.721  1.00  0.00     0.261 C 
BRANCH   5   6
ATOM      6  O   UNL A   1      34.741  21.901  23.738  1.00  0.00    -0.460 OA
BRANCH   6   7
ATOM      7  C   UNL A   1      33.357  22.206  23.844  1.00  0.00     0.338 C 
ATOM      8  O   UNL A   1      32.489  21.319  23.577  1.00  0.00    -0.246 OA
BRANCH   7   9
ATOM      9  C   UNL A   1      32.918  23.596  24.277  1.00  0.00     0.087 C 
ATOM     10  C   UNL A   1      31.303  27.184  25.679  1.00  0.00    -0.004 A 
ATOM     11  C   UNL A   1      30.838  28.129  24.782  1.00  0.00     0.032 A 
ATOM     12  C   UNL A   1      31.780  25.991  25.193  1.00  0.00     0.131 A 
ATOM     13  C   UNL A   1      30.845  27.884  23.434  1.00  0.00     0.108 A 
ATOM     14  C   UNL A   1      31.820  25.717  23.838  1.00  0.00     0.019 A 
ATOM     15  O   UNL A   1      32.132  25.020  26.098  1.00  0.00    -0.475 OA
ATOM     16  C   UNL A   1      31.341  26.685  22.964  1.00  0.00     0.036 A 
ATOM     17  C   UNL A   1      32.305  24.410  23.426  1.00  0.00     0.027 C 
ATOM     18  C   UNL A   1      33.170  24.083  25.697  1.00  0.00     0.316 C 
BRANCH  10  19
ATOM     19  C   UNL A   1      31.369  27.481  27.168  1.00  0.00     0.039 C 
BRANCH  19  20
ATOM     20  C   UNL A   1      32.606  28.313  27.464  1.00  0.00     0.001 C 
ATOM     21  C   UNL A   1      32.294  29.782  27.233  1.00  0.00     0.004 C 
ENDBRANCH  19  20
ENDBRANCH  10  19
BRANCH  13  22
ATOM     22  S   UNL A   1      30.210  29.124  22.278  1.00  0.00     0.310 S 
ATOM     23  F   UNL A   1      29.913  30.306  23.293  1.00  0.00    -0.094 F 
ATOM     24  F   UNL A   1      28.726  28.647  22.505  1.00  0.00    -0.094 F 
ATOM     25  F   UNL A   1      29.759  30.074  21.134  1.00  0.00    -0.094 F 
ATOM     26  F   UNL A   1      31.679  29.690  22.160  1.00  0.00    -0.094 F 
ATOM     27  F   UNL A   1      30.664  28.247  23.513  1.00  0.00    -0.094 F 
ENDBRANCH  13  22
BRANCH  18  28
ATOM     28  C   UNL A   1      33.154  22.892  26.641  1.00  0.00     0.430 C 
ATOM     29  F   UNL A   1      32.931  23.313  27.883  1.00  0.00    -0.167 F 
ATOM     30  F   UNL A   1      32.189  22.052  26.279  1.00  0.00    -0.167 F 
ATOM     31  F   UNL A   1      34.328  22.269  26.589  1.00  0.00    -0.167 F 
ENDBRANCH  18  28
ENDBRANCH   7   9
ENDBRANCH   6   7
ENDBRANCH   5   6
ENDBRANCH   4   5
ENDBRANCH   3   4
ENDBRANCH   2   3
ENDBRANCH   1   2
BRANCH   1  32
ATOM     32  O   UNL A   1      39.759  21.405  26.782  1.00  0.00    -0.376 OA
BRANCH  32  33
ATOM     33  C   UNL A   1      40.737  22.413  26.992  1.00  0.00     0.202 C 
BRANCH  33  34
ATOM     34  C   UNL A   1      41.995  22.068  26.212  1.00  0.00     0.261 C 
BRANCH  34  35
ATOM     35  O   UNL A   1      42.163  22.997  25.150  1.00  0.00    -0.460 OA
BRANCH  35  36
ATOM     36  C   UNL A   1      43.351  23.770  25.065  1.00  0.00     0.338 C 
ATOM     37  O   UNL A   1      44.329  23.357  24.365  1.00  0.00    -0.246 OA
BRANCH  36  38
ATOM     38  C   UNL A   1      43.454  25.090  25.810  1.00  0.00     0.060 A 
ATOM     39  C   UNL A   1      43.840  25.094  27.141  1.00  0.00     0.016 A 
ATOM     40  C   UNL A   1      43.156  26.218  25.177  1.00  0.00     0.016 A 
ATOM     41  C   UNL A   1      43.602  26.321  27.803  1.00  0.00     0.010 A 
ATOM     42  C   UNL A   1      43.074  27.406  25.863  1.00  0.00     0.010 A 
ATOM     43  C   UNL A   1      43.384  27.472  27.193  1.00  0.00    -0.014 A 
BRANCH  43  44
ATOM     44  C   UNL A   1      43.474  28.798  27.930  1.00  0.00     0.031 A 
ATOM     45  C   UNL A   1      42.310  29.299  28.518  1.00  0.00     0.074 A 
ATOM     46  C   UNL A   1      44.704  29.428  27.990  1.00  0.00     0.049 A 
ATOM     47  N   UNL A   1      42.180  30.410  29.245  1.00  0.00    -0.248 NA
ATOM     48  C   UNL A   1      40.994  28.649  28.427  1.00  0.00     0.031 C 
ATOM     49  C   UNL A   1      45.884  28.926  27.407  1.00  0.00     0.029 A 
ATOM     50  N   UNL A   1      45.013  30.622  28.604  1.00  0.00    -0.354 N 
ATOM     51  C   UNL A   1      40.916  30.548  29.653  1.00  0.00     0.074 A 
ATOM     52  C   UNL A   1      40.135  29.420  29.127  1.00  0.00     0.031 C 
ATOM     53  C   UNL A   1      46.887  29.808  27.656  1.00  0.00     0.029 A 
ATOM     54  C   UNL A   1      46.351  30.877  28.398  1.00  0.00     0.049 A 
ATOM     55  H   UNL A   1      44.387  31.194  29.103  1.00  0.00     0.167 HD
ATOM     56  C   UNL A   1      40.386  31.568  30.444  1.00  0.00     0.034 A 
ATOM     57  C   UNL A   1      47.081  31.976  28.825  1.00  0.00     0.034 A 
ATOM     58  C   UNL A   1      41.126  32.644  30.908  1.00  0.00     0.049 A 
ATOM     59  C   UNL A   1      46.538  33.026  29.568  1.00  0.00     0.074 A 
ATOM     60  C   UNL A   1      40.609  33.677  31.712  1.00  0.00     0.029 A 
ATOM     61  N   UNL A   1      42.458  32.913  30.682  1.00  0.00    -0.354 N 
ATOM     62  N   UNL A   1      45.284  33.144  30.009  1.00  0.00    -0.248 NA
ATOM     63  C   UNL A   1      47.293  34.210  29.997  1.00  0.00     0.031 C 
ATOM     64  C   UNL A   1      41.613  34.561  31.961  1.00  0.00     0.029 A 
ATOM     65  C   UNL A   1      42.773  34.094  31.314  1.00  0.00     0.049 A 
ATOM     66  H   UNL A   1      43.079  32.355  30.158  1.00  0.00     0.167 HD
ATOM     67  C   UNL A   1      45.145  34.277  30.700  1.00  0.00     0.074 A 
ATOM     68  C   UNL A   1      46.433  34.983  30.697  1.00  0.00     0.031 C 
ATOM     69  C   UNL A   1      43.995  34.748  31.337  1.00  0.00     0.034 A 
BRANCH  56  70
ATOM     70  C   UNL A   1      38.915  31.494  30.819  1.00  0.00     0.023 A 
ATOM     71  C   UNL A   1      38.528  30.824  31.967  1.00  0.00     0.012 A 
ATOM     72  C   UNL A   1      38.024  32.099  30.041  1.00  0.00     0.148 A 
ATOM     73  C   UNL A   1      37.135  30.600  32.059  1.00  0.00     0.002 A 
ATOM     74  C   UNL A   1      36.679  31.946  30.270  1.00  0.00     0.091 A 
ATOM     75  F   UNL A   1      38.440  32.858  29.031  1.00  0.00    -0.205 F 
ATOM     76  C   UNL A   1      36.224  31.246  31.353  1.00  0.00     0.022 A 
BRANCH  74  77
ATOM     77  S   UNL A   1      35.489  32.681  29.120  1.00  0.00     0.127 S 
ATOM     78  O   UNL A   1      34.100  32.689  29.761  1.00  0.00    -0.237 OA
ATOM     79  O   UNL A   1      35.911  34.116  28.799  1.00  0.00    -0.237 OA
ATOM     80  O   UNL A   1      35.447  31.762  27.679  1.00  0.00    -0.744 OA
ENDBRANCH  74  77
ENDBRANCH  56  70
BRANCH  57  81
ATOM     81  C   UNL A   1      48.556  32.041  28.464  1.00  0.00     0.023 A 
ATOM     82  C   UNL A   1      49.500  31.508  29.327  1.00  0.00     0.012 A 
ATOM     83  C   UNL A   1      48.914  32.631  27.329  1.00  0.00     0.148 A 
ATOM     84  C   UNL A   1      50.828  31.905  29.039  1.00  0.00     0.002 A 
ATOM     85  C   UNL A   1      50.239  32.866  27.051  1.00  0.00     0.091 A 
ATOM     86  F   UNL A   1      47.982  32.997  26.454  1.00  0.00    -0.205 F 
ATOM     87  C   UNL A   1      51.224  32.419  27.889  1.00  0.00     0.022 A 
BRANCH  85  88
ATOM     88  S   UNL A   1      50.688  33.781  25.555  1.00  0.00     0.127 S 
ATOM     89  O   UNL A   1      51.212  32.805  24.499  1.00  0.00    -0.237 OA
ATOM     90  O   UNL A   1      49.456  34.508  25.013  1.00  0.00    -0.237 OA
ATOM     91  O   UNL A   1      51.905  34.922  25.930  1.00  0.00    -0.744 OA
ENDBRANCH  85  88
ENDBRANCH  57  81
BRANCH  69  92
ATOM     92  C   UNL A   1      44.090  36.057  32.104  1.00  0.00     0.023 A 
ATOM     93  C   UNL A   1      44.239  36.032  33.481  1.00  0.00     0.012 A 
ATOM     94  C   UNL A   1      44.010  37.204  31.441  1.00  0.00     0.148 A 
ATOM     95  C   UNL A   1      44.001  37.279  34.107  1.00  0.00     0.002 A 
ATOM     96  C   UNL A   1      43.916  38.398  32.116  1.00  0.00     0.091 A 
ATOM     97  F   UNL A   1      44.019  37.199  30.111  1.00  0.00    -0.205 F 
ATOM     98  C   UNL A   1      43.996  38.441  33.480  1.00  0.00     0.022 A 
BRANCH  96  99
ATOM     99  S   UNL A   1      43.684  39.933  31.187  1.00  0.00     0.127 S 
ATOM    100  O   UNL A   1      42.735  39.681  30.013  1.00  0.00    -0.237 OA
ATOM    101  O   UNL A   1      43.087  41.002  32.106  1.00  0.00    -0.237 OA
ATOM    102  O   UNL A   1      45.195  40.473  30.592  1.00  0.00    -0.744 OA
ENDBRANCH  96  99
ENDBRANCH  69  92
ENDBRANCH  43  44
ENDBRANCH  36  38
ENDBRANCH  35  36
ENDBRANCH  34  35
ENDBRANCH  33  34
ENDBRANCH  32  33
ENDBRANCH   1  32
TORSDOF 24
ENDMDL
