MODEL 1
REMARK VINA RESULT:     -11.6      0.000      0.000
REMARK SMILES O=C(OCCOCCOCCOC(=O)c1cc2c(Cl)c(C(F)(F)F)cnc2n1S(=O)(=O)c1ccccc1)c1ccc(-c2c3nc(c(-c4cccc(S(=O)(=O)[O-])c4F)c4ccc([nH]4)c(-c4cccc(S(=O)(=O)[O-])c4F)c4nc(c(-c5cccc(S(=O)(=O)[O-])c5F)c5ccc2[nH]5)C=C4)C=C3)cc1
REMARK SMILES IDX 7 1 6 2 5 3 4 4 3 5 2 6 1 7 38 8 39 9 100 10 40 11 99 12
REMARK SMILES IDX 41 13 42 14 43 15 93 16 44 17 98 18 92 19 94 20 45 21 97 22
REMARK SMILES IDX 91 23 90 24 46 26 78 27 58 28 77 29 59 30 62 31 76 32 95 33
REMARK SMILES IDX 60 34 61 35 75 37 96 38 63 39 47 40 48 41 56 42 49 43 51 44
REMARK SMILES IDX 57 45 50 46 52 47 53 48 54 49 55 50 79 51 80 52 88 53 81 54
REMARK SMILES IDX 83 55 89 56 82 57 84 58 85 59 86 60 87 61 64 62 65 63 73 64
REMARK SMILES IDX 66 65 68 66 74 67 67 68 69 69 70 70 71 71 72 72 8 73 9 74
REMARK SMILES IDX 10 75 11 76 12 77 13 78 14 79 15 80 16 81 28 82 17 83 27 84
REMARK SMILES IDX 18 85 26 86 19 87 20 88 25 89 29 90 30 91 31 92 32 93 33 94
REMARK SMILES IDX 37 95 34 96 36 97 35 98 21 99 22 100 23 101 24 102
REMARK H PARENT 94 25 62 36
REMARK Flexibility Score: inf
ROOT
ATOM      1  C   UNL A   1      40.842  20.545  27.262  1.00  0.00     0.188 C 
ENDROOT
BRANCH   1   2
ATOM      2  O   UNL A   1      41.486  19.918  26.152  1.00  0.00    -0.376 OA
BRANCH   2   3
ATOM      3  C   UNL A   1      42.546  18.996  26.357  1.00  0.00     0.202 C 
BRANCH   3   4
ATOM      4  C   UNL A   1      43.500  18.832  25.172  1.00  0.00     0.261 C 
BRANCH   4   5
ATOM      5  O   UNL A   1      43.726  20.080  24.493  1.00  0.00    -0.460 OA
BRANCH   5   6
ATOM      6  C   UNL A   1      44.462  21.138  24.901  1.00  0.00     0.338 C 
ATOM      7  O   UNL A   1      45.653  21.181  24.594  1.00  0.00    -0.246 OA
BRANCH   6   8
ATOM      8  C   UNL A   1      43.880  22.315  25.598  1.00  0.00     0.060 A 
ATOM      9  C   UNL A   1      43.116  23.323  25.009  1.00  0.00     0.016 A 
ATOM     10  C   UNL A   1      44.152  22.393  26.976  1.00  0.00     0.016 A 
ATOM     11  C   UNL A   1      42.837  24.485  25.708  1.00  0.00     0.010 A 
ATOM     12  C   UNL A   1      43.822  23.529  27.699  1.00  0.00     0.010 A 
ATOM     13  C   UNL A   1      43.261  24.610  27.028  1.00  0.00    -0.014 A 
BRANCH  13  14
ATOM     14  C   UNL A   1      43.223  25.945  27.602  1.00  0.00     0.031 A 
ATOM     15  C   UNL A   1      44.373  26.847  27.360  1.00  0.00     0.074 A 
ATOM     16  C   UNL A   1      42.168  26.349  28.334  1.00  0.00     0.049 A 
ATOM     17  N   UNL A   1      45.188  27.350  28.232  1.00  0.00    -0.248 NA
ATOM     18  C   UNL A   1      44.674  27.202  25.968  1.00  0.00     0.031 C 
ATOM     19  C   UNL A   1      40.855  25.703  28.446  1.00  0.00     0.029 A 
ATOM     20  N   UNL A   1      42.009  27.511  29.027  1.00  0.00    -0.354 N 
ATOM     21  C   UNL A   1      45.986  28.245  27.525  1.00  0.00     0.074 A 
ATOM     22  C   UNL A   1      45.706  28.032  26.126  1.00  0.00     0.031 C 
ATOM     23  C   UNL A   1      39.970  26.599  28.929  1.00  0.00     0.029 A 
ATOM     24  C   UNL A   1      40.681  27.812  29.284  1.00  0.00     0.049 A 
ATOM     25  H   UNL A   1      42.760  28.078  29.315  1.00  0.00     0.167 HD
ATOM     26  C   UNL A   1      46.692  29.240  28.124  1.00  0.00     0.034 A 
ATOM     27  C   UNL A   1      40.196  29.015  29.662  1.00  0.00     0.034 A 
ATOM     28  C   UNL A   1      46.814  29.085  29.544  1.00  0.00     0.049 A 
ATOM     29  C   UNL A   1      41.312  29.770  30.280  1.00  0.00     0.074 A 
ATOM     30  C   UNL A   1      47.381  28.160  30.394  1.00  0.00     0.029 A 
ATOM     31  N   UNL A   1      46.036  29.898  30.327  1.00  0.00    -0.354 N 
ATOM     32  N   UNL A   1      41.886  29.449  31.407  1.00  0.00    -0.248 NA
ATOM     33  C   UNL A   1      42.024  30.752  29.477  1.00  0.00     0.031 C 
ATOM     34  C   UNL A   1      46.587  28.202  31.578  1.00  0.00     0.029 A 
ATOM     35  C   UNL A   1      45.570  29.136  31.365  1.00  0.00     0.049 A 
ATOM     36  H   UNL A   1      45.847  30.852  30.172  1.00  0.00     0.167 HD
ATOM     37  C   UNL A   1      43.200  29.875  31.272  1.00  0.00     0.074 A 
ATOM     38  C   UNL A   1      43.181  30.794  30.141  1.00  0.00     0.031 C 
ATOM     39  C   UNL A   1      44.226  29.227  31.899  1.00  0.00     0.034 A 
BRANCH  26  40
ATOM     40  C   UNL A   1      47.040  30.537  27.450  1.00  0.00     0.023 A 
ATOM     41  C   UNL A   1      48.376  30.989  27.497  1.00  0.00     0.012 A 
ATOM     42  C   UNL A   1      46.065  31.441  26.980  1.00  0.00     0.148 A 
ATOM     43  C   UNL A   1      48.722  32.280  27.081  1.00  0.00     0.002 A 
ATOM     44  C   UNL A   1      46.426  32.691  26.491  1.00  0.00     0.091 A 
ATOM     45  F   UNL A   1      44.765  31.144  27.113  1.00  0.00    -0.205 F 
ATOM     46  C   UNL A   1      47.750  33.125  26.557  1.00  0.00     0.022 A 
BRANCH  44  47
ATOM     47  S   UNL A   1      45.189  33.742  25.731  1.00  0.00     0.127 S 
ATOM     48  O   UNL A   1      46.013  34.734  25.051  1.00  0.00    -0.237 OA
ATOM     49  O   UNL A   1      44.483  32.812  24.846  1.00  0.00    -0.237 OA
ATOM     50  O   UNL A   1      44.386  34.211  26.855  1.00  0.00    -0.744 OA
ENDBRANCH  44  47
ENDBRANCH  26  40
BRANCH  27  51
ATOM     51  C   UNL A   1      38.893  29.633  29.322  1.00  0.00     0.023 A 
ATOM     52  C   UNL A   1      38.208  29.200  28.172  1.00  0.00     0.012 A 
ATOM     53  C   UNL A   1      38.200  30.469  30.229  1.00  0.00     0.148 A 
ATOM     54  C   UNL A   1      36.874  29.561  27.946  1.00  0.00     0.002 A 
ATOM     55  C   UNL A   1      36.885  30.853  29.984  1.00  0.00     0.091 A 
ATOM     56  F   UNL A   1      38.783  30.815  31.385  1.00  0.00    -0.205 F 
ATOM     57  C   UNL A   1      36.213  30.388  28.851  1.00  0.00     0.022 A 
BRANCH  55  58
ATOM     58  S   UNL A   1      36.014  31.948  31.113  1.00  0.00     0.127 S 
ATOM     59  O   UNL A   1      35.931  31.145  32.334  1.00  0.00    -0.237 OA
ATOM     60  O   UNL A   1      36.916  33.091  31.193  1.00  0.00    -0.237 OA
ATOM     61  O   UNL A   1      34.721  32.188  30.479  1.00  0.00    -0.744 OA
ENDBRANCH  55  58
ENDBRANCH  27  51
BRANCH  39  62
ATOM     62  C   UNL A   1      43.891  28.248  32.996  1.00  0.00     0.023 A 
ATOM     63  C   UNL A   1      43.726  26.876  32.716  1.00  0.00     0.012 A 
ATOM     64  C   UNL A   1      43.957  28.670  34.336  1.00  0.00     0.148 A 
ATOM     65  C   UNL A   1      43.612  25.945  33.750  1.00  0.00     0.002 A 
ATOM     66  C   UNL A   1      43.881  27.733  35.362  1.00  0.00     0.091 A 
ATOM     67  F   UNL A   1      44.139  29.976  34.583  1.00  0.00    -0.205 F 
ATOM     68  C   UNL A   1      43.703  26.370  35.071  1.00  0.00     0.022 A 
BRANCH  66  69
ATOM     69  S   UNL A   1      44.117  28.181  37.086  1.00  0.00     0.127 S 
ATOM     70  O   UNL A   1      45.565  28.365  37.160  1.00  0.00    -0.237 OA
ATOM     71  O   UNL A   1      43.337  29.416  37.197  1.00  0.00    -0.237 OA
ATOM     72  O   UNL A   1      43.589  27.071  37.869  1.00  0.00    -0.744 OA
ENDBRANCH  66  69
ENDBRANCH  39  62
ENDBRANCH  13  14
ENDBRANCH   6   8
ENDBRANCH   5   6
ENDBRANCH   4   5
ENDBRANCH   3   4
ENDBRANCH   2   3
ENDBRANCH   1   2
BRANCH   1  73
ATOM     73  C   UNL A   1      40.281  21.975  27.146  1.00  0.00     0.188 C 
BRANCH  73  74
ATOM     74  O   UNL A   1      39.646  22.348  25.924  1.00  0.00    -0.376 OA
BRANCH  74  75
ATOM     75  C   UNL A   1      38.226  22.348  25.882  1.00  0.00     0.202 C 
BRANCH  75  76
ATOM     76  C   UNL A   1      37.602  23.662  26.333  1.00  0.00     0.261 C 
BRANCH  76  77
ATOM     77  O   UNL A   1      36.594  24.082  25.398  1.00  0.00    -0.459 OA
BRANCH  77  78
ATOM     78  C   UNL A   1      35.312  24.014  25.827  1.00  0.00     0.356 C 
ATOM     79  O   UNL A   1      34.907  23.377  26.786  1.00  0.00    -0.244 OA
BRANCH  78  80
ATOM     80  C   UNL A   1      34.493  24.909  25.056  1.00  0.00     0.145 A 
ATOM     81  C   UNL A   1      34.103  26.190  25.415  1.00  0.00     0.048 A 
ATOM     82  N   UNL A   1      33.869  24.629  23.858  1.00  0.00    -0.209 N 
ATOM     83  C   UNL A   1      33.151  26.651  24.468  1.00  0.00     0.040 A 
ATOM     84  C   UNL A   1      33.010  25.644  23.514  1.00  0.00     0.156 A 
ATOM     85  C   UNL A   1      32.340  27.791  24.306  1.00  0.00     0.065 A 
ATOM     86  N   UNL A   1      32.145  25.665  22.483  1.00  0.00    -0.237 NA
ATOM     87  Cl  UNL A   1      32.576  29.023  25.466  1.00  0.00    -0.083 Cl
ATOM     88  C   UNL A   1      31.393  27.842  23.292  1.00  0.00     0.093 A 
ATOM     89  C   UNL A   1      31.357  26.764  22.424  1.00  0.00     0.128 A 
BRANCH  82  90
ATOM     90  S   UNL A   1      34.265  23.305  22.878  1.00  0.00     0.270 S 
ATOM     91  O   UNL A   1      33.422  23.443  21.706  1.00  0.00    -0.201 OA
ATOM     92  O   UNL A   1      35.715  23.340  22.771  1.00  0.00    -0.201 OA
BRANCH  90  93
ATOM     93  C   UNL A   1      33.849  21.798  23.704  1.00  0.00     0.088 A 
ATOM     94  C   UNL A   1      34.857  21.058  24.330  1.00  0.00     0.022 A 
ATOM     95  C   UNL A   1      32.537  21.314  23.656  1.00  0.00     0.022 A 
ATOM     96  C   UNL A   1      34.538  19.852  24.953  1.00  0.00     0.001 A 
ATOM     97  C   UNL A   1      32.223  20.117  24.299  1.00  0.00     0.001 A 
ATOM     98  C   UNL A   1      33.222  19.390  24.949  1.00  0.00     0.000 A 
ENDBRANCH  90  93
ENDBRANCH  82  90
BRANCH  88  99
ATOM     99  C   UNL A   1      30.425  28.967  23.142  1.00  0.00     0.419 C 
ATOM    100  F   UNL A   1      29.128  28.553  23.159  1.00  0.00    -0.166 F 
ATOM    101  F   UNL A   1      30.548  29.913  24.106  1.00  0.00    -0.166 F 
ATOM    102  F   UNL A   1      30.568  29.625  21.954  1.00  0.00    -0.166 F 
ENDBRANCH  88  99
ENDBRANCH  78  80
ENDBRANCH  77  78
ENDBRANCH  76  77
ENDBRANCH  75  76
ENDBRANCH  74  75
ENDBRANCH  73  74
ENDBRANCH   1  73
TORSDOF 23
ENDMDL
MODEL 2
REMARK VINA RESULT:     -11.5      3.575      9.344
REMARK SMILES O=C(OCCOCCOCCOC(=O)c1cc2c(Cl)c(C(F)(F)F)cnc2n1S(=O)(=O)c1ccccc1)c1ccc(-c2c3nc(c(-c4cccc(S(=O)(=O)[O-])c4F)c4ccc([nH]4)c(-c4cccc(S(=O)(=O)[O-])c4F)c4nc(c(-c5cccc(S(=O)(=O)[O-])c5F)c5ccc2[nH]5)C=C4)C=C3)cc1
REMARK SMILES IDX 7 1 6 2 5 3 4 4 3 5 2 6 1 7 38 8 39 9 100 10 40 11 99 12
REMARK SMILES IDX 41 13 42 14 43 15 93 16 44 17 98 18 92 19 94 20 45 21 97 22
REMARK SMILES IDX 91 23 90 24 46 26 78 27 58 28 77 29 59 30 62 31 76 32 95 33
REMARK SMILES IDX 60 34 61 35 75 37 96 38 63 39 47 40 48 41 56 42 49 43 51 44
REMARK SMILES IDX 57 45 50 46 52 47 53 48 54 49 55 50 79 51 80 52 88 53 81 54
REMARK SMILES IDX 83 55 89 56 82 57 84 58 85 59 86 60 87 61 64 62 65 63 73 64
REMARK SMILES IDX 66 65 68 66 74 67 67 68 69 69 70 70 71 71 72 72 8 73 9 74
REMARK SMILES IDX 10 75 11 76 12 77 13 78 14 79 15 80 16 81 28 82 17 83 27 84
REMARK SMILES IDX 18 85 26 86 19 87 20 88 25 89 29 90 30 91 31 92 32 93 33 94
REMARK SMILES IDX 37 95 34 96 36 97 35 98 21 99 22 100 23 101 24 102
REMARK H PARENT 94 25 62 36
REMARK Flexibility Score: inf
ROOT
ATOM      1  C   UNL A   1      30.668  29.648  24.151  1.00  0.00     0.188 C 
ENDROOT
BRANCH   1   2
ATOM      2  O   UNL A   1      31.760  29.683  25.070  1.00  0.00    -0.376 OA
BRANCH   2   3
ATOM      3  C   UNL A   1      31.876  30.737  26.015  1.00  0.00     0.202 C 
BRANCH   3   4
ATOM      4  C   UNL A   1      32.764  30.430  27.222  1.00  0.00     0.261 C 
BRANCH   4   5
ATOM      5  O   UNL A   1      34.142  30.753  26.965  1.00  0.00    -0.460 OA
BRANCH   5   6
ATOM      6  C   UNL A   1      34.961  31.566  27.670  1.00  0.00     0.338 C 
ATOM      7  O   UNL A   1      34.679  32.761  27.749  1.00  0.00    -0.246 OA
BRANCH   6   8
ATOM      8  C   UNL A   1      36.121  31.070  28.457  1.00  0.00     0.060 A 
ATOM      9  C   UNL A   1      37.242  31.815  28.824  1.00  0.00     0.016 A 
ATOM     10  C   UNL A   1      36.053  29.719  28.843  1.00  0.00     0.016 A 
ATOM     11  C   UNL A   1      38.359  31.184  29.343  1.00  0.00     0.010 A 
ATOM     12  C   UNL A   1      37.147  29.092  29.418  1.00  0.00     0.010 A 
ATOM     13  C   UNL A   1      38.330  29.810  29.565  1.00  0.00    -0.014 A 
BRANCH  13  14
ATOM     14  C   UNL A   1      39.607  29.159  29.806  1.00  0.00     0.031 A 
ATOM     15  C   UNL A   1      40.180  29.221  31.171  1.00  0.00     0.074 A 
ATOM     16  C   UNL A   1      40.250  28.517  28.813  1.00  0.00     0.049 A 
ATOM     17  N   UNL A   1      41.287  29.780  31.545  1.00  0.00    -0.248 NA
ATOM     18  C   UNL A   1      39.403  28.617  32.260  1.00  0.00     0.031 C 
ATOM     19  C   UNL A   1      39.716  28.133  27.502  1.00  0.00     0.029 A 
ATOM     20  N   UNL A   1      41.488  27.949  28.830  1.00  0.00    -0.354 N 
ATOM     21  C   UNL A   1      41.449  29.429  32.883  1.00  0.00     0.074 A 
ATOM     22  C   UNL A   1      40.213  28.812  33.301  1.00  0.00     0.031 C 
ATOM     23  C   UNL A   1      40.512  27.181  26.971  1.00  0.00     0.029 A 
ATOM     24  C   UNL A   1      41.665  27.003  27.833  1.00  0.00     0.049 A 
ATOM     25  H   UNL A   1      42.186  28.186  29.484  1.00  0.00     0.167 HD
ATOM     26  C   UNL A   1      42.646  29.488  33.524  1.00  0.00     0.034 A 
ATOM     27  C   UNL A   1      42.640  26.069  27.786  1.00  0.00     0.034 A 
ATOM     28  C   UNL A   1      43.638  30.248  32.822  1.00  0.00     0.049 A 
ATOM     29  C   UNL A   1      43.763  26.556  28.622  1.00  0.00     0.074 A 
ATOM     30  C   UNL A   1      43.780  31.558  32.418  1.00  0.00     0.029 A 
ATOM     31  N   UNL A   1      44.624  29.542  32.182  1.00  0.00    -0.354 N 
ATOM     32  N   UNL A   1      44.499  27.594  28.337  1.00  0.00    -0.248 NA
ATOM     33  C   UNL A   1      43.894  26.053  29.981  1.00  0.00     0.031 C 
ATOM     34  C   UNL A   1      44.576  31.503  31.236  1.00  0.00     0.029 A 
ATOM     35  C   UNL A   1      44.849  30.157  30.980  1.00  0.00     0.049 A 
ATOM     36  H   UNL A   1      45.085  28.741  32.524  1.00  0.00     0.167 HD
ATOM     37  C   UNL A   1      44.876  28.112  29.569  1.00  0.00     0.074 A 
ATOM     38  C   UNL A   1      44.604  27.044  30.523  1.00  0.00     0.031 C 
ATOM     39  C   UNL A   1      45.098  29.449  29.741  1.00  0.00     0.034 A 
BRANCH  26  40
ATOM     40  C   UNL A   1      43.018  28.601  34.678  1.00  0.00     0.023 A 
ATOM     41  C   UNL A   1      43.443  29.197  35.884  1.00  0.00     0.012 A 
ATOM     42  C   UNL A   1      43.193  27.207  34.546  1.00  0.00     0.148 A 
ATOM     43  C   UNL A   1      44.004  28.435  36.914  1.00  0.00     0.002 A 
ATOM     44  C   UNL A   1      43.674  26.445  35.604  1.00  0.00     0.091 A 
ATOM     45  F   UNL A   1      43.008  26.624  33.354  1.00  0.00    -0.205 F 
ATOM     46  C   UNL A   1      44.100  27.054  36.784  1.00  0.00     0.022 A 
BRANCH  44  47
ATOM     47  S   UNL A   1      43.711  24.657  35.470  1.00  0.00     0.127 S 
ATOM     48  O   UNL A   1      42.292  24.333  35.375  1.00  0.00    -0.237 OA
ATOM     49  O   UNL A   1      44.478  24.447  34.240  1.00  0.00    -0.237 OA
ATOM     50  O   UNL A   1      44.406  24.228  36.679  1.00  0.00    -0.744 OA
ENDBRANCH  44  47
ENDBRANCH  26  40
BRANCH  27  51
ATOM     51  C   UNL A   1      42.572  24.690  27.248  1.00  0.00     0.023 A 
ATOM     52  C   UNL A   1      41.363  23.976  27.343  1.00  0.00     0.012 A 
ATOM     53  C   UNL A   1      43.596  24.151  26.435  1.00  0.00     0.148 A 
ATOM     54  C   UNL A   1      41.169  22.784  26.634  1.00  0.00     0.002 A 
ATOM     55  C   UNL A   1      43.411  22.949  25.758  1.00  0.00     0.091 A 
ATOM     56  F   UNL A   1      44.719  24.854  26.235  1.00  0.00    -0.205 F 
ATOM     57  C   UNL A   1      42.193  22.270  25.843  1.00  0.00     0.022 A 
BRANCH  55  58
ATOM     58  S   UNL A   1      44.724  22.239  24.755  1.00  0.00     0.127 S 
ATOM     59  O   UNL A   1      45.860  22.231  25.678  1.00  0.00    -0.237 OA
ATOM     60  O   UNL A   1      44.189  20.921  24.432  1.00  0.00    -0.237 OA
ATOM     61  O   UNL A   1      44.883  23.163  23.636  1.00  0.00    -0.744 OA
ENDBRANCH  55  58
ENDBRANCH  27  51
BRANCH  39  62
ATOM     62  C   UNL A   1      45.250  30.313  28.514  1.00  0.00     0.023 A 
ATOM     63  C   UNL A   1      44.120  30.745  27.789  1.00  0.00     0.012 A 
ATOM     64  C   UNL A   1      46.508  30.869  28.217  1.00  0.00     0.148 A 
ATOM     65  C   UNL A   1      44.243  31.699  26.777  1.00  0.00     0.002 A 
ATOM     66  C   UNL A   1      46.618  31.848  27.234  1.00  0.00     0.091 A 
ATOM     67  F   UNL A   1      47.567  30.464  28.933  1.00  0.00    -0.205 F 
ATOM     68  C   UNL A   1      45.488  32.260  26.508  1.00  0.00     0.022 A 
BRANCH  66  69
ATOM     69  S   UNL A   1      48.161  32.712  26.913  1.00  0.00     0.127 S 
ATOM     70  O   UNL A   1      49.043  31.622  26.501  1.00  0.00    -0.237 OA
ATOM     71  O   UNL A   1      47.784  33.633  25.840  1.00  0.00    -0.237 OA
ATOM     72  O   UNL A   1      48.523  33.369  28.163  1.00  0.00    -0.744 OA
ENDBRANCH  66  69
ENDBRANCH  39  62
ENDBRANCH  13  14
ENDBRANCH   6   8
ENDBRANCH   5   6
ENDBRANCH   4   5
ENDBRANCH   3   4
ENDBRANCH   2   3
ENDBRANCH   1   2
BRANCH   1  73
ATOM     73  C   UNL A   1      30.533  28.505  23.127  1.00  0.00     0.188 C 
BRANCH  73  74
ATOM     74  O   UNL A   1      29.492  27.550  23.321  1.00  0.00    -0.376 OA
BRANCH  74  75
ATOM     75  C   UNL A   1      29.860  26.194  23.532  1.00  0.00     0.202 C 
BRANCH  75  76
ATOM     76  C   UNL A   1      31.221  25.833  22.952  1.00  0.00     0.261 C 
BRANCH  76  77
ATOM     77  O   UNL A   1      31.409  24.409  22.972  1.00  0.00    -0.459 OA
BRANCH  77  78
ATOM     78  C   UNL A   1      32.566  23.949  22.443  1.00  0.00     0.356 C 
ATOM     79  O   UNL A   1      33.308  24.561  21.691  1.00  0.00    -0.244 OA
BRANCH  78  80
ATOM     80  C   UNL A   1      32.873  22.656  22.992  1.00  0.00     0.145 A 
ATOM     81  C   UNL A   1      32.470  21.428  22.491  1.00  0.00     0.048 A 
ATOM     82  N   UNL A   1      33.549  22.399  24.166  1.00  0.00    -0.209 N 
ATOM     83  C   UNL A   1      32.823  20.423  23.430  1.00  0.00     0.040 A 
ATOM     84  C   UNL A   1      33.482  21.064  24.478  1.00  0.00     0.156 A 
ATOM     85  C   UNL A   1      32.634  19.033  23.559  1.00  0.00     0.065 A 
ATOM     86  N   UNL A   1      33.916  20.467  25.604  1.00  0.00    -0.237 NA
ATOM     87  Cl  UNL A   1      31.868  18.276  22.232  1.00  0.00    -0.083 Cl
ATOM     88  C   UNL A   1      33.014  18.377  24.722  1.00  0.00     0.093 A 
ATOM     89  C   UNL A   1      33.648  19.143  25.686  1.00  0.00     0.128 A 
BRANCH  82  90
ATOM     90  S   UNL A   1      34.482  23.552  24.986  1.00  0.00     0.270 S 
ATOM     91  O   UNL A   1      35.111  22.821  26.069  1.00  0.00    -0.201 OA
ATOM     92  O   UNL A   1      35.276  24.194  23.951  1.00  0.00    -0.201 OA
BRANCH  90  93
ATOM     93  C   UNL A   1      33.432  24.798  25.673  1.00  0.00     0.088 A 
ATOM     94  C   UNL A   1      33.876  26.124  25.712  1.00  0.00     0.022 A 
ATOM     95  C   UNL A   1      32.207  24.441  26.246  1.00  0.00     0.022 A 
ATOM     96  C   UNL A   1      33.065  27.103  26.284  1.00  0.00     0.001 A 
ATOM     97  C   UNL A   1      31.394  25.430  26.798  1.00  0.00     0.001 A 
ATOM     98  C   UNL A   1      31.822  26.759  26.814  1.00  0.00     0.000 A 
ENDBRANCH  90  93
ENDBRANCH  82  90
BRANCH  88  99
ATOM     99  C   UNL A   1      32.734  16.933  24.967  1.00  0.00     0.419 C 
ATOM    100  F   UNL A   1      31.406  16.670  25.111  1.00  0.00    -0.166 F 
ATOM    101  F   UNL A   1      33.190  16.122  23.980  1.00  0.00    -0.166 F 
ATOM    102  F   UNL A   1      33.309  16.476  26.119  1.00  0.00    -0.166 F 
ENDBRANCH  88  99
ENDBRANCH  78  80
ENDBRANCH  77  78
ENDBRANCH  76  77
ENDBRANCH  75  76
ENDBRANCH  74  75
ENDBRANCH  73  74
ENDBRANCH   1  73
TORSDOF 23
ENDMDL
MODEL 3
REMARK VINA RESULT:     -11.5      2.095      2.828
REMARK SMILES O=C(OCCOCCOCCOC(=O)c1cc2c(Cl)c(C(F)(F)F)cnc2n1S(=O)(=O)c1ccccc1)c1ccc(-c2c3nc(c(-c4cccc(S(=O)(=O)[O-])c4F)c4ccc([nH]4)c(-c4cccc(S(=O)(=O)[O-])c4F)c4nc(c(-c5cccc(S(=O)(=O)[O-])c5F)c5ccc2[nH]5)C=C4)C=C3)cc1
REMARK SMILES IDX 7 1 6 2 5 3 4 4 3 5 2 6 1 7 38 8 39 9 100 10 40 11 99 12
REMARK SMILES IDX 41 13 42 14 43 15 93 16 44 17 98 18 92 19 94 20 45 21 97 22
REMARK SMILES IDX 91 23 90 24 46 26 78 27 58 28 77 29 59 30 62 31 76 32 95 33
REMARK SMILES IDX 60 34 61 35 75 37 96 38 63 39 47 40 48 41 56 42 49 43 51 44
REMARK SMILES IDX 57 45 50 46 52 47 53 48 54 49 55 50 79 51 80 52 88 53 81 54
REMARK SMILES IDX 83 55 89 56 82 57 84 58 85 59 86 60 87 61 64 62 65 63 73 64
REMARK SMILES IDX 66 65 68 66 74 67 67 68 69 69 70 70 71 71 72 72 8 73 9 74
REMARK SMILES IDX 10 75 11 76 12 77 13 78 14 79 15 80 16 81 28 82 17 83 27 84
REMARK SMILES IDX 18 85 26 86 19 87 20 88 25 89 29 90 30 91 31 92 32 93 33 94
REMARK SMILES IDX 37 95 34 96 36 97 35 98 21 99 22 100 23 101 24 102
REMARK H PARENT 94 25 62 36
REMARK Flexibility Score: inf
ROOT
ATOM      1  C   UNL A   1      40.031  20.510  26.178  1.00  0.00     0.188 C 
ENDROOT
BRANCH   1   2
ATOM      2  O   UNL A   1      41.290  20.308  26.822  1.00  0.00    -0.376 OA
BRANCH   2   3
ATOM      3  C   UNL A   1      42.448  19.992  26.063  1.00  0.00     0.202 C 
BRANCH   3   4
ATOM      4  C   UNL A   1      43.433  21.147  25.872  1.00  0.00     0.261 C 
BRANCH   4   5
ATOM      5  O   UNL A   1      42.819  22.267  25.212  1.00  0.00    -0.460 OA
BRANCH   5   6
ATOM      6  C   UNL A   1      43.218  23.560  25.200  1.00  0.00     0.338 C 
ATOM      7  O   UNL A   1      44.077  23.903  24.389  1.00  0.00    -0.246 OA
BRANCH   6   8
ATOM      8  C   UNL A   1      42.587  24.615  26.035  1.00  0.00     0.060 A 
ATOM      9  C   UNL A   1      41.692  25.588  25.588  1.00  0.00     0.016 A 
ATOM     10  C   UNL A   1      42.955  24.610  27.392  1.00  0.00     0.016 A 
ATOM     11  C   UNL A   1      41.362  26.658  26.402  1.00  0.00     0.010 A 
ATOM     12  C   UNL A   1      42.580  25.647  28.232  1.00  0.00     0.010 A 
ATOM     13  C   UNL A   1      41.873  26.719  27.696  1.00  0.00    -0.014 A 
BRANCH  13  14
ATOM     14  C   UNL A   1      41.757  27.994  28.384  1.00  0.00     0.031 A 
ATOM     15  C   UNL A   1      42.750  29.050  28.077  1.00  0.00     0.074 A 
ATOM     16  C   UNL A   1      40.772  28.207  29.277  1.00  0.00     0.049 A 
ATOM     17  N   UNL A   1      43.612  29.590  28.879  1.00  0.00    -0.248 NA
ATOM     18  C   UNL A   1      42.813  29.538  26.694  1.00  0.00     0.031 C 
ATOM     19  C   UNL A   1      39.573  27.392  29.498  1.00  0.00     0.029 A 
ATOM     20  N   UNL A   1      40.575  29.287  30.083  1.00  0.00    -0.354 N 
ATOM     21  C   UNL A   1      44.195  30.627  28.156  1.00  0.00     0.074 A 
ATOM     22  C   UNL A   1      43.752  30.480  26.791  1.00  0.00     0.031 C 
ATOM     23  C   UNL A   1      38.663  28.131  30.166  1.00  0.00     0.029 A 
ATOM     24  C   UNL A   1      39.269  29.397  30.533  1.00  0.00     0.049 A 
ATOM     25  H   UNL A   1      41.287  29.924  30.322  1.00  0.00     0.167 HD
ATOM     26  C   UNL A   1      44.855  31.660  28.745  1.00  0.00     0.034 A 
ATOM     27  C   UNL A   1      38.703  30.498  31.073  1.00  0.00     0.034 A 
ATOM     28  C   UNL A   1      45.188  31.422  30.118  1.00  0.00     0.049 A 
ATOM     29  C   UNL A   1      39.797  31.344  31.607  1.00  0.00     0.074 A 
ATOM     30  C   UNL A   1      45.970  30.519  30.806  1.00  0.00     0.029 A 
ATOM     31  N   UNL A   1      44.434  32.071  31.062  1.00  0.00    -0.354 N 
ATOM     32  N   UNL A   1      40.553  31.020  32.619  1.00  0.00    -0.248 NA
ATOM     33  C   UNL A   1      40.271  32.463  30.808  1.00  0.00     0.031 C 
ATOM     34  C   UNL A   1      45.347  30.376  32.081  1.00  0.00     0.029 A 
ATOM     35  C   UNL A   1      44.208  31.185  32.081  1.00  0.00     0.049 A 
ATOM     36  H   UNL A   1      44.115  33.002  31.016  1.00  0.00     0.167 HD
ATOM     37  C   UNL A   1      41.777  31.620  32.355  1.00  0.00     0.074 A 
ATOM     38  C   UNL A   1      41.496  32.606  31.320  1.00  0.00     0.031 C 
ATOM     39  C   UNL A   1      42.949  31.066  32.787  1.00  0.00     0.034 A 
BRANCH  26  40
ATOM     40  C   UNL A   1      44.953  33.035  28.148  1.00  0.00     0.023 A 
ATOM     41  C   UNL A   1      43.780  33.810  28.031  1.00  0.00     0.012 A 
ATOM     42  C   UNL A   1      46.107  33.500  27.483  1.00  0.00     0.148 A 
ATOM     43  C   UNL A   1      43.764  35.000  27.294  1.00  0.00     0.002 A 
ATOM     44  C   UNL A   1      46.107  34.723  26.823  1.00  0.00     0.091 A 
ATOM     45  F   UNL A   1      47.180  32.706  27.382  1.00  0.00    -0.205 F 
ATOM     46  C   UNL A   1      44.933  35.470  26.707  1.00  0.00     0.022 A 
BRANCH  44  47
ATOM     47  S   UNL A   1      47.635  35.372  26.147  1.00  0.00     0.127 S 
ATOM     48  O   UNL A   1      48.563  35.172  27.254  1.00  0.00    -0.237 OA
ATOM     49  O   UNL A   1      47.860  34.508  24.986  1.00  0.00    -0.237 OA
ATOM     50  O   UNL A   1      47.310  36.751  25.801  1.00  0.00    -0.744 OA
ENDBRANCH  44  47
ENDBRANCH  26  40
BRANCH  27  51
ATOM     51  C   UNL A   1      37.302  30.968  30.956  1.00  0.00     0.023 A 
ATOM     52  C   UNL A   1      36.567  31.231  32.127  1.00  0.00     0.012 A 
ATOM     53  C   UNL A   1      36.752  31.387  29.723  1.00  0.00     0.148 A 
ATOM     54  C   UNL A   1      35.345  31.910  32.077  1.00  0.00     0.002 A 
ATOM     55  C   UNL A   1      35.521  32.033  29.674  1.00  0.00     0.091 A 
ATOM     56  F   UNL A   1      37.469  31.250  28.599  1.00  0.00    -0.205 F 
ATOM     57  C   UNL A   1      34.820  32.311  30.851  1.00  0.00     0.022 A 
BRANCH  55  58
ATOM     58  S   UNL A   1      34.798  32.533  28.104  1.00  0.00     0.127 S 
ATOM     59  O   UNL A   1      34.614  31.254  27.417  1.00  0.00    -0.237 OA
ATOM     60  O   UNL A   1      33.562  33.183  28.526  1.00  0.00    -0.237 OA
ATOM     61  O   UNL A   1      35.802  33.394  27.486  1.00  0.00    -0.744 OA
ENDBRANCH  55  58
ENDBRANCH  27  51
BRANCH  39  62
ATOM     62  C   UNL A   1      42.884  29.977  33.829  1.00  0.00     0.023 A 
ATOM     63  C   UNL A   1      42.383  28.698  33.509  1.00  0.00     0.012 A 
ATOM     64  C   UNL A   1      43.527  30.170  35.065  1.00  0.00     0.148 A 
ATOM     65  C   UNL A   1      42.504  27.638  34.409  1.00  0.00     0.002 A 
ATOM     66  C   UNL A   1      43.679  29.100  35.942  1.00  0.00     0.091 A 
ATOM     67  F   UNL A   1      44.019  31.387  35.342  1.00  0.00    -0.205 F 
ATOM     68  C   UNL A   1      43.163  27.835  35.619  1.00  0.00     0.022 A 
BRANCH  66  69
ATOM     69  S   UNL A   1      44.626  29.237  37.463  1.00  0.00     0.127 S 
ATOM     70  O   UNL A   1      43.924  30.310  38.165  1.00  0.00    -0.237 OA
ATOM     71  O   UNL A   1      44.460  27.908  38.054  1.00  0.00    -0.237 OA
ATOM     72  O   UNL A   1      45.993  29.545  37.062  1.00  0.00    -0.744 OA
ENDBRANCH  66  69
ENDBRANCH  39  62
ENDBRANCH  13  14
ENDBRANCH   6   8
ENDBRANCH   5   6
ENDBRANCH   4   5
ENDBRANCH   3   4
ENDBRANCH   2   3
ENDBRANCH   1   2
BRANCH   1  73
ATOM     73  C   UNL A   1      39.274  21.843  26.324  1.00  0.00     0.188 C 
BRANCH  73  74
ATOM     74  O   UNL A   1      38.284  22.162  25.348  1.00  0.00    -0.376 OA
BRANCH  74  75
ATOM     75  C   UNL A   1      37.525  21.096  24.794  1.00  0.00     0.202 C 
BRANCH  75  76
ATOM     76  C   UNL A   1      36.049  21.140  25.164  1.00  0.00     0.261 C 
BRANCH  76  77
ATOM     77  O   UNL A   1      35.434  22.319  24.622  1.00  0.00    -0.459 OA
BRANCH  77  78
ATOM     78  C   UNL A   1      35.103  23.286  25.510  1.00  0.00     0.356 C 
ATOM     79  O   UNL A   1      35.699  23.551  26.541  1.00  0.00    -0.244 OA
BRANCH  78  80
ATOM     80  C   UNL A   1      33.999  24.055  25.003  1.00  0.00     0.145 A 
ATOM     81  C   UNL A   1      34.078  25.209  24.238  1.00  0.00     0.048 A 
ATOM     82  N   UNL A   1      32.661  23.843  25.258  1.00  0.00    -0.209 N 
ATOM     83  C   UNL A   1      32.772  25.754  24.113  1.00  0.00     0.040 A 
ATOM     84  C   UNL A   1      31.907  24.886  24.778  1.00  0.00     0.156 A 
ATOM     85  C   UNL A   1      32.197  26.910  23.551  1.00  0.00     0.065 A 
ATOM     86  N   UNL A   1      30.587  25.084  24.949  1.00  0.00    -0.237 NA
ATOM     87  Cl  UNL A   1      33.280  27.923  22.702  1.00  0.00    -0.083 Cl
ATOM     88  C   UNL A   1      30.851  27.191  23.744  1.00  0.00     0.093 A 
ATOM     89  C   UNL A   1      30.114  26.243  24.435  1.00  0.00     0.128 A 
BRANCH  82  90
ATOM     90  S   UNL A   1      32.044  22.402  25.902  1.00  0.00     0.270 S 
ATOM     91  O   UNL A   1      32.882  22.119  27.051  1.00  0.00    -0.201 OA
ATOM     92  O   UNL A   1      30.617  22.642  26.052  1.00  0.00    -0.201 OA
BRANCH  90  93
ATOM     93  C   UNL A   1      32.222  21.092  24.729  1.00  0.00     0.088 A 
ATOM     94  C   UNL A   1      32.030  21.358  23.369  1.00  0.00     0.022 A 
ATOM     95  C   UNL A   1      32.471  19.788  25.171  1.00  0.00     0.022 A 
ATOM     96  C   UNL A   1      32.137  20.319  22.445  1.00  0.00     0.001 A 
ATOM     97  C   UNL A   1      32.596  18.759  24.237  1.00  0.00     0.001 A 
ATOM     98  C   UNL A   1      32.432  19.026  22.877  1.00  0.00     0.000 A 
ENDBRANCH  90  93
ENDBRANCH  82  90
BRANCH  88  99
ATOM     99  C   UNL A   1      30.211  28.454  23.278  1.00  0.00     0.419 C 
ATOM    100  F   UNL A   1      30.644  29.549  23.961  1.00  0.00    -0.166 F 
ATOM    101  F   UNL A   1      30.418  28.707  21.961  1.00  0.00    -0.166 F 
ATOM    102  F   UNL A   1      28.856  28.448  23.447  1.00  0.00    -0.166 F 
ENDBRANCH  88  99
ENDBRANCH  78  80
ENDBRANCH  77  78
ENDBRANCH  76  77
ENDBRANCH  75  76
ENDBRANCH  74  75
ENDBRANCH  73  74
ENDBRANCH   1  73
TORSDOF 23
ENDMDL
