MODEL 1
REMARK VINA RESULT:     -10.4      0.000      0.000
REMARK SMILES O=C(OCCOCCOCCOC(=O)[C@@H]1CCn2c(C(=O)c3ccccc3)ccc21)c1ccc(-c2c3nc(c(-c4cccc(S(=O)(=O)[O-])c4F)c4ccc([nH]4)c(-c4cccc(S(=O)(=O)[O-])c4F)c4nc(c(-c5cccc(S(=O)(=O)[O-])c5F)c5ccc2[nH]5)C=C4)C=C3)cc1
REMARK SMILES IDX 7 1 6 2 5 3 4 4 3 5 2 6 1 7 31 8 32 9 93 10 33 11 92 12
REMARK SMILES IDX 34 13 35 14 36 15 86 16 37 17 91 18 85 19 87 20 38 21 90 22
REMARK SMILES IDX 84 23 83 24 39 26 71 27 51 28 70 29 52 30 55 31 69 32 88 33
REMARK SMILES IDX 53 34 54 35 68 37 89 38 56 39 40 40 41 41 49 42 42 43 44 44
REMARK SMILES IDX 50 45 43 46 45 47 46 48 47 49 48 50 72 51 73 52 81 53 74 54
REMARK SMILES IDX 76 55 82 56 75 57 77 58 78 59 79 60 80 61 57 62 58 63 66 64
REMARK SMILES IDX 59 65 61 66 67 67 60 68 62 69 63 70 64 71 65 72 8 73 9 74
REMARK SMILES IDX 10 75 11 76 12 77 13 78 14 79 15 80 16 81 30 82 17 83 18 84
REMARK SMILES IDX 29 85 19 86 28 87 20 88 21 89 22 90 23 91 27 92 24 93 26 94
REMARK SMILES IDX 25 95
REMARK H PARENT 87 25 55 36
REMARK Flexibility Score: inf
ROOT
ATOM      1  C   UNL A   1      34.900  30.655  28.076  1.00  0.00     0.188 C 
ENDROOT
BRANCH   1   2
ATOM      2  O   UNL A   1      34.348  31.668  27.226  1.00  0.00    -0.376 OA
BRANCH   2   3
ATOM      3  C   UNL A   1      32.988  32.000  27.529  1.00  0.00     0.202 C 
BRANCH   3   4
ATOM      4  C   UNL A   1      32.547  33.434  27.183  1.00  0.00     0.261 C 
BRANCH   4   5
ATOM      5  O   UNL A   1      32.384  34.273  28.336  1.00  0.00    -0.460 OA
BRANCH   5   6
ATOM      6  C   UNL A   1      33.355  34.895  29.051  1.00  0.00     0.338 C 
ATOM      7  O   UNL A   1      33.298  36.119  29.169  1.00  0.00    -0.246 OA
BRANCH   6   8
ATOM      8  C   UNL A   1      34.507  34.177  29.685  1.00  0.00     0.060 A 
ATOM      9  C   UNL A   1      34.402  33.241  30.716  1.00  0.00     0.016 A 
ATOM     10  C   UNL A   1      35.785  34.412  29.147  1.00  0.00     0.016 A 
ATOM     11  C   UNL A   1      35.526  32.634  31.270  1.00  0.00     0.010 A 
ATOM     12  C   UNL A   1      36.916  33.767  29.661  1.00  0.00     0.010 A 
ATOM     13  C   UNL A   1      36.792  32.899  30.752  1.00  0.00    -0.014 A 
BRANCH  13  14
ATOM     14  C   UNL A   1      37.973  32.316  31.417  1.00  0.00     0.031 A 
ATOM     15  C   UNL A   1      38.709  31.198  30.740  1.00  0.00     0.074 A 
ATOM     16  C   UNL A   1      38.399  32.819  32.590  1.00  0.00     0.049 A 
ATOM     17  N   UNL A   1      39.743  30.522  31.158  1.00  0.00    -0.248 NA
ATOM     18  C   UNL A   1      38.213  30.785  29.415  1.00  0.00     0.031 C 
ATOM     19  C   UNL A   1      37.762  33.915  33.323  1.00  0.00     0.029 A 
ATOM     20  N   UNL A   1      39.465  32.468  33.377  1.00  0.00    -0.354 N 
ATOM     21  C   UNL A   1      39.984  29.564  30.182  1.00  0.00     0.074 A 
ATOM     22  C   UNL A   1      39.009  29.764  29.135  1.00  0.00     0.031 C 
ATOM     23  C   UNL A   1      38.444  34.140  34.459  1.00  0.00     0.029 A 
ATOM     24  C   UNL A   1      39.542  33.187  34.547  1.00  0.00     0.049 A 
ATOM     25  H   UNL A   1      40.111  31.769  33.129  1.00  0.00     0.167 HD
ATOM     26  C   UNL A   1      40.931  28.599  30.170  1.00  0.00     0.034 A 
ATOM     27  C   UNL A   1      40.387  33.059  35.586  1.00  0.00     0.034 A 
ATOM     28  C   UNL A   1      41.910  28.428  31.206  1.00  0.00     0.049 A 
ATOM     29  C   UNL A   1      41.426  31.977  35.545  1.00  0.00     0.074 A 
ATOM     30  C   UNL A   1      42.935  27.503  31.277  1.00  0.00     0.029 A 
ATOM     31  N   UNL A   1      41.973  29.191  32.361  1.00  0.00    -0.354 N 
ATOM     32  N   UNL A   1      41.695  31.132  34.580  1.00  0.00    -0.248 NA
ATOM     33  C   UNL A   1      42.275  31.828  36.735  1.00  0.00     0.031 C 
ATOM     34  C   UNL A   1      43.602  27.690  32.492  1.00  0.00     0.029 A 
ATOM     35  C   UNL A   1      43.003  28.744  33.166  1.00  0.00     0.049 A 
ATOM     36  H   UNL A   1      41.372  29.941  32.577  1.00  0.00     0.167 HD
ATOM     37  C   UNL A   1      42.735  30.342  35.049  1.00  0.00     0.074 A 
ATOM     38  C   UNL A   1      43.077  30.839  36.367  1.00  0.00     0.031 C 
ATOM     39  C   UNL A   1      43.336  29.281  34.460  1.00  0.00     0.034 A 
BRANCH  26  40
ATOM     40  C   UNL A   1      40.935  27.645  29.009  1.00  0.00     0.023 A 
ATOM     41  C   UNL A   1      40.036  26.561  28.986  1.00  0.00     0.012 A 
ATOM     42  C   UNL A   1      41.817  27.841  27.930  1.00  0.00     0.148 A 
ATOM     43  C   UNL A   1      40.034  25.669  27.913  1.00  0.00     0.002 A 
ATOM     44  C   UNL A   1      41.788  26.968  26.852  1.00  0.00     0.091 A 
ATOM     45  F   UNL A   1      42.680  28.866  27.990  1.00  0.00    -0.205 F 
ATOM     46  C   UNL A   1      40.902  25.876  26.844  1.00  0.00     0.022 A 
BRANCH  44  47
ATOM     47  S   UNL A   1      42.835  27.172  25.408  1.00  0.00     0.127 S 
ATOM     48  O   UNL A   1      42.214  28.324  24.755  1.00  0.00    -0.237 OA
ATOM     49  O   UNL A   1      44.139  27.444  26.013  1.00  0.00    -0.237 OA
ATOM     50  O   UNL A   1      42.754  25.920  24.669  1.00  0.00    -0.744 OA
ENDBRANCH  44  47
ENDBRANCH  26  40
BRANCH  27  51
ATOM     51  C   UNL A   1      40.249  33.924  36.786  1.00  0.00     0.023 A 
ATOM     52  C   UNL A   1      40.949  35.141  36.865  1.00  0.00     0.012 A 
ATOM     53  C   UNL A   1      39.466  33.506  37.876  1.00  0.00     0.148 A 
ATOM     54  C   UNL A   1      40.881  35.921  38.021  1.00  0.00     0.002 A 
ATOM     55  C   UNL A   1      39.398  34.289  39.021  1.00  0.00     0.091 A 
ATOM     56  F   UNL A   1      38.823  32.333  37.784  1.00  0.00    -0.205 F 
ATOM     57  C   UNL A   1      40.102  35.499  39.097  1.00  0.00     0.022 A 
BRANCH  55  58
ATOM     58  S   UNL A   1      38.416  33.782  40.435  1.00  0.00     0.127 S 
ATOM     59  O   UNL A   1      37.215  33.257  39.793  1.00  0.00    -0.237 OA
ATOM     60  O   UNL A   1      39.269  32.777  41.066  1.00  0.00    -0.237 OA
ATOM     61  O   UNL A   1      38.239  34.998  41.221  1.00  0.00    -0.744 OA
ENDBRANCH  55  58
ENDBRANCH  27  51
BRANCH  39  62
ATOM     62  C   UNL A   1      44.412  28.579  35.236  1.00  0.00     0.023 A 
ATOM     63  C   UNL A   1      45.750  28.993  35.091  1.00  0.00     0.012 A 
ATOM     64  C   UNL A   1      44.085  27.585  36.177  1.00  0.00     0.148 A 
ATOM     65  C   UNL A   1      46.753  28.417  35.867  1.00  0.00     0.002 A 
ATOM     66  C   UNL A   1      45.084  27.048  36.979  1.00  0.00     0.091 A 
ATOM     67  F   UNL A   1      42.806  27.196  36.277  1.00  0.00    -0.205 F 
ATOM     68  C   UNL A   1      46.419  27.456  36.820  1.00  0.00     0.022 A 
BRANCH  66  69
ATOM     69  S   UNL A   1      44.731  25.881  38.296  1.00  0.00     0.127 S 
ATOM     70  O   UNL A   1      43.845  26.662  39.157  1.00  0.00    -0.237 OA
ATOM     71  O   UNL A   1      44.077  24.788  37.575  1.00  0.00    -0.237 OA
ATOM     72  O   UNL A   1      46.019  25.532  38.880  1.00  0.00    -0.744 OA
ENDBRANCH  66  69
ENDBRANCH  39  62
ENDBRANCH  13  14
ENDBRANCH   6   8
ENDBRANCH   5   6
ENDBRANCH   4   5
ENDBRANCH   3   4
ENDBRANCH   2   3
ENDBRANCH   1   2
BRANCH   1  73
ATOM     73  C   UNL A   1      35.356  29.425  27.290  1.00  0.00     0.188 C 
BRANCH  73  74
ATOM     74  O   UNL A   1      34.347  28.478  26.943  1.00  0.00    -0.376 OA
BRANCH  74  75
ATOM     75  C   UNL A   1      33.877  28.485  25.600  1.00  0.00     0.202 C 
BRANCH  75  76
ATOM     76  C   UNL A   1      32.469  29.041  25.338  1.00  0.00     0.261 C 
BRANCH  76  77
ATOM     77  O   UNL A   1      31.523  28.085  24.847  1.00  0.00    -0.463 OA
BRANCH  77  78
ATOM     78  C   UNL A   1      30.602  28.580  23.967  1.00  0.00     0.315 C 
ATOM     79  O   UNL A   1      30.291  29.763  23.873  1.00  0.00    -0.251 OA
BRANCH  78  80
ATOM     80  C   UNL A   1      30.057  27.469  23.080  1.00  0.00     0.148 C 
ATOM     81  C   UNL A   1      29.223  26.468  23.920  1.00  0.00     0.043 C 
ATOM     82  C   UNL A   1      31.186  26.642  22.596  1.00  0.00     0.033 A 
ATOM     83  C   UNL A   1      30.028  25.156  23.995  1.00  0.00     0.124 C 
ATOM     84  N   UNL A   1      31.181  25.391  23.146  1.00  0.00    -0.341 N 
ATOM     85  C   UNL A   1      32.297  26.769  21.810  1.00  0.00     0.025 A 
ATOM     86  C   UNL A   1      32.381  24.775  22.954  1.00  0.00     0.090 A 
ATOM     87  C   UNL A   1      33.056  25.591  22.043  1.00  0.00     0.032 A 
BRANCH  86  88
ATOM     88  C   UNL A   1      32.946  23.612  23.632  1.00  0.00     0.209 C 
ATOM     89  O   UNL A   1      32.284  22.584  23.783  1.00  0.00    -0.287 OA
BRANCH  88  90
ATOM     90  C   UNL A   1      34.374  23.574  24.046  1.00  0.00     0.024 A 
ATOM     91  C   UNL A   1      34.729  24.146  25.276  1.00  0.00     0.012 A 
ATOM     92  C   UNL A   1      35.367  23.028  23.231  1.00  0.00     0.012 A 
ATOM     93  C   UNL A   1      36.060  24.140  25.699  1.00  0.00     0.001 A 
ATOM     94  C   UNL A   1      36.699  23.022  23.656  1.00  0.00     0.001 A 
ATOM     95  C   UNL A   1      37.043  23.570  24.891  1.00  0.00     0.000 A 
ENDBRANCH  88  90
ENDBRANCH  86  88
ENDBRANCH  78  80
ENDBRANCH  77  78
ENDBRANCH  76  77
ENDBRANCH  75  76
ENDBRANCH  74  75
ENDBRANCH  73  74
ENDBRANCH   1  73
TORSDOF 22
ENDMDL
MODEL 2
REMARK VINA RESULT:     -10.4      2.096      8.473
REMARK SMILES O=C(OCCOCCOCCOC(=O)[C@@H]1CCn2c(C(=O)c3ccccc3)ccc21)c1ccc(-c2c3nc(c(-c4cccc(S(=O)(=O)[O-])c4F)c4ccc([nH]4)c(-c4cccc(S(=O)(=O)[O-])c4F)c4nc(c(-c5cccc(S(=O)(=O)[O-])c5F)c5ccc2[nH]5)C=C4)C=C3)cc1
REMARK SMILES IDX 7 1 6 2 5 3 4 4 3 5 2 6 1 7 31 8 32 9 93 10 33 11 92 12
REMARK SMILES IDX 34 13 35 14 36 15 86 16 37 17 91 18 85 19 87 20 38 21 90 22
REMARK SMILES IDX 84 23 83 24 39 26 71 27 51 28 70 29 52 30 55 31 69 32 88 33
REMARK SMILES IDX 53 34 54 35 68 37 89 38 56 39 40 40 41 41 49 42 42 43 44 44
REMARK SMILES IDX 50 45 43 46 45 47 46 48 47 49 48 50 72 51 73 52 81 53 74 54
REMARK SMILES IDX 76 55 82 56 75 57 77 58 78 59 79 60 80 61 57 62 58 63 66 64
REMARK SMILES IDX 59 65 61 66 67 67 60 68 62 69 63 70 64 71 65 72 8 73 9 74
REMARK SMILES IDX 10 75 11 76 12 77 13 78 14 79 15 80 16 81 30 82 17 83 18 84
REMARK SMILES IDX 29 85 19 86 28 87 20 88 21 89 22 90 23 91 27 92 24 93 26 94
REMARK SMILES IDX 25 95
REMARK H PARENT 87 25 55 36
REMARK Flexibility Score: inf
ROOT
ATOM      1  C   UNL A   1      34.854  33.228  29.245  1.00  0.00     0.188 C 
ENDROOT
BRANCH   1   2
ATOM      2  O   UNL A   1      34.604  34.577  28.836  1.00  0.00    -0.376 OA
BRANCH   2   3
ATOM      3  C   UNL A   1      33.241  34.988  28.996  1.00  0.00     0.202 C 
BRANCH   3   4
ATOM      4  C   UNL A   1      33.020  36.380  29.615  1.00  0.00     0.261 C 
BRANCH   4   5
ATOM      5  O   UNL A   1      32.221  36.352  30.806  1.00  0.00    -0.460 OA
BRANCH   5   6
ATOM      6  C   UNL A   1      32.638  36.123  32.077  1.00  0.00     0.338 C 
ATOM      7  O   UNL A   1      32.057  36.702  32.994  1.00  0.00    -0.246 OA
BRANCH   6   8
ATOM      8  C   UNL A   1      33.782  35.220  32.424  1.00  0.00     0.060 A 
ATOM      9  C   UNL A   1      33.659  33.920  32.919  1.00  0.00     0.016 A 
ATOM     10  C   UNL A   1      35.079  35.697  32.160  1.00  0.00     0.016 A 
ATOM     11  C   UNL A   1      34.776  33.152  33.241  1.00  0.00     0.010 A 
ATOM     12  C   UNL A   1      36.206  34.912  32.431  1.00  0.00     0.010 A 
ATOM     13  C   UNL A   1      36.057  33.647  33.007  1.00  0.00    -0.014 A 
BRANCH  13  14
ATOM     14  C   UNL A   1      37.220  32.851  33.445  1.00  0.00     0.031 A 
ATOM     15  C   UNL A   1      37.907  33.216  34.728  1.00  0.00     0.074 A 
ATOM     16  C   UNL A   1      37.621  31.791  32.719  1.00  0.00     0.049 A 
ATOM     17  N   UNL A   1      38.960  32.678  35.279  1.00  0.00    -0.248 NA
ATOM     18  C   UNL A   1      37.331  34.336  35.493  1.00  0.00     0.031 C 
ATOM     19  C   UNL A   1      37.011  31.345  31.465  1.00  0.00     0.029 A 
ATOM     20  N   UNL A   1      38.642  30.901  32.928  1.00  0.00    -0.354 N 
ATOM     21  C   UNL A   1      39.213  33.431  36.419  1.00  0.00     0.074 A 
ATOM     22  C   UNL A   1      38.186  34.445  36.499  1.00  0.00     0.031 C 
ATOM     23  C   UNL A   1      37.677  30.271  31.009  1.00  0.00     0.029 A 
ATOM     24  C   UNL A   1      38.774  29.974  31.921  1.00  0.00     0.049 A 
ATOM     25  H   UNL A   1      39.223  30.924  33.721  1.00  0.00     0.167 HD
ATOM     26  C   UNL A   1      40.219  33.291  37.310  1.00  0.00     0.034 A 
ATOM     27  C   UNL A   1      39.704  29.018  31.742  1.00  0.00     0.034 A 
ATOM     28  C   UNL A   1      41.218  32.263  37.232  1.00  0.00     0.049 A 
ATOM     29  C   UNL A   1      40.810  28.888  32.749  1.00  0.00     0.074 A 
ATOM     30  C   UNL A   1      42.263  32.010  38.101  1.00  0.00     0.029 A 
ATOM     31  N   UNL A   1      41.304  31.327  36.213  1.00  0.00    -0.354 N 
ATOM     32  N   UNL A   1      40.989  29.553  33.864  1.00  0.00    -0.248 NA
ATOM     33  C   UNL A   1      41.843  27.881  32.470  1.00  0.00     0.031 C 
ATOM     34  C   UNL A   1      42.998  30.936  37.591  1.00  0.00     0.029 A 
ATOM     35  C   UNL A   1      42.399  30.509  36.415  1.00  0.00     0.049 A 
ATOM     36  H   UNL A   1      40.678  31.256  35.456  1.00  0.00     0.167 HD
ATOM     37  C   UNL A   1      42.161  29.055  34.415  1.00  0.00     0.074 A 
ATOM     38  C   UNL A   1      42.625  28.002  33.534  1.00  0.00     0.031 C 
ATOM     39  C   UNL A   1      42.815  29.450  35.534  1.00  0.00     0.034 A 
BRANCH  26  40
ATOM     40  C   UNL A   1      40.296  34.287  38.432  1.00  0.00     0.023 A 
ATOM     41  C   UNL A   1      41.100  35.435  38.300  1.00  0.00     0.012 A 
ATOM     42  C   UNL A   1      39.549  34.092  39.609  1.00  0.00     0.148 A 
ATOM     43  C   UNL A   1      41.179  36.365  39.337  1.00  0.00     0.002 A 
ATOM     44  C   UNL A   1      39.608  35.037  40.625  1.00  0.00     0.091 A 
ATOM     45  F   UNL A   1      38.811  32.977  39.719  1.00  0.00    -0.205 F 
ATOM     46  C   UNL A   1      40.428  36.171  40.494  1.00  0.00     0.022 A 
BRANCH  44  47
ATOM     47  S   UNL A   1      38.647  34.900  42.135  1.00  0.00     0.127 S 
ATOM     48  O   UNL A   1      37.286  34.796  41.609  1.00  0.00    -0.237 OA
ATOM     49  O   UNL A   1      39.171  33.666  42.720  1.00  0.00    -0.237 OA
ATOM     50  O   UNL A   1      38.926  36.106  42.902  1.00  0.00    -0.744 OA
ENDBRANCH  44  47
ENDBRANCH  26  40
BRANCH  27  51
ATOM     51  C   UNL A   1      39.680  28.153  30.534  1.00  0.00     0.023 A 
ATOM     52  C   UNL A   1      38.915  26.974  30.525  1.00  0.00     0.012 A 
ATOM     53  C   UNL A   1      40.466  28.476  29.415  1.00  0.00     0.148 A 
ATOM     54  C   UNL A   1      38.948  26.120  29.421  1.00  0.00     0.002 A 
ATOM     55  C   UNL A   1      40.491  27.625  28.318  1.00  0.00     0.091 A 
ATOM     56  F   UNL A   1      41.201  29.597  29.456  1.00  0.00    -0.205 F 
ATOM     57  C   UNL A   1      39.731  26.447  28.314  1.00  0.00     0.022 A 
BRANCH  55  58
ATOM     58  S   UNL A   1      41.491  27.999  26.875  1.00  0.00     0.127 S 
ATOM     59  O   UNL A   1      42.841  27.967  27.430  1.00  0.00    -0.237 OA
ATOM     60  O   UNL A   1      41.167  26.896  25.973  1.00  0.00    -0.237 OA
ATOM     61  O   UNL A   1      41.020  29.303  26.422  1.00  0.00    -0.744 OA
ENDBRANCH  55  58
ENDBRANCH  27  51
BRANCH  39  62
ATOM     62  C   UNL A   1      44.104  28.753  35.861  1.00  0.00     0.023 A 
ATOM     63  C   UNL A   1      45.320  29.306  35.417  1.00  0.00     0.012 A 
ATOM     64  C   UNL A   1      44.114  27.616  36.689  1.00  0.00     0.148 A 
ATOM     65  C   UNL A   1      46.533  28.728  35.783  1.00  0.00     0.002 A 
ATOM     66  C   UNL A   1      45.328  27.071  37.087  1.00  0.00     0.091 A 
ATOM     67  F   UNL A   1      42.940  27.098  37.079  1.00  0.00    -0.205 F 
ATOM     68  C   UNL A   1      46.537  27.620  36.629  1.00  0.00     0.022 A 
BRANCH  66  69
ATOM     69  S   UNL A   1      45.431  25.710  38.253  1.00  0.00     0.127 S 
ATOM     70  O   UNL A   1      46.875  25.536  38.383  1.00  0.00    -0.237 OA
ATOM     71  O   UNL A   1      44.772  26.265  39.436  1.00  0.00    -0.237 OA
ATOM     72  O   UNL A   1      44.721  24.597  37.634  1.00  0.00    -0.744 OA
ENDBRANCH  66  69
ENDBRANCH  39  62
ENDBRANCH  13  14
ENDBRANCH   6   8
ENDBRANCH   5   6
ENDBRANCH   4   5
ENDBRANCH   3   4
ENDBRANCH   2   3
ENDBRANCH   1   2
BRANCH   1  73
ATOM     73  C   UNL A   1      33.820  32.251  28.685  1.00  0.00     0.188 C 
BRANCH  73  74
ATOM     74  O   UNL A   1      34.104  31.683  27.407  1.00  0.00    -0.376 OA
BRANCH  74  75
ATOM     75  C   UNL A   1      33.934  30.278  27.263  1.00  0.00     0.202 C 
BRANCH  75  76
ATOM     76  C   UNL A   1      32.732  29.784  26.444  1.00  0.00     0.261 C 
BRANCH  76  77
ATOM     77  O   UNL A   1      33.066  29.085  25.239  1.00  0.00    -0.463 OA
BRANCH  77  78
ATOM     78  C   UNL A   1      32.656  27.782  25.191  1.00  0.00     0.315 C 
ATOM     79  O   UNL A   1      32.569  27.041  26.165  1.00  0.00    -0.251 OA
BRANCH  78  80
ATOM     80  C   UNL A   1      32.269  27.394  23.771  1.00  0.00     0.148 C 
ATOM     81  C   UNL A   1      32.377  28.621  22.829  1.00  0.00     0.043 C 
ATOM     82  C   UNL A   1      30.825  27.071  23.737  1.00  0.00     0.033 A 
ATOM     83  C   UNL A   1      30.942  29.022  22.439  1.00  0.00     0.124 C 
ATOM     84  N   UNL A   1      30.105  28.002  23.042  1.00  0.00    -0.341 N 
ATOM     85  C   UNL A   1      29.960  26.151  24.259  1.00  0.00     0.025 A 
ATOM     86  C   UNL A   1      28.773  27.872  23.299  1.00  0.00     0.090 A 
ATOM     87  C   UNL A   1      28.662  26.662  23.987  1.00  0.00     0.032 A 
BRANCH  86  88
ATOM     88  C   UNL A   1      27.686  28.819  23.067  1.00  0.00     0.209 C 
ATOM     89  O   UNL A   1      26.525  28.535  23.366  1.00  0.00    -0.287 OA
BRANCH  88  90
ATOM     90  C   UNL A   1      27.951  30.201  22.587  1.00  0.00     0.024 A 
ATOM     91  C   UNL A   1      28.174  31.207  23.538  1.00  0.00     0.012 A 
ATOM     92  C   UNL A   1      27.940  30.530  21.231  1.00  0.00     0.012 A 
ATOM     93  C   UNL A   1      28.417  32.521  23.131  1.00  0.00     0.001 A 
ATOM     94  C   UNL A   1      28.184  31.845  20.825  1.00  0.00     0.001 A 
ATOM     95  C   UNL A   1      28.429  32.837  21.773  1.00  0.00     0.000 A 
ENDBRANCH  88  90
ENDBRANCH  86  88
ENDBRANCH  78  80
ENDBRANCH  77  78
ENDBRANCH  76  77
ENDBRANCH  75  76
ENDBRANCH  74  75
ENDBRANCH  73  74
ENDBRANCH   1  73
TORSDOF 22
ENDMDL
MODEL 3
REMARK VINA RESULT:     -10.2      1.717      7.673
REMARK SMILES O=C(OCCOCCOCCOC(=O)[C@@H]1CCn2c(C(=O)c3ccccc3)ccc21)c1ccc(-c2c3nc(c(-c4cccc(S(=O)(=O)[O-])c4F)c4ccc([nH]4)c(-c4cccc(S(=O)(=O)[O-])c4F)c4nc(c(-c5cccc(S(=O)(=O)[O-])c5F)c5ccc2[nH]5)C=C4)C=C3)cc1
REMARK SMILES IDX 7 1 6 2 5 3 4 4 3 5 2 6 1 7 31 8 32 9 93 10 33 11 92 12
REMARK SMILES IDX 34 13 35 14 36 15 86 16 37 17 91 18 85 19 87 20 38 21 90 22
REMARK SMILES IDX 84 23 83 24 39 26 71 27 51 28 70 29 52 30 55 31 69 32 88 33
REMARK SMILES IDX 53 34 54 35 68 37 89 38 56 39 40 40 41 41 49 42 42 43 44 44
REMARK SMILES IDX 50 45 43 46 45 47 46 48 47 49 48 50 72 51 73 52 81 53 74 54
REMARK SMILES IDX 76 55 82 56 75 57 77 58 78 59 79 60 80 61 57 62 58 63 66 64
REMARK SMILES IDX 59 65 61 66 67 67 60 68 62 69 63 70 64 71 65 72 8 73 9 74
REMARK SMILES IDX 10 75 11 76 12 77 13 78 14 79 15 80 16 81 30 82 17 83 18 84
REMARK SMILES IDX 29 85 19 86 28 87 20 88 21 89 22 90 23 91 27 92 24 93 26 94
REMARK SMILES IDX 25 95
REMARK H PARENT 87 25 55 36
REMARK Flexibility Score: inf
ROOT
ATOM      1  C   UNL A   1      32.900  29.485  27.326  1.00  0.00     0.188 C 
ENDROOT
BRANCH   1   2
ATOM      2  O   UNL A   1      33.157  30.873  27.081  1.00  0.00    -0.376 OA
BRANCH   2   3
ATOM      3  C   UNL A   1      32.008  31.712  27.245  1.00  0.00     0.202 C 
BRANCH   3   4
ATOM      4  C   UNL A   1      32.165  33.174  26.789  1.00  0.00     0.261 C 
BRANCH   4   5
ATOM      5  O   UNL A   1      32.272  34.102  27.878  1.00  0.00    -0.460 OA
BRANCH   5   6
ATOM      6  C   UNL A   1      33.407  34.590  28.441  1.00  0.00     0.338 C 
ATOM      7  O   UNL A   1      33.572  35.809  28.456  1.00  0.00    -0.246 OA
BRANCH   6   8
ATOM      8  C   UNL A   1      34.482  33.724  29.025  1.00  0.00     0.060 A 
ATOM      9  C   UNL A   1      34.263  32.601  29.826  1.00  0.00     0.016 A 
ATOM     10  C   UNL A   1      35.810  34.027  28.675  1.00  0.00     0.016 A 
ATOM     11  C   UNL A   1      35.320  31.862  30.350  1.00  0.00     0.010 A 
ATOM     12  C   UNL A   1      36.877  33.258  29.155  1.00  0.00     0.010 A 
ATOM     13  C   UNL A   1      36.634  32.191  30.026  1.00  0.00    -0.014 A 
BRANCH  13  14
ATOM     14  C   UNL A   1      37.736  31.450  30.671  1.00  0.00     0.031 A 
ATOM     15  C   UNL A   1      38.026  31.700  32.122  1.00  0.00     0.074 A 
ATOM     16  C   UNL A   1      38.432  30.536  29.970  1.00  0.00     0.049 A 
ATOM     17  N   UNL A   1      38.962  31.188  32.873  1.00  0.00    -0.248 NA
ATOM     18  C   UNL A   1      37.145  32.653  32.819  1.00  0.00     0.031 C 
ATOM     19  C   UNL A   1      38.217  30.209  28.559  1.00  0.00     0.029 A 
ATOM     20  N   UNL A   1      39.466  29.719  30.347  1.00  0.00    -0.354 N 
ATOM     21  C   UNL A   1      38.826  31.802  34.111  1.00  0.00     0.074 A 
ATOM     22  C   UNL A   1      37.698  32.701  34.023  1.00  0.00     0.031 C 
ATOM     23  C   UNL A   1      39.101  29.268  28.186  1.00  0.00     0.029 A 
ATOM     24  C   UNL A   1      39.959  28.951  29.320  1.00  0.00     0.049 A 
ATOM     25  H   UNL A   1      39.820  29.687  31.265  1.00  0.00     0.167 HD
ATOM     26  C   UNL A   1      39.583  31.633  35.218  1.00  0.00     0.034 A 
ATOM     27  C   UNL A   1      41.012  28.113  29.295  1.00  0.00     0.034 A 
ATOM     28  C   UNL A   1      40.685  30.718  35.301  1.00  0.00     0.049 A 
ATOM     29  C   UNL A   1      41.834  27.948  30.540  1.00  0.00     0.074 A 
ATOM     30  C   UNL A   1      41.498  30.445  36.385  1.00  0.00     0.029 A 
ATOM     31  N   UNL A   1      41.138  29.938  34.248  1.00  0.00    -0.354 N 
ATOM     32  N   UNL A   1      41.644  28.472  31.726  1.00  0.00    -0.248 NA
ATOM     33  C   UNL A   1      43.018  27.082  30.441  1.00  0.00     0.031 C 
ATOM     34  C   UNL A   1      42.463  29.517  35.978  1.00  0.00     0.029 A 
ATOM     35  C   UNL A   1      42.236  29.200  34.647  1.00  0.00     0.049 A 
ATOM     36  H   UNL A   1      40.737  29.913  33.349  1.00  0.00     0.167 HD
ATOM     37  C   UNL A   1      42.689  28.010  32.514  1.00  0.00     0.074 A 
ATOM     38  C   UNL A   1      43.484  27.129  31.682  1.00  0.00     0.031 C 
ATOM     39  C   UNL A   1      42.986  28.308  33.801  1.00  0.00     0.034 A 
BRANCH  26  40
ATOM     40  C   UNL A   1      39.252  32.475  36.419  1.00  0.00     0.023 A 
ATOM     41  C   UNL A   1      39.853  33.738  36.581  1.00  0.00     0.012 A 
ATOM     42  C   UNL A   1      38.327  32.016  37.376  1.00  0.00     0.148 A 
ATOM     43  C   UNL A   1      39.553  34.524  37.693  1.00  0.00     0.002 A 
ATOM     44  C   UNL A   1      38.010  32.818  38.464  1.00  0.00     0.091 A 
ATOM     45  F   UNL A   1      37.789  30.798  37.211  1.00  0.00    -0.205 F 
ATOM     46  C   UNL A   1      38.628  34.069  38.629  1.00  0.00     0.022 A 
BRANCH  44  47
ATOM     47  S   UNL A   1      36.800  32.341  39.702  1.00  0.00     0.127 S 
ATOM     48  O   UNL A   1      35.573  32.287  38.908  1.00  0.00    -0.237 OA
ATOM     49  O   UNL A   1      37.304  31.038  40.135  1.00  0.00    -0.237 OA
ATOM     50  O   UNL A   1      36.835  33.380  40.722  1.00  0.00    -0.744 OA
ENDBRANCH  44  47
ENDBRANCH  26  40
BRANCH  27  51
ATOM     51  C   UNL A   1      41.399  27.418  28.040  1.00  0.00     0.023 A 
ATOM     52  C   UNL A   1      41.805  28.161  26.917  1.00  0.00     0.012 A 
ATOM     53  C   UNL A   1      41.306  26.019  27.947  1.00  0.00     0.148 A 
ATOM     54  C   UNL A   1      42.096  27.517  25.713  1.00  0.00     0.002 A 
ATOM     55  C   UNL A   1      41.602  25.384  26.748  1.00  0.00     0.091 A 
ATOM     56  F   UNL A   1      40.898  25.336  29.026  1.00  0.00    -0.205 F 
ATOM     57  C   UNL A   1      42.002  26.128  25.629  1.00  0.00     0.022 A 
BRANCH  55  58
ATOM     58  S   UNL A   1      41.485  23.600  26.589  1.00  0.00     0.127 S 
ATOM     59  O   UNL A   1      42.256  23.357  25.373  1.00  0.00    -0.237 OA
ATOM     60  O   UNL A   1      42.114  23.133  27.823  1.00  0.00    -0.237 OA
ATOM     61  O   UNL A   1      40.056  23.326  26.502  1.00  0.00    -0.744 OA
ENDBRANCH  55  58
ENDBRANCH  27  51
BRANCH  39  62
ATOM     62  C   UNL A   1      44.224  27.691  34.384  1.00  0.00     0.023 A 
ATOM     63  C   UNL A   1      45.437  28.405  34.343  1.00  0.00     0.012 A 
ATOM     64  C   UNL A   1      44.162  26.457  35.058  1.00  0.00     0.148 A 
ATOM     65  C   UNL A   1      46.577  27.892  34.956  1.00  0.00     0.002 A 
ATOM     66  C   UNL A   1      45.291  25.974  35.705  1.00  0.00     0.091 A 
ATOM     67  F   UNL A   1      42.999  25.789  35.061  1.00  0.00    -0.205 F 
ATOM     68  C   UNL A   1      46.501  26.685  35.648  1.00  0.00     0.022 A 
BRANCH  66  69
ATOM     69  S   UNL A   1      45.259  24.481  36.702  1.00  0.00     0.127 S 
ATOM     70  O   UNL A   1      46.640  24.406  37.172  1.00  0.00    -0.237 OA
ATOM     71  O   UNL A   1      44.278  24.820  37.734  1.00  0.00    -0.237 OA
ATOM     72  O   UNL A   1      44.845  23.409  35.806  1.00  0.00    -0.744 OA
ENDBRANCH  66  69
ENDBRANCH  39  62
ENDBRANCH  13  14
ENDBRANCH   6   8
ENDBRANCH   5   6
ENDBRANCH   4   5
ENDBRANCH   3   4
ENDBRANCH   2   3
ENDBRANCH   1   2
BRANCH   1  73
ATOM     73  C   UNL A   1      34.052  28.592  26.864  1.00  0.00     0.188 C 
BRANCH  73  74
ATOM     74  O   UNL A   1      33.751  27.635  25.849  1.00  0.00    -0.376 OA
BRANCH  74  75
ATOM     75  C   UNL A   1      33.989  28.016  24.499  1.00  0.00     0.202 C 
BRANCH  75  76
ATOM     76  C   UNL A   1      33.009  29.006  23.853  1.00  0.00     0.261 C 
BRANCH  76  77
ATOM     77  O   UNL A   1      32.329  28.514  22.692  1.00  0.00    -0.463 OA
BRANCH  77  78
ATOM     78  C   UNL A   1      30.968  28.626  22.725  1.00  0.00     0.315 C 
ATOM     79  O   UNL A   1      30.353  29.687  22.681  1.00  0.00    -0.251 OA
BRANCH  78  80
ATOM     80  C   UNL A   1      30.318  27.250  22.767  1.00  0.00     0.148 C 
ATOM     81  C   UNL A   1      30.109  26.797  24.236  1.00  0.00     0.043 C 
ATOM     82  C   UNL A   1      31.274  26.250  22.241  1.00  0.00     0.033 A 
ATOM     83  C   UNL A   1      31.098  25.645  24.501  1.00  0.00     0.124 C 
ATOM     84  N   UNL A   1      31.728  25.407  23.216  1.00  0.00    -0.341 N 
ATOM     85  C   UNL A   1      31.912  25.948  21.071  1.00  0.00     0.025 A 
ATOM     86  C   UNL A   1      32.831  24.727  22.792  1.00  0.00     0.090 A 
ATOM     87  C   UNL A   1      32.902  24.990  21.422  1.00  0.00     0.032 A 
BRANCH  86  88
ATOM     88  C   UNL A   1      33.830  24.001  23.569  1.00  0.00     0.209 C 
ATOM     89  O   UNL A   1      34.804  24.583  24.048  1.00  0.00    -0.287 OA
BRANCH  88  90
ATOM     90  C   UNL A   1      33.646  22.569  23.924  1.00  0.00     0.024 A 
ATOM     91  C   UNL A   1      34.526  21.991  24.850  1.00  0.00     0.012 A 
ATOM     92  C   UNL A   1      32.658  21.780  23.333  1.00  0.00     0.012 A 
ATOM     93  C   UNL A   1      34.395  20.647  25.205  1.00  0.00     0.001 A 
ATOM     94  C   UNL A   1      32.528  20.435  23.689  1.00  0.00     0.001 A 
ATOM     95  C   UNL A   1      33.389  19.871  24.628  1.00  0.00     0.000 A 
ENDBRANCH  88  90
ENDBRANCH  86  88
ENDBRANCH  78  80
ENDBRANCH  77  78
ENDBRANCH  76  77
ENDBRANCH  75  76
ENDBRANCH  74  75
ENDBRANCH  73  74
ENDBRANCH   1  73
TORSDOF 22
ENDMDL
