MODEL 1
REMARK VINA RESULT:      -9.8      0.000      0.000
REMARK SMILES [NH3+]C[C@@H](Cc1ccc(Br)cc1)C(=O)OCCOCCOCCOC(=O)c1ccc(-c2c3nc(c(-c4cccc(S(=O)(=O)[O-])c4F)c4ccc([nH]4)c(-c4cccc(S(=O)(=O)[O-])c4F)c4nc(c(-c5cccc(S(=O)(=O)[O-])c5F)c5ccc2[nH]5)C=C4)C=C3)cc1
REMARK SMILES IDX 19 1 18 2 17 3 16 4 15 5 14 6 12 7 13 8 3 9 2 10 1 11 4 15
REMARK SMILES IDX 5 16 6 17 11 18 7 19 10 20 8 21 9 22 20 23 21 24 22 25 23 26
REMARK SMILES IDX 24 27 25 28 26 29 27 30 88 31 28 32 87 33 29 34 30 35 31 36
REMARK SMILES IDX 81 37 32 38 86 39 80 40 82 41 33 42 85 43 79 44 78 45 34 47
REMARK SMILES IDX 66 48 46 49 65 50 47 51 50 52 64 53 83 54 48 55 49 56 63 58
REMARK SMILES IDX 84 59 51 60 35 61 36 62 44 63 37 64 39 65 45 66 38 67 40 68
REMARK SMILES IDX 41 69 42 70 43 71 67 72 68 73 76 74 69 75 71 76 77 77 70 78
REMARK SMILES IDX 72 79 73 80 74 81 75 82 52 83 53 84 61 85 54 86 56 87 62 88
REMARK SMILES IDX 55 89 57 90 58 91 59 92 60 93
REMARK H PARENT 1 12 1 13 1 14 82 46 50 57
REMARK Flexibility Score: inf
ROOT
ATOM      1  C   UNL A   1      33.335  29.596  26.567  1.00  0.00     0.188 C 
ENDROOT
BRANCH   1   2
ATOM      2  C   UNL A   1      32.250  28.725  27.212  1.00  0.00     0.188 C 
BRANCH   2   3
ATOM      3  O   UNL A   1      31.302  28.098  26.358  1.00  0.00    -0.376 OA
BRANCH   3   4
ATOM      4  C   UNL A   1      31.469  26.725  26.031  1.00  0.00     0.202 C 
BRANCH   4   5
ATOM      5  C   UNL A   1      30.236  25.922  25.596  1.00  0.00     0.261 C 
BRANCH   5   6
ATOM      6  O   UNL A   1      30.339  25.197  24.344  1.00  0.00    -0.463 OA
BRANCH   6   7
ATOM      7  C   UNL A   1      31.042  25.807  23.351  1.00  0.00     0.315 C 
ATOM      8  O   UNL A   1      30.813  26.947  22.958  1.00  0.00    -0.252 OA
BRANCH   7   9
ATOM      9  C   UNL A   1      32.070  24.929  22.634  1.00  0.00     0.158 C 
BRANCH   9  10
ATOM     10  C   UNL A   1      32.796  25.514  21.411  1.00  0.00     0.274 C 
BRANCH  10  11
ATOM     11  N   UNL A   1      31.909  25.817  20.279  1.00  0.00    -0.357 N 
ATOM     12  H   UNL A   1      31.329  26.624  20.508  1.00  0.00     0.344 HD
ATOM     13  H   UNL A   1      31.313  25.013  20.089  1.00  0.00     0.344 HD
ATOM     14  H   UNL A   1      32.471  26.027  19.453  1.00  0.00     0.344 HD
ENDBRANCH  10  11
ENDBRANCH   9  10
BRANCH   9  15
ATOM     15  C   UNL A   1      33.009  24.322  23.699  1.00  0.00     0.056 C 
BRANCH  15  16
ATOM     16  C   UNL A   1      32.774  22.851  23.962  1.00  0.00    -0.047 A 
ATOM     17  C   UNL A   1      33.040  22.299  25.223  1.00  0.00     0.005 A 
ATOM     18  C   UNL A   1      32.365  22.000  22.927  1.00  0.00     0.005 A 
ATOM     19  C   UNL A   1      32.993  20.920  25.423  1.00  0.00     0.016 A 
ATOM     20  C   UNL A   1      32.289  20.621  23.131  1.00  0.00     0.016 A 
ATOM     21  C   UNL A   1      32.626  20.086  24.372  1.00  0.00     0.017 A 
ATOM     22  Br  UNL A   1      32.593  18.214  24.629  1.00  0.00    -0.051 Br
ENDBRANCH  15  16
ENDBRANCH   9  15
ENDBRANCH   7   9
ENDBRANCH   6   7
ENDBRANCH   5   6
ENDBRANCH   4   5
ENDBRANCH   3   4
ENDBRANCH   2   3
ENDBRANCH   1   2
BRANCH   1  23
ATOM     23  O   UNL A   1      33.425  30.912  27.076  1.00  0.00    -0.376 OA
BRANCH  23  24
ATOM     24  C   UNL A   1      32.225  31.659  27.147  1.00  0.00     0.202 C 
BRANCH  24  25
ATOM     25  C   UNL A   1      32.386  33.181  27.035  1.00  0.00     0.261 C 
BRANCH  25  26
ATOM     26  O   UNL A   1      32.461  33.885  28.286  1.00  0.00    -0.460 OA
BRANCH  26  27
ATOM     27  C   UNL A   1      33.574  34.620  28.522  1.00  0.00     0.338 C 
ATOM     28  O   UNL A   1      33.646  35.836  28.578  1.00  0.00    -0.246 OA
BRANCH  27  29
ATOM     29  C   UNL A   1      34.633  33.683  28.969  1.00  0.00     0.060 A 
ATOM     30  C   UNL A   1      34.361  32.811  30.035  1.00  0.00     0.016 A 
ATOM     31  C   UNL A   1      35.857  33.619  28.302  1.00  0.00     0.016 A 
ATOM     32  C   UNL A   1      35.326  31.888  30.448  1.00  0.00     0.010 A 
ATOM     33  C   UNL A   1      36.829  32.712  28.732  1.00  0.00     0.010 A 
ATOM     34  C   UNL A   1      36.580  31.863  29.826  1.00  0.00    -0.014 A 
BRANCH  34  35
ATOM     35  C   UNL A   1      37.706  31.122  30.444  1.00  0.00     0.031 A 
ATOM     36  C   UNL A   1      38.101  31.489  31.850  1.00  0.00     0.074 A 
ATOM     37  C   UNL A   1      38.388  30.172  29.780  1.00  0.00     0.049 A 
ATOM     38  N   UNL A   1      39.089  31.044  32.579  1.00  0.00    -0.248 NA
ATOM     39  C   UNL A   1      37.265  32.503  32.519  1.00  0.00     0.031 C 
ATOM     40  C   UNL A   1      38.106  29.717  28.420  1.00  0.00     0.029 A 
ATOM     41  N   UNL A   1      39.487  29.439  30.159  1.00  0.00    -0.354 N 
ATOM     42  C   UNL A   1      39.016  31.745  33.777  1.00  0.00     0.074 A 
ATOM     43  C   UNL A   1      37.892  32.649  33.676  1.00  0.00     0.031 C 
ATOM     44  C   UNL A   1      39.031  28.807  28.066  1.00  0.00     0.029 A 
ATOM     45  C   UNL A   1      39.984  28.635  29.161  1.00  0.00     0.049 A 
ATOM     46  H   UNL A   1      39.881  29.486  31.061  1.00  0.00     0.167 HD
ATOM     47  C   UNL A   1      39.805  31.639  34.872  1.00  0.00     0.034 A 
ATOM     48  C   UNL A   1      41.098  27.872  29.128  1.00  0.00     0.034 A 
ATOM     49  C   UNL A   1      40.916  30.735  34.981  1.00  0.00     0.049 A 
ATOM     50  C   UNL A   1      41.981  27.797  30.350  1.00  0.00     0.074 A 
ATOM     51  C   UNL A   1      41.748  30.525  36.066  1.00  0.00     0.029 A 
ATOM     52  N   UNL A   1      41.362  29.904  33.966  1.00  0.00    -0.354 N 
ATOM     53  N   UNL A   1      41.831  28.372  31.519  1.00  0.00    -0.248 NA
ATOM     54  C   UNL A   1      43.174  26.940  30.258  1.00  0.00     0.031 C 
ATOM     55  C   UNL A   1      42.717  29.588  35.696  1.00  0.00     0.029 A 
ATOM     56  C   UNL A   1      42.466  29.188  34.393  1.00  0.00     0.049 A 
ATOM     57  H   UNL A   1      40.954  29.834  33.073  1.00  0.00     0.167 HD
ATOM     58  C   UNL A   1      42.883  27.917  32.309  1.00  0.00     0.074 A 
ATOM     59  C   UNL A   1      43.655  27.005  31.493  1.00  0.00     0.031 C 
ATOM     60  C   UNL A   1      43.191  28.237  33.592  1.00  0.00     0.034 A 
BRANCH  47  61
ATOM     61  C   UNL A   1      39.480  32.519  36.048  1.00  0.00     0.023 A 
ATOM     62  C   UNL A   1      40.058  33.801  36.141  1.00  0.00     0.012 A 
ATOM     63  C   UNL A   1      38.573  32.095  37.037  1.00  0.00     0.148 A 
ATOM     64  C   UNL A   1      39.762  34.636  37.217  1.00  0.00     0.002 A 
ATOM     65  C   UNL A   1      38.247  32.949  38.082  1.00  0.00     0.091 A 
ATOM     66  F   UNL A   1      38.057  30.860  36.944  1.00  0.00    -0.205 F 
ATOM     67  C   UNL A   1      38.849  34.214  38.181  1.00  0.00     0.022 A 
BRANCH  65  68
ATOM     68  S   UNL A   1      37.024  32.530  39.329  1.00  0.00     0.127 S 
ATOM     69  O   UNL A   1      35.782  32.620  38.564  1.00  0.00    -0.237 OA
ATOM     70  O   UNL A   1      37.417  31.169  39.697  1.00  0.00    -0.237 OA
ATOM     71  O   UNL A   1      37.178  33.514  40.390  1.00  0.00    -0.744 OA
ENDBRANCH  65  68
ENDBRANCH  47  61
BRANCH  48  72
ATOM     72  C   UNL A   1      41.437  27.092  27.903  1.00  0.00     0.023 A 
ATOM     73  C   UNL A   1      42.015  27.750  26.799  1.00  0.00     0.012 A 
ATOM     74  C   UNL A   1      41.184  25.710  27.821  1.00  0.00     0.148 A 
ATOM     75  C   UNL A   1      42.303  27.053  25.625  1.00  0.00     0.002 A 
ATOM     76  C   UNL A   1      41.523  25.010  26.668  1.00  0.00     0.091 A 
ATOM     77  F   UNL A   1      40.614  25.106  28.874  1.00  0.00    -0.205 F 
ATOM     78  C   UNL A   1      42.066  25.683  25.563  1.00  0.00     0.022 A 
BRANCH  76  79
ATOM     79  S   UNL A   1      41.361  23.227  26.538  1.00  0.00     0.127 S 
ATOM     80  O   UNL A   1      41.905  22.782  27.818  1.00  0.00    -0.237 OA
ATOM     81  O   UNL A   1      39.913  23.066  26.395  1.00  0.00    -0.237 OA
ATOM     82  O   UNL A   1      42.127  22.845  25.360  1.00  0.00    -0.744 OA
ENDBRANCH  76  79
ENDBRANCH  48  72
BRANCH  60  83
ATOM     83  C   UNL A   1      44.383  27.562  34.223  1.00  0.00     0.023 A 
ATOM     84  C   UNL A   1      45.652  28.172  34.162  1.00  0.00     0.012 A 
ATOM     85  C   UNL A   1      44.226  26.367  34.954  1.00  0.00     0.148 A 
ATOM     86  C   UNL A   1      46.751  27.584  34.790  1.00  0.00     0.002 A 
ATOM     87  C   UNL A   1      45.314  25.815  35.619  1.00  0.00     0.091 A 
ATOM     88  F   UNL A   1      43.014  25.794  34.989  1.00  0.00    -0.205 F 
ATOM     89  C   UNL A   1      46.580  26.416  35.528  1.00  0.00     0.022 A 
BRANCH  87  90
ATOM     90  S   UNL A   1      45.167  24.367  36.673  1.00  0.00     0.127 S 
ATOM     91  O   UNL A   1      46.544  24.191  37.133  1.00  0.00    -0.237 OA
ATOM     92  O   UNL A   1      44.234  24.825  37.703  1.00  0.00    -0.237 OA
ATOM     93  O   UNL A   1      44.652  23.302  35.822  1.00  0.00    -0.744 OA
ENDBRANCH  87  90
ENDBRANCH  60  83
ENDBRANCH  34  35
ENDBRANCH  27  29
ENDBRANCH  26  27
ENDBRANCH  25  26
ENDBRANCH  24  25
ENDBRANCH  23  24
ENDBRANCH   1  23
TORSDOF 24
ENDMDL
MODEL 2
REMARK VINA RESULT:      -9.4      2.518      8.232
REMARK SMILES [NH3+]C[C@@H](Cc1ccc(Br)cc1)C(=O)OCCOCCOCCOC(=O)c1ccc(-c2c3nc(c(-c4cccc(S(=O)(=O)[O-])c4F)c4ccc([nH]4)c(-c4cccc(S(=O)(=O)[O-])c4F)c4nc(c(-c5cccc(S(=O)(=O)[O-])c5F)c5ccc2[nH]5)C=C4)C=C3)cc1
REMARK SMILES IDX 19 1 18 2 17 3 16 4 15 5 14 6 12 7 13 8 3 9 2 10 1 11 4 15
REMARK SMILES IDX 5 16 6 17 11 18 7 19 10 20 8 21 9 22 20 23 21 24 22 25 23 26
REMARK SMILES IDX 24 27 25 28 26 29 27 30 88 31 28 32 87 33 29 34 30 35 31 36
REMARK SMILES IDX 81 37 32 38 86 39 80 40 82 41 33 42 85 43 79 44 78 45 34 47
REMARK SMILES IDX 66 48 46 49 65 50 47 51 50 52 64 53 83 54 48 55 49 56 63 58
REMARK SMILES IDX 84 59 51 60 35 61 36 62 44 63 37 64 39 65 45 66 38 67 40 68
REMARK SMILES IDX 41 69 42 70 43 71 67 72 68 73 76 74 69 75 71 76 77 77 70 78
REMARK SMILES IDX 72 79 73 80 74 81 75 82 52 83 53 84 61 85 54 86 56 87 62 88
REMARK SMILES IDX 55 89 57 90 58 91 59 92 60 93
REMARK H PARENT 1 12 1 13 1 14 82 46 50 57
REMARK Flexibility Score: inf
ROOT
ATOM      1  C   UNL A   1      33.104  27.668  24.988  1.00  0.00     0.188 C 
ENDROOT
BRANCH   1   2
ATOM      2  C   UNL A   1      33.881  26.927  23.895  1.00  0.00     0.188 C 
BRANCH   2   3
ATOM      3  O   UNL A   1      34.027  25.518  24.017  1.00  0.00    -0.376 OA
BRANCH   3   4
ATOM      4  C   UNL A   1      34.083  24.725  22.839  1.00  0.00     0.202 C 
BRANCH   4   5
ATOM      5  C   UNL A   1      33.931  23.204  22.973  1.00  0.00     0.261 C 
BRANCH   5   6
ATOM      6  O   UNL A   1      34.315  22.620  24.244  1.00  0.00    -0.463 OA
BRANCH   6   7
ATOM      7  C   UNL A   1      33.484  21.666  24.745  1.00  0.00     0.315 C 
ATOM      8  O   UNL A   1      33.199  20.633  24.148  1.00  0.00    -0.252 OA
BRANCH   7   9
ATOM      9  C   UNL A   1      32.797  22.016  26.066  1.00  0.00     0.158 C 
BRANCH   9  10
ATOM     10  C   UNL A   1      33.414  23.127  26.932  1.00  0.00     0.274 C 
BRANCH  10  11
ATOM     11  N   UNL A   1      34.852  22.960  27.184  1.00  0.00    -0.357 N 
ATOM     12  H   UNL A   1      35.226  23.813  27.599  1.00  0.00     0.344 HD
ATOM     13  H   UNL A   1      35.331  22.771  26.305  1.00  0.00     0.344 HD
ATOM     14  H   UNL A   1      34.997  22.179  27.825  1.00  0.00     0.344 HD
ENDBRANCH  10  11
ENDBRANCH   9  10
BRANCH   9  15
ATOM     15  C   UNL A   1      31.287  22.190  25.791  1.00  0.00     0.056 C 
BRANCH  15  16
ATOM     16  C   UNL A   1      30.917  23.538  25.211  1.00  0.00    -0.047 A 
ATOM     17  C   UNL A   1      30.569  24.605  26.051  1.00  0.00     0.005 A 
ATOM     18  C   UNL A   1      30.838  23.718  23.824  1.00  0.00     0.005 A 
ATOM     19  C   UNL A   1      30.060  25.792  25.523  1.00  0.00     0.016 A 
ATOM     20  C   UNL A   1      30.357  24.915  23.292  1.00  0.00     0.016 A 
ATOM     21  C   UNL A   1      29.948  25.938  24.144  1.00  0.00     0.017 A 
ATOM     22  Br  UNL A   1      29.229  27.531  23.426  1.00  0.00    -0.051 Br
ENDBRANCH  15  16
ENDBRANCH   9  15
ENDBRANCH   7   9
ENDBRANCH   6   7
ENDBRANCH   5   6
ENDBRANCH   4   5
ENDBRANCH   3   4
ENDBRANCH   2   3
ENDBRANCH   1   2
BRANCH   1  23
ATOM     23  O   UNL A   1      32.770  29.007  24.681  1.00  0.00    -0.376 OA
BRANCH  23  24
ATOM     24  C   UNL A   1      31.638  29.554  25.331  1.00  0.00     0.202 C 
BRANCH  24  25
ATOM     25  C   UNL A   1      31.921  30.734  26.271  1.00  0.00     0.261 C 
BRANCH  25  26
ATOM     26  O   UNL A   1      33.084  30.589  27.105  1.00  0.00    -0.460 OA
BRANCH  26  27
ATOM     27  C   UNL A   1      33.719  31.721  27.490  1.00  0.00     0.338 C 
ATOM     28  O   UNL A   1      33.229  32.833  27.597  1.00  0.00    -0.246 OA
BRANCH  27  29
ATOM     29  C   UNL A   1      35.045  31.322  28.020  1.00  0.00     0.060 A 
ATOM     30  C   UNL A   1      35.285  29.967  28.298  1.00  0.00     0.016 A 
ATOM     31  C   UNL A   1      36.064  32.263  28.179  1.00  0.00     0.016 A 
ATOM     32  C   UNL A   1      36.540  29.557  28.758  1.00  0.00     0.010 A 
ATOM     33  C   UNL A   1      37.310  31.855  28.661  1.00  0.00     0.010 A 
ATOM     34  C   UNL A   1      37.545  30.506  28.981  1.00  0.00    -0.014 A 
BRANCH  34  35
ATOM     35  C   UNL A   1      38.758  30.141  29.752  1.00  0.00     0.031 A 
ATOM     36  C   UNL A   1      39.668  29.090  29.173  1.00  0.00     0.074 A 
ATOM     37  C   UNL A   1      39.041  30.693  30.945  1.00  0.00     0.049 A 
ATOM     38  N   UNL A   1      40.742  28.548  29.682  1.00  0.00    -0.248 NA
ATOM     39  C   UNL A   1      39.309  28.579  27.838  1.00  0.00     0.031 C 
ATOM     40  C   UNL A   1      38.250  31.724  31.614  1.00  0.00     0.029 A 
ATOM     41  N   UNL A   1      40.067  30.433  31.822  1.00  0.00    -0.354 N 
ATOM     42  C   UNL A   1      41.167  27.611  28.748  1.00  0.00     0.074 A 
ATOM     43  C   UNL A   1      40.234  27.652  27.645  1.00  0.00     0.031 C 
ATOM     44  C   UNL A   1      38.800  31.983  32.814  1.00  0.00     0.029 A 
ATOM     45  C   UNL A   1      39.964  31.120  33.009  1.00  0.00     0.049 A 
ATOM     46  H   UNL A   1      40.804  29.813  31.621  1.00  0.00     0.167 HD
ATOM     47  C   UNL A   1      42.247  26.796  28.795  1.00  0.00     0.034 A 
ATOM     48  C   UNL A   1      40.708  31.038  34.132  1.00  0.00     0.034 A 
ATOM     49  C   UNL A   1      43.183  26.759  29.885  1.00  0.00     0.049 A 
ATOM     50  C   UNL A   1      41.887  30.096  34.173  1.00  0.00     0.074 A 
ATOM     51  C   UNL A   1      44.332  25.996  30.003  1.00  0.00     0.029 A 
ATOM     52  N   UNL A   1      43.072  27.502  31.049  1.00  0.00    -0.354 N 
ATOM     53  N   UNL A   1      42.349  29.304  33.236  1.00  0.00    -0.248 NA
ATOM     54  C   UNL A   1      42.667  30.058  35.421  1.00  0.00     0.031 C 
ATOM     55  C   UNL A   1      44.899  26.257  31.255  1.00  0.00     0.029 A 
ATOM     56  C   UNL A   1      44.123  27.207  31.899  1.00  0.00     0.049 A 
ATOM     57  H   UNL A   1      42.351  28.143  31.242  1.00  0.00     0.167 HD
ATOM     58  C   UNL A   1      43.491  28.708  33.764  1.00  0.00     0.074 A 
ATOM     59  C   UNL A   1      43.662  29.243  35.098  1.00  0.00     0.031 C 
ATOM     60  C   UNL A   1      44.317  27.790  33.201  1.00  0.00     0.034 A 
BRANCH  47  61
ATOM     61  C   UNL A   1      42.479  25.883  27.622  1.00  0.00     0.023 A 
ATOM     62  C   UNL A   1      43.236  26.337  26.523  1.00  0.00     0.012 A 
ATOM     63  C   UNL A   1      41.986  24.565  27.625  1.00  0.00     0.148 A 
ATOM     64  C   UNL A   1      43.471  25.504  25.431  1.00  0.00     0.002 A 
ATOM     65  C   UNL A   1      42.263  23.725  26.555  1.00  0.00     0.091 A 
ATOM     66  F   UNL A   1      41.245  24.163  28.668  1.00  0.00    -0.205 F 
ATOM     67  C   UNL A   1      42.995  24.196  25.452  1.00  0.00     0.022 A 
BRANCH  65  68
ATOM     68  S   UNL A   1      41.762  22.001  26.523  1.00  0.00     0.127 S 
ATOM     69  O   UNL A   1      42.428  21.523  25.312  1.00  0.00    -0.237 OA
ATOM     70  O   UNL A   1      42.331  21.493  27.772  1.00  0.00    -0.237 OA
ATOM     71  O   UNL A   1      40.307  22.006  26.476  1.00  0.00    -0.744 OA
ENDBRANCH  65  68
ENDBRANCH  47  61
BRANCH  48  72
ATOM     72  C   UNL A   1      40.382  31.889  35.312  1.00  0.00     0.023 A 
ATOM     73  C   UNL A   1      41.215  32.981  35.634  1.00  0.00     0.012 A 
ATOM     74  C   UNL A   1      39.263  31.620  36.124  1.00  0.00     0.148 A 
ATOM     75  C   UNL A   1      40.957  33.767  36.757  1.00  0.00     0.002 A 
ATOM     76  C   UNL A   1      38.982  32.440  37.210  1.00  0.00     0.091 A 
ATOM     77  F   UNL A   1      38.496  30.565  35.814  1.00  0.00    -0.205 F 
ATOM     78  C   UNL A   1      39.836  33.503  37.540  1.00  0.00     0.022 A 
BRANCH  76  79
ATOM     79  S   UNL A   1      37.500  32.247  38.206  1.00  0.00     0.127 S 
ATOM     80  O   UNL A   1      37.372  30.794  38.276  1.00  0.00    -0.237 OA
ATOM     81  O   UNL A   1      37.894  32.892  39.460  1.00  0.00    -0.237 OA
ATOM     82  O   UNL A   1      36.444  32.939  37.481  1.00  0.00    -0.744 OA
ENDBRANCH  76  79
ENDBRANCH  48  72
BRANCH  60  83
ATOM     83  C   UNL A   1      45.516  27.334  33.994  1.00  0.00     0.023 A 
ATOM     84  C   UNL A   1      45.414  26.216  34.846  1.00  0.00     0.012 A 
ATOM     85  C   UNL A   1      46.766  27.962  33.826  1.00  0.00     0.148 A 
ATOM     86  C   UNL A   1      46.530  25.752  35.542  1.00  0.00     0.002 A 
ATOM     87  C   UNL A   1      47.885  27.463  34.483  1.00  0.00     0.091 A 
ATOM     88  F   UNL A   1      46.841  29.034  33.023  1.00  0.00    -0.205 F 
ATOM     89  C   UNL A   1      47.766  26.366  35.351  1.00  0.00     0.022 A 
BRANCH  87  90
ATOM     90  S   UNL A   1      49.534  28.127  34.223  1.00  0.00     0.127 S 
ATOM     91  O   UNL A   1      49.705  27.946  32.782  1.00  0.00    -0.237 OA
ATOM     92  O   UNL A   1      49.379  29.519  34.648  1.00  0.00    -0.237 OA
ATOM     93  O   UNL A   1      50.423  27.335  35.062  1.00  0.00    -0.744 OA
ENDBRANCH  87  90
ENDBRANCH  60  83
ENDBRANCH  34  35
ENDBRANCH  27  29
ENDBRANCH  26  27
ENDBRANCH  25  26
ENDBRANCH  24  25
ENDBRANCH  23  24
ENDBRANCH   1  23
TORSDOF 24
ENDMDL
MODEL 3
REMARK VINA RESULT:      -8.9      6.840     12.092
REMARK SMILES [NH3+]C[C@@H](Cc1ccc(Br)cc1)C(=O)OCCOCCOCCOC(=O)c1ccc(-c2c3nc(c(-c4cccc(S(=O)(=O)[O-])c4F)c4ccc([nH]4)c(-c4cccc(S(=O)(=O)[O-])c4F)c4nc(c(-c5cccc(S(=O)(=O)[O-])c5F)c5ccc2[nH]5)C=C4)C=C3)cc1
REMARK SMILES IDX 19 1 18 2 17 3 16 4 15 5 14 6 12 7 13 8 3 9 2 10 1 11 4 15
REMARK SMILES IDX 5 16 6 17 11 18 7 19 10 20 8 21 9 22 20 23 21 24 22 25 23 26
REMARK SMILES IDX 24 27 25 28 26 29 27 30 88 31 28 32 87 33 29 34 30 35 31 36
REMARK SMILES IDX 81 37 32 38 86 39 80 40 82 41 33 42 85 43 79 44 78 45 34 47
REMARK SMILES IDX 66 48 46 49 65 50 47 51 50 52 64 53 83 54 48 55 49 56 63 58
REMARK SMILES IDX 84 59 51 60 35 61 36 62 44 63 37 64 39 65 45 66 38 67 40 68
REMARK SMILES IDX 41 69 42 70 43 71 67 72 68 73 76 74 69 75 71 76 77 77 70 78
REMARK SMILES IDX 72 79 73 80 74 81 75 82 52 83 53 84 61 85 54 86 56 87 62 88
REMARK SMILES IDX 55 89 57 90 58 91 59 92 60 93
REMARK H PARENT 1 12 1 13 1 14 82 46 50 57
REMARK Flexibility Score: inf
ROOT
ATOM      1  C   UNL A   1      40.148  21.602  26.506  1.00  0.00     0.188 C 
ENDROOT
BRANCH   1   2
ATOM      2  C   UNL A   1      38.754  21.917  25.952  1.00  0.00     0.188 C 
BRANCH   2   3
ATOM      3  O   UNL A   1      38.321  23.270  25.962  1.00  0.00    -0.376 OA
BRANCH   3   4
ATOM      4  C   UNL A   1      36.931  23.552  25.864  1.00  0.00     0.202 C 
BRANCH   4   5
ATOM      5  C   UNL A   1      36.010  22.489  25.251  1.00  0.00     0.261 C 
BRANCH   5   6
ATOM      6  O   UNL A   1      34.847  22.971  24.531  1.00  0.00    -0.463 OA
BRANCH   6   7
ATOM      7  C   UNL A   1      33.635  22.676  25.076  1.00  0.00     0.315 C 
ATOM      8  O   UNL A   1      33.469  22.425  26.266  1.00  0.00    -0.252 OA
BRANCH   7   9
ATOM      9  C   UNL A   1      32.481  22.533  24.082  1.00  0.00     0.158 C 
BRANCH   9  10
ATOM     10  C   UNL A   1      32.328  21.197  23.336  1.00  0.00     0.274 C 
BRANCH  10  11
ATOM     11  N   UNL A   1      31.830  21.335  21.960  1.00  0.00    -0.357 N 
ATOM     12  H   UNL A   1      32.596  21.183  21.304  1.00  0.00     0.344 HD
ATOM     13  H   UNL A   1      31.450  22.271  21.828  1.00  0.00     0.344 HD
ATOM     14  H   UNL A   1      31.098  20.644  21.793  1.00  0.00     0.344 HD
ENDBRANCH  10  11
ENDBRANCH   9  10
BRANCH   9  15
ATOM     15  C   UNL A   1      31.190  23.027  24.771  1.00  0.00     0.056 C 
BRANCH  15  16
ATOM     16  C   UNL A   1      30.959  24.517  24.652  1.00  0.00    -0.047 A 
ATOM     17  C   UNL A   1      30.619  25.091  23.419  1.00  0.00     0.005 A 
ATOM     18  C   UNL A   1      31.161  25.359  25.753  1.00  0.00     0.005 A 
ATOM     19  C   UNL A   1      30.577  26.476  23.263  1.00  0.00     0.016 A 
ATOM     20  C   UNL A   1      31.091  26.745  25.608  1.00  0.00     0.016 A 
ATOM     21  C   UNL A   1      30.823  27.298  24.358  1.00  0.00     0.017 A 
ATOM     22  Br  UNL A   1      30.799  29.175  24.145  1.00  0.00    -0.051 Br
ENDBRANCH  15  16
ENDBRANCH   9  15
ENDBRANCH   7   9
ENDBRANCH   6   7
ENDBRANCH   5   6
ENDBRANCH   4   5
ENDBRANCH   3   4
ENDBRANCH   2   3
ENDBRANCH   1   2
BRANCH   1  23
ATOM     23  O   UNL A   1      40.540  20.248  26.404  1.00  0.00    -0.376 OA
BRANCH  23  24
ATOM     24  C   UNL A   1      41.882  19.939  26.730  1.00  0.00     0.202 C 
BRANCH  24  25
ATOM     25  C   UNL A   1      42.626  19.065  25.711  1.00  0.00     0.261 C 
BRANCH  25  26
ATOM     26  O   UNL A   1      44.047  19.272  25.646  1.00  0.00    -0.460 OA
BRANCH  26  27
ATOM     27  C   UNL A   1      44.543  19.842  24.522  1.00  0.00     0.338 C 
ATOM     28  O   UNL A   1      44.533  19.368  23.398  1.00  0.00    -0.246 OA
BRANCH  27  29
ATOM     29  C   UNL A   1      44.854  21.255  24.847  1.00  0.00     0.060 A 
ATOM     30  C   UNL A   1      45.292  21.573  26.142  1.00  0.00     0.016 A 
ATOM     31  C   UNL A   1      44.779  22.246  23.867  1.00  0.00     0.016 A 
ATOM     32  C   UNL A   1      45.634  22.889  26.463  1.00  0.00     0.010 A 
ATOM     33  C   UNL A   1      45.098  23.566  24.196  1.00  0.00     0.010 A 
ATOM     34  C   UNL A   1      45.498  23.899  25.503  1.00  0.00    -0.014 A 
BRANCH  34  35
ATOM     35  C   UNL A   1      45.554  25.325  25.906  1.00  0.00     0.031 A 
ATOM     36  C   UNL A   1      46.904  25.990  25.952  1.00  0.00     0.074 A 
ATOM     37  C   UNL A   1      44.452  26.014  26.254  1.00  0.00     0.049 A 
ATOM     38  N   UNL A   1      47.224  27.196  26.339  1.00  0.00    -0.248 NA
ATOM     39  C   UNL A   1      48.048  25.176  25.502  1.00  0.00     0.031 C 
ATOM     40  C   UNL A   1      43.086  25.493  26.247  1.00  0.00     0.029 A 
ATOM     41  N   UNL A   1      44.319  27.302  26.715  1.00  0.00    -0.354 N 
ATOM     42  C   UNL A   1      48.606  27.275  26.214  1.00  0.00     0.074 A 
ATOM     43  C   UNL A   1      49.064  25.996  25.721  1.00  0.00     0.031 C 
ATOM     44  C   UNL A   1      42.257  26.443  26.718  1.00  0.00     0.029 A 
ATOM     45  C   UNL A   1      43.035  27.626  27.083  1.00  0.00     0.049 A 
ATOM     46  H   UNL A   1      45.073  27.933  26.776  1.00  0.00     0.167 HD
ATOM     47  C   UNL A   1      49.423  28.323  26.472  1.00  0.00     0.034 A 
ATOM     48  C   UNL A   1      42.551  28.739  27.673  1.00  0.00     0.034 A 
ATOM     49  C   UNL A   1      48.971  29.599  26.952  1.00  0.00     0.049 A 
ATOM     50  C   UNL A   1      43.488  29.882  27.984  1.00  0.00     0.074 A 
ATOM     51  C   UNL A   1      49.719  30.736  27.202  1.00  0.00     0.029 A 
ATOM     52  N   UNL A   1      47.658  29.905  27.270  1.00  0.00    -0.354 N 
ATOM     53  N   UNL A   1      44.773  29.988  27.747  1.00  0.00    -0.248 NA
ATOM     54  C   UNL A   1      42.900  31.073  28.618  1.00  0.00     0.031 C 
ATOM     55  C   UNL A   1      48.860  31.720  27.701  1.00  0.00     0.029 A 
ATOM     56  C   UNL A   1      47.573  31.207  27.727  1.00  0.00     0.049 A 
ATOM     57  H   UNL A   1      46.897  29.286  27.184  1.00  0.00     0.167 HD
ATOM     58  C   UNL A   1      45.137  31.265  28.164  1.00  0.00     0.074 A 
ATOM     59  C   UNL A   1      43.933  31.904  28.652  1.00  0.00     0.031 C 
ATOM     60  C   UNL A   1      46.360  31.853  28.155  1.00  0.00     0.034 A 
BRANCH  47  61
ATOM     61  C   UNL A   1      50.895  28.132  26.226  1.00  0.00     0.023 A 
ATOM     62  C   UNL A   1      51.753  27.846  27.307  1.00  0.00     0.012 A 
ATOM     63  C   UNL A   1      51.421  28.193  24.922  1.00  0.00     0.148 A 
ATOM     64  C   UNL A   1      53.117  27.654  27.098  1.00  0.00     0.002 A 
ATOM     65  C   UNL A   1      52.774  27.956  24.715  1.00  0.00     0.091 A 
ATOM     66  F   UNL A   1      50.592  28.493  23.911  1.00  0.00    -0.205 F 
ATOM     67  C   UNL A   1      53.625  27.698  25.802  1.00  0.00     0.022 A 
BRANCH  65  68
ATOM     68  S   UNL A   1      53.509  27.912  23.077  1.00  0.00     0.127 S 
ATOM     69  O   UNL A   1      54.931  27.792  23.397  1.00  0.00    -0.237 OA
ATOM     70  O   UNL A   1      52.908  26.707  22.504  1.00  0.00    -0.237 OA
ATOM     71  O   UNL A   1      53.118  29.155  22.428  1.00  0.00    -0.744 OA
ENDBRANCH  65  68
ENDBRANCH  47  61
BRANCH  48  72
ATOM     72  C   UNL A   1      41.098  28.848  27.994  1.00  0.00     0.023 A 
ATOM     73  C   UNL A   1      40.187  29.205  26.979  1.00  0.00     0.012 A 
ATOM     74  C   UNL A   1      40.615  28.611  29.295  1.00  0.00     0.148 A 
ATOM     75  C   UNL A   1      38.829  29.356  27.261  1.00  0.00     0.002 A 
ATOM     76  C   UNL A   1      39.253  28.710  29.557  1.00  0.00     0.091 A 
ATOM     77  F   UNL A   1      41.499  28.294  30.251  1.00  0.00    -0.205 F 
ATOM     78  C   UNL A   1      38.361  29.100  28.547  1.00  0.00     0.022 A 
BRANCH  76  79
ATOM     79  S   UNL A   1      38.544  28.288  31.153  1.00  0.00     0.127 S 
ATOM     80  O   UNL A   1      38.697  26.836  31.174  1.00  0.00    -0.237 OA
ATOM     81  O   UNL A   1      39.422  29.014  32.073  1.00  0.00    -0.237 OA
ATOM     82  O   UNL A   1      37.173  28.778  31.117  1.00  0.00    -0.744 OA
ENDBRANCH  76  79
ENDBRANCH  48  72
BRANCH  60  83
ATOM     83  C   UNL A   1      46.464  33.278  28.639  1.00  0.00     0.023 A 
ATOM     84  C   UNL A   1      46.791  33.543  29.984  1.00  0.00     0.012 A 
ATOM     85  C   UNL A   1      46.326  34.352  27.737  1.00  0.00     0.148 A 
ATOM     86  C   UNL A   1      46.944  34.856  30.430  1.00  0.00     0.002 A 
ATOM     87  C   UNL A   1      46.532  35.655  28.177  1.00  0.00     0.091 A 
ATOM     88  F   UNL A   1      46.001  34.081  26.464  1.00  0.00    -0.205 F 
ATOM     89  C   UNL A   1      46.828  35.909  29.526  1.00  0.00     0.022 A 
BRANCH  87  90
ATOM     90  S   UNL A   1      46.499  37.065  27.064  1.00  0.00     0.127 S 
ATOM     91  O   UNL A   1      45.072  37.381  27.024  1.00  0.00    -0.237 OA
ATOM     92  O   UNL A   1      47.321  38.044  27.779  1.00  0.00    -0.237 OA
ATOM     93  O   UNL A   1      47.072  36.599  25.808  1.00  0.00    -0.744 OA
ENDBRANCH  87  90
ENDBRANCH  60  83
ENDBRANCH  34  35
ENDBRANCH  27  29
ENDBRANCH  26  27
ENDBRANCH  25  26
ENDBRANCH  24  25
ENDBRANCH  23  24
ENDBRANCH   1  23
TORSDOF 24
ENDMDL
