MODEL 1
REMARK VINA RESULT:     -11.4      0.000      0.000
REMARK SMILES O=C(N[C@@H]1C=C[C@@H](C(=O)OCCOCCOCCOC(=O)c2ccc(-c3c4nc(c(-c5cccc(S(=O)(=O)[O-])c5F)c5ccc([nH]5)c(-c5cccc(S(=O)(=O)[O-])c5F)c5nc(c(-c6cccc(S(=O)(=O)[O-])c6F)c6ccc3[nH]6)C=C5)C=C4)cc2)C1)c1ccc2ncccc2c1
REMARK SMILES IDX 15 1 14 2 13 3 12 4 11 5 10 6 8 7 9 8 7 9 4 10 5 11 85 12
REMARK SMILES IDX 6 13 3 14 1 15 2 16 86 18 87 19 95 20 88 21 94 22 89 23
REMARK SMILES IDX 93 24 90 25 92 26 91 27 16 28 17 29 18 30 19 31 20 32 21 33
REMARK SMILES IDX 22 34 23 35 84 36 24 37 83 38 25 39 26 40 27 41 77 42 28 43
REMARK SMILES IDX 82 44 76 45 78 46 29 47 81 48 75 49 74 50 30 52 62 53 42 54
REMARK SMILES IDX 61 55 43 56 46 57 60 58 79 59 44 60 45 61 59 63 80 64 47 65
REMARK SMILES IDX 31 66 32 67 40 68 33 69 35 70 41 71 34 72 36 73 37 74 38 75
REMARK SMILES IDX 39 76 63 77 64 78 72 79 65 80 67 81 73 82 66 83 68 84 69 85
REMARK SMILES IDX 70 86 71 87 48 88 49 89 57 90 50 91 52 92 58 93 51 94 53 95
REMARK SMILES IDX 54 96 55 97 56 98
REMARK H PARENT 3 17 78 51 46 62
REMARK Flexibility Score: inf
ROOT
ATOM      1  C   UNL A   1      31.592  28.409  24.854  1.00  0.00     0.188 C 
ENDROOT
BRANCH   1   2
ATOM      2  C   UNL A   1      30.457  28.182  23.833  1.00  0.00     0.188 C 
BRANCH   2   3
ATOM      3  O   UNL A   1      30.204  26.868  23.356  1.00  0.00    -0.376 OA
BRANCH   3   4
ATOM      4  C   UNL A   1      29.527  25.954  24.209  1.00  0.00     0.202 C 
BRANCH   4   5
ATOM      5  C   UNL A   1      30.348  24.817  24.833  1.00  0.00     0.261 C 
BRANCH   5   6
ATOM      6  O   UNL A   1      30.289  24.790  26.273  1.00  0.00    -0.463 OA
BRANCH   6   7
ATOM      7  C   UNL A   1      30.658  23.619  26.859  1.00  0.00     0.312 C 
ATOM      8  O   UNL A   1      29.917  22.955  27.578  1.00  0.00    -0.252 OA
BRANCH   7   9
ATOM      9  C   UNL A   1      32.062  23.150  26.442  1.00  0.00     0.124 C 
ATOM     10  C   UNL A   1      33.656  21.388  27.201  1.00  0.00     0.106 C 
ATOM     11  C   UNL A   1      32.773  20.925  26.087  1.00  0.00    -0.006 C 
ATOM     12  C   UNL A   1      33.052  22.749  27.549  1.00  0.00     0.048 C 
ATOM     13  C   UNL A   1      31.943  21.879  25.655  1.00  0.00    -0.014 C 
BRANCH  10  14
ATOM     14  N   UNL A   1      35.011  21.397  26.684  1.00  0.00    -0.346 N 
ATOM     15  O   UNL A   1      36.894  22.015  25.658  1.00  0.00    -0.269 OA
ATOM     16  C   UNL A   1      35.689  22.209  25.817  1.00  0.00     0.251 C 
ATOM     17  H   UNL A   1      35.561  20.659  27.032  1.00  0.00     0.164 HD
BRANCH  16  18
ATOM     18  C   UNL A   1      35.043  23.268  25.014  1.00  0.00     0.040 A 
ATOM     19  C   UNL A   1      34.999  24.605  25.397  1.00  0.00     0.016 A 
ATOM     20  C   UNL A   1      34.539  22.895  23.757  1.00  0.00     0.024 A 
ATOM     21  C   UNL A   1      34.423  25.551  24.535  1.00  0.00     0.030 A 
ATOM     22  C   UNL A   1      33.970  23.850  22.898  1.00  0.00     0.001 A 
ATOM     23  C   UNL A   1      33.903  25.200  23.293  1.00  0.00     0.070 A 
ATOM     24  C   UNL A   1      33.443  23.501  21.645  1.00  0.00     0.012 A 
ATOM     25  N   UNL A   1      33.350  26.146  22.521  1.00  0.00    -0.256 NA
ATOM     26  C   UNL A   1      32.852  24.476  20.849  1.00  0.00     0.021 A 
ATOM     27  C   UNL A   1      32.828  25.771  21.328  1.00  0.00     0.112 A 
ENDBRANCH  16  18
ENDBRANCH  10  14
ENDBRANCH   7   9
ENDBRANCH   6   7
ENDBRANCH   5   6
ENDBRANCH   4   5
ENDBRANCH   3   4
ENDBRANCH   2   3
ENDBRANCH   1   2
BRANCH   1  28
ATOM     28  O   UNL A   1      31.329  28.043  26.197  1.00  0.00    -0.376 OA
BRANCH  28  29
ATOM     29  C   UNL A   1      31.834  28.972  27.154  1.00  0.00     0.202 C 
BRANCH  29  30
ATOM     30  C   UNL A   1      31.685  30.438  26.725  1.00  0.00     0.261 C 
BRANCH  30  31
ATOM     31  O   UNL A   1      32.958  31.062  26.457  1.00  0.00    -0.460 OA
BRANCH  31  32
ATOM     32  C   UNL A   1      33.403  31.968  27.348  1.00  0.00     0.338 C 
ATOM     33  O   UNL A   1      32.834  32.996  27.696  1.00  0.00    -0.246 OA
BRANCH  32  34
ATOM     34  C   UNL A   1      34.722  31.534  27.854  1.00  0.00     0.060 A 
ATOM     35  C   UNL A   1      34.948  30.214  28.267  1.00  0.00     0.016 A 
ATOM     36  C   UNL A   1      35.732  32.483  27.987  1.00  0.00     0.016 A 
ATOM     37  C   UNL A   1      36.171  29.842  28.833  1.00  0.00     0.010 A 
ATOM     38  C   UNL A   1      36.957  32.110  28.549  1.00  0.00     0.010 A 
ATOM     39  C   UNL A   1      37.176  30.797  29.004  1.00  0.00    -0.014 A 
BRANCH  39  40
ATOM     40  C   UNL A   1      38.425  30.474  29.737  1.00  0.00     0.031 A 
ATOM     41  C   UNL A   1      39.379  29.466  29.161  1.00  0.00     0.074 A 
ATOM     42  C   UNL A   1      38.679  31.030  30.935  1.00  0.00     0.049 A 
ATOM     43  N   UNL A   1      40.441  28.925  29.697  1.00  0.00    -0.248 NA
ATOM     44  C   UNL A   1      39.093  29.002  27.792  1.00  0.00     0.031 C 
ATOM     45  C   UNL A   1      37.849  32.037  31.593  1.00  0.00     0.029 A 
ATOM     46  N   UNL A   1      39.688  30.781  31.834  1.00  0.00    -0.354 N 
ATOM     47  C   UNL A   1      40.927  28.026  28.757  1.00  0.00     0.074 A 
ATOM     48  C   UNL A   1      40.048  28.101  27.608  1.00  0.00     0.031 C 
ATOM     49  C   UNL A   1      38.353  32.287  32.812  1.00  0.00     0.029 A 
ATOM     50  C   UNL A   1      39.512  31.424  33.037  1.00  0.00     0.049 A 
ATOM     51  H   UNL A   1      40.459  30.203  31.637  1.00  0.00     0.167 HD
ATOM     52  C   UNL A   1      42.003  27.209  28.841  1.00  0.00     0.034 A 
ATOM     53  C   UNL A   1      40.175  31.295  34.204  1.00  0.00     0.034 A 
ATOM     54  C   UNL A   1      42.876  27.135  29.984  1.00  0.00     0.049 A 
ATOM     55  C   UNL A   1      41.340  30.344  34.293  1.00  0.00     0.074 A 
ATOM     56  C   UNL A   1      44.016  26.369  30.147  1.00  0.00     0.029 A 
ATOM     57  N   UNL A   1      42.692  27.834  31.166  1.00  0.00    -0.354 N 
ATOM     58  N   UNL A   1      41.850  29.574  33.364  1.00  0.00    -0.248 NA
ATOM     59  C   UNL A   1      42.035  30.265  35.587  1.00  0.00     0.031 C 
ATOM     60  C   UNL A   1      44.502  26.576  31.443  1.00  0.00     0.029 A 
ATOM     61  C   UNL A   1      43.685  27.501  32.074  1.00  0.00     0.049 A 
ATOM     62  H   UNL A   1      41.963  28.473  31.338  1.00  0.00     0.167 HD
ATOM     63  C   UNL A   1      42.944  28.942  33.948  1.00  0.00     0.074 A 
ATOM     64  C   UNL A   1      43.032  29.436  35.307  1.00  0.00     0.031 C 
ATOM     65  C   UNL A   1      43.791  28.029  33.411  1.00  0.00     0.034 A 
BRANCH  52  66
ATOM     66  C   UNL A   1      42.299  26.321  27.660  1.00  0.00     0.023 A 
ATOM     67  C   UNL A   1      43.088  26.806  26.597  1.00  0.00     0.012 A 
ATOM     68  C   UNL A   1      41.830  24.994  27.624  1.00  0.00     0.148 A 
ATOM     69  C   UNL A   1      43.377  25.993  25.501  1.00  0.00     0.002 A 
ATOM     70  C   UNL A   1      42.158  24.177  26.547  1.00  0.00     0.091 A 
ATOM     71  F   UNL A   1      41.059  24.559  28.630  1.00  0.00    -0.205 F 
ATOM     72  C   UNL A   1      42.921  24.678  25.480  1.00  0.00     0.022 A 
BRANCH  70  73
ATOM     73  S   UNL A   1      41.678  22.447  26.467  1.00  0.00     0.127 S 
ATOM     74  O   UNL A   1      40.220  22.548  26.427  1.00  0.00    -0.237 OA
ATOM     75  O   UNL A   1      42.294  22.014  25.213  1.00  0.00    -0.237 OA
ATOM     76  O   UNL A   1      42.231  21.824  27.661  1.00  0.00    -0.744 OA
ENDBRANCH  70  73
ENDBRANCH  52  66
BRANCH  53  77
ATOM     77  C   UNL A   1      39.751  32.099  35.384  1.00  0.00     0.023 A 
ATOM     78  C   UNL A   1      40.123  33.454  35.471  1.00  0.00     0.012 A 
ATOM     79  C   UNL A   1      38.943  31.541  36.394  1.00  0.00     0.148 A 
ATOM     80  C   UNL A   1      39.715  34.233  36.554  1.00  0.00     0.002 A 
ATOM     81  C   UNL A   1      38.493  32.336  37.440  1.00  0.00     0.091 A 
ATOM     82  F   UNL A   1      38.616  30.243  36.300  1.00  0.00    -0.205 F 
ATOM     83  C   UNL A   1      38.890  33.679  37.530  1.00  0.00     0.022 A 
BRANCH  81  84
ATOM     84  S   UNL A   1      37.323  31.747  38.669  1.00  0.00     0.127 S 
ATOM     85  O   UNL A   1      36.302  32.791  38.634  1.00  0.00    -0.237 OA
ATOM     86  O   UNL A   1      36.913  30.463  38.099  1.00  0.00    -0.237 OA
ATOM     87  O   UNL A   1      38.075  31.642  39.912  1.00  0.00    -0.744 OA
ENDBRANCH  81  84
ENDBRANCH  53  77
BRANCH  65  88
ATOM     88  C   UNL A   1      44.916  27.521  34.277  1.00  0.00     0.023 A 
ATOM     89  C   UNL A   1      46.158  28.188  34.282  1.00  0.00     0.012 A 
ATOM     90  C   UNL A   1      44.719  26.422  35.139  1.00  0.00     0.148 A 
ATOM     91  C   UNL A   1      47.196  27.747  35.104  1.00  0.00     0.002 A 
ATOM     92  C   UNL A   1      45.742  26.022  35.991  1.00  0.00     0.091 A 
ATOM     93  F   UNL A   1      43.537  25.790  35.107  1.00  0.00    -0.205 F 
ATOM     94  C   UNL A   1      46.984  26.674  35.965  1.00  0.00     0.022 A 
BRANCH  92  95
ATOM     95  S   UNL A   1      45.528  24.710  37.201  1.00  0.00     0.127 S 
ATOM     96  O   UNL A   1      45.300  23.548  36.343  1.00  0.00    -0.237 OA
ATOM     97  O   UNL A   1      46.816  24.714  37.895  1.00  0.00    -0.237 OA
ATOM     98  O   UNL A   1      44.397  25.108  38.027  1.00  0.00    -0.744 OA
ENDBRANCH  92  95
ENDBRANCH  65  88
ENDBRANCH  39  40
ENDBRANCH  32  34
ENDBRANCH  31  32
ENDBRANCH  30  31
ENDBRANCH  29  30
ENDBRANCH  28  29
ENDBRANCH   1  28
TORSDOF 22
ENDMDL
MODEL 2
REMARK VINA RESULT:     -11.1      1.160      2.725
REMARK SMILES O=C(N[C@@H]1C=C[C@@H](C(=O)OCCOCCOCCOC(=O)c2ccc(-c3c4nc(c(-c5cccc(S(=O)(=O)[O-])c5F)c5ccc([nH]5)c(-c5cccc(S(=O)(=O)[O-])c5F)c5nc(c(-c6cccc(S(=O)(=O)[O-])c6F)c6ccc3[nH]6)C=C5)C=C4)cc2)C1)c1ccc2ncccc2c1
REMARK SMILES IDX 15 1 14 2 13 3 12 4 11 5 10 6 8 7 9 8 7 9 4 10 5 11 85 12
REMARK SMILES IDX 6 13 3 14 1 15 2 16 86 18 87 19 95 20 88 21 94 22 89 23
REMARK SMILES IDX 93 24 90 25 92 26 91 27 16 28 17 29 18 30 19 31 20 32 21 33
REMARK SMILES IDX 22 34 23 35 84 36 24 37 83 38 25 39 26 40 27 41 77 42 28 43
REMARK SMILES IDX 82 44 76 45 78 46 29 47 81 48 75 49 74 50 30 52 62 53 42 54
REMARK SMILES IDX 61 55 43 56 46 57 60 58 79 59 44 60 45 61 59 63 80 64 47 65
REMARK SMILES IDX 31 66 32 67 40 68 33 69 35 70 41 71 34 72 36 73 37 74 38 75
REMARK SMILES IDX 39 76 63 77 64 78 72 79 65 80 67 81 73 82 66 83 68 84 69 85
REMARK SMILES IDX 70 86 71 87 48 88 49 89 57 90 50 91 52 92 58 93 51 94 53 95
REMARK SMILES IDX 54 96 55 97 56 98
REMARK H PARENT 3 17 78 51 46 62
REMARK Flexibility Score: inf
ROOT
ATOM      1  C   UNL A   1      31.326  29.651  24.949  1.00  0.00     0.188 C 
ENDROOT
BRANCH   1   2
ATOM      2  C   UNL A   1      30.530  29.103  23.746  1.00  0.00     0.188 C 
BRANCH   2   3
ATOM      3  O   UNL A   1      31.125  29.115  22.456  1.00  0.00    -0.376 OA
BRANCH   3   4
ATOM      4  C   UNL A   1      31.862  27.973  22.038  1.00  0.00     0.202 C 
BRANCH   4   5
ATOM      5  C   UNL A   1      33.345  27.899  22.429  1.00  0.00     0.261 C 
BRANCH   5   6
ATOM      6  O   UNL A   1      33.637  26.850  23.375  1.00  0.00    -0.463 OA
BRANCH   6   7
ATOM      7  C   UNL A   1      33.305  25.590  22.984  1.00  0.00     0.312 C 
ATOM      8  O   UNL A   1      33.792  25.032  22.006  1.00  0.00    -0.252 OA
BRANCH   7   9
ATOM      9  C   UNL A   1      32.340  24.889  23.956  1.00  0.00     0.124 C 
ATOM     10  C   UNL A   1      30.385  25.581  25.342  1.00  0.00     0.106 C 
ATOM     11  C   UNL A   1      29.985  25.064  23.998  1.00  0.00    -0.006 C 
ATOM     12  C   UNL A   1      31.909  25.648  25.222  1.00  0.00     0.048 C 
ATOM     13  C   UNL A   1      31.028  24.659  23.268  1.00  0.00    -0.014 C 
BRANCH  10  14
ATOM     14  N   UNL A   1      29.856  24.653  26.322  1.00  0.00    -0.346 N 
ATOM     15  O   UNL A   1      29.652  22.943  27.742  1.00  0.00    -0.269 OA
ATOM     16  C   UNL A   1      30.279  23.448  26.812  1.00  0.00     0.251 C 
ATOM     17  H   UNL A   1      29.009  24.955  26.721  1.00  0.00     0.164 HD
BRANCH  16  18
ATOM     18  C   UNL A   1      31.413  22.688  26.244  1.00  0.00     0.040 A 
ATOM     19  C   UNL A   1      31.276  21.746  25.229  1.00  0.00     0.016 A 
ATOM     20  C   UNL A   1      32.697  23.023  26.703  1.00  0.00     0.024 A 
ATOM     21  C   UNL A   1      32.420  21.124  24.707  1.00  0.00     0.030 A 
ATOM     22  C   UNL A   1      33.838  22.400  26.171  1.00  0.00     0.001 A 
ATOM     23  C   UNL A   1      33.700  21.428  25.159  1.00  0.00     0.070 A 
ATOM     24  C   UNL A   1      35.130  22.703  26.625  1.00  0.00     0.012 A 
ATOM     25  N   UNL A   1      34.754  20.789  24.633  1.00  0.00    -0.256 NA
ATOM     26  C   UNL A   1      36.223  22.028  26.094  1.00  0.00     0.021 A 
ATOM     27  C   UNL A   1      35.985  21.087  25.112  1.00  0.00     0.112 A 
ENDBRANCH  16  18
ENDBRANCH  10  14
ENDBRANCH   7   9
ENDBRANCH   6   7
ENDBRANCH   5   6
ENDBRANCH   4   5
ENDBRANCH   3   4
ENDBRANCH   2   3
ENDBRANCH   1   2
BRANCH   1  28
ATOM     28  O   UNL A   1      31.411  28.820  26.094  1.00  0.00    -0.376 OA
BRANCH  28  29
ATOM     29  C   UNL A   1      32.102  29.419  27.188  1.00  0.00     0.202 C 
BRANCH  29  30
ATOM     30  C   UNL A   1      32.079  30.953  27.163  1.00  0.00     0.261 C 
BRANCH  30  31
ATOM     31  O   UNL A   1      33.354  31.514  26.785  1.00  0.00    -0.460 OA
BRANCH  31  32
ATOM     32  C   UNL A   1      33.914  32.402  27.629  1.00  0.00     0.338 C 
ATOM     33  O   UNL A   1      33.455  33.489  27.961  1.00  0.00    -0.246 OA
BRANCH  32  34
ATOM     34  C   UNL A   1      35.205  31.864  28.103  1.00  0.00     0.060 A 
ATOM     35  C   UNL A   1      35.334  30.531  28.517  1.00  0.00     0.016 A 
ATOM     36  C   UNL A   1      36.293  32.727  28.205  1.00  0.00     0.016 A 
ATOM     37  C   UNL A   1      36.537  30.062  29.053  1.00  0.00     0.010 A 
ATOM     38  C   UNL A   1      37.498  32.258  28.737  1.00  0.00     0.010 A 
ATOM     39  C   UNL A   1      37.621  30.933  29.193  1.00  0.00    -0.014 A 
BRANCH  39  40
ATOM     40  C   UNL A   1      38.858  30.512  29.895  1.00  0.00     0.031 A 
ATOM     41  C   UNL A   1      39.742  29.469  29.271  1.00  0.00     0.074 A 
ATOM     42  C   UNL A   1      39.161  31.009  31.108  1.00  0.00     0.049 A 
ATOM     43  N   UNL A   1      40.777  28.849  29.772  1.00  0.00    -0.248 NA
ATOM     44  C   UNL A   1      39.412  29.072  27.892  1.00  0.00     0.031 C 
ATOM     45  C   UNL A   1      38.401  32.040  31.812  1.00  0.00     0.029 A 
ATOM     46  N   UNL A   1      40.165  30.671  31.982  1.00  0.00    -0.354 N 
ATOM     47  C   UNL A   1      41.197  27.956  28.794  1.00  0.00     0.074 A 
ATOM     48  C   UNL A   1      40.309  28.123  27.663  1.00  0.00     0.031 C 
ATOM     49  C   UNL A   1      38.936  32.217  33.031  1.00  0.00     0.029 A 
ATOM     50  C   UNL A   1      40.044  31.280  33.209  1.00  0.00     0.049 A 
ATOM     51  H   UNL A   1      40.898  30.055  31.753  1.00  0.00     0.167 HD
ATOM     52  C   UNL A   1      42.224  27.075  28.834  1.00  0.00     0.034 A 
ATOM     53  C   UNL A   1      40.713  31.072  34.360  1.00  0.00     0.034 A 
ATOM     54  C   UNL A   1      43.106  26.910  29.960  1.00  0.00     0.049 A 
ATOM     55  C   UNL A   1      41.821  30.052  34.399  1.00  0.00     0.074 A 
ATOM     56  C   UNL A   1      44.200  26.072  30.079  1.00  0.00     0.029 A 
ATOM     57  N   UNL A   1      42.980  27.576  31.168  1.00  0.00    -0.354 N 
ATOM     58  N   UNL A   1      42.272  29.285  33.437  1.00  0.00    -0.248 NA
ATOM     59  C   UNL A   1      42.528  29.887  35.678  1.00  0.00     0.031 C 
ATOM     60  C   UNL A   1      44.715  26.206  31.374  1.00  0.00     0.029 A 
ATOM     61  C   UNL A   1      43.963  27.154  32.048  1.00  0.00     0.049 A 
ATOM     62  H   UNL A   1      42.292  28.251  31.372  1.00  0.00     0.167 HD
ATOM     63  C   UNL A   1      43.334  28.570  33.982  1.00  0.00     0.074 A 
ATOM     64  C   UNL A   1      43.470  29.010  35.355  1.00  0.00     0.031 C 
ATOM     65  C   UNL A   1      44.118  27.628  33.401  1.00  0.00     0.034 A 
BRANCH  52  66
ATOM     66  C   UNL A   1      42.450  26.212  27.619  1.00  0.00     0.023 A 
ATOM     67  C   UNL A   1      43.178  26.720  26.524  1.00  0.00     0.012 A 
ATOM     68  C   UNL A   1      41.978  24.886  27.581  1.00  0.00     0.148 A 
ATOM     69  C   UNL A   1      43.402  25.931  25.395  1.00  0.00     0.002 A 
ATOM     70  C   UNL A   1      42.243  24.092  26.469  1.00  0.00     0.091 A 
ATOM     71  F   UNL A   1      41.265  24.430  28.620  1.00  0.00    -0.205 F 
ATOM     72  C   UNL A   1      42.944  24.617  25.372  1.00  0.00     0.022 A 
BRANCH  70  73
ATOM     73  S   UNL A   1      41.757  22.366  26.380  1.00  0.00     0.127 S 
ATOM     74  O   UNL A   1      42.403  21.942  25.139  1.00  0.00    -0.237 OA
ATOM     75  O   UNL A   1      42.353  21.814  27.598  1.00  0.00    -0.237 OA
ATOM     76  O   UNL A   1      40.301  22.360  26.363  1.00  0.00    -0.744 OA
ENDBRANCH  70  73
ENDBRANCH  52  66
BRANCH  53  77
ATOM     77  C   UNL A   1      40.354  31.858  35.573  1.00  0.00     0.023 A 
ATOM     78  C   UNL A   1      41.070  33.030  35.878  1.00  0.00     0.012 A 
ATOM     79  C   UNL A   1      39.277  31.474  36.397  1.00  0.00     0.148 A 
ATOM     80  C   UNL A   1      40.734  33.796  36.995  1.00  0.00     0.002 A 
ATOM     81  C   UNL A   1      38.911  32.272  37.474  1.00  0.00     0.091 A 
ATOM     82  F   UNL A   1      38.621  30.344  36.098  1.00  0.00    -0.205 F 
ATOM     83  C   UNL A   1      39.647  33.426  37.784  1.00  0.00     0.022 A 
BRANCH  81  84
ATOM     84  S   UNL A   1      37.449  31.947  38.465  1.00  0.00     0.127 S 
ATOM     85  O   UNL A   1      37.931  32.235  39.813  1.00  0.00    -0.237 OA
ATOM     86  O   UNL A   1      36.500  32.922  37.926  1.00  0.00    -0.237 OA
ATOM     87  O   UNL A   1      37.097  30.557  38.204  1.00  0.00    -0.744 OA
ENDBRANCH  81  84
ENDBRANCH  53  77
BRANCH  65  88
ATOM     88  C   UNL A   1      45.223  27.025  34.232  1.00  0.00     0.023 A 
ATOM     89  C   UNL A   1      46.498  27.623  34.249  1.00  0.00     0.012 A 
ATOM     90  C   UNL A   1      44.975  25.903  35.050  1.00  0.00     0.148 A 
ATOM     91  C   UNL A   1      47.519  27.094  35.040  1.00  0.00     0.002 A 
ATOM     92  C   UNL A   1      45.983  25.413  35.872  1.00  0.00     0.091 A 
ATOM     93  F   UNL A   1      43.761  25.337  35.007  1.00  0.00    -0.205 F 
ATOM     94  C   UNL A   1      47.259  25.999  35.858  1.00  0.00     0.022 A 
BRANCH  92  95
ATOM     95  S   UNL A   1      45.710  24.065  37.030  1.00  0.00     0.127 S 
ATOM     96  O   UNL A   1      44.647  24.609  37.874  1.00  0.00    -0.237 OA
ATOM     97  O   UNL A   1      45.292  22.977  36.147  1.00  0.00    -0.237 OA
ATOM     98  O   UNL A   1      46.987  23.845  37.696  1.00  0.00    -0.744 OA
ENDBRANCH  92  95
ENDBRANCH  65  88
ENDBRANCH  39  40
ENDBRANCH  32  34
ENDBRANCH  31  32
ENDBRANCH  30  31
ENDBRANCH  29  30
ENDBRANCH  28  29
ENDBRANCH   1  28
TORSDOF 22
ENDMDL
MODEL 3
REMARK VINA RESULT:     -10.7      1.919      2.472
REMARK SMILES O=C(N[C@@H]1C=C[C@@H](C(=O)OCCOCCOCCOC(=O)c2ccc(-c3c4nc(c(-c5cccc(S(=O)(=O)[O-])c5F)c5ccc([nH]5)c(-c5cccc(S(=O)(=O)[O-])c5F)c5nc(c(-c6cccc(S(=O)(=O)[O-])c6F)c6ccc3[nH]6)C=C5)C=C4)cc2)C1)c1ccc2ncccc2c1
REMARK SMILES IDX 15 1 14 2 13 3 12 4 11 5 10 6 8 7 9 8 7 9 4 10 5 11 85 12
REMARK SMILES IDX 6 13 3 14 1 15 2 16 86 18 87 19 95 20 88 21 94 22 89 23
REMARK SMILES IDX 93 24 90 25 92 26 91 27 16 28 17 29 18 30 19 31 20 32 21 33
REMARK SMILES IDX 22 34 23 35 84 36 24 37 83 38 25 39 26 40 27 41 77 42 28 43
REMARK SMILES IDX 82 44 76 45 78 46 29 47 81 48 75 49 74 50 30 52 62 53 42 54
REMARK SMILES IDX 61 55 43 56 46 57 60 58 79 59 44 60 45 61 59 63 80 64 47 65
REMARK SMILES IDX 31 66 32 67 40 68 33 69 35 70 41 71 34 72 36 73 37 74 38 75
REMARK SMILES IDX 39 76 63 77 64 78 72 79 65 80 67 81 73 82 66 83 68 84 69 85
REMARK SMILES IDX 70 86 71 87 48 88 49 89 57 90 50 91 52 92 58 93 51 94 53 95
REMARK SMILES IDX 54 96 55 97 56 98
REMARK H PARENT 3 17 78 51 46 62
REMARK Flexibility Score: inf
ROOT
ATOM      1  C   UNL A   1      32.069  29.794  26.578  1.00  0.00     0.188 C 
ENDROOT
BRANCH   1   2
ATOM      2  C   UNL A   1      31.698  29.017  25.298  1.00  0.00     0.188 C 
BRANCH   2   3
ATOM      3  O   UNL A   1      31.081  27.741  25.413  1.00  0.00    -0.376 OA
BRANCH   3   4
ATOM      4  C   UNL A   1      31.608  26.816  26.355  1.00  0.00     0.202 C 
BRANCH   4   5
ATOM      5  C   UNL A   1      31.469  25.319  26.040  1.00  0.00     0.261 C 
BRANCH   5   6
ATOM      6  O   UNL A   1      30.853  24.565  27.102  1.00  0.00    -0.463 OA
BRANCH   6   7
ATOM      7  C   UNL A   1      30.859  23.213  26.949  1.00  0.00     0.312 C 
ATOM      8  O   UNL A   1      29.919  22.489  27.265  1.00  0.00    -0.252 OA
BRANCH   7   9
ATOM      9  C   UNL A   1      32.116  22.690  26.235  1.00  0.00     0.124 C 
ATOM     10  C   UNL A   1      33.647  20.740  26.511  1.00  0.00     0.106 C 
ATOM     11  C   UNL A   1      32.541  20.471  25.542  1.00  0.00    -0.006 C 
ATOM     12  C   UNL A   1      33.244  22.095  27.095  1.00  0.00     0.048 C 
ATOM     13  C   UNL A   1      31.741  21.527  25.366  1.00  0.00    -0.014 C 
BRANCH  10  14
ATOM     14  N   UNL A   1      34.884  20.706  25.755  1.00  0.00    -0.346 N 
ATOM     15  O   UNL A   1      36.670  21.319  24.566  1.00  0.00    -0.269 OA
ATOM     16  C   UNL A   1      35.563  21.627  25.006  1.00  0.00     0.251 C 
ATOM     17  H   UNL A   1      35.331  19.830  25.788  1.00  0.00     0.164 HD
BRANCH  16  18
ATOM     18  C   UNL A   1      35.013  22.950  24.643  1.00  0.00     0.040 A 
ATOM     19  C   UNL A   1      35.259  24.111  25.369  1.00  0.00     0.016 A 
ATOM     20  C   UNL A   1      34.288  23.030  23.443  1.00  0.00     0.024 A 
ATOM     21  C   UNL A   1      34.749  25.334  24.908  1.00  0.00     0.030 A 
ATOM     22  C   UNL A   1      33.786  24.260  22.985  1.00  0.00     0.001 A 
ATOM     23  C   UNL A   1      34.014  25.433  23.731  1.00  0.00     0.070 A 
ATOM     24  C   UNL A   1      33.043  24.364  21.799  1.00  0.00     0.012 A 
ATOM     25  N   UNL A   1      33.539  26.627  23.350  1.00  0.00    -0.256 NA
ATOM     26  C   UNL A   1      32.534  25.597  21.411  1.00  0.00     0.021 A 
ATOM     27  C   UNL A   1      32.804  26.688  22.214  1.00  0.00     0.112 A 
ENDBRANCH  16  18
ENDBRANCH  10  14
ENDBRANCH   7   9
ENDBRANCH   6   7
ENDBRANCH   5   6
ENDBRANCH   4   5
ENDBRANCH   3   4
ENDBRANCH   2   3
ENDBRANCH   1   2
BRANCH   1  28
ATOM     28  O   UNL A   1      31.654  31.147  26.649  1.00  0.00    -0.376 OA
BRANCH  28  29
ATOM     29  C   UNL A   1      32.653  32.028  27.160  1.00  0.00     0.202 C 
BRANCH  29  30
ATOM     30  C   UNL A   1      32.136  33.445  27.441  1.00  0.00     0.261 C 
BRANCH  30  31
ATOM     31  O   UNL A   1      33.188  34.336  27.868  1.00  0.00    -0.460 OA
BRANCH  31  32
ATOM     32  C   UNL A   1      33.322  34.547  29.191  1.00  0.00     0.338 C 
ATOM     33  O   UNL A   1      32.573  35.198  29.910  1.00  0.00    -0.246 OA
BRANCH  32  34
ATOM     34  C   UNL A   1      34.546  33.868  29.663  1.00  0.00     0.060 A 
ATOM     35  C   UNL A   1      34.500  32.902  30.678  1.00  0.00     0.016 A 
ATOM     36  C   UNL A   1      35.774  34.255  29.132  1.00  0.00     0.016 A 
ATOM     37  C   UNL A   1      35.677  32.338  31.181  1.00  0.00     0.010 A 
ATOM     38  C   UNL A   1      36.950  33.688  29.632  1.00  0.00     0.010 A 
ATOM     39  C   UNL A   1      36.914  32.750  30.679  1.00  0.00    -0.014 A 
BRANCH  39  40
ATOM     40  C   UNL A   1      38.183  32.287  31.293  1.00  0.00     0.031 A 
ATOM     41  C   UNL A   1      38.922  31.132  30.677  1.00  0.00     0.074 A 
ATOM     42  C   UNL A   1      38.644  32.852  32.423  1.00  0.00     0.049 A 
ATOM     43  N   UNL A   1      39.956  30.473  31.128  1.00  0.00    -0.248 NA
ATOM     44  C   UNL A   1      38.424  30.656  29.375  1.00  0.00     0.031 C 
ATOM     45  C   UNL A   1      38.035  33.991  33.107  1.00  0.00     0.029 A 
ATOM     46  N   UNL A   1      39.705  32.503  33.223  1.00  0.00    -0.354 N 
ATOM     47  C   UNL A   1      40.208  29.475  30.194  1.00  0.00     0.074 A 
ATOM     48  C   UNL A   1      39.223  29.624  29.143  1.00  0.00     0.031 C 
ATOM     49  C   UNL A   1      38.703  34.219  34.250  1.00  0.00     0.029 A 
ATOM     50  C   UNL A   1      39.754  33.214  34.399  1.00  0.00     0.049 A 
ATOM     51  H   UNL A   1      40.365  31.815  32.978  1.00  0.00     0.167 HD
ATOM     52  C   UNL A   1      41.168  28.521  30.209  1.00  0.00     0.034 A 
ATOM     53  C   UNL A   1      40.521  33.043  35.494  1.00  0.00     0.034 A 
ATOM     54  C   UNL A   1      42.147  28.374  31.255  1.00  0.00     0.049 A 
ATOM     55  C   UNL A   1      41.552  31.944  35.513  1.00  0.00     0.074 A 
ATOM     56  C   UNL A   1      43.185  27.464  31.340  1.00  0.00     0.029 A 
ATOM     57  N   UNL A   1      42.193  29.141  32.409  1.00  0.00    -0.354 N 
ATOM     58  N   UNL A   1      41.845  31.072  34.581  1.00  0.00    -0.248 NA
ATOM     59  C   UNL A   1      42.372  31.823  36.728  1.00  0.00     0.031 C 
ATOM     60  C   UNL A   1      43.838  27.656  32.563  1.00  0.00     0.029 A 
ATOM     61  C   UNL A   1      43.228  28.711  33.223  1.00  0.00     0.049 A 
ATOM     62  H   UNL A   1      41.580  29.882  32.620  1.00  0.00     0.167 HD
ATOM     63  C   UNL A   1      42.904  30.319  35.080  1.00  0.00     0.074 A 
ATOM     64  C   UNL A   1      43.210  30.852  36.391  1.00  0.00     0.031 C 
ATOM     65  C   UNL A   1      43.555  29.275  34.509  1.00  0.00     0.034 A 
BRANCH  52  66
ATOM     66  C   UNL A   1      41.207  27.552  29.057  1.00  0.00     0.023 A 
ATOM     67  C   UNL A   1      40.357  26.426  29.058  1.00  0.00     0.012 A 
ATOM     68  C   UNL A   1      42.053  27.777  27.955  1.00  0.00     0.148 A 
ATOM     69  C   UNL A   1      40.375  25.523  27.994  1.00  0.00     0.002 A 
ATOM     70  C   UNL A   1      42.035  26.895  26.879  1.00  0.00     0.091 A 
ATOM     71  F   UNL A   1      42.873  28.838  27.984  1.00  0.00    -0.205 F 
ATOM     72  C   UNL A   1      41.205  25.763  26.902  1.00  0.00     0.022 A 
BRANCH  70  73
ATOM     73  S   UNL A   1      43.014  27.161  25.397  1.00  0.00     0.127 S 
ATOM     74  O   UNL A   1      42.901  25.864  24.733  1.00  0.00    -0.237 OA
ATOM     75  O   UNL A   1      42.290  28.249  24.739  1.00  0.00    -0.237 OA
ATOM     76  O   UNL A   1      44.349  27.515  25.859  1.00  0.00    -0.744 OA
ENDBRANCH  70  73
ENDBRANCH  52  66
BRANCH  53  77
ATOM     77  C   UNL A   1      40.345  33.947  36.665  1.00  0.00     0.023 A 
ATOM     78  C   UNL A   1      40.804  35.276  36.591  1.00  0.00     0.012 A 
ATOM     79  C   UNL A   1      39.684  33.510  37.830  1.00  0.00     0.148 A 
ATOM     80  C   UNL A   1      40.625  36.148  37.666  1.00  0.00     0.002 A 
ATOM     81  C   UNL A   1      39.460  34.399  38.874  1.00  0.00     0.091 A 
ATOM     82  F   UNL A   1      39.272  32.235  37.885  1.00  0.00    -0.205 F 
ATOM     83  C   UNL A   1      39.942  35.715  38.800  1.00  0.00     0.022 A 
BRANCH  81  84
ATOM     84  S   UNL A   1      38.476  33.971  40.314  1.00  0.00     0.127 S 
ATOM     85  O   UNL A   1      37.265  33.435  39.700  1.00  0.00    -0.237 OA
ATOM     86  O   UNL A   1      39.327  32.978  40.971  1.00  0.00    -0.237 OA
ATOM     87  O   UNL A   1      38.310  35.210  41.061  1.00  0.00    -0.744 OA
ENDBRANCH  81  84
ENDBRANCH  53  77
BRANCH  65  88
ATOM     88  C   UNL A   1      44.693  28.652  35.278  1.00  0.00     0.023 A 
ATOM     89  C   UNL A   1      46.012  29.104  35.074  1.00  0.00     0.012 A 
ATOM     90  C   UNL A   1      44.444  27.665  36.254  1.00  0.00     0.148 A 
ATOM     91  C   UNL A   1      47.069  28.559  35.804  1.00  0.00     0.002 A 
ATOM     92  C   UNL A   1      45.497  27.164  37.012  1.00  0.00     0.091 A 
ATOM     93  F   UNL A   1      43.185  27.235  36.422  1.00  0.00    -0.205 F 
ATOM     94  C   UNL A   1      46.810  27.599  36.779  1.00  0.00     0.022 A 
BRANCH  92  95
ATOM     95  S   UNL A   1      45.244  25.995  38.354  1.00  0.00     0.127 S 
ATOM     96  O   UNL A   1      44.895  24.777  37.626  1.00  0.00    -0.237 OA
ATOM     97  O   UNL A   1      46.560  25.968  38.994  1.00  0.00    -0.237 OA
ATOM     98  O   UNL A   1      44.184  26.556  39.180  1.00  0.00    -0.744 OA
ENDBRANCH  92  95
ENDBRANCH  65  88
ENDBRANCH  39  40
ENDBRANCH  32  34
ENDBRANCH  31  32
ENDBRANCH  30  31
ENDBRANCH  29  30
ENDBRANCH  28  29
ENDBRANCH   1  28
TORSDOF 22
ENDMDL
