MODEL 1
REMARK VINA RESULT:      -8.8      0.000      0.000
REMARK SMILES O=C(C[NH2+]C[C@@H]1CCCO1)OCCOCCOCCOC(=O)c1ccc(-c2c3nc(c(-c4cccc(S(=O)(=O)[O-])c4F)c4ccc([nH]4)c(-c4cccc(S(=O)(=O)[O-])c4F)c4nc(c(-c5cccc(S(=O)(=O)[O-])c5F)c5ccc2[nH]5)C=C4)C=C3)cc1
REMARK SMILES IDX 15 1 14 2 13 3 12 4 11 5 2 6 1 7 3 8 4 9 5 12 6 13 7 14
REMARK SMILES IDX 10 15 8 16 9 17 16 18 17 19 18 20 19 21 20 22 21 23 22 24
REMARK SMILES IDX 23 25 24 26 85 27 25 28 84 29 26 30 27 31 28 32 78 33 29 34
REMARK SMILES IDX 83 35 77 36 79 37 30 38 82 39 76 40 75 41 31 43 63 44 43 45
REMARK SMILES IDX 62 46 44 47 47 48 61 49 80 50 45 51 46 52 60 54 81 55 48 56
REMARK SMILES IDX 32 57 33 58 41 59 34 60 36 61 42 62 35 63 37 64 38 65 39 66
REMARK SMILES IDX 40 67 64 68 65 69 73 70 66 71 68 72 74 73 67 74 69 75 70 76
REMARK SMILES IDX 71 77 72 78 49 79 50 80 58 81 51 82 53 83 59 84 52 85 54 86
REMARK SMILES IDX 55 87 56 88 57 89
REMARK H PARENT 4 10 4 11 79 42 47 53
REMARK Flexibility Score: inf
ROOT
ATOM      1  C   UNL A   1      44.566  42.464  25.830  1.00  0.00     0.188 C 
ENDROOT
BRANCH   1   2
ATOM      2  O   UNL A   1      45.163  42.119  24.589  1.00  0.00    -0.376 OA
BRANCH   2   3
ATOM      3  C   UNL A   1      45.003  43.089  23.569  1.00  0.00     0.202 C 
BRANCH   3   4
ATOM      4  C   UNL A   1      43.528  43.453  23.454  1.00  0.00     0.261 C 
BRANCH   4   5
ATOM      5  O   UNL A   1      43.061  43.674  22.106  1.00  0.00    -0.459 OA
BRANCH   5   6
ATOM      6  C   UNL A   1      41.872  43.253  21.615  1.00  0.00     0.361 C 
ATOM      7  O   UNL A   1      41.060  42.708  22.361  1.00  0.00    -0.245 OA
BRANCH   6   8
ATOM      8  C   UNL A   1      41.642  43.318  20.113  1.00  0.00     0.384 C 
BRANCH   8   9
ATOM      9  N   UNL A   1      42.778  42.804  19.334  1.00  0.00    -0.335 N 
ATOM     10  H   UNL A   1      42.596  41.830  19.093  1.00  0.00     0.346 HD
ATOM     11  H   UNL A   1      43.614  42.898  19.910  1.00  0.00     0.346 HD
BRANCH   9  12
ATOM     12  C   UNL A   1      43.003  43.565  18.089  1.00  0.00     0.293 C 
BRANCH  12  13
ATOM     13  C   UNL A   1      42.370  44.963  18.005  1.00  0.00     0.173 C 
ATOM     14  C   UNL A   1      41.870  45.275  16.602  1.00  0.00     0.040 C 
ATOM     15  O   UNL A   1      43.348  45.953  18.350  1.00  0.00    -0.372 OA
ATOM     16  C   UNL A   1      42.084  46.758  16.527  1.00  0.00     0.031 C 
ATOM     17  C   UNL A   1      43.374  46.933  17.291  1.00  0.00     0.161 C 
ENDBRANCH  12  13
ENDBRANCH   9  12
ENDBRANCH   8   9
ENDBRANCH   6   8
ENDBRANCH   5   6
ENDBRANCH   4   5
ENDBRANCH   3   4
ENDBRANCH   2   3
ENDBRANCH   1   2
BRANCH   1  18
ATOM     18  C   UNL A   1      43.890  41.248  26.478  1.00  0.00     0.188 C 
BRANCH  18  19
ATOM     19  O   UNL A   1      43.607  41.285  27.873  1.00  0.00    -0.376 OA
BRANCH  19  20
ATOM     20  C   UNL A   1      44.355  40.446  28.747  1.00  0.00     0.202 C 
BRANCH  20  21
ATOM     21  C   UNL A   1      45.203  39.352  28.098  1.00  0.00     0.261 C 
BRANCH  21  22
ATOM     22  O   UNL A   1      44.747  38.012  28.372  1.00  0.00    -0.460 OA
BRANCH  22  23
ATOM     23  C   UNL A   1      45.576  37.281  29.161  1.00  0.00     0.338 C 
ATOM     24  O   UNL A   1      46.314  37.697  30.036  1.00  0.00    -0.246 OA
BRANCH  23  25
ATOM     25  C   UNL A   1      45.431  35.838  28.892  1.00  0.00     0.060 A 
ATOM     26  C   UNL A   1      44.556  35.426  27.878  1.00  0.00     0.016 A 
ATOM     27  C   UNL A   1      45.998  34.900  29.754  1.00  0.00     0.016 A 
ATOM     28  C   UNL A   1      44.221  34.073  27.744  1.00  0.00     0.010 A 
ATOM     29  C   UNL A   1      45.657  33.547  29.619  1.00  0.00     0.010 A 
ATOM     30  C   UNL A   1      44.743  33.125  28.634  1.00  0.00    -0.014 A 
BRANCH  30  31
ATOM     31  C   UNL A   1      44.288  31.707  28.618  1.00  0.00     0.031 A 
ATOM     32  C   UNL A   1      44.975  30.706  27.725  1.00  0.00     0.074 A 
ATOM     33  C   UNL A   1      43.234  31.301  29.349  1.00  0.00     0.049 A 
ATOM     34  N   UNL A   1      44.635  29.470  27.465  1.00  0.00    -0.248 NA
ATOM     35  C   UNL A   1      46.222  31.137  27.074  1.00  0.00     0.031 C 
ATOM     36  C   UNL A   1      42.523  32.104  30.340  1.00  0.00     0.029 A 
ATOM     37  N   UNL A   1      42.535  30.114  29.317  1.00  0.00    -0.354 N 
ATOM     38  C   UNL A   1      45.630  28.964  26.641  1.00  0.00     0.074 A 
ATOM     39  C   UNL A   1      46.570  30.042  26.410  1.00  0.00     0.031 C 
ATOM     40  C   UNL A   1      41.428  31.430  30.735  1.00  0.00     0.029 A 
ATOM     41  C   UNL A   1      41.331  30.192  29.978  1.00  0.00     0.049 A 
ATOM     42  H   UNL A   1      42.862  29.301  28.870  1.00  0.00     0.167 HD
ATOM     43  C   UNL A   1      45.769  27.707  26.158  1.00  0.00     0.034 A 
ATOM     44  C   UNL A   1      40.241  29.402  29.922  1.00  0.00     0.034 A 
ATOM     45  C   UNL A   1      44.848  26.628  26.398  1.00  0.00     0.049 A 
ATOM     46  C   UNL A   1      40.307  28.098  29.184  1.00  0.00     0.074 A 
ATOM     47  C   UNL A   1      44.972  25.294  26.044  1.00  0.00     0.029 A 
ATOM     48  N   UNL A   1      43.617  26.761  27.014  1.00  0.00    -0.354 N 
ATOM     49  N   UNL A   1      41.317  27.577  28.537  1.00  0.00    -0.248 NA
ATOM     50  C   UNL A   1      39.113  27.242  29.235  1.00  0.00     0.031 C 
ATOM     51  C   UNL A   1      43.797  24.629  26.412  1.00  0.00     0.029 A 
ATOM     52  C   UNL A   1      42.950  25.546  27.012  1.00  0.00     0.049 A 
ATOM     53  H   UNL A   1      43.265  27.597  27.398  1.00  0.00     0.167 HD
ATOM     54  C   UNL A   1      40.909  26.301  28.168  1.00  0.00     0.074 A 
ATOM     55  C   UNL A   1      39.551  26.139  28.643  1.00  0.00     0.031 C 
ATOM     56  C   UNL A   1      41.616  25.350  27.513  1.00  0.00     0.034 A 
BRANCH  43  57
ATOM     57  C   UNL A   1      47.003  27.395  25.360  1.00  0.00     0.023 A 
ATOM     58  C   UNL A   1      47.023  27.691  23.982  1.00  0.00     0.012 A 
ATOM     59  C   UNL A   1      48.168  26.917  25.988  1.00  0.00     0.148 A 
ATOM     60  C   UNL A   1      48.186  27.506  23.237  1.00  0.00     0.002 A 
ATOM     61  C   UNL A   1      49.332  26.765  25.244  1.00  0.00     0.091 A 
ATOM     62  F   UNL A   1      48.115  26.628  27.295  1.00  0.00    -0.205 F 
ATOM     63  C   UNL A   1      49.342  27.054  23.869  1.00  0.00     0.022 A 
BRANCH  61  64
ATOM     64  S   UNL A   1      50.888  26.250  25.976  1.00  0.00     0.127 S 
ATOM     65  O   UNL A   1      51.181  27.373  26.865  1.00  0.00    -0.237 OA
ATOM     66  O   UNL A   1      50.511  25.013  26.660  1.00  0.00    -0.237 OA
ATOM     67  O   UNL A   1      51.818  26.076  24.868  1.00  0.00    -0.744 OA
ENDBRANCH  61  64
ENDBRANCH  43  57
BRANCH  44  68
ATOM     68  C   UNL A   1      38.964  29.829  30.552  1.00  0.00     0.023 A 
ATOM     69  C   UNL A   1      38.614  29.353  31.826  1.00  0.00     0.012 A 
ATOM     70  C   UNL A   1      38.066  30.662  29.852  1.00  0.00     0.148 A 
ATOM     71  C   UNL A   1      37.378  29.679  32.386  1.00  0.00     0.002 A 
ATOM     72  C   UNL A   1      36.842  30.994  30.421  1.00  0.00     0.091 A 
ATOM     73  F   UNL A   1      38.417  31.094  28.632  1.00  0.00    -0.205 F 
ATOM     74  C   UNL A   1      36.496  30.502  31.689  1.00  0.00     0.022 A 
BRANCH  72  75
ATOM     75  S   UNL A   1      35.679  32.104  29.615  1.00  0.00     0.127 S 
ATOM     76  O   UNL A   1      34.620  32.213  30.612  1.00  0.00    -0.237 OA
ATOM     77  O   UNL A   1      36.484  33.312  29.431  1.00  0.00    -0.237 OA
ATOM     78  O   UNL A   1      35.320  31.443  28.366  1.00  0.00    -0.744 OA
ENDBRANCH  72  75
ENDBRANCH  44  68
BRANCH  56  79
ATOM     79  C   UNL A   1      40.962  24.011  27.309  1.00  0.00     0.023 A 
ATOM     80  C   UNL A   1      41.483  22.870  27.950  1.00  0.00     0.012 A 
ATOM     81  C   UNL A   1      39.804  23.891  26.516  1.00  0.00     0.148 A 
ATOM     82  C   UNL A   1      40.879  21.625  27.781  1.00  0.00     0.002 A 
ATOM     83  C   UNL A   1      39.180  22.656  26.387  1.00  0.00     0.091 A 
ATOM     84  F   UNL A   1      39.337  24.985  25.896  1.00  0.00    -0.205 F 
ATOM     85  C   UNL A   1      39.723  21.520  27.011  1.00  0.00     0.022 A 
BRANCH  83  86
ATOM     86  S   UNL A   1      37.643  22.439  25.484  1.00  0.00     0.127 S 
ATOM     87  O   UNL A   1      37.681  21.013  25.167  1.00  0.00    -0.237 OA
ATOM     88  O   UNL A   1      36.641  22.817  26.481  1.00  0.00    -0.237 OA
ATOM     89  O   UNL A   1      37.721  23.335  24.338  1.00  0.00    -0.744 OA
ENDBRANCH  83  86
ENDBRANCH  56  79
ENDBRANCH  30  31
ENDBRANCH  23  25
ENDBRANCH  22  23
ENDBRANCH  21  22
ENDBRANCH  20  21
ENDBRANCH  19  20
ENDBRANCH  18  19
ENDBRANCH   1  18
TORSDOF 23
ENDMDL
MODEL 2
REMARK VINA RESULT:      -8.6      1.818      2.092
REMARK SMILES O=C(C[NH2+]C[C@@H]1CCCO1)OCCOCCOCCOC(=O)c1ccc(-c2c3nc(c(-c4cccc(S(=O)(=O)[O-])c4F)c4ccc([nH]4)c(-c4cccc(S(=O)(=O)[O-])c4F)c4nc(c(-c5cccc(S(=O)(=O)[O-])c5F)c5ccc2[nH]5)C=C4)C=C3)cc1
REMARK SMILES IDX 15 1 14 2 13 3 12 4 11 5 2 6 1 7 3 8 4 9 5 12 6 13 7 14
REMARK SMILES IDX 10 15 8 16 9 17 16 18 17 19 18 20 19 21 20 22 21 23 22 24
REMARK SMILES IDX 23 25 24 26 85 27 25 28 84 29 26 30 27 31 28 32 78 33 29 34
REMARK SMILES IDX 83 35 77 36 79 37 30 38 82 39 76 40 75 41 31 43 63 44 43 45
REMARK SMILES IDX 62 46 44 47 47 48 61 49 80 50 45 51 46 52 60 54 81 55 48 56
REMARK SMILES IDX 32 57 33 58 41 59 34 60 36 61 42 62 35 63 37 64 38 65 39 66
REMARK SMILES IDX 40 67 64 68 65 69 73 70 66 71 68 72 74 73 67 74 69 75 70 76
REMARK SMILES IDX 71 77 72 78 49 79 50 80 58 81 51 82 53 83 59 84 52 85 54 86
REMARK SMILES IDX 55 87 56 88 57 89
REMARK H PARENT 4 10 4 11 79 42 47 53
REMARK Flexibility Score: inf
ROOT
ATOM      1  C   UNL A   1      44.524  42.610  25.691  1.00  0.00     0.188 C 
ENDROOT
BRANCH   1   2
ATOM      2  O   UNL A   1      45.288  42.407  24.511  1.00  0.00    -0.376 OA
BRANCH   2   3
ATOM      3  C   UNL A   1      45.045  43.352  23.484  1.00  0.00     0.202 C 
BRANCH   3   4
ATOM      4  C   UNL A   1      43.543  43.468  23.256  1.00  0.00     0.261 C 
BRANCH   4   5
ATOM      5  O   UNL A   1      43.146  43.584  21.873  1.00  0.00    -0.459 OA
BRANCH   5   6
ATOM      6  C   UNL A   1      41.911  43.310  21.392  1.00  0.00     0.361 C 
ATOM      7  O   UNL A   1      41.041  42.881  22.148  1.00  0.00    -0.245 OA
BRANCH   6   8
ATOM      8  C   UNL A   1      41.683  43.384  19.890  1.00  0.00     0.384 C 
BRANCH   8   9
ATOM      9  N   UNL A   1      42.845  42.936  19.109  1.00  0.00    -0.335 N 
ATOM     10  H   UNL A   1      42.715  41.956  18.860  1.00  0.00     0.346 HD
ATOM     11  H   UNL A   1      43.675  43.069  19.686  1.00  0.00     0.346 HD
BRANCH   9  12
ATOM     12  C   UNL A   1      43.032  43.717  17.869  1.00  0.00     0.293 C 
BRANCH  12  13
ATOM     13  C   UNL A   1      42.339  45.088  17.801  1.00  0.00     0.173 C 
ATOM     14  C   UNL A   1      41.820  45.391  16.403  1.00  0.00     0.040 C 
ATOM     15  O   UNL A   1      43.275  46.116  18.152  1.00  0.00    -0.372 OA
ATOM     16  C   UNL A   1      41.970  46.882  16.341  1.00  0.00     0.031 C 
ATOM     17  C   UNL A   1      43.255  47.105  17.102  1.00  0.00     0.161 C 
ENDBRANCH  12  13
ENDBRANCH   9  12
ENDBRANCH   8   9
ENDBRANCH   6   8
ENDBRANCH   5   6
ENDBRANCH   4   5
ENDBRANCH   3   4
ENDBRANCH   2   3
ENDBRANCH   1   2
BRANCH   1  18
ATOM     18  C   UNL A   1      43.982  41.283  26.237  1.00  0.00     0.188 C 
BRANCH  18  19
ATOM     19  O   UNL A   1      43.507  41.237  27.579  1.00  0.00    -0.376 OA
BRANCH  19  20
ATOM     20  C   UNL A   1      44.202  40.433  28.525  1.00  0.00     0.202 C 
BRANCH  20  21
ATOM     21  C   UNL A   1      45.132  39.355  27.967  1.00  0.00     0.261 C 
BRANCH  21  22
ATOM     22  O   UNL A   1      44.667  38.007  28.181  1.00  0.00    -0.460 OA
BRANCH  22  23
ATOM     23  C   UNL A   1      45.383  37.298  29.091  1.00  0.00     0.338 C 
ATOM     24  O   UNL A   1      45.995  37.738  30.049  1.00  0.00    -0.246 OA
BRANCH  23  25
ATOM     25  C   UNL A   1      45.278  35.849  28.839  1.00  0.00     0.060 A 
ATOM     26  C   UNL A   1      44.612  35.411  27.687  1.00  0.00     0.016 A 
ATOM     27  C   UNL A   1      45.660  34.933  29.820  1.00  0.00     0.016 A 
ATOM     28  C   UNL A   1      44.296  34.056  27.528  1.00  0.00     0.010 A 
ATOM     29  C   UNL A   1      45.338  33.578  29.658  1.00  0.00     0.010 A 
ATOM     30  C   UNL A   1      44.628  33.132  28.527  1.00  0.00    -0.014 A 
BRANCH  30  31
ATOM     31  C   UNL A   1      44.171  31.716  28.462  1.00  0.00     0.031 A 
ATOM     32  C   UNL A   1      44.904  30.728  27.594  1.00  0.00     0.074 A 
ATOM     33  C   UNL A   1      43.076  31.302  29.126  1.00  0.00     0.049 A 
ATOM     34  N   UNL A   1      44.576  29.497  27.295  1.00  0.00    -0.248 NA
ATOM     35  C   UNL A   1      46.187  31.164  27.021  1.00  0.00     0.031 C 
ATOM     36  C   UNL A   1      42.312  32.092  30.088  1.00  0.00     0.029 A 
ATOM     37  N   UNL A   1      42.377  30.119  29.035  1.00  0.00    -0.354 N 
ATOM     38  C   UNL A   1      45.614  29.002  26.519  1.00  0.00     0.074 A 
ATOM     39  C   UNL A   1      46.569  30.079  26.359  1.00  0.00     0.031 C 
ATOM     40  C   UNL A   1      41.195  31.415  30.409  1.00  0.00     0.029 A 
ATOM     41  C   UNL A   1      41.137  30.190  29.628  1.00  0.00     0.049 A 
ATOM     42  H   UNL A   1      42.725  29.312  28.594  1.00  0.00     0.167 HD
ATOM     43  C   UNL A   1      45.778  27.752  26.025  1.00  0.00     0.034 A 
ATOM     44  C   UNL A   1      40.050  29.405  29.498  1.00  0.00     0.034 A 
ATOM     45  C   UNL A   1      44.841  26.672  26.194  1.00  0.00     0.049 A 
ATOM     46  C   UNL A   1      40.154  28.113  28.744  1.00  0.00     0.074 A 
ATOM     47  C   UNL A   1      44.982  25.344  25.826  1.00  0.00     0.029 A 
ATOM     48  N   UNL A   1      43.578  26.800  26.742  1.00  0.00    -0.354 N 
ATOM     49  N   UNL A   1      41.198  27.599  28.146  1.00  0.00    -0.248 NA
ATOM     50  C   UNL A   1      38.957  27.260  28.713  1.00  0.00     0.031 C 
ATOM     51  C   UNL A   1      43.786  24.677  26.117  1.00  0.00     0.029 A 
ATOM     52  C   UNL A   1      42.909  25.587  26.683  1.00  0.00     0.049 A 
ATOM     53  H   UNL A   1      43.207  27.630  27.119  1.00  0.00     0.167 HD
ATOM     54  C   UNL A   1      40.807  26.331  27.734  1.00  0.00     0.074 A 
ATOM     55  C   UNL A   1      39.424  26.165  28.128  1.00  0.00     0.031 C 
ATOM     56  C   UNL A   1      41.548  25.387  27.104  1.00  0.00     0.034 A 
BRANCH  43  57
ATOM     57  C   UNL A   1      47.054  27.448  25.293  1.00  0.00     0.023 A 
ATOM     58  C   UNL A   1      48.062  26.709  25.946  1.00  0.00     0.012 A 
ATOM     59  C   UNL A   1      47.210  27.795  23.938  1.00  0.00     0.148 A 
ATOM     60  C   UNL A   1      49.212  26.327  25.261  1.00  0.00     0.002 A 
ATOM     61  C   UNL A   1      48.347  27.383  23.253  1.00  0.00     0.091 A 
ATOM     62  F   UNL A   1      46.244  28.512  23.348  1.00  0.00    -0.205 F 
ATOM     63  C   UNL A   1      49.350  26.654  23.914  1.00  0.00     0.022 A 
BRANCH  61  64
ATOM     64  S   UNL A   1      48.591  27.698  21.503  1.00  0.00     0.127 S 
ATOM     65  O   UNL A   1      48.908  26.360  21.006  1.00  0.00    -0.237 OA
ATOM     66  O   UNL A   1      47.279  28.204  21.097  1.00  0.00    -0.237 OA
ATOM     67  O   UNL A   1      49.674  28.667  21.414  1.00  0.00    -0.744 OA
ENDBRANCH  61  64
ENDBRANCH  43  57
BRANCH  44  68
ATOM     68  C   UNL A   1      38.740  29.827  30.061  1.00  0.00     0.023 A 
ATOM     69  C   UNL A   1      38.379  29.443  31.363  1.00  0.00     0.012 A 
ATOM     70  C   UNL A   1      37.826  30.557  29.274  1.00  0.00     0.148 A 
ATOM     71  C   UNL A   1      37.116  29.760  31.867  1.00  0.00     0.002 A 
ATOM     72  C   UNL A   1      36.575  30.881  29.787  1.00  0.00     0.091 A 
ATOM     73  F   UNL A   1      38.189  30.901  28.030  1.00  0.00    -0.205 F 
ATOM     74  C   UNL A   1      36.218  30.482  31.083  1.00  0.00     0.022 A 
BRANCH  72  75
ATOM     75  S   UNL A   1      35.387  31.869  28.865  1.00  0.00     0.127 S 
ATOM     76  O   UNL A   1      34.415  32.215  29.894  1.00  0.00    -0.237 OA
ATOM     77  O   UNL A   1      36.212  32.980  28.391  1.00  0.00    -0.237 OA
ATOM     78  O   UNL A   1      34.910  30.996  27.798  1.00  0.00    -0.744 OA
ENDBRANCH  72  75
ENDBRANCH  44  68
BRANCH  56  79
ATOM     79  C   UNL A   1      40.903  24.055  26.842  1.00  0.00     0.023 A 
ATOM     80  C   UNL A   1      39.539  23.990  26.499  1.00  0.00     0.012 A 
ATOM     81  C   UNL A   1      41.661  22.868  26.894  1.00  0.00     0.148 A 
ATOM     82  C   UNL A   1      38.931  22.762  26.240  1.00  0.00     0.002 A 
ATOM     83  C   UNL A   1      41.060  21.652  26.591  1.00  0.00     0.091 A 
ATOM     84  F   UNL A   1      42.953  22.948  27.245  1.00  0.00    -0.205 F 
ATOM     85  C   UNL A   1      39.692  21.596  26.275  1.00  0.00     0.022 A 
BRANCH  83  86
ATOM     86  S   UNL A   1      41.978  20.110  26.530  1.00  0.00     0.127 S 
ATOM     87  O   UNL A   1      41.890  19.653  27.916  1.00  0.00    -0.237 OA
ATOM     88  O   UNL A   1      41.198  19.320  25.576  1.00  0.00    -0.237 OA
ATOM     89  O   UNL A   1      43.317  20.457  26.072  1.00  0.00    -0.744 OA
ENDBRANCH  83  86
ENDBRANCH  56  79
ENDBRANCH  30  31
ENDBRANCH  23  25
ENDBRANCH  22  23
ENDBRANCH  21  22
ENDBRANCH  20  21
ENDBRANCH  19  20
ENDBRANCH  18  19
ENDBRANCH   1  18
TORSDOF 23
ENDMDL
MODEL 3
REMARK VINA RESULT:      -8.2      7.730     13.089
REMARK SMILES O=C(C[NH2+]C[C@@H]1CCCO1)OCCOCCOCCOC(=O)c1ccc(-c2c3nc(c(-c4cccc(S(=O)(=O)[O-])c4F)c4ccc([nH]4)c(-c4cccc(S(=O)(=O)[O-])c4F)c4nc(c(-c5cccc(S(=O)(=O)[O-])c5F)c5ccc2[nH]5)C=C4)C=C3)cc1
REMARK SMILES IDX 15 1 14 2 13 3 12 4 11 5 2 6 1 7 3 8 4 9 5 12 6 13 7 14
REMARK SMILES IDX 10 15 8 16 9 17 16 18 17 19 18 20 19 21 20 22 21 23 22 24
REMARK SMILES IDX 23 25 24 26 85 27 25 28 84 29 26 30 27 31 28 32 78 33 29 34
REMARK SMILES IDX 83 35 77 36 79 37 30 38 82 39 76 40 75 41 31 43 63 44 43 45
REMARK SMILES IDX 62 46 44 47 47 48 61 49 80 50 45 51 46 52 60 54 81 55 48 56
REMARK SMILES IDX 32 57 33 58 41 59 34 60 36 61 42 62 35 63 37 64 38 65 39 66
REMARK SMILES IDX 40 67 64 68 65 69 73 70 66 71 68 72 74 73 67 74 69 75 70 76
REMARK SMILES IDX 71 77 72 78 49 79 50 80 58 81 51 82 53 83 59 84 52 85 54 86
REMARK SMILES IDX 55 87 56 88 57 89
REMARK H PARENT 4 10 4 11 79 42 47 53
REMARK Flexibility Score: inf
ROOT
ATOM      1  C   UNL A   1      42.270  42.677  22.506  1.00  0.00     0.188 C 
ENDROOT
BRANCH   1   2
ATOM      2  O   UNL A   1      43.007  43.040  23.665  1.00  0.00    -0.376 OA
BRANCH   2   3
ATOM      3  C   UNL A   1      42.987  42.073  24.701  1.00  0.00     0.202 C 
BRANCH   3   4
ATOM      4  C   UNL A   1      41.668  41.313  24.649  1.00  0.00     0.261 C 
BRANCH   4   5
ATOM      5  O   UNL A   1      40.994  41.181  25.920  1.00  0.00    -0.459 OA
BRANCH   5   6
ATOM      6  C   UNL A   1      41.311  40.279  26.878  1.00  0.00     0.361 C 
ATOM      7  O   UNL A   1      41.687  39.152  26.559  1.00  0.00    -0.245 OA
BRANCH   6   8
ATOM      8  C   UNL A   1      41.035  40.636  28.331  1.00  0.00     0.384 C 
BRANCH   8   9
ATOM      9  N   UNL A   1      42.247  41.021  29.069  1.00  0.00    -0.335 N 
ATOM     10  H   UNL A   1      42.349  42.035  29.024  1.00  0.00     0.346 HD
ATOM     11  H   UNL A   1      43.037  40.545  28.635  1.00  0.00     0.346 HD
BRANCH   9  12
ATOM     12  C   UNL A   1      42.202  40.614  30.487  1.00  0.00     0.293 C 
BRANCH  12  13
ATOM     13  C   UNL A   1      43.006  41.467  31.481  1.00  0.00     0.173 C 
ATOM     14  C   UNL A   1      42.163  41.893  32.674  1.00  0.00     0.040 C 
ATOM     15  O   UNL A   1      43.468  42.657  30.826  1.00  0.00    -0.372 OA
ATOM     16  C   UNL A   1      42.755  43.231  33.002  1.00  0.00     0.031 C 
ATOM     17  C   UNL A   1      43.068  43.785  31.632  1.00  0.00     0.161 C 
ENDBRANCH  12  13
ENDBRANCH   9  12
ENDBRANCH   8   9
ENDBRANCH   6   8
ENDBRANCH   5   6
ENDBRANCH   4   5
ENDBRANCH   3   4
ENDBRANCH   2   3
ENDBRANCH   1   2
BRANCH   1  18
ATOM     18  C   UNL A   1      43.098  42.891  21.232  1.00  0.00     0.188 C 
BRANCH  18  19
ATOM     19  O   UNL A   1      44.357  42.236  21.116  1.00  0.00    -0.376 OA
BRANCH  19  20
ATOM     20  C   UNL A   1      45.546  42.995  21.302  1.00  0.00     0.202 C 
BRANCH  20  21
ATOM     21  C   UNL A   1      46.325  42.755  22.595  1.00  0.00     0.261 C 
BRANCH  21  22
ATOM     22  O   UNL A   1      47.298  43.776  22.896  1.00  0.00    -0.460 OA
BRANCH  22  23
ATOM     23  C   UNL A   1      46.885  44.707  23.794  1.00  0.00     0.338 C 
ATOM     24  O   UNL A   1      46.536  45.851  23.559  1.00  0.00    -0.246 OA
BRANCH  23  25
ATOM     25  C   UNL A   1      46.820  44.142  25.155  1.00  0.00     0.060 A 
ATOM     26  C   UNL A   1      47.913  43.407  25.632  1.00  0.00     0.016 A 
ATOM     27  C   UNL A   1      45.625  44.171  25.874  1.00  0.00     0.016 A 
ATOM     28  C   UNL A   1      47.802  42.670  26.818  1.00  0.00     0.010 A 
ATOM     29  C   UNL A   1      45.517  43.429  27.058  1.00  0.00     0.010 A 
ATOM     30  C   UNL A   1      46.592  42.648  27.525  1.00  0.00    -0.014 A 
BRANCH  30  31
ATOM     31  C   UNL A   1      46.393  41.756  28.700  1.00  0.00     0.031 A 
ATOM     32  C   UNL A   1      45.713  40.423  28.527  1.00  0.00     0.074 A 
ATOM     33  C   UNL A   1      46.764  42.134  29.938  1.00  0.00     0.049 A 
ATOM     34  N   UNL A   1      45.322  39.577  29.444  1.00  0.00    -0.248 NA
ATOM     35  C   UNL A   1      45.477  39.967  27.148  1.00  0.00     0.031 C 
ATOM     36  C   UNL A   1      47.524  43.335  30.272  1.00  0.00     0.029 A 
ATOM     37  N   UNL A   1      46.484  41.564  31.161  1.00  0.00    -0.354 N 
ATOM     38  C   UNL A   1      44.814  38.480  28.762  1.00  0.00     0.074 A 
ATOM     39  C   UNL A   1      44.910  38.784  27.349  1.00  0.00     0.031 C 
ATOM     40  C   UNL A   1      47.552  43.469  31.609  1.00  0.00     0.029 A 
ATOM     41  C   UNL A   1      46.759  42.409  32.212  1.00  0.00     0.049 A 
ATOM     42  H   UNL A   1      46.128  40.654  31.270  1.00  0.00     0.167 HD
ATOM     43  C   UNL A   1      44.353  37.311  29.265  1.00  0.00     0.034 A 
ATOM     44  C   UNL A   1      46.355  42.379  33.497  1.00  0.00     0.034 A 
ATOM     45  C   UNL A   1      44.271  36.995  30.667  1.00  0.00     0.049 A 
ATOM     46  C   UNL A   1      45.626  41.176  34.018  1.00  0.00     0.074 A 
ATOM     47  C   UNL A   1      43.925  35.792  31.260  1.00  0.00     0.029 A 
ATOM     48  N   UNL A   1      44.497  37.893  31.694  1.00  0.00    -0.354 N 
ATOM     49  N   UNL A   1      45.292  40.084  33.379  1.00  0.00    -0.248 NA
ATOM     50  C   UNL A   1      45.290  41.167  35.449  1.00  0.00     0.031 C 
ATOM     51  C   UNL A   1      43.904  35.975  32.648  1.00  0.00     0.029 A 
ATOM     52  C   UNL A   1      44.256  37.287  32.918  1.00  0.00     0.049 A 
ATOM     53  H   UNL A   1      44.786  38.826  31.575  1.00  0.00     0.167 HD
ATOM     54  C   UNL A   1      44.775  39.228  34.343  1.00  0.00     0.074 A 
ATOM     55  C   UNL A   1      44.818  39.938  35.605  1.00  0.00     0.031 C 
ATOM     56  C   UNL A   1      44.329  37.959  34.187  1.00  0.00     0.034 A 
BRANCH  43  57
ATOM     57  C   UNL A   1      43.949  36.239  28.293  1.00  0.00     0.023 A 
ATOM     58  C   UNL A   1      42.641  36.248  27.766  1.00  0.00     0.012 A 
ATOM     59  C   UNL A   1      44.885  35.300  27.822  1.00  0.00     0.148 A 
ATOM     60  C   UNL A   1      42.268  35.328  26.788  1.00  0.00     0.002 A 
ATOM     61  C   UNL A   1      44.514  34.407  26.824  1.00  0.00     0.091 A 
ATOM     62  F   UNL A   1      46.115  35.305  28.354  1.00  0.00    -0.205 F 
ATOM     63  C   UNL A   1      43.206  34.416  26.310  1.00  0.00     0.022 A 
BRANCH  61  64
ATOM     64  S   UNL A   1      45.664  33.236  26.097  1.00  0.00     0.127 S 
ATOM     65  O   UNL A   1      46.607  34.129  25.426  1.00  0.00    -0.237 OA
ATOM     66  O   UNL A   1      46.199  32.558  27.278  1.00  0.00    -0.237 OA
ATOM     67  O   UNL A   1      44.874  32.389  25.213  1.00  0.00    -0.744 OA
ENDBRANCH  61  64
ENDBRANCH  43  57
BRANCH  44  68
ATOM     68  C   UNL A   1      46.589  43.543  34.391  1.00  0.00     0.023 A 
ATOM     69  C   UNL A   1      45.775  44.683  34.287  1.00  0.00     0.012 A 
ATOM     70  C   UNL A   1      47.665  43.540  35.302  1.00  0.00     0.148 A 
ATOM     71  C   UNL A   1      46.042  45.814  35.062  1.00  0.00     0.002 A 
ATOM     72  C   UNL A   1      47.918  44.664  36.080  1.00  0.00     0.091 A 
ATOM     73  F   UNL A   1      48.436  42.445  35.374  1.00  0.00    -0.205 F 
ATOM     74  C   UNL A   1      47.108  45.803  35.960  1.00  0.00     0.022 A 
BRANCH  72  75
ATOM     75  S   UNL A   1      49.230  44.705  37.309  1.00  0.00     0.127 S 
ATOM     76  O   UNL A   1      48.901  43.555  38.144  1.00  0.00    -0.237 OA
ATOM     77  O   UNL A   1      50.430  44.551  36.485  1.00  0.00    -0.237 OA
ATOM     78  O   UNL A   1      49.119  46.012  37.945  1.00  0.00    -0.744 OA
ENDBRANCH  72  75
ENDBRANCH  44  68
BRANCH  56  79
ATOM     79  C   UNL A   1      43.895  37.216  35.419  1.00  0.00     0.023 A 
ATOM     80  C   UNL A   1      44.859  36.754  36.337  1.00  0.00     0.012 A 
ATOM     81  C   UNL A   1      42.527  37.012  35.690  1.00  0.00     0.148 A 
ATOM     82  C   UNL A   1      44.469  36.075  37.491  1.00  0.00     0.002 A 
ATOM     83  C   UNL A   1      42.144  36.373  36.865  1.00  0.00     0.091 A 
ATOM     84  F   UNL A   1      41.627  37.438  34.793  1.00  0.00    -0.205 F 
ATOM     85  C   UNL A   1      43.115  35.895  37.760  1.00  0.00     0.022 A 
BRANCH  83  86
ATOM     86  S   UNL A   1      40.423  36.169  37.335  1.00  0.00     0.127 S 
ATOM     87  O   UNL A   1      40.413  34.800  37.847  1.00  0.00    -0.237 OA
ATOM     88  O   UNL A   1      40.255  37.205  38.356  1.00  0.00    -0.237 OA
ATOM     89  O   UNL A   1      39.646  36.387  36.122  1.00  0.00    -0.744 OA
ENDBRANCH  83  86
ENDBRANCH  56  79
ENDBRANCH  30  31
ENDBRANCH  23  25
ENDBRANCH  22  23
ENDBRANCH  21  22
ENDBRANCH  20  21
ENDBRANCH  19  20
ENDBRANCH  18  19
ENDBRANCH   1  18
TORSDOF 23
ENDMDL
