MODEL 1
REMARK VINA RESULT:      -9.1      0.000      0.000
REMARK SMILES COC[C@H](C)[C@H](CC(C)C)C(=O)OCCOCCOCCOC(=O)c1ccc(-c2c3nc(c(-c4cccc(S(=O)(=O)[O-])c4F)c4ccc([nH]4)c(-c4cccc(S(=O)(=O)[O-])c4F)c4nc(c(-c5cccc(S(=O)(=O)[O-])c5F)c5ccc2[nH]5)C=C4)C=C3)cc1
REMARK SMILES IDX 17 1 16 2 15 3 14 4 13 5 11 6 12 7 6 8 4 9 5 10 3 11 2 12
REMARK SMILES IDX 1 13 7 14 8 15 9 16 10 17 18 18 19 19 20 20 21 21 22 22
REMARK SMILES IDX 23 23 24 24 25 25 26 26 87 27 27 28 86 29 28 30 29 31 30 32
REMARK SMILES IDX 80 33 31 34 85 35 79 36 81 37 32 38 84 39 78 40 77 41 33 43
REMARK SMILES IDX 65 44 45 45 64 46 46 47 49 48 63 49 82 50 47 51 48 52 62 54
REMARK SMILES IDX 83 55 50 56 34 57 35 58 43 59 36 60 38 61 44 62 37 63 39 64
REMARK SMILES IDX 40 65 41 66 42 67 66 68 67 69 75 70 68 71 70 72 76 73 69 74
REMARK SMILES IDX 71 75 72 76 73 77 74 78 51 79 52 80 60 81 53 82 55 83 61 84
REMARK SMILES IDX 54 85 56 86 57 87 58 88 59 89
REMARK H PARENT 81 42 49 53
REMARK Flexibility Score: inf
ROOT
ATOM      1  C   UNL A   1      33.271  22.129  24.600  1.00  0.00     0.188 C 
ENDROOT
BRANCH   1   2
ATOM      2  O   UNL A   1      33.437  22.374  23.210  1.00  0.00    -0.376 OA
BRANCH   2   3
ATOM      3  C   UNL A   1      33.694  23.713  22.815  1.00  0.00     0.202 C 
BRANCH   3   4
ATOM      4  C   UNL A   1      33.053  24.173  21.502  1.00  0.00     0.261 C 
BRANCH   4   5
ATOM      5  O   UNL A   1      32.459  25.489  21.508  1.00  0.00    -0.463 OA
BRANCH   5   6
ATOM      6  C   UNL A   1      31.657  25.756  22.562  1.00  0.00     0.309 C 
ATOM      7  O   UNL A   1      30.824  24.969  23.004  1.00  0.00    -0.252 OA
BRANCH   6   8
ATOM      8  C   UNL A   1      31.690  27.199  23.049  1.00  0.00     0.104 C 
BRANCH   8   9
ATOM      9  C   UNL A   1      33.091  27.507  23.662  1.00  0.00     0.026 C 
ATOM     10  C   UNL A   1      33.946  28.365  22.715  1.00  0.00     0.011 C 
BRANCH   9  11
ATOM     11  C   UNL A   1      33.012  28.034  25.120  1.00  0.00     0.163 C 
BRANCH  11  12
ATOM     12  O   UNL A   1      33.804  27.277  26.031  1.00  0.00    -0.384 OA
ATOM     13  C   UNL A   1      33.932  25.916  25.661  1.00  0.00     0.194 C 
ENDBRANCH  11  12
ENDBRANCH   9  11
ENDBRANCH   8   9
BRANCH   8  14
ATOM     14  C   UNL A   1      30.572  27.875  23.889  1.00  0.00     0.018 C 
BRANCH  14  15
ATOM     15  C   UNL A   1      29.640  28.980  23.371  1.00  0.00    -0.017 C 
ATOM     16  C   UNL A   1      30.122  29.637  22.077  1.00  0.00     0.007 C 
ATOM     17  C   UNL A   1      28.276  28.328  23.050  1.00  0.00     0.007 C 
ENDBRANCH  14  15
ENDBRANCH   8  14
ENDBRANCH   6   8
ENDBRANCH   5   6
ENDBRANCH   4   5
ENDBRANCH   3   4
ENDBRANCH   2   3
ENDBRANCH   1   2
BRANCH   1  18
ATOM     18  C   UNL A   1      33.718  20.753  25.067  1.00  0.00     0.188 C 
BRANCH  18  19
ATOM     19  O   UNL A   1      34.984  20.773  25.739  1.00  0.00    -0.376 OA
BRANCH  19  20
ATOM     20  C   UNL A   1      36.098  20.842  24.846  1.00  0.00     0.202 C 
BRANCH  20  21
ATOM     21  C   UNL A   1      37.409  20.182  25.313  1.00  0.00     0.261 C 
BRANCH  21  22
ATOM     22  O   UNL A   1      38.563  21.014  25.163  1.00  0.00    -0.460 OA
BRANCH  22  23
ATOM     23  C   UNL A   1      39.502  20.867  26.135  1.00  0.00     0.338 C 
ATOM     24  O   UNL A   1      40.043  19.824  26.466  1.00  0.00    -0.246 OA
BRANCH  23  25
ATOM     25  C   UNL A   1      39.918  22.207  26.629  1.00  0.00     0.060 A 
ATOM     26  C   UNL A   1      39.173  23.322  26.221  1.00  0.00     0.016 A 
ATOM     27  C   UNL A   1      40.960  22.367  27.550  1.00  0.00     0.016 A 
ATOM     28  C   UNL A   1      39.493  24.598  26.692  1.00  0.00     0.010 A 
ATOM     29  C   UNL A   1      41.278  23.644  28.023  1.00  0.00     0.010 A 
ATOM     30  C   UNL A   1      40.573  24.772  27.566  1.00  0.00    -0.014 A 
BRANCH  30  31
ATOM     31  C   UNL A   1      41.106  26.131  27.840  1.00  0.00     0.031 A 
ATOM     32  C   UNL A   1      42.514  26.439  27.400  1.00  0.00     0.074 A 
ATOM     33  C   UNL A   1      40.382  27.073  28.473  1.00  0.00     0.049 A 
ATOM     34  N   UNL A   1      43.230  27.515  27.593  1.00  0.00    -0.248 NA
ATOM     35  C   UNL A   1      43.208  25.381  26.645  1.00  0.00     0.031 C 
ATOM     36  C   UNL A   1      39.008  26.916  28.943  1.00  0.00     0.029 A 
ATOM     37  N   UNL A   1      40.726  28.348  28.857  1.00  0.00    -0.354 N 
ATOM     38  C   UNL A   1      44.467  27.252  27.015  1.00  0.00     0.074 A 
ATOM     39  C   UNL A   1      44.410  25.910  26.479  1.00  0.00     0.031 C 
ATOM     40  C   UNL A   1      38.635  28.040  29.582  1.00  0.00     0.029 A 
ATOM     41  C   UNL A   1      39.752  28.984  29.591  1.00  0.00     0.049 A 
ATOM     42  H   UNL A   1      41.587  28.765  28.627  1.00  0.00     0.167 HD
ATOM     43  C   UNL A   1      45.551  28.057  26.923  1.00  0.00     0.034 A 
ATOM     44  C   UNL A   1      39.773  30.176  30.224  1.00  0.00     0.034 A 
ATOM     45  C   UNL A   1      45.608  29.398  27.436  1.00  0.00     0.049 A 
ATOM     46  C   UNL A   1      41.006  31.044  30.136  1.00  0.00     0.074 A 
ATOM     47  C   UNL A   1      46.651  30.304  27.357  1.00  0.00     0.029 A 
ATOM     48  N   UNL A   1      44.586  30.021  28.135  1.00  0.00    -0.354 N 
ATOM     49  N   UNL A   1      42.130  30.824  29.497  1.00  0.00    -0.248 NA
ATOM     50  C   UNL A   1      40.960  32.340  30.832  1.00  0.00     0.031 C 
ATOM     51  C   UNL A   1      46.271  31.465  28.036  1.00  0.00     0.029 A 
ATOM     52  C   UNL A   1      44.978  31.297  28.502  1.00  0.00     0.049 A 
ATOM     53  H   UNL A   1      43.713  29.617  28.339  1.00  0.00     0.167 HD
ATOM     54  C   UNL A   1      42.906  31.966  29.682  1.00  0.00     0.074 A 
ATOM     55  C   UNL A   1      42.117  32.883  30.476  1.00  0.00     0.031 C 
ATOM     56  C   UNL A   1      44.162  32.226  29.243  1.00  0.00     0.034 A 
BRANCH  43  57
ATOM     57  C   UNL A   1      46.763  27.510  26.219  1.00  0.00     0.023 A 
ATOM     58  C   UNL A   1      47.645  26.651  26.909  1.00  0.00     0.012 A 
ATOM     59  C   UNL A   1      47.005  27.808  24.864  1.00  0.00     0.148 A 
ATOM     60  C   UNL A   1      48.767  26.127  26.270  1.00  0.00     0.002 A 
ATOM     61  C   UNL A   1      48.100  27.243  24.222  1.00  0.00     0.091 A 
ATOM     62  F   UNL A   1      46.169  28.645  24.235  1.00  0.00    -0.205 F 
ATOM     63  C   UNL A   1      48.989  26.414  24.925  1.00  0.00     0.022 A 
BRANCH  61  64
ATOM     64  S   UNL A   1      48.428  27.487  22.473  1.00  0.00     0.127 S 
ATOM     65  O   UNL A   1      49.612  28.345  22.512  1.00  0.00    -0.237 OA
ATOM     66  O   UNL A   1      48.679  26.120  22.015  1.00  0.00    -0.237 OA
ATOM     67  O   UNL A   1      47.229  28.103  21.921  1.00  0.00    -0.744 OA
ENDBRANCH  61  64
ENDBRANCH  43  57
BRANCH  44  68
ATOM     68  C   UNL A   1      38.582  30.639  30.994  1.00  0.00     0.023 A 
ATOM     69  C   UNL A   1      38.459  30.306  32.357  1.00  0.00     0.012 A 
ATOM     70  C   UNL A   1      37.565  31.394  30.379  1.00  0.00     0.148 A 
ATOM     71  C   UNL A   1      37.330  30.685  33.085  1.00  0.00     0.002 A 
ATOM     72  C   UNL A   1      36.469  31.816  31.122  1.00  0.00     0.091 A 
ATOM     73  F   UNL A   1      37.689  31.682  29.076  1.00  0.00    -0.205 F 
ATOM     74  C   UNL A   1      36.340  31.448  32.470  1.00  0.00     0.022 A 
BRANCH  72  75
ATOM     75  S   UNL A   1      35.201  32.893  30.445  1.00  0.00     0.127 S 
ATOM     76  O   UNL A   1      34.618  32.052  29.404  1.00  0.00    -0.237 OA
ATOM     77  O   UNL A   1      34.343  33.115  31.610  1.00  0.00    -0.237 OA
ATOM     78  O   UNL A   1      35.901  34.081  29.978  1.00  0.00    -0.744 OA
ENDBRANCH  72  75
ENDBRANCH  44  68
BRANCH  56  79
ATOM     79  C   UNL A   1      44.760  33.575  29.560  1.00  0.00     0.023 A 
ATOM     80  C   UNL A   1      45.541  33.745  30.719  1.00  0.00     0.012 A 
ATOM     81  C   UNL A   1      44.616  34.650  28.660  1.00  0.00     0.148 A 
ATOM     82  C   UNL A   1      46.142  34.975  30.996  1.00  0.00     0.002 A 
ATOM     83  C   UNL A   1      45.259  35.856  28.916  1.00  0.00     0.091 A 
ATOM     84  F   UNL A   1      43.857  34.474  27.569  1.00  0.00    -0.205 F 
ATOM     85  C   UNL A   1      46.011  36.024  30.089  1.00  0.00     0.022 A 
BRANCH  83  86
ATOM     86  S   UNL A   1      45.229  37.230  27.759  1.00  0.00     0.127 S 
ATOM     87  O   UNL A   1      43.821  37.622  27.798  1.00  0.00    -0.237 OA
ATOM     88  O   UNL A   1      46.145  38.184  28.386  1.00  0.00    -0.237 OA
ATOM     89  O   UNL A   1      45.692  36.695  26.485  1.00  0.00    -0.744 OA
ENDBRANCH  83  86
ENDBRANCH  56  79
ENDBRANCH  30  31
ENDBRANCH  23  25
ENDBRANCH  22  23
ENDBRANCH  21  22
ENDBRANCH  20  21
ENDBRANCH  19  20
ENDBRANCH  18  19
ENDBRANCH   1  18
TORSDOF 25
ENDMDL
MODEL 2
REMARK VINA RESULT:      -8.8      1.170      2.095
REMARK SMILES COC[C@H](C)[C@H](CC(C)C)C(=O)OCCOCCOCCOC(=O)c1ccc(-c2c3nc(c(-c4cccc(S(=O)(=O)[O-])c4F)c4ccc([nH]4)c(-c4cccc(S(=O)(=O)[O-])c4F)c4nc(c(-c5cccc(S(=O)(=O)[O-])c5F)c5ccc2[nH]5)C=C4)C=C3)cc1
REMARK SMILES IDX 17 1 16 2 15 3 14 4 13 5 11 6 12 7 6 8 4 9 5 10 3 11 2 12
REMARK SMILES IDX 1 13 7 14 8 15 9 16 10 17 18 18 19 19 20 20 21 21 22 22
REMARK SMILES IDX 23 23 24 24 25 25 26 26 87 27 27 28 86 29 28 30 29 31 30 32
REMARK SMILES IDX 80 33 31 34 85 35 79 36 81 37 32 38 84 39 78 40 77 41 33 43
REMARK SMILES IDX 65 44 45 45 64 46 46 47 49 48 63 49 82 50 47 51 48 52 62 54
REMARK SMILES IDX 83 55 50 56 34 57 35 58 43 59 36 60 38 61 44 62 37 63 39 64
REMARK SMILES IDX 40 65 41 66 42 67 66 68 67 69 75 70 68 71 70 72 76 73 69 74
REMARK SMILES IDX 71 75 72 76 73 77 74 78 51 79 52 80 60 81 53 82 55 83 61 84
REMARK SMILES IDX 54 85 56 86 57 87 58 88 59 89
REMARK H PARENT 81 42 49 53
REMARK Flexibility Score: inf
ROOT
ATOM      1  C   UNL A   1      33.184  22.167  24.891  1.00  0.00     0.188 C 
ENDROOT
BRANCH   1   2
ATOM      2  O   UNL A   1      31.772  22.089  25.032  1.00  0.00    -0.376 OA
BRANCH   2   3
ATOM      3  C   UNL A   1      31.047  23.309  24.978  1.00  0.00     0.202 C 
BRANCH   3   4
ATOM      4  C   UNL A   1      30.754  23.989  26.320  1.00  0.00     0.261 C 
BRANCH   4   5
ATOM      5  O   UNL A   1      30.571  25.420  26.284  1.00  0.00    -0.463 OA
BRANCH   5   6
ATOM      6  C   UNL A   1      31.633  26.127  25.838  1.00  0.00     0.309 C 
ATOM      7  O   UNL A   1      32.794  25.900  26.170  1.00  0.00    -0.252 OA
BRANCH   6   8
ATOM      8  C   UNL A   1      31.286  27.387  25.056  1.00  0.00     0.104 C 
BRANCH   8   9
ATOM      9  C   UNL A   1      30.478  26.998  23.779  1.00  0.00     0.026 C 
ATOM     10  C   UNL A   1      28.974  26.884  24.074  1.00  0.00     0.011 C 
BRANCH   9  11
ATOM     11  C   UNL A   1      30.832  27.875  22.547  1.00  0.00     0.163 C 
BRANCH  11  12
ATOM     12  O   UNL A   1      29.706  28.563  22.010  1.00  0.00    -0.384 OA
ATOM     13  C   UNL A   1      29.891  29.966  21.939  1.00  0.00     0.194 C 
ENDBRANCH  11  12
ENDBRANCH   9  11
ENDBRANCH   8   9
BRANCH   8  14
ATOM     14  C   UNL A   1      32.286  28.532  24.735  1.00  0.00     0.018 C 
BRANCH  14  15
ATOM     15  C   UNL A   1      32.755  29.588  25.747  1.00  0.00    -0.017 C 
ATOM     16  C   UNL A   1      31.745  29.867  26.860  1.00  0.00     0.007 C 
ATOM     17  C   UNL A   1      34.026  29.042  26.435  1.00  0.00     0.007 C 
ENDBRANCH  14  15
ENDBRANCH   8  14
ENDBRANCH   6   8
ENDBRANCH   5   6
ENDBRANCH   4   5
ENDBRANCH   3   4
ENDBRANCH   2   3
ENDBRANCH   1   2
BRANCH   1  18
ATOM     18  C   UNL A   1      33.831  20.962  24.227  1.00  0.00     0.188 C 
BRANCH  18  19
ATOM     19  O   UNL A   1      35.261  20.964  24.334  1.00  0.00    -0.376 OA
BRANCH  19  20
ATOM     20  C   UNL A   1      35.728  21.040  25.683  1.00  0.00     0.202 C 
BRANCH  20  21
ATOM     21  C   UNL A   1      36.980  21.899  25.940  1.00  0.00     0.261 C 
BRANCH  21  22
ATOM     22  O   UNL A   1      38.160  21.413  25.292  1.00  0.00    -0.460 OA
BRANCH  22  23
ATOM     23  C   UNL A   1      39.228  21.232  26.114  1.00  0.00     0.338 C 
ATOM     24  O   UNL A   1      39.801  20.176  26.332  1.00  0.00    -0.246 OA
BRANCH  23  25
ATOM     25  C   UNL A   1      39.724  22.555  26.581  1.00  0.00     0.060 A 
ATOM     26  C   UNL A   1      39.113  23.708  26.069  1.00  0.00     0.016 A 
ATOM     27  C   UNL A   1      40.704  22.670  27.572  1.00  0.00     0.016 A 
ATOM     28  C   UNL A   1      39.509  24.973  26.508  1.00  0.00     0.010 A 
ATOM     29  C   UNL A   1      41.099  23.937  28.014  1.00  0.00     0.010 A 
ATOM     30  C   UNL A   1      40.533  25.097  27.456  1.00  0.00    -0.014 A 
BRANCH  30  31
ATOM     31  C   UNL A   1      41.163  26.417  27.713  1.00  0.00     0.031 A 
ATOM     32  C   UNL A   1      42.572  26.634  27.225  1.00  0.00     0.074 A 
ATOM     33  C   UNL A   1      40.524  27.403  28.370  1.00  0.00     0.049 A 
ATOM     34  N   UNL A   1      43.363  27.660  27.395  1.00  0.00    -0.248 NA
ATOM     35  C   UNL A   1      43.170  25.535  26.447  1.00  0.00     0.031 C 
ATOM     36  C   UNL A   1      39.159  27.335  28.886  1.00  0.00     0.029 A 
ATOM     37  N   UNL A   1      40.963  28.652  28.743  1.00  0.00    -0.354 N 
ATOM     38  C   UNL A   1      44.560  27.319  26.775  1.00  0.00     0.074 A 
ATOM     39  C   UNL A   1      44.397  25.985  26.241  1.00  0.00     0.031 C 
ATOM     40  C   UNL A   1      38.882  28.479  29.538  1.00  0.00     0.029 A 
ATOM     41  C   UNL A   1      40.058  29.348  29.510  1.00  0.00     0.049 A 
ATOM     42  H   UNL A   1      41.842  29.012  28.484  1.00  0.00     0.167 HD
ATOM     43  C   UNL A   1      45.690  28.051  26.647  1.00  0.00     0.034 A 
ATOM     44  C   UNL A   1      40.178  30.535  30.142  1.00  0.00     0.034 A 
ATOM     45  C   UNL A   1      45.853  29.384  27.158  1.00  0.00     0.049 A 
ATOM     46  C   UNL A   1      41.462  31.320  30.012  1.00  0.00     0.074 A 
ATOM     47  C   UNL A   1      46.949  30.220  27.044  1.00  0.00     0.029 A 
ATOM     48  N   UNL A   1      44.898  30.071  27.891  1.00  0.00    -0.354 N 
ATOM     49  N   UNL A   1      42.547  31.029  29.336  1.00  0.00    -0.248 NA
ATOM     50  C   UNL A   1      41.525  32.615  30.711  1.00  0.00     0.031 C 
ATOM     51  C   UNL A   1      46.669  31.402  27.736  1.00  0.00     0.029 A 
ATOM     52  C   UNL A   1      45.384  31.317  28.246  1.00  0.00     0.049 A 
ATOM     53  H   UNL A   1      44.007  29.724  28.125  1.00  0.00     0.167 HD
ATOM     54  C   UNL A   1      43.401  32.117  29.495  1.00  0.00     0.074 A 
ATOM     55  C   UNL A   1      42.702  33.081  30.316  1.00  0.00     0.031 C 
ATOM     56  C   UNL A   1      44.657  32.296  29.014  1.00  0.00     0.034 A 
BRANCH  43  57
ATOM     57  C   UNL A   1      46.840  27.427  25.902  1.00  0.00     0.023 A 
ATOM     58  C   UNL A   1      47.623  26.435  26.527  1.00  0.00     0.012 A 
ATOM     59  C   UNL A   1      47.117  27.790  24.570  1.00  0.00     0.148 A 
ATOM     60  C   UNL A   1      48.685  25.840  25.849  1.00  0.00     0.002 A 
ATOM     61  C   UNL A   1      48.147  27.158  23.886  1.00  0.00     0.091 A 
ATOM     62  F   UNL A   1      46.376  28.753  24.003  1.00  0.00    -0.205 F 
ATOM     63  C   UNL A   1      48.941  26.193  24.527  1.00  0.00     0.022 A 
BRANCH  61  64
ATOM     64  S   UNL A   1      48.505  27.485  22.156  1.00  0.00     0.127 S 
ATOM     65  O   UNL A   1      49.716  28.299  22.255  1.00  0.00    -0.237 OA
ATOM     66  O   UNL A   1      48.717  26.138  21.627  1.00  0.00    -0.237 OA
ATOM     67  O   UNL A   1      47.335  28.170  21.626  1.00  0.00    -0.744 OA
ENDBRANCH  61  64
ENDBRANCH  43  57
BRANCH  44  68
ATOM     68  C   UNL A   1      39.047  31.072  30.952  1.00  0.00     0.023 A 
ATOM     69  C   UNL A   1      39.025  30.865  32.346  1.00  0.00     0.012 A 
ATOM     70  C   UNL A   1      37.987  31.775  30.347  1.00  0.00     0.148 A 
ATOM     71  C   UNL A   1      37.952  31.315  33.116  1.00  0.00     0.002 A 
ATOM     72  C   UNL A   1      36.948  32.269  31.127  1.00  0.00     0.091 A 
ATOM     73  F   UNL A   1      38.014  31.942  29.018  1.00  0.00    -0.205 F 
ATOM     74  C   UNL A   1      36.919  32.025  32.509  1.00  0.00     0.022 A 
BRANCH  72  75
ATOM     75  S   UNL A   1      35.633  33.288  30.450  1.00  0.00     0.127 S 
ATOM     76  O   UNL A   1      36.365  34.141  29.518  1.00  0.00    -0.237 OA
ATOM     77  O   UNL A   1      34.772  32.286  29.820  1.00  0.00    -0.237 OA
ATOM     78  O   UNL A   1      35.034  33.967  31.590  1.00  0.00    -0.744 OA
ENDBRANCH  72  75
ENDBRANCH  44  68
BRANCH  56  79
ATOM     79  C   UNL A   1      45.352  33.601  29.312  1.00  0.00     0.023 A 
ATOM     80  C   UNL A   1      46.089  33.753  30.502  1.00  0.00     0.012 A 
ATOM     81  C   UNL A   1      45.344  34.648  28.367  1.00  0.00     0.148 A 
ATOM     82  C   UNL A   1      46.779  34.939  30.764  1.00  0.00     0.002 A 
ATOM     83  C   UNL A   1      46.075  35.805  28.610  1.00  0.00     0.091 A 
ATOM     84  F   UNL A   1      44.625  34.491  27.246  1.00  0.00    -0.205 F 
ATOM     85  C   UNL A   1      46.782  35.957  29.813  1.00  0.00     0.022 A 
BRANCH  83  86
ATOM     86  S   UNL A   1      46.217  37.128  27.403  1.00  0.00     0.127 S 
ATOM     87  O   UNL A   1      46.602  36.394  26.199  1.00  0.00    -0.237 OA
ATOM     88  O   UNL A   1      44.858  37.672  27.378  1.00  0.00    -0.237 OA
ATOM     89  O   UNL A   1      47.224  38.042  27.925  1.00  0.00    -0.744 OA
ENDBRANCH  83  86
ENDBRANCH  56  79
ENDBRANCH  30  31
ENDBRANCH  23  25
ENDBRANCH  22  23
ENDBRANCH  21  22
ENDBRANCH  20  21
ENDBRANCH  19  20
ENDBRANCH  18  19
ENDBRANCH   1  18
TORSDOF 25
ENDMDL
MODEL 3
REMARK VINA RESULT:      -8.2      5.292     10.815
REMARK SMILES COC[C@H](C)[C@H](CC(C)C)C(=O)OCCOCCOCCOC(=O)c1ccc(-c2c3nc(c(-c4cccc(S(=O)(=O)[O-])c4F)c4ccc([nH]4)c(-c4cccc(S(=O)(=O)[O-])c4F)c4nc(c(-c5cccc(S(=O)(=O)[O-])c5F)c5ccc2[nH]5)C=C4)C=C3)cc1
REMARK SMILES IDX 17 1 16 2 15 3 14 4 13 5 11 6 12 7 6 8 4 9 5 10 3 11 2 12
REMARK SMILES IDX 1 13 7 14 8 15 9 16 10 17 18 18 19 19 20 20 21 21 22 22
REMARK SMILES IDX 23 23 24 24 25 25 26 26 87 27 27 28 86 29 28 30 29 31 30 32
REMARK SMILES IDX 80 33 31 34 85 35 79 36 81 37 32 38 84 39 78 40 77 41 33 43
REMARK SMILES IDX 65 44 45 45 64 46 46 47 49 48 63 49 82 50 47 51 48 52 62 54
REMARK SMILES IDX 83 55 50 56 34 57 35 58 43 59 36 60 38 61 44 62 37 63 39 64
REMARK SMILES IDX 40 65 41 66 42 67 66 68 67 69 75 70 68 71 70 72 76 73 69 74
REMARK SMILES IDX 71 75 72 76 73 77 74 78 51 79 52 80 60 81 53 82 55 83 61 84
REMARK SMILES IDX 54 85 56 86 57 87 58 88 59 89
REMARK H PARENT 81 42 49 53
REMARK Flexibility Score: inf
ROOT
ATOM      1  C   UNL A   1      31.322  27.643  26.827  1.00  0.00     0.188 C 
ENDROOT
BRANCH   1   2
ATOM      2  O   UNL A   1      30.744  27.130  25.633  1.00  0.00    -0.376 OA
BRANCH   2   3
ATOM      3  C   UNL A   1      30.042  25.900  25.730  1.00  0.00     0.202 C 
BRANCH   3   4
ATOM      4  C   UNL A   1      30.895  24.638  25.893  1.00  0.00     0.261 C 
BRANCH   4   5
ATOM      5  O   UNL A   1      32.299  24.771  25.586  1.00  0.00    -0.463 OA
BRANCH   5   6
ATOM      6  C   UNL A   1      32.689  24.216  24.417  1.00  0.00     0.309 C 
ATOM      7  O   UNL A   1      32.128  24.418  23.343  1.00  0.00    -0.252 OA
BRANCH   6   8
ATOM      8  C   UNL A   1      33.754  23.134  24.540  1.00  0.00     0.104 C 
BRANCH   8   9
ATOM      9  C   UNL A   1      35.162  23.762  24.300  1.00  0.00     0.026 C 
ATOM     10  C   UNL A   1      35.784  24.273  25.609  1.00  0.00     0.011 C 
BRANCH   9  11
ATOM     11  C   UNL A   1      36.093  22.855  23.451  1.00  0.00     0.163 C 
BRANCH  11  12
ATOM     12  O   UNL A   1      37.240  22.406  24.167  1.00  0.00    -0.384 OA
ATOM     13  C   UNL A   1      37.039  21.167  24.824  1.00  0.00     0.194 C 
ENDBRANCH  11  12
ENDBRANCH   9  11
ENDBRANCH   8   9
BRANCH   8  14
ATOM     14  C   UNL A   1      33.669  21.730  23.880  1.00  0.00     0.018 C 
BRANCH  14  15
ATOM     15  C   UNL A   1      32.360  20.973  23.610  1.00  0.00    -0.017 C 
ATOM     16  C   UNL A   1      31.866  21.089  22.169  1.00  0.00     0.007 C 
ATOM     17  C   UNL A   1      32.629  19.472  23.862  1.00  0.00     0.007 C 
ENDBRANCH  14  15
ENDBRANCH   8  14
ENDBRANCH   6   8
ENDBRANCH   5   6
ENDBRANCH   4   5
ENDBRANCH   3   4
ENDBRANCH   2   3
ENDBRANCH   1   2
BRANCH   1  18
ATOM     18  C   UNL A   1      32.426  28.666  26.618  1.00  0.00     0.188 C 
BRANCH  18  19
ATOM     19  O   UNL A   1      31.927  29.991  26.393  1.00  0.00    -0.376 OA
BRANCH  19  20
ATOM     20  C   UNL A   1      32.659  30.999  27.093  1.00  0.00     0.202 C 
BRANCH  20  21
ATOM     21  C   UNL A   1      32.144  32.446  26.973  1.00  0.00     0.261 C 
BRANCH  21  22
ATOM     22  O   UNL A   1      32.490  33.279  28.084  1.00  0.00    -0.460 OA
BRANCH  22  23
ATOM     23  C   UNL A   1      33.637  33.993  27.925  1.00  0.00     0.338 C 
ATOM     24  O   UNL A   1      33.746  35.066  27.355  1.00  0.00    -0.246 OA
BRANCH  23  25
ATOM     25  C   UNL A   1      34.727  33.359  28.714  1.00  0.00     0.060 A 
ATOM     26  C   UNL A   1      36.026  33.869  28.575  1.00  0.00     0.016 A 
ATOM     27  C   UNL A   1      34.475  32.345  29.645  1.00  0.00     0.016 A 
ATOM     28  C   UNL A   1      37.078  33.340  29.326  1.00  0.00     0.010 A 
ATOM     29  C   UNL A   1      35.528  31.818  30.400  1.00  0.00     0.010 A 
ATOM     30  C   UNL A   1      36.842  32.284  30.215  1.00  0.00    -0.014 A 
BRANCH  30  31
ATOM     31  C   UNL A   1      37.978  31.522  30.795  1.00  0.00     0.031 A 
ATOM     32  C   UNL A   1      38.359  31.803  32.225  1.00  0.00     0.074 A 
ATOM     33  C   UNL A   1      38.672  30.613  30.084  1.00  0.00     0.049 A 
ATOM     34  N   UNL A   1      39.355  31.333  32.929  1.00  0.00    -0.248 NA
ATOM     35  C   UNL A   1      37.501  32.752  32.956  1.00  0.00     0.031 C 
ATOM     36  C   UNL A   1      38.405  30.234  28.699  1.00  0.00     0.029 A 
ATOM     37  N   UNL A   1      39.772  29.865  30.432  1.00  0.00    -0.354 N 
ATOM     38  C   UNL A   1      39.264  31.952  34.170  1.00  0.00     0.074 A 
ATOM     39  C   UNL A   1      38.126  32.844  34.119  1.00  0.00     0.031 C 
ATOM     40  C   UNL A   1      39.337  29.349  28.302  1.00  0.00     0.029 A 
ATOM     41  C   UNL A   1      40.282  29.119  29.395  1.00  0.00     0.049 A 
ATOM     42  H   UNL A   1      40.156  29.864  31.338  1.00  0.00     0.167 HD
ATOM     43  C   UNL A   1      40.045  31.787  35.263  1.00  0.00     0.034 A 
ATOM     44  C   UNL A   1      41.399  28.364  29.328  1.00  0.00     0.034 A 
ATOM     45  C   UNL A   1      41.165  30.890  35.328  1.00  0.00     0.049 A 
ATOM     46  C   UNL A   1      42.274  28.220  30.550  1.00  0.00     0.074 A 
ATOM     47  C   UNL A   1      41.994  30.627  36.404  1.00  0.00     0.029 A 
ATOM     48  N   UNL A   1      41.623  30.119  34.270  1.00  0.00    -0.354 N 
ATOM     49  N   UNL A   1      42.115  28.730  31.748  1.00  0.00    -0.248 NA
ATOM     50  C   UNL A   1      43.468  27.369  30.419  1.00  0.00     0.031 C 
ATOM     51  C   UNL A   1      42.973  29.719  35.988  1.00  0.00     0.029 A 
ATOM     52  C   UNL A   1      42.730  29.388  34.666  1.00  0.00     0.049 A 
ATOM     53  H   UNL A   1      41.221  30.096  33.373  1.00  0.00     0.167 HD
ATOM     54  C   UNL A   1      43.163  28.233  32.519  1.00  0.00     0.074 A 
ATOM     55  C   UNL A   1      43.940  27.367  31.659  1.00  0.00     0.031 C 
ATOM     56  C   UNL A   1      43.462  28.481  33.818  1.00  0.00     0.034 A 
BRANCH  43  57
ATOM     57  C   UNL A   1      39.698  32.585  36.491  1.00  0.00     0.023 A 
ATOM     58  C   UNL A   1      40.318  33.833  36.713  1.00  0.00     0.012 A 
ATOM     59  C   UNL A   1      38.727  32.123  37.400  1.00  0.00     0.148 A 
ATOM     60  C   UNL A   1      40.002  34.590  37.839  1.00  0.00     0.002 A 
ATOM     61  C   UNL A   1      38.383  32.906  38.494  1.00  0.00     0.091 A 
ATOM     62  F   UNL A   1      38.168  30.924  37.183  1.00  0.00    -0.205 F 
ATOM     63  C   UNL A   1      39.028  34.133  38.723  1.00  0.00     0.022 A 
BRANCH  61  64
ATOM     64  S   UNL A   1      37.086  32.443  39.647  1.00  0.00     0.127 S 
ATOM     65  O   UNL A   1      37.191  33.501  40.650  1.00  0.00    -0.237 OA
ATOM     66  O   UNL A   1      35.890  32.516  38.807  1.00  0.00    -0.237 OA
ATOM     67  O   UNL A   1      37.421  31.105  40.113  1.00  0.00    -0.744 OA
ENDBRANCH  61  64
ENDBRANCH  43  57
BRANCH  44  68
ATOM     68  C   UNL A   1      41.758  27.667  28.060  1.00  0.00     0.023 A 
ATOM     69  C   UNL A   1      42.259  28.409  26.972  1.00  0.00     0.012 A 
ATOM     70  C   UNL A   1      41.595  26.275  27.922  1.00  0.00     0.148 A 
ATOM     71  C   UNL A   1      42.556  27.785  25.759  1.00  0.00     0.002 A 
ATOM     72  C   UNL A   1      41.943  25.651  26.730  1.00  0.00     0.091 A 
ATOM     73  F   UNL A   1      41.096  25.589  28.959  1.00  0.00    -0.205 F 
ATOM     74  C   UNL A   1      42.407  26.405  25.641  1.00  0.00     0.022 A 
BRANCH  72  75
ATOM     75  S   UNL A   1      41.890  23.867  26.522  1.00  0.00     0.127 S 
ATOM     76  O   UNL A   1      42.567  23.695  25.239  1.00  0.00    -0.237 OA
ATOM     77  O   UNL A   1      42.651  23.408  27.686  1.00  0.00    -0.237 OA
ATOM     78  O   UNL A   1      40.479  23.510  26.544  1.00  0.00    -0.744 OA
ENDBRANCH  72  75
ENDBRANCH  44  68
BRANCH  56  79
ATOM     79  C   UNL A   1      44.650  27.773  34.422  1.00  0.00     0.023 A 
ATOM     80  C   UNL A   1      45.929  28.359  34.357  1.00  0.00     0.012 A 
ATOM     81  C   UNL A   1      44.479  26.566  35.129  1.00  0.00     0.148 A 
ATOM     82  C   UNL A   1      47.026  27.738  34.956  1.00  0.00     0.002 A 
ATOM     83  C   UNL A   1      45.566  25.979  35.767  1.00  0.00     0.091 A 
ATOM     84  F   UNL A   1      43.257  26.015  35.168  1.00  0.00    -0.205 F 
ATOM     85  C   UNL A   1      46.841  26.556  35.671  1.00  0.00     0.022 A 
BRANCH  83  86
ATOM     86  S   UNL A   1      45.406  24.512  36.792  1.00  0.00     0.127 S 
ATOM     87  O   UNL A   1      44.121  23.976  36.347  1.00  0.00    -0.237 OA
ATOM     88  O   UNL A   1      46.570  23.722  36.385  1.00  0.00    -0.237 OA
ATOM     89  O   UNL A   1      45.445  24.977  38.171  1.00  0.00    -0.744 OA
ENDBRANCH  83  86
ENDBRANCH  56  79
ENDBRANCH  30  31
ENDBRANCH  23  25
ENDBRANCH  22  23
ENDBRANCH  21  22
ENDBRANCH  20  21
ENDBRANCH  19  20
ENDBRANCH  18  19
ENDBRANCH   1  18
TORSDOF 25
ENDMDL
