MODEL 1
REMARK VINA RESULT:      -7.8      0.000      0.000
REMARK SMILES COc1ccc2c(c1)c(CC(=O)OCCOCCOCCOC(=O)c1ccc(-c3c4nc(c(-c5cccc(S(=O)(=O)[O-])c5F)c5ccc([nH]5)c(-c5cccc(S(=O)(=O)[O-])c5F)c5nc(c(-c6cccc(S(=O)(=O)[O-])c6F)c6ccc3[nH]6)C=C5)C=C4)cc1)c(C)n2Cc1ccn(C(F)F)c(=O)c1
REMARK SMILES IDX 17 1 16 2 15 3 14 4 13 5 11 6 12 7 10 8 9 9 3 10 4 11 8 12
REMARK SMILES IDX 5 13 7 14 6 15 90 16 88 17 89 18 2 19 1 20 91 21 92 22 93 23
REMARK SMILES IDX 101 24 94 25 99 26 95 27 100 28 96 29 97 30 98 31 18 32
REMARK SMILES IDX 19 33 20 34 21 35 22 36 23 37 24 38 25 39 26 40 87 41 27 42
REMARK SMILES IDX 86 43 28 44 29 45 30 46 80 47 31 48 85 49 79 50 81 51 32 52
REMARK SMILES IDX 84 53 78 54 77 55 33 57 65 58 45 59 64 60 46 61 49 62 63 63
REMARK SMILES IDX 82 64 47 65 48 66 62 68 83 69 50 70 34 71 35 72 43 73 36 74
REMARK SMILES IDX 38 75 44 76 37 77 39 78 40 79 41 80 42 81 66 82 67 83 75 84
REMARK SMILES IDX 68 85 70 86 76 87 69 88 71 89 72 90 73 91 74 92 51 93 52 94
REMARK SMILES IDX 60 95 53 96 55 97 61 98 54 99 56 100 57 101 58 102 59 103
REMARK H PARENT 81 56 49 67
REMARK Flexibility Score: inf
ROOT
ATOM      1  C   UNL A   1      55.417  23.755  33.954  1.00  0.00     0.188 C 
ENDROOT
BRANCH   1   2
ATOM      2  O   UNL A   1      54.533  23.037  33.111  1.00  0.00    -0.376 OA
BRANCH   2   3
ATOM      3  C   UNL A   1      53.775  21.980  33.688  1.00  0.00     0.202 C 
BRANCH   3   4
ATOM      4  C   UNL A   1      52.301  21.897  33.273  1.00  0.00     0.261 C 
BRANCH   4   5
ATOM      5  O   UNL A   1      51.688  20.749  33.893  1.00  0.00    -0.463 OA
BRANCH   5   6
ATOM      6  C   UNL A   1      50.329  20.708  33.879  1.00  0.00     0.310 C 
ATOM      7  O   UNL A   1      49.702  19.657  33.959  1.00  0.00    -0.252 OA
BRANCH   6   8
ATOM      8  C   UNL A   1      49.712  22.096  34.001  1.00  0.00     0.160 C 
BRANCH   8   9
ATOM      9  C   UNL A   1      48.973  22.478  35.232  1.00  0.00    -0.008 A 
ATOM     10  C   UNL A   1      45.147  22.793  35.105  1.00  0.00     0.119 A 
ATOM     11  C   UNL A   1      44.993  23.393  36.344  1.00  0.00     0.048 A 
ATOM     12  C   UNL A   1      46.409  22.376  34.679  1.00  0.00     0.057 A 
ATOM     13  C   UNL A   1      46.107  23.610  37.165  1.00  0.00     0.031 A 
ATOM     14  C   UNL A   1      47.563  22.629  35.447  1.00  0.00     0.007 A 
ATOM     15  C   UNL A   1      47.384  23.242  36.690  1.00  0.00     0.049 A 
ATOM     16  N   UNL A   1      48.645  23.366  37.248  1.00  0.00    -0.340 N 
ATOM     17  C   UNL A   1      49.597  23.107  36.291  1.00  0.00     0.020 A 
ATOM     18  C   UNL A   1      51.034  23.502  36.385  1.00  0.00     0.065 C 
BRANCH  10  19
ATOM     19  O   UNL A   1      44.079  22.534  34.288  1.00  0.00    -0.497 OA
ATOM     20  C   UNL A   1      42.992  23.432  34.527  1.00  0.00     0.278 C 
ENDBRANCH  10  19
BRANCH  16  21
ATOM     21  C   UNL A   1      48.933  23.583  38.664  1.00  0.00     0.158 C 
BRANCH  21  22
ATOM     22  C   UNL A   1      49.196  22.240  39.317  1.00  0.00    -0.021 A 
ATOM     23  C   UNL A   1      50.500  22.013  39.903  1.00  0.00     0.024 A 
ATOM     24  C   UNL A   1      48.333  21.213  39.224  1.00  0.00     0.077 A 
ATOM     25  C   UNL A   1      50.925  20.768  40.136  1.00  0.00     0.095 A 
ATOM     26  C   UNL A   1      48.748  19.835  39.617  1.00  0.00     0.255 A 
ATOM     27  N   UNL A   1      50.084  19.685  39.955  1.00  0.00    -0.258 N 
ATOM     28  O   UNL A   1      47.913  18.937  39.586  1.00  0.00    -0.269 OA
BRANCH  27  29
ATOM     29  C   UNL A   1      50.564  18.356  40.211  1.00  0.00     0.451 C 
ATOM     30  F   UNL A   1      51.902  18.276  39.998  1.00  0.00    -0.185 F 
ATOM     31  F   UNL A   1      50.325  17.967  41.489  1.00  0.00    -0.185 F 
ENDBRANCH  27  29
ENDBRANCH  21  22
ENDBRANCH  16  21
ENDBRANCH   8   9
ENDBRANCH   6   8
ENDBRANCH   5   6
ENDBRANCH   4   5
ENDBRANCH   3   4
ENDBRANCH   2   3
ENDBRANCH   1   2
BRANCH   1  32
ATOM     32  C   UNL A   1      55.207  25.265  34.147  1.00  0.00     0.188 C 
BRANCH  32  33
ATOM     33  O   UNL A   1      54.440  25.998  33.219  1.00  0.00    -0.376 OA
BRANCH  33  34
ATOM     34  C   UNL A   1      53.309  26.682  33.728  1.00  0.00     0.202 C 
BRANCH  34  35
ATOM     35  C   UNL A   1      51.998  25.877  33.786  1.00  0.00     0.261 C 
BRANCH  35  36
ATOM     36  O   UNL A   1      50.850  26.749  33.653  1.00  0.00    -0.460 OA
BRANCH  36  37
ATOM     37  C   UNL A   1      49.903  26.589  34.627  1.00  0.00     0.338 C 
ATOM     38  O   UNL A   1      50.082  26.702  35.815  1.00  0.00    -0.246 OA
BRANCH  37  39
ATOM     39  C   UNL A   1      48.563  26.665  33.968  1.00  0.00     0.060 A 
ATOM     40  C   UNL A   1      47.383  26.123  34.483  1.00  0.00     0.016 A 
ATOM     41  C   UNL A   1      48.573  27.146  32.660  1.00  0.00     0.016 A 
ATOM     42  C   UNL A   1      46.242  26.012  33.659  1.00  0.00     0.010 A 
ATOM     43  C   UNL A   1      47.473  26.970  31.824  1.00  0.00     0.010 A 
ATOM     44  C   UNL A   1      46.296  26.391  32.310  1.00  0.00    -0.014 A 
BRANCH  44  45
ATOM     45  C   UNL A   1      45.114  26.493  31.438  1.00  0.00     0.031 A 
ATOM     46  C   UNL A   1      44.966  25.365  30.503  1.00  0.00     0.074 A 
ATOM     47  C   UNL A   1      44.136  27.422  31.373  1.00  0.00     0.049 A 
ATOM     48  N   UNL A   1      45.294  25.450  29.256  1.00  0.00    -0.248 NA
ATOM     49  C   UNL A   1      44.520  24.045  30.940  1.00  0.00     0.031 C 
ATOM     50  C   UNL A   1      44.080  28.738  31.987  1.00  0.00     0.029 A 
ATOM     51  N   UNL A   1      42.914  27.338  30.747  1.00  0.00    -0.354 N 
ATOM     52  C   UNL A   1      44.897  24.258  28.690  1.00  0.00     0.074 A 
ATOM     53  C   UNL A   1      44.570  23.373  29.786  1.00  0.00     0.031 C 
ATOM     54  C   UNL A   1      42.819  29.236  31.909  1.00  0.00     0.029 A 
ATOM     55  C   UNL A   1      42.003  28.317  31.131  1.00  0.00     0.049 A 
ATOM     56  H   UNL A   1      42.701  26.642  30.082  1.00  0.00     0.167 HD
ATOM     57  C   UNL A   1      44.675  24.153  27.356  1.00  0.00     0.034 A 
ATOM     58  C   UNL A   1      40.835  28.656  30.535  1.00  0.00     0.034 A 
ATOM     59  C   UNL A   1      45.051  25.334  26.622  1.00  0.00     0.049 A 
ATOM     60  C   UNL A   1      41.073  28.501  29.086  1.00  0.00     0.074 A 
ATOM     61  C   UNL A   1      46.226  26.018  26.386  1.00  0.00     0.029 A 
ATOM     62  N   UNL A   1      44.031  26.200  26.306  1.00  0.00    -0.354 N 
ATOM     63  N   UNL A   1      41.878  29.263  28.398  1.00  0.00    -0.248 NA
ATOM     64  C   UNL A   1      40.624  27.295  28.413  1.00  0.00     0.031 C 
ATOM     65  C   UNL A   1      45.862  27.394  26.279  1.00  0.00     0.029 A 
ATOM     66  C   UNL A   1      44.481  27.489  26.459  1.00  0.00     0.049 A 
ATOM     67  H   UNL A   1      43.127  25.939  26.018  1.00  0.00     0.167 HD
ATOM     68  C   UNL A   1      42.382  28.427  27.414  1.00  0.00     0.074 A 
ATOM     69  C   UNL A   1      41.454  27.305  27.368  1.00  0.00     0.031 C 
ATOM     70  C   UNL A   1      43.651  28.581  26.937  1.00  0.00     0.034 A 
BRANCH  57  71
ATOM     71  C   UNL A   1      43.838  23.074  26.755  1.00  0.00     0.023 A 
ATOM     72  C   UNL A   1      42.440  23.160  26.875  1.00  0.00     0.012 A 
ATOM     73  C   UNL A   1      44.388  21.896  26.210  1.00  0.00     0.148 A 
ATOM     74  C   UNL A   1      41.617  22.124  26.425  1.00  0.00     0.002 A 
ATOM     75  C   UNL A   1      43.565  20.908  25.689  1.00  0.00     0.091 A 
ATOM     76  F   UNL A   1      45.711  21.690  26.289  1.00  0.00    -0.205 F 
ATOM     77  C   UNL A   1      42.177  21.011  25.804  1.00  0.00     0.022 A 
BRANCH  75  78
ATOM     78  S   UNL A   1      44.254  19.511  24.800  1.00  0.00     0.127 S 
ATOM     79  O   UNL A   1      44.624  20.120  23.527  1.00  0.00    -0.237 OA
ATOM     80  O   UNL A   1      45.379  19.126  25.655  1.00  0.00    -0.237 OA
ATOM     81  O   UNL A   1      43.178  18.528  24.763  1.00  0.00    -0.744 OA
ENDBRANCH  75  78
ENDBRANCH  57  71
BRANCH  58  82
ATOM     82  C   UNL A   1      39.496  28.931  31.120  1.00  0.00     0.023 A 
ATOM     83  C   UNL A   1      38.965  28.039  32.076  1.00  0.00     0.012 A 
ATOM     84  C   UNL A   1      38.819  30.159  30.925  1.00  0.00     0.148 A 
ATOM     85  C   UNL A   1      37.824  28.358  32.824  1.00  0.00     0.002 A 
ATOM     86  C   UNL A   1      37.664  30.463  31.655  1.00  0.00     0.091 A 
ATOM     87  F   UNL A   1      39.355  31.064  30.095  1.00  0.00    -0.205 F 
ATOM     88  C   UNL A   1      37.174  29.568  32.614  1.00  0.00     0.022 A 
BRANCH  86  89
ATOM     89  S   UNL A   1      36.735  31.994  31.434  1.00  0.00     0.127 S 
ATOM     90  O   UNL A   1      35.927  32.045  32.654  1.00  0.00    -0.237 OA
ATOM     91  O   UNL A   1      37.794  32.995  31.359  1.00  0.00    -0.237 OA
ATOM     92  O   UNL A   1      35.948  31.813  30.222  1.00  0.00    -0.744 OA
ENDBRANCH  86  89
ENDBRANCH  58  82
BRANCH  70  93
ATOM     93  C   UNL A   1      44.348  29.890  27.236  1.00  0.00     0.023 A 
ATOM     94  C   UNL A   1      45.376  29.959  28.197  1.00  0.00     0.012 A 
ATOM     95  C   UNL A   1      44.075  31.027  26.459  1.00  0.00     0.148 A 
ATOM     96  C   UNL A   1      46.099  31.135  28.406  1.00  0.00     0.002 A 
ATOM     97  C   UNL A   1      44.824  32.188  26.639  1.00  0.00     0.091 A 
ATOM     98  F   UNL A   1      43.101  30.950  25.540  1.00  0.00    -0.205 F 
ATOM     99  C   UNL A   1      45.832  32.248  27.617  1.00  0.00     0.022 A 
BRANCH  97 100
ATOM    100  S   UNL A   1      44.623  33.629  25.584  1.00  0.00     0.127 S 
ATOM    101  O   UNL A   1      43.517  34.333  26.232  1.00  0.00    -0.237 OA
ATOM    102  O   UNL A   1      45.923  34.291  25.706  1.00  0.00    -0.237 OA
ATOM    103  O   UNL A   1      44.342  33.112  24.251  1.00  0.00    -0.744 OA
ENDBRANCH  97 100
ENDBRANCH  70  93
ENDBRANCH  44  45
ENDBRANCH  37  39
ENDBRANCH  36  37
ENDBRANCH  35  36
ENDBRANCH  34  35
ENDBRANCH  33  34
ENDBRANCH  32  33
ENDBRANCH   1  32
TORSDOF 25
ENDMDL
MODEL 2
REMARK VINA RESULT:      -7.7      4.968     13.136
REMARK SMILES COc1ccc2c(c1)c(CC(=O)OCCOCCOCCOC(=O)c1ccc(-c3c4nc(c(-c5cccc(S(=O)(=O)[O-])c5F)c5ccc([nH]5)c(-c5cccc(S(=O)(=O)[O-])c5F)c5nc(c(-c6cccc(S(=O)(=O)[O-])c6F)c6ccc3[nH]6)C=C5)C=C4)cc1)c(C)n2Cc1ccn(C(F)F)c(=O)c1
REMARK SMILES IDX 17 1 16 2 15 3 14 4 13 5 11 6 12 7 10 8 9 9 3 10 4 11 8 12
REMARK SMILES IDX 5 13 7 14 6 15 90 16 88 17 89 18 2 19 1 20 91 21 92 22 93 23
REMARK SMILES IDX 101 24 94 25 99 26 95 27 100 28 96 29 97 30 98 31 18 32
REMARK SMILES IDX 19 33 20 34 21 35 22 36 23 37 24 38 25 39 26 40 87 41 27 42
REMARK SMILES IDX 86 43 28 44 29 45 30 46 80 47 31 48 85 49 79 50 81 51 32 52
REMARK SMILES IDX 84 53 78 54 77 55 33 57 65 58 45 59 64 60 46 61 49 62 63 63
REMARK SMILES IDX 82 64 47 65 48 66 62 68 83 69 50 70 34 71 35 72 43 73 36 74
REMARK SMILES IDX 38 75 44 76 37 77 39 78 40 79 41 80 42 81 66 82 67 83 75 84
REMARK SMILES IDX 68 85 70 86 76 87 69 88 71 89 72 90 73 91 74 92 51 93 52 94
REMARK SMILES IDX 60 95 53 96 55 97 61 98 54 99 56 100 57 101 58 102 59 103
REMARK H PARENT 81 56 49 67
REMARK Flexibility Score: inf
ROOT
ATOM      1  C   UNL A   1      41.723  27.491  34.540  1.00  0.00     0.188 C 
ENDROOT
BRANCH   1   2
ATOM      2  O   UNL A   1      40.598  27.820  33.742  1.00  0.00    -0.376 OA
BRANCH   2   3
ATOM      3  C   UNL A   1      40.626  29.049  33.027  1.00  0.00     0.202 C 
BRANCH   3   4
ATOM      4  C   UNL A   1      41.162  28.988  31.592  1.00  0.00     0.261 C 
BRANCH   4   5
ATOM      5  O   UNL A   1      40.088  28.667  30.687  1.00  0.00    -0.463 OA
BRANCH   5   6
ATOM      6  C   UNL A   1      40.095  29.307  29.487  1.00  0.00     0.310 C 
ATOM      7  O   UNL A   1      40.872  29.008  28.586  1.00  0.00    -0.252 OA
BRANCH   6   8
ATOM      8  C   UNL A   1      38.896  30.233  29.324  1.00  0.00     0.160 C 
BRANCH   8   9
ATOM      9  C   UNL A   1      38.577  31.234  30.375  1.00  0.00    -0.008 A 
ATOM     10  C   UNL A   1      41.078  34.055  31.104  1.00  0.00     0.119 A 
ATOM     11  C   UNL A   1      40.473  34.512  32.263  1.00  0.00     0.048 A 
ATOM     12  C   UNL A   1      40.487  33.032  30.360  1.00  0.00     0.057 A 
ATOM     13  C   UNL A   1      39.279  33.931  32.710  1.00  0.00     0.031 A 
ATOM     14  C   UNL A   1      39.320  32.382  30.805  1.00  0.00     0.007 A 
ATOM     15  C   UNL A   1      38.732  32.855  31.982  1.00  0.00     0.049 A 
ATOM     16  N   UNL A   1      37.609  32.074  32.196  1.00  0.00    -0.340 N 
ATOM     17  C   UNL A   1      37.642  30.983  31.360  1.00  0.00     0.020 A 
ATOM     18  C   UNL A   1      36.840  29.737  31.546  1.00  0.00     0.065 C 
BRANCH  10  19
ATOM     19  O   UNL A   1      42.227  34.618  30.616  1.00  0.00    -0.497 OA
ATOM     20  C   UNL A   1      42.869  33.777  29.653  1.00  0.00     0.278 C 
ENDBRANCH  10  19
BRANCH  16  21
ATOM     21  C   UNL A   1      36.481  32.421  33.058  1.00  0.00     0.158 C 
BRANCH  21  22
ATOM     22  C   UNL A   1      35.723  33.572  32.426  1.00  0.00    -0.021 A 
ATOM     23  C   UNL A   1      35.659  34.823  33.153  1.00  0.00     0.024 A 
ATOM     24  C   UNL A   1      34.981  33.422  31.315  1.00  0.00     0.077 A 
ATOM     25  C   UNL A   1      34.717  35.724  32.859  1.00  0.00     0.095 A 
ATOM     26  C   UNL A   1      34.024  34.485  30.893  1.00  0.00     0.255 A 
ATOM     27  N   UNL A   1      33.876  35.544  31.776  1.00  0.00    -0.258 N 
ATOM     28  O   UNL A   1      33.416  34.346  29.836  1.00  0.00    -0.269 OA
BRANCH  27  29
ATOM     29  C   UNL A   1      32.870  36.525  31.481  1.00  0.00     0.451 C 
ATOM     30  F   UNL A   1      31.736  36.280  32.186  1.00  0.00    -0.185 F 
ATOM     31  F   UNL A   1      33.280  37.782  31.785  1.00  0.00    -0.185 F 
ENDBRANCH  27  29
ENDBRANCH  21  22
ENDBRANCH  16  21
ENDBRANCH   8   9
ENDBRANCH   6   8
ENDBRANCH   5   6
ENDBRANCH   4   5
ENDBRANCH   3   4
ENDBRANCH   2   3
ENDBRANCH   1   2
BRANCH   1  32
ATOM     32  C   UNL A   1      41.567  27.433  36.068  1.00  0.00     0.188 C 
BRANCH  32  33
ATOM     33  O   UNL A   1      42.160  28.424  36.877  1.00  0.00    -0.376 OA
BRANCH  33  34
ATOM     34  C   UNL A   1      42.506  29.641  36.240  1.00  0.00     0.202 C 
BRANCH  34  35
ATOM     35  C   UNL A   1      42.345  30.919  37.084  1.00  0.00     0.261 C 
BRANCH  35  36
ATOM     36  O   UNL A   1      41.834  32.008  36.280  1.00  0.00    -0.460 OA
BRANCH  36  37
ATOM     37  C   UNL A   1      42.748  32.991  36.013  1.00  0.00     0.338 C 
ATOM     38  O   UNL A   1      43.109  33.850  36.780  1.00  0.00    -0.246 OA
BRANCH  37  39
ATOM     39  C   UNL A   1      43.508  32.579  34.793  1.00  0.00     0.060 A 
ATOM     40  C   UNL A   1      42.934  32.196  33.580  1.00  0.00     0.016 A 
ATOM     41  C   UNL A   1      44.877  32.391  34.985  1.00  0.00     0.016 A 
ATOM     42  C   UNL A   1      43.726  31.569  32.594  1.00  0.00     0.010 A 
ATOM     43  C   UNL A   1      45.643  31.706  34.046  1.00  0.00     0.010 A 
ATOM     44  C   UNL A   1      45.076  31.278  32.841  1.00  0.00    -0.014 A 
BRANCH  44  45
ATOM     45  C   UNL A   1      46.016  30.809  31.810  1.00  0.00     0.031 A 
ATOM     46  C   UNL A   1      46.336  31.824  30.792  1.00  0.00     0.074 A 
ATOM     47  C   UNL A   1      46.652  29.627  31.658  1.00  0.00     0.049 A 
ATOM     48  N   UNL A   1      45.799  31.822  29.616  1.00  0.00    -0.248 NA
ATOM     49  C   UNL A   1      47.217  32.955  31.070  1.00  0.00     0.031 C 
ATOM     50  C   UNL A   1      46.417  28.366  32.341  1.00  0.00     0.029 A 
ATOM     51  N   UNL A   1      47.726  29.328  30.851  1.00  0.00    -0.354 N 
ATOM     52  C   UNL A   1      46.432  32.829  28.921  1.00  0.00     0.074 A 
ATOM     53  C   UNL A   1      47.180  33.592  29.896  1.00  0.00     0.031 C 
ATOM     54  C   UNL A   1      47.444  27.510  32.107  1.00  0.00     0.029 A 
ATOM     55  C   UNL A   1      48.357  28.127  31.156  1.00  0.00     0.049 A 
ATOM     56  H   UNL A   1      48.023  29.916  30.118  1.00  0.00     0.167 HD
ATOM     57  C   UNL A   1      46.454  32.840  27.565  1.00  0.00     0.034 A 
ATOM     58  C   UNL A   1      49.259  27.441  30.414  1.00  0.00     0.034 A 
ATOM     59  C   UNL A   1      45.632  31.815  26.974  1.00  0.00     0.049 A 
ATOM     60  C   UNL A   1      48.845  27.636  29.011  1.00  0.00     0.074 A 
ATOM     61  C   UNL A   1      44.285  31.514  26.962  1.00  0.00     0.029 A 
ATOM     62  N   UNL A   1      46.285  30.676  26.565  1.00  0.00    -0.354 N 
ATOM     63  N   UNL A   1      47.749  27.142  28.503  1.00  0.00    -0.248 NA
ATOM     64  C   UNL A   1      49.513  28.640  28.201  1.00  0.00     0.031 C 
ATOM     65  C   UNL A   1      44.205  30.090  26.892  1.00  0.00     0.029 A 
ATOM     66  C   UNL A   1      45.506  29.586  26.868  1.00  0.00     0.049 A 
ATOM     67  H   UNL A   1      47.166  30.647  26.127  1.00  0.00     0.167 HD
ATOM     68  C   UNL A   1      47.361  28.075  27.554  1.00  0.00     0.074 A 
ATOM     69  C   UNL A   1      48.559  28.863  27.296  1.00  0.00     0.031 C 
ATOM     70  C   UNL A   1      46.043  28.303  27.285  1.00  0.00     0.034 A 
BRANCH  57  71
ATOM     71  C   UNL A   1      47.463  33.605  26.776  1.00  0.00     0.023 A 
ATOM     72  C   UNL A   1      47.051  34.769  26.105  1.00  0.00     0.012 A 
ATOM     73  C   UNL A   1      48.771  33.131  26.546  1.00  0.00     0.148 A 
ATOM     74  C   UNL A   1      47.929  35.462  25.267  1.00  0.00     0.002 A 
ATOM     75  C   UNL A   1      49.664  33.867  25.781  1.00  0.00     0.091 A 
ATOM     76  F   UNL A   1      49.117  31.913  26.988  1.00  0.00    -0.205 F 
ATOM     77  C   UNL A   1      49.245  35.029  25.128  1.00  0.00     0.022 A 
BRANCH  75  78
ATOM     78  S   UNL A   1      51.388  33.386  25.661  1.00  0.00     0.127 S 
ATOM     79  O   UNL A   1      51.747  33.213  27.064  1.00  0.00    -0.237 OA
ATOM     80  O   UNL A   1      51.308  32.149  24.882  1.00  0.00    -0.237 OA
ATOM     81  O   UNL A   1      52.032  34.488  24.956  1.00  0.00    -0.744 OA
ENDBRANCH  75  78
ENDBRANCH  57  71
BRANCH  58  82
ATOM     82  C   UNL A   1      50.534  26.784  30.807  1.00  0.00     0.023 A 
ATOM     83  C   UNL A   1      51.748  27.486  30.649  1.00  0.00     0.012 A 
ATOM     84  C   UNL A   1      50.572  25.570  31.534  1.00  0.00     0.148 A 
ATOM     85  C   UNL A   1      52.945  27.018  31.204  1.00  0.00     0.002 A 
ATOM     86  C   UNL A   1      51.774  25.090  32.065  1.00  0.00     0.091 A 
ATOM     87  F   UNL A   1      49.419  24.934  31.782  1.00  0.00    -0.205 F 
ATOM     88  C   UNL A   1      52.960  25.821  31.911  1.00  0.00     0.022 A 
BRANCH  86  89
ATOM     89  S   UNL A   1      51.899  23.537  32.973  1.00  0.00     0.127 S 
ATOM     90  O   UNL A   1      53.258  23.097  32.651  1.00  0.00    -0.237 OA
ATOM     91  O   UNL A   1      51.705  23.964  34.354  1.00  0.00    -0.237 OA
ATOM     92  O   UNL A   1      50.863  22.671  32.428  1.00  0.00    -0.744 OA
ENDBRANCH  86  89
ENDBRANCH  58  82
BRANCH  70  93
ATOM     93  C   UNL A   1      45.049  27.271  27.770  1.00  0.00     0.023 A 
ATOM     94  C   UNL A   1      44.480  27.362  29.055  1.00  0.00     0.012 A 
ATOM     95  C   UNL A   1      44.574  26.283  26.892  1.00  0.00     0.148 A 
ATOM     96  C   UNL A   1      43.482  26.479  29.474  1.00  0.00     0.002 A 
ATOM     97  C   UNL A   1      43.551  25.427  27.296  1.00  0.00     0.091 A 
ATOM     98  F   UNL A   1      45.116  26.207  25.667  1.00  0.00    -0.205 F 
ATOM     99  C   UNL A   1      43.008  25.517  28.589  1.00  0.00     0.022 A 
BRANCH  97 100
ATOM    100  S   UNL A   1      42.803  24.237  26.177  1.00  0.00     0.127 S 
ATOM    101  O   UNL A   1      41.932  23.477  27.072  1.00  0.00    -0.237 OA
ATOM    102  O   UNL A   1      42.098  25.100  25.228  1.00  0.00    -0.237 OA
ATOM    103  O   UNL A   1      43.908  23.488  25.592  1.00  0.00    -0.744 OA
ENDBRANCH  97 100
ENDBRANCH  70  93
ENDBRANCH  44  45
ENDBRANCH  37  39
ENDBRANCH  36  37
ENDBRANCH  35  36
ENDBRANCH  34  35
ENDBRANCH  33  34
ENDBRANCH  32  33
ENDBRANCH   1  32
TORSDOF 25
ENDMDL
MODEL 3
REMARK VINA RESULT:      -7.6      8.139     13.703
REMARK SMILES COc1ccc2c(c1)c(CC(=O)OCCOCCOCCOC(=O)c1ccc(-c3c4nc(c(-c5cccc(S(=O)(=O)[O-])c5F)c5ccc([nH]5)c(-c5cccc(S(=O)(=O)[O-])c5F)c5nc(c(-c6cccc(S(=O)(=O)[O-])c6F)c6ccc3[nH]6)C=C5)C=C4)cc1)c(C)n2Cc1ccn(C(F)F)c(=O)c1
REMARK SMILES IDX 17 1 16 2 15 3 14 4 13 5 11 6 12 7 10 8 9 9 3 10 4 11 8 12
REMARK SMILES IDX 5 13 7 14 6 15 90 16 88 17 89 18 2 19 1 20 91 21 92 22 93 23
REMARK SMILES IDX 101 24 94 25 99 26 95 27 100 28 96 29 97 30 98 31 18 32
REMARK SMILES IDX 19 33 20 34 21 35 22 36 23 37 24 38 25 39 26 40 87 41 27 42
REMARK SMILES IDX 86 43 28 44 29 45 30 46 80 47 31 48 85 49 79 50 81 51 32 52
REMARK SMILES IDX 84 53 78 54 77 55 33 57 65 58 45 59 64 60 46 61 49 62 63 63
REMARK SMILES IDX 82 64 47 65 48 66 62 68 83 69 50 70 34 71 35 72 43 73 36 74
REMARK SMILES IDX 38 75 44 76 37 77 39 78 40 79 41 80 42 81 66 82 67 83 75 84
REMARK SMILES IDX 68 85 70 86 76 87 69 88 71 89 72 90 73 91 74 92 51 93 52 94
REMARK SMILES IDX 60 95 53 96 55 97 61 98 54 99 56 100 57 101 58 102 59 103
REMARK H PARENT 81 56 49 67
REMARK Flexibility Score: inf
ROOT
ATOM      1  C   UNL A   1      39.156  30.640  34.655  1.00  0.00     0.188 C 
ENDROOT
BRANCH   1   2
ATOM      2  O   UNL A   1      39.489  31.699  33.774  1.00  0.00    -0.376 OA
BRANCH   2   3
ATOM      3  C   UNL A   1      38.437  32.543  33.320  1.00  0.00     0.202 C 
BRANCH   3   4
ATOM      4  C   UNL A   1      37.428  31.911  32.354  1.00  0.00     0.261 C 
BRANCH   4   5
ATOM      5  O   UNL A   1      38.100  30.961  31.504  1.00  0.00    -0.463 OA
BRANCH   5   6
ATOM      6  C   UNL A   1      37.311  30.066  30.854  1.00  0.00     0.310 C 
ATOM      7  O   UNL A   1      36.571  29.287  31.447  1.00  0.00    -0.252 OA
BRANCH   6   8
ATOM      8  C   UNL A   1      37.275  30.319  29.351  1.00  0.00     0.160 C 
BRANCH   8   9
ATOM      9  C   UNL A   1      36.125  31.037  28.742  1.00  0.00    -0.008 A 
ATOM     10  C   UNL A   1      33.259  29.012  27.182  1.00  0.00     0.119 A 
ATOM     11  C   UNL A   1      32.628  30.076  26.561  1.00  0.00     0.048 A 
ATOM     12  C   UNL A   1      34.373  29.232  27.994  1.00  0.00     0.057 A 
ATOM     13  C   UNL A   1      33.121  31.378  26.721  1.00  0.00     0.031 A 
ATOM     14  C   UNL A   1      34.936  30.516  28.134  1.00  0.00     0.007 A 
ATOM     15  C   UNL A   1      34.286  31.574  27.491  1.00  0.00     0.049 A 
ATOM     16  N   UNL A   1      35.013  32.714  27.788  1.00  0.00    -0.340 N 
ATOM     17  C   UNL A   1      36.216  32.358  28.351  1.00  0.00     0.020 A 
ATOM     18  C   UNL A   1      37.410  33.249  28.453  1.00  0.00     0.065 C 
BRANCH  10  19
ATOM     19  O   UNL A   1      32.789  27.730  27.076  1.00  0.00    -0.497 OA
ATOM     20  C   UNL A   1      32.394  27.412  25.738  1.00  0.00     0.278 C 
ENDBRANCH  10  19
BRANCH  16  21
ATOM     21  C   UNL A   1      34.528  34.088  27.674  1.00  0.00     0.158 C 
BRANCH  21  22
ATOM     22  C   UNL A   1      34.285  34.635  29.068  1.00  0.00    -0.021 A 
ATOM     23  C   UNL A   1      34.475  33.741  30.191  1.00  0.00     0.024 A 
ATOM     24  C   UNL A   1      33.746  35.848  29.281  1.00  0.00     0.077 A 
ATOM     25  C   UNL A   1      33.921  34.020  31.374  1.00  0.00     0.095 A 
ATOM     26  C   UNL A   1      33.251  36.230  30.635  1.00  0.00     0.255 A 
ATOM     27  N   UNL A   1      33.276  35.224  31.589  1.00  0.00    -0.258 N 
ATOM     28  O   UNL A   1      32.832  37.371  30.809  1.00  0.00    -0.269 OA
BRANCH  27  29
ATOM     29  C   UNL A   1      32.687  35.502  32.869  1.00  0.00     0.451 C 
ATOM     30  F   UNL A   1      33.373  36.480  33.514  1.00  0.00    -0.185 F 
ATOM     31  F   UNL A   1      31.398  35.907  32.758  1.00  0.00    -0.185 F 
ENDBRANCH  27  29
ENDBRANCH  21  22
ENDBRANCH  16  21
ENDBRANCH   8   9
ENDBRANCH   6   8
ENDBRANCH   5   6
ENDBRANCH   4   5
ENDBRANCH   3   4
ENDBRANCH   2   3
ENDBRANCH   1   2
BRANCH   1  32
ATOM     32  C   UNL A   1      37.950  30.797  35.595  1.00  0.00     0.188 C 
BRANCH  32  33
ATOM     33  O   UNL A   1      38.113  30.642  36.987  1.00  0.00    -0.376 OA
BRANCH  33  34
ATOM     34  C   UNL A   1      38.055  31.822  37.769  1.00  0.00     0.202 C 
BRANCH  34  35
ATOM     35  C   UNL A   1      38.795  33.048  37.203  1.00  0.00     0.261 C 
BRANCH  35  36
ATOM     36  O   UNL A   1      40.096  33.196  37.820  1.00  0.00    -0.460 OA
BRANCH  36  37
ATOM     37  C   UNL A   1      40.786  34.308  37.423  1.00  0.00     0.338 C 
ATOM     38  O   UNL A   1      41.243  35.156  38.151  1.00  0.00    -0.246 OA
BRANCH  37  39
ATOM     39  C   UNL A   1      41.229  34.084  36.013  1.00  0.00     0.060 A 
ATOM     40  C   UNL A   1      42.174  33.140  35.608  1.00  0.00     0.016 A 
ATOM     41  C   UNL A   1      40.787  35.037  35.096  1.00  0.00     0.016 A 
ATOM     42  C   UNL A   1      42.715  33.200  34.305  1.00  0.00     0.010 A 
ATOM     43  C   UNL A   1      41.372  35.144  33.837  1.00  0.00     0.010 A 
ATOM     44  C   UNL A   1      42.351  34.233  33.428  1.00  0.00    -0.014 A 
BRANCH  44  45
ATOM     45  C   UNL A   1      42.710  34.261  32.001  1.00  0.00     0.031 A 
ATOM     46  C   UNL A   1      42.432  33.001  31.292  1.00  0.00     0.074 A 
ATOM     47  C   UNL A   1      43.220  35.249  31.232  1.00  0.00     0.049 A 
ATOM     48  N   UNL A   1      43.357  32.143  31.012  1.00  0.00    -0.248 NA
ATOM     49  C   UNL A   1      41.076  32.592  30.934  1.00  0.00     0.031 C 
ATOM     50  C   UNL A   1      43.794  36.521  31.637  1.00  0.00     0.029 A 
ATOM     51  N   UNL A   1      43.277  35.324  29.860  1.00  0.00    -0.354 N 
ATOM     52  C   UNL A   1      42.742  31.175  30.248  1.00  0.00     0.074 A 
ATOM     53  C   UNL A   1      41.319  31.411  30.356  1.00  0.00     0.031 C 
ATOM     54  C   UNL A   1      43.928  37.336  30.561  1.00  0.00     0.029 A 
ATOM     55  C   UNL A   1      43.554  36.594  29.366  1.00  0.00     0.049 A 
ATOM     56  H   UNL A   1      43.133  34.544  29.276  1.00  0.00     0.167 HD
ATOM     57  C   UNL A   1      43.457  30.373  29.421  1.00  0.00     0.034 A 
ATOM     58  C   UNL A   1      43.919  36.945  28.109  1.00  0.00     0.034 A 
ATOM     59  C   UNL A   1      44.881  30.536  29.562  1.00  0.00     0.049 A 
ATOM     60  C   UNL A   1      44.773  35.843  27.625  1.00  0.00     0.074 A 
ATOM     61  C   UNL A   1      45.803  30.339  30.571  1.00  0.00     0.029 A 
ATOM     62  N   UNL A   1      45.493  31.343  28.633  1.00  0.00    -0.354 N 
ATOM     63  N   UNL A   1      45.954  35.575  28.111  1.00  0.00    -0.248 NA
ATOM     64  C   UNL A   1      44.203  34.821  26.765  1.00  0.00     0.031 C 
ATOM     65  C   UNL A   1      46.808  31.335  30.379  1.00  0.00     0.029 A 
ATOM     66  C   UNL A   1      46.453  32.096  29.264  1.00  0.00     0.049 A 
ATOM     67  H   UNL A   1      45.278  31.377  27.673  1.00  0.00     0.167 HD
ATOM     68  C   UNL A   1      46.070  34.199  27.988  1.00  0.00     0.074 A 
ATOM     69  C   UNL A   1      45.059  33.826  27.008  1.00  0.00     0.031 C 
ATOM     70  C   UNL A   1      46.773  33.465  28.899  1.00  0.00     0.034 A 
BRANCH  57  71
ATOM     71  C   UNL A   1      42.848  29.645  28.270  1.00  0.00     0.023 A 
ATOM     72  C   UNL A   1      43.012  30.171  26.977  1.00  0.00     0.012 A 
ATOM     73  C   UNL A   1      41.986  28.541  28.435  1.00  0.00     0.148 A 
ATOM     74  C   UNL A   1      42.373  29.588  25.879  1.00  0.00     0.002 A 
ATOM     75  C   UNL A   1      41.422  27.916  27.333  1.00  0.00     0.091 A 
ATOM     76  F   UNL A   1      41.634  28.161  29.672  1.00  0.00    -0.205 F 
ATOM     77  C   UNL A   1      41.602  28.442  26.052  1.00  0.00     0.022 A 
BRANCH  75  78
ATOM     78  S   UNL A   1      40.503  26.386  27.514  1.00  0.00     0.127 S 
ATOM     79  O   UNL A   1      41.336  25.648  28.457  1.00  0.00    -0.237 OA
ATOM     80  O   UNL A   1      39.224  26.856  28.049  1.00  0.00    -0.237 OA
ATOM     81  O   UNL A   1      40.415  25.844  26.163  1.00  0.00    -0.744 OA
ENDBRANCH  75  78
ENDBRANCH  57  71
BRANCH  58  82
ATOM     82  C   UNL A   1      43.451  38.059  27.242  1.00  0.00     0.023 A 
ATOM     83  C   UNL A   1      42.065  38.249  27.052  1.00  0.00     0.012 A 
ATOM     84  C   UNL A   1      44.320  39.071  26.769  1.00  0.00     0.148 A 
ATOM     85  C   UNL A   1      41.559  39.402  26.440  1.00  0.00     0.002 A 
ATOM     86  C   UNL A   1      43.813  40.210  26.133  1.00  0.00     0.091 A 
ATOM     87  F   UNL A   1      45.631  38.961  27.022  1.00  0.00    -0.205 F 
ATOM     88  C   UNL A   1      42.431  40.382  25.980  1.00  0.00     0.022 A 
BRANCH  86  89
ATOM     89  S   UNL A   1      44.864  41.521  25.479  1.00  0.00     0.127 S 
ATOM     90  O   UNL A   1      45.712  40.796  24.530  1.00  0.00    -0.237 OA
ATOM     91  O   UNL A   1      43.895  42.425  24.867  1.00  0.00    -0.237 OA
ATOM     92  O   UNL A   1      45.594  42.056  26.620  1.00  0.00    -0.744 OA
ENDBRANCH  86  89
ENDBRANCH  58  82
BRANCH  70  93
ATOM     93  C   UNL A   1      47.711  34.216  29.817  1.00  0.00     0.023 A 
ATOM     94  C   UNL A   1      48.965  34.666  29.360  1.00  0.00     0.012 A 
ATOM     95  C   UNL A   1      47.286  34.597  31.101  1.00  0.00     0.148 A 
ATOM     96  C   UNL A   1      49.793  35.453  30.163  1.00  0.00     0.002 A 
ATOM     97  C   UNL A   1      48.095  35.415  31.887  1.00  0.00     0.091 A 
ATOM     98  F   UNL A   1      46.087  34.171  31.526  1.00  0.00    -0.205 F 
ATOM     99  C   UNL A   1      49.354  35.838  31.424  1.00  0.00     0.022 A 
BRANCH  97 100
ATOM    100  S   UNL A   1      47.552  36.054  33.476  1.00  0.00     0.127 S 
ATOM    101  O   UNL A   1      48.755  36.725  33.966  1.00  0.00    -0.237 OA
ATOM    102  O   UNL A   1      46.462  36.954  33.096  1.00  0.00    -0.237 OA
ATOM    103  O   UNL A   1      47.124  34.893  34.248  1.00  0.00    -0.744 OA
ENDBRANCH  97 100
ENDBRANCH  70  93
ENDBRANCH  44  45
ENDBRANCH  37  39
ENDBRANCH  36  37
ENDBRANCH  35  36
ENDBRANCH  34  35
ENDBRANCH  33  34
ENDBRANCH  32  33
ENDBRANCH   1  32
TORSDOF 25
ENDMDL
