MODEL 1
REMARK VINA RESULT:      -8.9      0.000      0.000
REMARK SMILES C=C(C)CN(CC)C(=O)C[N@H+]1CC[C@@H](C(=O)OCCOCCOCCOC(=O)c2ccc(-c3c4nc(c(-c5cccc(S(=O)(=O)[O-])c5F)c5ccc([nH]5)c(-c5cccc(S(=O)(=O)[O-])c5F)c5nc(c(-c6cccc(S(=O)(=O)[O-])c6F)c6ccc3[nH]6)C=C5)C=C4)cc2)[C@@H]1C
REMARK SMILES IDX 21 1 20 2 19 3 18 4 17 5 15 6 16 7 14 8 11 9 12 10 92 11
REMARK SMILES IDX 13 13 93 14 10 15 8 16 9 17 5 18 4 19 2 20 1 21 3 22 6 23
REMARK SMILES IDX 7 24 22 25 23 26 24 27 25 28 26 29 27 30 28 31 29 32 30 33
REMARK SMILES IDX 91 34 31 35 90 36 32 37 33 38 34 39 84 40 35 41 89 42 83 43
REMARK SMILES IDX 85 44 36 45 88 46 82 47 81 48 37 50 69 51 49 52 68 53 50 54
REMARK SMILES IDX 53 55 67 56 86 57 51 58 52 59 66 61 87 62 54 63 38 64 39 65
REMARK SMILES IDX 47 66 40 67 42 68 48 69 41 70 43 71 44 72 45 73 46 74 70 75
REMARK SMILES IDX 71 76 79 77 72 78 74 79 80 80 73 81 75 82 76 83 77 84 78 85
REMARK SMILES IDX 55 86 56 87 64 88 57 89 59 90 65 91 58 92 60 93 61 94 62 95
REMARK SMILES IDX 63 96
REMARK H PARENT 11 12 85 49 53 60
REMARK Flexibility Score: inf
ROOT
ATOM      1  C   UNL A   1      33.174  27.042  25.614  1.00  0.00     0.188 C 
ENDROOT
BRANCH   1   2
ATOM      2  O   UNL A   1      33.112  25.636  25.493  1.00  0.00    -0.376 OA
BRANCH   2   3
ATOM      3  C   UNL A   1      31.967  24.967  25.994  1.00  0.00     0.202 C 
BRANCH   3   4
ATOM      4  C   UNL A   1      31.940  23.437  26.009  1.00  0.00     0.261 C 
BRANCH   4   5
ATOM      5  O   UNL A   1      32.892  22.783  25.125  1.00  0.00    -0.463 OA
BRANCH   5   6
ATOM      6  C   UNL A   1      34.079  22.420  25.680  1.00  0.00     0.315 C 
ATOM      7  O   UNL A   1      34.371  22.678  26.845  1.00  0.00    -0.252 OA
BRANCH   6   8
ATOM      8  C   UNL A   1      35.106  21.755  24.765  1.00  0.00     0.162 C 
ATOM      9  N   UNL A   1      37.472  21.243  24.724  1.00  0.00    -0.324 N 
ATOM     10  C   UNL A   1      36.740  19.983  24.737  1.00  0.00     0.264 C 
ATOM     11  C   UNL A   1      36.505  22.325  24.490  1.00  0.00     0.195 C 
ATOM     12  H   UNL A   1      38.136  21.239  23.949  1.00  0.00     0.348 HD
ATOM     13  C   UNL A   1      35.370  20.339  25.267  1.00  0.00     0.083 C 
ATOM     14  C   UNL A   1      36.664  22.719  23.009  1.00  0.00     0.076 C 
BRANCH   9  15
ATOM     15  C   UNL A   1      38.422  21.438  25.834  1.00  0.00     0.364 C 
BRANCH  15  16
ATOM     16  C   UNL A   1      39.577  20.422  25.956  1.00  0.00     0.278 C 
ATOM     17  O   UNL A   1      39.496  19.375  25.300  1.00  0.00    -0.268 OA
BRANCH  16  18
ATOM     18  N   UNL A   1      40.687  20.693  26.756  1.00  0.00    -0.334 N 
BRANCH  18  19
ATOM     19  C   UNL A   1      40.841  22.020  27.376  1.00  0.00     0.149 C 
BRANCH  19  20
ATOM     20  C   UNL A   1      41.461  23.115  26.532  1.00  0.00    -0.061 C 
ATOM     21  C   UNL A   1      41.092  24.406  26.517  1.00  0.00     0.009 C 
ATOM     22  C   UNL A   1      42.517  22.657  25.568  1.00  0.00     0.041 C 
ENDBRANCH  19  20
ENDBRANCH  18  19
BRANCH  18  23
ATOM     23  C   UNL A   1      41.635  19.677  27.243  1.00  0.00     0.116 C 
ATOM     24  C   UNL A   1      42.539  18.998  26.224  1.00  0.00     0.027 C 
ENDBRANCH  18  23
ENDBRANCH  16  18
ENDBRANCH  15  16
ENDBRANCH   9  15
ENDBRANCH   6   8
ENDBRANCH   5   6
ENDBRANCH   4   5
ENDBRANCH   3   4
ENDBRANCH   2   3
ENDBRANCH   1   2
BRANCH   1  25
ATOM     25  C   UNL A   1      31.859  27.829  25.642  1.00  0.00     0.188 C 
BRANCH  25  26
ATOM     26  O   UNL A   1      31.614  28.872  26.568  1.00  0.00    -0.376 OA
BRANCH  26  27
ATOM     27  C   UNL A   1      31.784  30.217  26.148  1.00  0.00     0.202 C 
BRANCH  27  28
ATOM     28  C   UNL A   1      32.467  31.211  27.093  1.00  0.00     0.261 C 
BRANCH  28  29
ATOM     29  O   UNL A   1      33.887  31.055  27.160  1.00  0.00    -0.460 OA
BRANCH  29  30
ATOM     30  C   UNL A   1      34.555  32.087  27.748  1.00  0.00     0.338 C 
ATOM     31  O   UNL A   1      34.163  33.221  27.910  1.00  0.00    -0.246 OA
BRANCH  30  32
ATOM     32  C   UNL A   1      35.743  31.511  28.419  1.00  0.00     0.060 A 
ATOM     33  C   UNL A   1      35.662  30.188  28.886  1.00  0.00     0.016 A 
ATOM     34  C   UNL A   1      36.941  32.220  28.494  1.00  0.00     0.016 A 
ATOM     35  C   UNL A   1      36.784  29.567  29.427  1.00  0.00     0.010 A 
ATOM     36  C   UNL A   1      38.053  31.613  29.071  1.00  0.00     0.010 A 
ATOM     37  C   UNL A   1      37.970  30.297  29.563  1.00  0.00    -0.014 A 
BRANCH  37  38
ATOM     38  C   UNL A   1      39.038  29.803  30.455  1.00  0.00     0.031 A 
ATOM     39  C   UNL A   1      39.104  30.399  31.832  1.00  0.00     0.074 A 
ATOM     40  C   UNL A   1      39.942  28.895  30.049  1.00  0.00     0.049 A 
ATOM     41  N   UNL A   1      40.013  30.254  32.756  1.00  0.00    -0.248 NA
ATOM     42  C   UNL A   1      37.995  31.294  32.209  1.00  0.00     0.031 C 
ATOM     43  C   UNL A   1      39.955  28.233  28.746  1.00  0.00     0.029 A 
ATOM     44  N   UNL A   1      41.050  28.406  30.691  1.00  0.00    -0.354 N 
ATOM     45  C   UNL A   1      39.613  31.076  33.802  1.00  0.00     0.074 A 
ATOM     46  C   UNL A   1      38.382  31.718  33.401  1.00  0.00     0.031 C 
ATOM     47  C   UNL A   1      41.047  27.450  28.670  1.00  0.00     0.029 A 
ATOM     48  C   UNL A   1      41.824  27.587  29.901  1.00  0.00     0.049 A 
ATOM     49  H   UNL A   1      41.271  28.618  31.627  1.00  0.00     0.167 HD
ATOM     50  C   UNL A   1      40.215  31.274  34.996  1.00  0.00     0.034 A 
ATOM     51  C   UNL A   1      43.037  27.051  30.138  1.00  0.00     0.034 A 
ATOM     52  C   UNL A   1      41.433  30.625  35.389  1.00  0.00     0.049 A 
ATOM     53  C   UNL A   1      43.708  27.315  31.464  1.00  0.00     0.074 A 
ATOM     54  C   UNL A   1      42.111  30.724  36.590  1.00  0.00     0.029 A 
ATOM     55  N   UNL A   1      42.164  29.766  34.582  1.00  0.00    -0.354 N 
ATOM     56  N   UNL A   1      43.277  28.020  32.484  1.00  0.00    -0.248 NA
ATOM     57  C   UNL A   1      45.020  26.687  31.684  1.00  0.00     0.031 C 
ATOM     58  C   UNL A   1      43.273  29.953  36.494  1.00  0.00     0.029 A 
ATOM     59  C   UNL A   1      43.293  29.336  35.253  1.00  0.00     0.049 A 
ATOM     60  H   UNL A   1      41.914  29.501  33.667  1.00  0.00     0.167 HD
ATOM     61  C   UNL A   1      44.242  27.885  33.479  1.00  0.00     0.074 A 
ATOM     62  C   UNL A   1      45.273  27.020  32.943  1.00  0.00     0.031 C 
ATOM     63  C   UNL A   1      44.277  28.430  34.720  1.00  0.00     0.034 A 
BRANCH  50  64
ATOM     64  C   UNL A   1      39.565  32.235  35.951  1.00  0.00     0.023 A 
ATOM     65  C   UNL A   1      38.515  31.800  36.785  1.00  0.00     0.012 A 
ATOM     66  C   UNL A   1      40.016  33.567  36.043  1.00  0.00     0.148 A 
ATOM     67  C   UNL A   1      37.899  32.684  37.670  1.00  0.00     0.002 A 
ATOM     68  C   UNL A   1      39.432  34.428  36.963  1.00  0.00     0.091 A 
ATOM     69  F   UNL A   1      40.994  33.968  35.220  1.00  0.00    -0.205 F 
ATOM     70  C   UNL A   1      38.366  33.993  37.767  1.00  0.00     0.022 A 
BRANCH  68  71
ATOM     71  S   UNL A   1      40.014  36.106  37.221  1.00  0.00     0.127 S 
ATOM     72  O   UNL A   1      39.080  36.589  38.237  1.00  0.00    -0.237 OA
ATOM     73  O   UNL A   1      41.378  35.886  37.702  1.00  0.00    -0.237 OA
ATOM     74  O   UNL A   1      39.923  36.768  35.927  1.00  0.00    -0.744 OA
ENDBRANCH  68  71
ENDBRANCH  50  64
BRANCH  51  75
ATOM     75  C   UNL A   1      43.698  26.200  29.108  1.00  0.00     0.023 A 
ATOM     76  C   UNL A   1      43.725  24.801  29.274  1.00  0.00     0.012 A 
ATOM     77  C   UNL A   1      44.301  26.766  27.968  1.00  0.00     0.148 A 
ATOM     78  C   UNL A   1      44.371  23.986  28.343  1.00  0.00     0.002 A 
ATOM     79  C   UNL A   1      44.894  25.943  27.016  1.00  0.00     0.091 A 
ATOM     80  F   UNL A   1      44.278  28.100  27.835  1.00  0.00    -0.205 F 
ATOM     81  C   UNL A   1      44.947  24.555  27.211  1.00  0.00     0.022 A 
BRANCH  79  82
ATOM     82  S   UNL A   1      45.559  26.576  25.472  1.00  0.00     0.127 S 
ATOM     83  O   UNL A   1      45.799  25.344  24.724  1.00  0.00    -0.237 OA
ATOM     84  O   UNL A   1      44.448  27.390  24.979  1.00  0.00    -0.237 OA
ATOM     85  O   UNL A   1      46.748  27.335  25.835  1.00  0.00    -0.744 OA
ENDBRANCH  79  82
ENDBRANCH  51  75
BRANCH  63  86
ATOM     86  C   UNL A   1      45.429  28.064  35.620  1.00  0.00     0.023 A 
ATOM     87  C   UNL A   1      46.586  28.865  35.654  1.00  0.00     0.012 A 
ATOM     88  C   UNL A   1      45.317  26.972  36.505  1.00  0.00     0.148 A 
ATOM     89  C   UNL A   1      47.627  28.567  36.532  1.00  0.00     0.002 A 
ATOM     90  C   UNL A   1      46.334  26.714  37.415  1.00  0.00     0.091 A 
ATOM     91  F   UNL A   1      44.212  26.214  36.447  1.00  0.00    -0.205 F 
ATOM     92  C   UNL A   1      47.496  27.502  37.421  1.00  0.00     0.022 A 
BRANCH  90  93
ATOM     93  S   UNL A   1      46.206  25.432  38.665  1.00  0.00     0.127 S 
ATOM     94  O   UNL A   1      46.185  24.220  37.848  1.00  0.00    -0.237 OA
ATOM     95  O   UNL A   1      47.434  25.627  39.435  1.00  0.00    -0.237 OA
ATOM     96  O   UNL A   1      44.979  25.706  39.402  1.00  0.00    -0.744 OA
ENDBRANCH  90  93
ENDBRANCH  63  86
ENDBRANCH  37  38
ENDBRANCH  30  32
ENDBRANCH  29  30
ENDBRANCH  28  29
ENDBRANCH  27  28
ENDBRANCH  26  27
ENDBRANCH  25  26
ENDBRANCH   1  25
TORSDOF 26
ENDMDL
MODEL 2
REMARK VINA RESULT:      -7.9      3.855      8.264
REMARK SMILES C=C(C)CN(CC)C(=O)C[N@H+]1CC[C@@H](C(=O)OCCOCCOCCOC(=O)c2ccc(-c3c4nc(c(-c5cccc(S(=O)(=O)[O-])c5F)c5ccc([nH]5)c(-c5cccc(S(=O)(=O)[O-])c5F)c5nc(c(-c6cccc(S(=O)(=O)[O-])c6F)c6ccc3[nH]6)C=C5)C=C4)cc2)[C@@H]1C
REMARK SMILES IDX 21 1 20 2 19 3 18 4 17 5 15 6 16 7 14 8 11 9 12 10 92 11
REMARK SMILES IDX 13 13 93 14 10 15 8 16 9 17 5 18 4 19 2 20 1 21 3 22 6 23
REMARK SMILES IDX 7 24 22 25 23 26 24 27 25 28 26 29 27 30 28 31 29 32 30 33
REMARK SMILES IDX 91 34 31 35 90 36 32 37 33 38 34 39 84 40 35 41 89 42 83 43
REMARK SMILES IDX 85 44 36 45 88 46 82 47 81 48 37 50 69 51 49 52 68 53 50 54
REMARK SMILES IDX 53 55 67 56 86 57 51 58 52 59 66 61 87 62 54 63 38 64 39 65
REMARK SMILES IDX 47 66 40 67 42 68 48 69 41 70 43 71 44 72 45 73 46 74 70 75
REMARK SMILES IDX 71 76 79 77 72 78 74 79 80 80 73 81 75 82 76 83 77 84 78 85
REMARK SMILES IDX 55 86 56 87 64 88 57 89 59 90 65 91 58 92 60 93 61 94 62 95
REMARK SMILES IDX 63 96
REMARK H PARENT 11 12 85 49 53 60
REMARK Flexibility Score: inf
ROOT
ATOM      1  C   UNL A   1      33.568  26.713  25.946  1.00  0.00     0.188 C 
ENDROOT
BRANCH   1   2
ATOM      2  O   UNL A   1      33.508  25.317  25.740  1.00  0.00    -0.376 OA
BRANCH   2   3
ATOM      3  C   UNL A   1      32.267  24.661  25.939  1.00  0.00     0.202 C 
BRANCH   3   4
ATOM      4  C   UNL A   1      32.251  23.152  26.200  1.00  0.00     0.261 C 
BRANCH   4   5
ATOM      5  O   UNL A   1      33.100  22.355  25.329  1.00  0.00    -0.463 OA
BRANCH   5   6
ATOM      6  C   UNL A   1      34.275  21.926  25.861  1.00  0.00     0.315 C 
ATOM      7  O   UNL A   1      34.436  21.763  27.068  1.00  0.00    -0.252 OA
BRANCH   6   8
ATOM      8  C   UNL A   1      35.452  21.743  24.903  1.00  0.00     0.162 C 
ATOM      9  N   UNL A   1      37.867  21.919  24.904  1.00  0.00    -0.324 N 
ATOM     10  C   UNL A   1      37.518  20.524  24.665  1.00  0.00     0.264 C 
ATOM     11  C   UNL A   1      36.636  22.716  24.805  1.00  0.00     0.195 C 
ATOM     12  H   UNL A   1      38.509  22.235  24.177  1.00  0.00     0.348 HD
ATOM     13  C   UNL A   1      36.100  20.389  25.172  1.00  0.00     0.083 C 
ATOM     14  C   UNL A   1      36.685  23.395  23.423  1.00  0.00     0.076 C 
BRANCH   9  15
ATOM     15  C   UNL A   1      38.718  22.167  26.082  1.00  0.00     0.364 C 
BRANCH  15  16
ATOM     16  C   UNL A   1      38.901  23.637  26.518  1.00  0.00     0.278 C 
ATOM     17  O   UNL A   1      37.881  24.302  26.744  1.00  0.00    -0.268 OA
BRANCH  16  18
ATOM     18  N   UNL A   1      40.174  24.181  26.682  1.00  0.00    -0.334 N 
BRANCH  18  19
ATOM     19  C   UNL A   1      40.467  25.533  26.178  1.00  0.00     0.149 C 
BRANCH  19  20
ATOM     20  C   UNL A   1      41.239  26.465  27.090  1.00  0.00    -0.061 C 
ATOM     21  C   UNL A   1      40.725  27.199  28.090  1.00  0.00     0.009 C 
ATOM     22  C   UNL A   1      42.693  26.630  26.751  1.00  0.00     0.041 C 
ENDBRANCH  19  20
ENDBRANCH  18  19
BRANCH  18  23
ATOM     23  C   UNL A   1      41.224  23.608  27.541  1.00  0.00     0.116 C 
ATOM     24  C   UNL A   1      42.356  22.843  26.869  1.00  0.00     0.027 C 
ENDBRANCH  18  23
ENDBRANCH  16  18
ENDBRANCH  15  16
ENDBRANCH   9  15
ENDBRANCH   6   8
ENDBRANCH   5   6
ENDBRANCH   4   5
ENDBRANCH   3   4
ENDBRANCH   2   3
ENDBRANCH   1   2
BRANCH   1  25
ATOM     25  C   UNL A   1      32.291  27.536  25.737  1.00  0.00     0.188 C 
BRANCH  25  26
ATOM     26  O   UNL A   1      31.984  28.677  26.517  1.00  0.00    -0.376 OA
BRANCH  26  27
ATOM     27  C   UNL A   1      32.232  29.966  25.978  1.00  0.00     0.202 C 
BRANCH  27  28
ATOM     28  C   UNL A   1      32.020  31.197  26.864  1.00  0.00     0.261 C 
BRANCH  28  29
ATOM     29  O   UNL A   1      33.223  31.693  27.455  1.00  0.00    -0.460 OA
BRANCH  29  30
ATOM     30  C   UNL A   1      33.158  32.976  27.911  1.00  0.00     0.338 C 
ATOM     31  O   UNL A   1      32.271  33.779  27.727  1.00  0.00    -0.246 OA
BRANCH  30  32
ATOM     32  C   UNL A   1      34.232  33.136  28.919  1.00  0.00     0.060 A 
ATOM     33  C   UNL A   1      34.288  34.342  29.639  1.00  0.00     0.016 A 
ATOM     34  C   UNL A   1      35.096  32.085  29.221  1.00  0.00     0.016 A 
ATOM     35  C   UNL A   1      35.211  34.499  30.668  1.00  0.00     0.010 A 
ATOM     36  C   UNL A   1      36.046  32.256  30.225  1.00  0.00     0.010 A 
ATOM     37  C   UNL A   1      36.123  33.472  30.931  1.00  0.00    -0.014 A 
BRANCH  37  38
ATOM     38  C   UNL A   1      37.328  33.747  31.741  1.00  0.00     0.031 A 
ATOM     39  C   UNL A   1      38.573  34.136  30.997  1.00  0.00     0.074 A 
ATOM     40  C   UNL A   1      37.332  33.617  33.078  1.00  0.00     0.049 A 
ATOM     41  N   UNL A   1      39.790  34.293  31.439  1.00  0.00    -0.248 NA
ATOM     42  C   UNL A   1      38.422  34.363  29.548  1.00  0.00     0.031 C 
ATOM     43  C   UNL A   1      36.175  33.272  33.902  1.00  0.00     0.029 A 
ATOM     44  N   UNL A   1      38.366  33.725  33.971  1.00  0.00    -0.354 N 
ATOM     45  C   UNL A   1      40.557  34.588  30.320  1.00  0.00     0.074 A 
ATOM     46  C   UNL A   1      39.673  34.588  29.177  1.00  0.00     0.031 C 
ATOM     47  C   UNL A   1      36.575  33.157  35.182  1.00  0.00     0.029 A 
ATOM     48  C   UNL A   1      38.017  33.382  35.257  1.00  0.00     0.049 A 
ATOM     49  H   UNL A   1      39.271  34.019  33.718  1.00  0.00     0.167 HD
ATOM     50  C   UNL A   1      41.883  34.843  30.251  1.00  0.00     0.034 A 
ATOM     51  C   UNL A   1      38.789  33.230  36.352  1.00  0.00     0.034 A 
ATOM     52  C   UNL A   1      42.751  34.851  31.393  1.00  0.00     0.049 A 
ATOM     53  C   UNL A   1      40.273  33.486  36.243  1.00  0.00     0.074 A 
ATOM     54  C   UNL A   1      44.103  35.134  31.442  1.00  0.00     0.029 A 
ATOM     55  N   UNL A   1      42.354  34.547  32.686  1.00  0.00    -0.354 N 
ATOM     56  N   UNL A   1      40.975  33.855  35.198  1.00  0.00    -0.248 NA
ATOM     57  C   UNL A   1      41.067  33.330  37.471  1.00  0.00     0.031 C 
ATOM     58  C   UNL A   1      44.532  34.963  32.762  1.00  0.00     0.029 A 
ATOM     59  C   UNL A   1      43.438  34.623  33.541  1.00  0.00     0.049 A 
ATOM     60  H   UNL A   1      41.437  34.312  32.955  1.00  0.00     0.167 HD
ATOM     61  C   UNL A   1      42.281  34.018  35.651  1.00  0.00     0.074 A 
ATOM     62  C   UNL A   1      42.269  33.720  37.069  1.00  0.00     0.031 C 
ATOM     63  C   UNL A   1      43.391  34.376  34.960  1.00  0.00     0.034 A 
BRANCH  50  64
ATOM     64  C   UNL A   1      42.465  35.127  28.895  1.00  0.00     0.023 A 
ATOM     65  C   UNL A   1      42.267  36.386  28.291  1.00  0.00     0.012 A 
ATOM     66  C   UNL A   1      43.236  34.154  28.229  1.00  0.00     0.148 A 
ATOM     67  C   UNL A   1      42.797  36.659  27.030  1.00  0.00     0.002 A 
ATOM     68  C   UNL A   1      43.803  34.451  26.997  1.00  0.00     0.091 A 
ATOM     69  F   UNL A   1      43.385  32.953  28.807  1.00  0.00    -0.205 F 
ATOM     70  C   UNL A   1      43.574  35.696  26.391  1.00  0.00     0.022 A 
BRANCH  68  71
ATOM     71  S   UNL A   1      44.884  33.310  26.130  1.00  0.00     0.127 S 
ATOM     72  O   UNL A   1      45.508  34.188  25.141  1.00  0.00    -0.237 OA
ATOM     73  O   UNL A   1      45.778  32.864  27.200  1.00  0.00    -0.237 OA
ATOM     74  O   UNL A   1      44.021  32.271  25.584  1.00  0.00    -0.744 OA
ENDBRANCH  68  71
ENDBRANCH  50  64
BRANCH  51  75
ATOM     75  C   UNL A   1      38.179  32.828  37.652  1.00  0.00     0.023 A 
ATOM     76  C   UNL A   1      37.623  31.542  37.791  1.00  0.00     0.012 A 
ATOM     77  C   UNL A   1      38.145  33.712  38.748  1.00  0.00     0.148 A 
ATOM     78  C   UNL A   1      37.012  31.156  38.985  1.00  0.00     0.002 A 
ATOM     79  C   UNL A   1      37.585  33.301  39.953  1.00  0.00     0.091 A 
ATOM     80  F   UNL A   1      38.666  34.938  38.592  1.00  0.00    -0.205 F 
ATOM     81  C   UNL A   1      37.002  32.030  40.068  1.00  0.00     0.022 A 
BRANCH  79  82
ATOM     82  S   UNL A   1      37.628  34.316  41.434  1.00  0.00     0.127 S 
ATOM     83  O   UNL A   1      36.220  34.336  41.823  1.00  0.00    -0.237 OA
ATOM     84  O   UNL A   1      38.498  33.530  42.310  1.00  0.00    -0.237 OA
ATOM     85  O   UNL A   1      38.186  35.596  41.021  1.00  0.00    -0.744 OA
ENDBRANCH  79  82
ENDBRANCH  51  75
BRANCH  63  86
ATOM     86  C   UNL A   1      44.680  34.532  35.724  1.00  0.00     0.023 A 
ATOM     87  C   UNL A   1      44.950  35.722  36.428  1.00  0.00     0.012 A 
ATOM     88  C   UNL A   1      45.581  33.452  35.820  1.00  0.00     0.148 A 
ATOM     89  C   UNL A   1      46.111  35.845  37.190  1.00  0.00     0.002 A 
ATOM     90  C   UNL A   1      46.707  33.562  36.625  1.00  0.00     0.091 A 
ATOM     91  F   UNL A   1      45.312  32.333  35.132  1.00  0.00    -0.205 F 
ATOM     92  C   UNL A   1      46.981  34.763  37.299  1.00  0.00     0.022 A 
BRANCH  90  93
ATOM     93  S   UNL A   1      47.827  32.187  36.910  1.00  0.00     0.127 S 
ATOM     94  O   UNL A   1      48.810  32.378  35.845  1.00  0.00    -0.237 OA
ATOM     95  O   UNL A   1      48.325  32.468  38.257  1.00  0.00    -0.237 OA
ATOM     96  O   UNL A   1      47.020  30.979  36.802  1.00  0.00    -0.744 OA
ENDBRANCH  90  93
ENDBRANCH  63  86
ENDBRANCH  37  38
ENDBRANCH  30  32
ENDBRANCH  29  30
ENDBRANCH  28  29
ENDBRANCH  27  28
ENDBRANCH  26  27
ENDBRANCH  25  26
ENDBRANCH   1  25
TORSDOF 26
ENDMDL
MODEL 3
REMARK VINA RESULT:      -7.7      3.999     10.047
REMARK SMILES C=C(C)CN(CC)C(=O)C[N@H+]1CC[C@@H](C(=O)OCCOCCOCCOC(=O)c2ccc(-c3c4nc(c(-c5cccc(S(=O)(=O)[O-])c5F)c5ccc([nH]5)c(-c5cccc(S(=O)(=O)[O-])c5F)c5nc(c(-c6cccc(S(=O)(=O)[O-])c6F)c6ccc3[nH]6)C=C5)C=C4)cc2)[C@@H]1C
REMARK SMILES IDX 21 1 20 2 19 3 18 4 17 5 15 6 16 7 14 8 11 9 12 10 92 11
REMARK SMILES IDX 13 13 93 14 10 15 8 16 9 17 5 18 4 19 2 20 1 21 3 22 6 23
REMARK SMILES IDX 7 24 22 25 23 26 24 27 25 28 26 29 27 30 28 31 29 32 30 33
REMARK SMILES IDX 91 34 31 35 90 36 32 37 33 38 34 39 84 40 35 41 89 42 83 43
REMARK SMILES IDX 85 44 36 45 88 46 82 47 81 48 37 50 69 51 49 52 68 53 50 54
REMARK SMILES IDX 53 55 67 56 86 57 51 58 52 59 66 61 87 62 54 63 38 64 39 65
REMARK SMILES IDX 47 66 40 67 42 68 48 69 41 70 43 71 44 72 45 73 46 74 70 75
REMARK SMILES IDX 71 76 79 77 72 78 74 79 80 80 73 81 75 82 76 83 77 84 78 85
REMARK SMILES IDX 55 86 56 87 64 88 57 89 59 90 65 91 58 92 60 93 61 94 62 95
REMARK SMILES IDX 63 96
REMARK H PARENT 11 12 85 49 53 60
REMARK Flexibility Score: inf
ROOT
ATOM      1  C   UNL A   1      35.461  35.014  33.035  1.00  0.00     0.188 C 
ENDROOT
BRANCH   1   2
ATOM      2  O   UNL A   1      35.645  33.923  33.912  1.00  0.00    -0.376 OA
BRANCH   2   3
ATOM      3  C   UNL A   1      35.736  34.186  35.303  1.00  0.00     0.202 C 
BRANCH   3   4
ATOM      4  C   UNL A   1      36.866  33.547  36.114  1.00  0.00     0.261 C 
BRANCH   4   5
ATOM      5  O   UNL A   1      36.553  33.255  37.504  1.00  0.00    -0.463 OA
BRANCH   5   6
ATOM      6  C   UNL A   1      37.211  32.205  38.063  1.00  0.00     0.315 C 
ATOM      7  O   UNL A   1      37.422  31.157  37.457  1.00  0.00    -0.252 OA
BRANCH   6   8
ATOM      8  C   UNL A   1      37.606  32.327  39.535  1.00  0.00     0.162 C 
ATOM      9  N   UNL A   1      36.584  32.807  41.677  1.00  0.00    -0.324 N 
ATOM     10  C   UNL A   1      37.076  31.435  41.710  1.00  0.00     0.264 C 
ATOM     11  C   UNL A   1      37.112  33.446  40.463  1.00  0.00     0.195 C 
ATOM     12  H   UNL A   1      36.946  33.313  42.485  1.00  0.00     0.348 HD
ATOM     13  C   UNL A   1      37.219  31.042  40.257  1.00  0.00     0.083 C 
ATOM     14  C   UNL A   1      38.279  34.337  40.930  1.00  0.00     0.076 C 
BRANCH   9  15
ATOM     15  C   UNL A   1      35.142  32.971  41.934  1.00  0.00     0.364 C 
BRANCH  15  16
ATOM     16  C   UNL A   1      34.564  32.256  43.174  1.00  0.00     0.278 C 
ATOM     17  O   UNL A   1      34.024  31.154  43.004  1.00  0.00    -0.268 OA
BRANCH  16  18
ATOM     18  N   UNL A   1      34.677  32.821  44.443  1.00  0.00    -0.334 N 
BRANCH  18  19
ATOM     19  C   UNL A   1      35.225  32.029  45.556  1.00  0.00     0.149 C 
BRANCH  19  20
ATOM     20  C   UNL A   1      36.648  31.525  45.418  1.00  0.00    -0.061 C 
ATOM     21  C   UNL A   1      37.729  32.273  45.146  1.00  0.00     0.009 C 
ATOM     22  C   UNL A   1      36.808  30.034  45.505  1.00  0.00     0.041 C 
ENDBRANCH  19  20
ENDBRANCH  18  19
BRANCH  18  23
ATOM     23  C   UNL A   1      34.508  34.254  44.738  1.00  0.00     0.116 C 
ATOM     24  C   UNL A   1      33.092  34.809  44.798  1.00  0.00     0.027 C 
ENDBRANCH  18  23
ENDBRANCH  16  18
ENDBRANCH  15  16
ENDBRANCH   9  15
ENDBRANCH   6   8
ENDBRANCH   5   6
ENDBRANCH   4   5
ENDBRANCH   3   4
ENDBRANCH   2   3
ENDBRANCH   1   2
BRANCH   1  25
ATOM     25  C   UNL A   1      34.030  35.469  32.729  1.00  0.00     0.188 C 
BRANCH  25  26
ATOM     26  O   UNL A   1      33.742  36.537  31.844  1.00  0.00    -0.376 OA
BRANCH  26  27
ATOM     27  C   UNL A   1      32.840  36.318  30.771  1.00  0.00     0.202 C 
BRANCH  27  28
ATOM     28  C   UNL A   1      33.395  35.900  29.406  1.00  0.00     0.261 C 
BRANCH  28  29
ATOM     29  O   UNL A   1      33.666  34.501  29.300  1.00  0.00    -0.460 OA
BRANCH  29  30
ATOM     30  C   UNL A   1      34.655  34.168  28.423  1.00  0.00     0.338 C 
ATOM     31  O   UNL A   1      34.792  34.558  27.285  1.00  0.00    -0.246 OA
BRANCH  30  32
ATOM     32  C   UNL A   1      35.705  33.464  29.196  1.00  0.00     0.060 A 
ATOM     33  C   UNL A   1      37.048  33.740  28.888  1.00  0.00     0.016 A 
ATOM     34  C   UNL A   1      35.375  32.635  30.266  1.00  0.00     0.016 A 
ATOM     35  C   UNL A   1      38.069  33.186  29.655  1.00  0.00     0.010 A 
ATOM     36  C   UNL A   1      36.396  32.049  31.009  1.00  0.00     0.010 A 
ATOM     37  C   UNL A   1      37.744  32.302  30.688  1.00  0.00    -0.014 A 
BRANCH  37  38
ATOM     38  C   UNL A   1      38.786  31.425  31.261  1.00  0.00     0.031 A 
ATOM     39  C   UNL A   1      39.424  31.876  32.545  1.00  0.00     0.074 A 
ATOM     40  C   UNL A   1      39.184  30.298  30.648  1.00  0.00     0.049 A 
ATOM     41  N   UNL A   1      40.448  31.380  33.181  1.00  0.00    -0.248 NA
ATOM     42  C   UNL A   1      38.828  33.062  33.187  1.00  0.00     0.031 C 
ATOM     43  C   UNL A   1      38.616  29.754  29.417  1.00  0.00     0.029 A 
ATOM     44  N   UNL A   1      40.194  29.429  30.970  1.00  0.00    -0.354 N 
ATOM     45  C   UNL A   1      40.651  32.218  34.269  1.00  0.00     0.074 A 
ATOM     46  C   UNL A   1      39.647  33.256  34.209  1.00  0.00     0.031 C 
ATOM     47  C   UNL A   1      39.316  28.660  29.063  1.00  0.00     0.029 A 
ATOM     48  C   UNL A   1      40.400  28.454  30.022  1.00  0.00     0.049 A 
ATOM     49  H   UNL A   1      40.722  29.496  31.799  1.00  0.00     0.167 HD
ATOM     50  C   UNL A   1      41.588  32.129  35.239  1.00  0.00     0.034 A 
ATOM     51  C   UNL A   1      41.379  27.532  29.927  1.00  0.00     0.034 A 
ATOM     52  C   UNL A   1      42.575  31.089  35.296  1.00  0.00     0.049 A 
ATOM     53  C   UNL A   1      42.436  27.473  31.003  1.00  0.00     0.074 A 
ATOM     54  C   UNL A   1      43.549  30.881  36.255  1.00  0.00     0.029 A 
ATOM     55  N   UNL A   1      42.724  30.091  34.346  1.00  0.00    -0.354 N 
ATOM     56  N   UNL A   1      42.565  28.213  32.078  1.00  0.00    -0.248 NA
ATOM     57  C   UNL A   1      43.468  26.433  30.866  1.00  0.00     0.031 C 
ATOM     58  C   UNL A   1      44.312  29.777  35.863  1.00  0.00     0.029 A 
ATOM     59  C   UNL A   1      43.781  29.269  34.688  1.00  0.00     0.049 A 
ATOM     60  H   UNL A   1      42.159  29.983  33.547  1.00  0.00     0.167 HD
ATOM     61  C   UNL A   1      43.662  27.702  32.767  1.00  0.00     0.074 A 
ATOM     62  C   UNL A   1      44.153  26.581  31.993  1.00  0.00     0.031 C 
ATOM     63  C   UNL A   1      44.217  28.124  33.930  1.00  0.00     0.034 A 
BRANCH  50  64
ATOM     64  C   UNL A   1      41.587  33.188  36.306  1.00  0.00     0.023 A 
ATOM     65  C   UNL A   1      40.777  33.036  37.450  1.00  0.00     0.012 A 
ATOM     66  C   UNL A   1      42.414  34.322  36.188  1.00  0.00     0.148 A 
ATOM     67  C   UNL A   1      40.763  34.015  38.443  1.00  0.00     0.002 A 
ATOM     68  C   UNL A   1      42.433  35.267  37.205  1.00  0.00     0.091 A 
ATOM     69  F   UNL A   1      43.152  34.462  35.078  1.00  0.00    -0.205 F 
ATOM     70  C   UNL A   1      41.599  35.122  38.326  1.00  0.00     0.022 A 
BRANCH  68  71
ATOM     71  S   UNL A   1      43.531  36.686  37.186  1.00  0.00     0.127 S 
ATOM     72  O   UNL A   1      43.158  37.332  35.929  1.00  0.00    -0.237 OA
ATOM     73  O   UNL A   1      43.118  37.409  38.390  1.00  0.00    -0.237 OA
ATOM     74  O   UNL A   1      44.885  36.150  37.233  1.00  0.00    -0.744 OA
ENDBRANCH  68  71
ENDBRANCH  50  64
BRANCH  51  75
ATOM     75  C   UNL A   1      41.405  26.578  28.782  1.00  0.00     0.023 A 
ATOM     76  C   UNL A   1      40.463  25.533  28.724  1.00  0.00     0.012 A 
ATOM     77  C   UNL A   1      42.358  26.697  27.752  1.00  0.00     0.148 A 
ATOM     78  C   UNL A   1      40.491  24.604  27.683  1.00  0.00     0.002 A 
ATOM     79  C   UNL A   1      42.346  25.802  26.688  1.00  0.00     0.091 A 
ATOM     80  F   UNL A   1      43.258  27.689  27.832  1.00  0.00    -0.205 F 
ATOM     81  C   UNL A   1      41.425  24.743  26.661  1.00  0.00     0.022 A 
BRANCH  79  82
ATOM     82  S   UNL A   1      43.436  25.971  25.270  1.00  0.00     0.127 S 
ATOM     83  O   UNL A   1      44.726  26.209  25.913  1.00  0.00    -0.237 OA
ATOM     84  O   UNL A   1      43.299  24.663  24.630  1.00  0.00    -0.237 OA
ATOM     85  O   UNL A   1      42.905  27.082  24.493  1.00  0.00    -0.744 OA
ENDBRANCH  79  82
ENDBRANCH  51  75
BRANCH  63  86
ATOM     86  C   UNL A   1      45.380  27.340  34.482  1.00  0.00     0.023 A 
ATOM     87  C   UNL A   1      46.700  27.782  34.270  1.00  0.00     0.012 A 
ATOM     88  C   UNL A   1      45.150  26.213  35.298  1.00  0.00     0.148 A 
ATOM     89  C   UNL A   1      47.775  27.096  34.834  1.00  0.00     0.002 A 
ATOM     90  C   UNL A   1      46.221  25.568  35.902  1.00  0.00     0.091 A 
ATOM     91  F   UNL A   1      43.886  25.802  35.476  1.00  0.00    -0.205 F 
ATOM     92  C   UNL A   1      47.535  25.999  35.659  1.00  0.00     0.022 A 
BRANCH  90  93
ATOM     93  S   UNL A   1      46.002  24.215  37.062  1.00  0.00     0.127 S 
ATOM     94  O   UNL A   1      45.303  24.877  38.162  1.00  0.00    -0.237 OA
ATOM     95  O   UNL A   1      45.183  23.278  36.293  1.00  0.00    -0.237 OA
ATOM     96  O   UNL A   1      47.340  23.732  37.377  1.00  0.00    -0.744 OA
ENDBRANCH  90  93
ENDBRANCH  63  86
ENDBRANCH  37  38
ENDBRANCH  30  32
ENDBRANCH  29  30
ENDBRANCH  28  29
ENDBRANCH  27  28
ENDBRANCH  26  27
ENDBRANCH  25  26
ENDBRANCH   1  25
TORSDOF 26
ENDMDL
