MODEL 1
REMARK VINA RESULT:      -9.0      0.000      0.000
REMARK SMILES Nc1cc([N+](=O)[O-])ccc1[C@H]([NH3+])C(=O)OCCOCCOCCOC(=O)c1ccc(-c2c3nc(c(-c4cccc(S(=O)(=O)[O-])c4F)c4ccc([nH]4)c(-c4cccc(S(=O)(=O)[O-])c4F)c4nc(c(-c5cccc(S(=O)(=O)[O-])c5F)c5ccc2[nH]5)C=C4)C=C3)cc1
REMARK SMILES IDX 20 1 19 2 18 3 17 4 16 5 15 6 13 7 14 8 11 9 10 10 2 11 3 12
REMARK SMILES IDX 4 13 9 14 8 15 1 16 5 19 6 20 7 21 12 22 21 26 22 27 23 28
REMARK SMILES IDX 24 29 25 30 26 31 27 32 28 33 89 34 29 35 88 36 30 37 31 38
REMARK SMILES IDX 32 39 82 40 33 41 87 42 81 43 83 44 34 45 86 46 80 47 79 48
REMARK SMILES IDX 35 50 67 51 47 52 66 53 48 54 51 55 65 56 84 57 49 58 50 59
REMARK SMILES IDX 64 61 85 62 52 63 36 64 37 65 45 66 38 67 40 68 46 69 39 70
REMARK SMILES IDX 41 71 42 72 43 73 44 74 68 75 69 76 77 77 70 78 72 79 78 80
REMARK SMILES IDX 71 81 73 82 74 83 75 84 76 85 53 86 54 87 62 88 55 89 57 90
REMARK SMILES IDX 63 91 56 92 58 93 59 94 60 95 61 96
REMARK H PARENT 1 17 1 18 12 23 12 24 12 25 83 49 51 60
REMARK Flexibility Score: inf
ROOT
ATOM      1  C   UNL A   1      34.958  33.492  28.013  1.00  0.00     0.188 C 
ENDROOT
BRANCH   1   2
ATOM      2  C   UNL A   1      34.791  32.091  28.615  1.00  0.00     0.188 C 
BRANCH   2   3
ATOM      3  O   UNL A   1      35.103  30.956  27.837  1.00  0.00    -0.376 OA
BRANCH   3   4
ATOM      4  C   UNL A   1      34.095  30.273  27.116  1.00  0.00     0.202 C 
BRANCH   4   5
ATOM      5  C   UNL A   1      33.559  28.876  27.476  1.00  0.00     0.261 C 
BRANCH   5   6
ATOM      6  O   UNL A   1      33.756  27.821  26.529  1.00  0.00    -0.459 OA
BRANCH   6   7
ATOM      7  C   UNL A   1      32.679  27.009  26.317  1.00  0.00     0.369 C 
ATOM      8  O   UNL A   1      31.993  26.551  27.228  1.00  0.00    -0.245 OA
BRANCH   7   9
ATOM      9  C   UNL A   1      32.380  26.721  24.809  1.00  0.00     0.325 C 
BRANCH   9  10
ATOM     10  C   UNL A   1      31.202  27.529  24.243  1.00  0.00     0.044 A 
ATOM     11  C   UNL A   1      31.278  28.910  23.931  1.00  0.00     0.048 A 
ATOM     12  C   UNL A   1      30.205  29.527  23.273  1.00  0.00     0.111 A 
ATOM     13  C   UNL A   1      29.017  28.831  23.038  1.00  0.00     0.271 A 
ATOM     14  C   UNL A   1      29.959  26.881  24.061  1.00  0.00     0.020 A 
ATOM     15  C   UNL A   1      28.875  27.515  23.461  1.00  0.00     0.086 A 
BRANCH  11  16
ATOM     16  N   UNL A   1      32.432  29.671  24.112  1.00  0.00    -0.398 N 
ATOM     17  H   UNL A   1      32.853  29.721  24.999  1.00  0.00     0.156 HD
ATOM     18  H   UNL A   1      32.823  30.159  23.352  1.00  0.00     0.156 HD
ENDBRANCH  11  16
BRANCH  13  19
ATOM     19  N   UNL A   1      27.916  29.490  22.337  1.00  0.00     0.062 N 
ATOM     20  O   UNL A   1      26.851  29.646  22.951  1.00  0.00    -0.258 OA
ATOM     21  O   UNL A   1      28.115  29.868  21.173  1.00  0.00    -0.258 OA
ENDBRANCH  13  19
ENDBRANCH   9  10
BRANCH   9  22
ATOM     22  N   UNL A   1      32.241  25.268  24.578  1.00  0.00    -0.342 N 
ATOM     23  H   UNL A   1      32.799  24.999  23.768  1.00  0.00     0.345 HD
ATOM     24  H   UNL A   1      31.261  25.044  24.405  1.00  0.00     0.345 HD
ATOM     25  H   UNL A   1      32.566  24.760  25.400  1.00  0.00     0.345 HD
ENDBRANCH   9  22
ENDBRANCH   7   9
ENDBRANCH   6   7
ENDBRANCH   5   6
ENDBRANCH   4   5
ENDBRANCH   3   4
ENDBRANCH   2   3
ENDBRANCH   1   2
BRANCH   1  26
ATOM     26  O   UNL A   1      33.829  34.309  27.833  1.00  0.00    -0.376 OA
BRANCH  26  27
ATOM     27  C   UNL A   1      33.481  35.248  28.833  1.00  0.00     0.202 C 
BRANCH  27  28
ATOM     28  C   UNL A   1      33.227  34.924  30.322  1.00  0.00     0.261 C 
BRANCH  28  29
ATOM     29  O   UNL A   1      32.742  35.965  31.179  1.00  0.00    -0.460 OA
BRANCH  29  30
ATOM     30  C   UNL A   1      33.360  36.077  32.382  1.00  0.00     0.338 C 
ATOM     31  O   UNL A   1      32.997  36.758  33.333  1.00  0.00    -0.246 OA
BRANCH  30  32
ATOM     32  C   UNL A   1      34.428  35.061  32.474  1.00  0.00     0.060 A 
ATOM     33  C   UNL A   1      34.170  33.864  33.164  1.00  0.00     0.016 A 
ATOM     34  C   UNL A   1      35.680  35.290  31.907  1.00  0.00     0.016 A 
ATOM     35  C   UNL A   1      35.169  32.902  33.306  1.00  0.00     0.010 A 
ATOM     36  C   UNL A   1      36.690  34.338  32.077  1.00  0.00     0.010 A 
ATOM     37  C   UNL A   1      36.451  33.155  32.803  1.00  0.00    -0.014 A 
BRANCH  37  38
ATOM     38  C   UNL A   1      37.590  32.292  33.200  1.00  0.00     0.031 A 
ATOM     39  C   UNL A   1      38.344  32.640  34.454  1.00  0.00     0.074 A 
ATOM     40  C   UNL A   1      37.972  31.239  32.457  1.00  0.00     0.049 A 
ATOM     41  N   UNL A   1      39.427  32.104  34.949  1.00  0.00    -0.248 NA
ATOM     42  C   UNL A   1      37.804  33.754  35.252  1.00  0.00     0.031 C 
ATOM     43  C   UNL A   1      37.323  30.790  31.228  1.00  0.00     0.029 A 
ATOM     44  N   UNL A   1      39.036  30.383  32.612  1.00  0.00    -0.354 N 
ATOM     45  C   UNL A   1      39.724  32.837  36.092  1.00  0.00     0.074 A 
ATOM     46  C   UNL A   1      38.709  33.861  36.211  1.00  0.00     0.031 C 
ATOM     47  C   UNL A   1      38.031  29.771  30.711  1.00  0.00     0.029 A 
ATOM     48  C   UNL A   1      39.199  29.519  31.555  1.00  0.00     0.049 A 
ATOM     49  H   UNL A   1      39.623  30.388  33.403  1.00  0.00     0.167 HD
ATOM     50  C   UNL A   1      40.742  32.672  36.968  1.00  0.00     0.034 A 
ATOM     51  C   UNL A   1      40.199  28.656  31.278  1.00  0.00     0.034 A 
ATOM     52  C   UNL A   1      41.750  31.653  36.849  1.00  0.00     0.049 A 
ATOM     53  C   UNL A   1      41.343  28.507  32.249  1.00  0.00     0.074 A 
ATOM     54  C   UNL A   1      42.796  31.374  37.712  1.00  0.00     0.029 A 
ATOM     55  N   UNL A   1      41.853  30.760  35.795  1.00  0.00    -0.354 N 
ATOM     56  N   UNL A   1      41.552  29.130  33.383  1.00  0.00    -0.248 NA
ATOM     57  C   UNL A   1      42.373  27.511  31.916  1.00  0.00     0.031 C 
ATOM     58  C   UNL A   1      43.556  30.340  37.155  1.00  0.00     0.029 A 
ATOM     59  C   UNL A   1      42.955  29.941  35.972  1.00  0.00     0.049 A 
ATOM     60  H   UNL A   1      41.234  30.715  35.030  1.00  0.00     0.167 HD
ATOM     61  C   UNL A   1      42.714  28.580  33.916  1.00  0.00     0.074 A 
ATOM     62  C   UNL A   1      43.154  27.560  32.988  1.00  0.00     0.031 C 
ATOM     63  C   UNL A   1      43.362  28.897  35.065  1.00  0.00     0.034 A 
BRANCH  50  64
ATOM     64  C   UNL A   1      40.812  33.623  38.136  1.00  0.00     0.023 A 
ATOM     65  C   UNL A   1      39.941  33.453  39.232  1.00  0.00     0.012 A 
ATOM     66  C   UNL A   1      41.755  34.668  38.158  1.00  0.00     0.148 A 
ATOM     67  C   UNL A   1      39.975  34.339  40.309  1.00  0.00     0.002 A 
ATOM     68  C   UNL A   1      41.818  35.514  39.258  1.00  0.00     0.091 A 
ATOM     69  F   UNL A   1      42.560  34.826  37.098  1.00  0.00    -0.205 F 
ATOM     70  C   UNL A   1      40.919  35.362  40.327  1.00  0.00     0.022 A 
BRANCH  68  71
ATOM     71  S   UNL A   1      43.052  36.809  39.412  1.00  0.00     0.127 S 
ATOM     72  O   UNL A   1      44.287  36.071  39.149  1.00  0.00    -0.237 OA
ATOM     73  O   UNL A   1      42.659  37.735  38.349  1.00  0.00    -0.237 OA
ATOM     74  O   UNL A   1      42.914  37.339  40.760  1.00  0.00    -0.744 OA
ENDBRANCH  68  71
ENDBRANCH  50  64
BRANCH  51  75
ATOM     75  C   UNL A   1      40.159  27.861  30.019  1.00  0.00     0.023 A 
ATOM     76  C   UNL A   1      39.264  26.780  29.899  1.00  0.00     0.012 A 
ATOM     77  C   UNL A   1      40.994  28.185  28.932  1.00  0.00     0.148 A 
ATOM     78  C   UNL A   1      39.218  26.023  28.727  1.00  0.00     0.002 A 
ATOM     79  C   UNL A   1      40.901  27.464  27.748  1.00  0.00     0.091 A 
ATOM     80  F   UNL A   1      41.850  29.206  29.074  1.00  0.00    -0.205 F 
ATOM     81  C   UNL A   1      40.027  26.372  27.649  1.00  0.00     0.022 A 
BRANCH  79  82
ATOM     82  S   UNL A   1      41.811  27.917  26.267  1.00  0.00     0.127 S 
ATOM     83  O   UNL A   1      43.188  27.932  26.754  1.00  0.00    -0.237 OA
ATOM     84  O   UNL A   1      41.487  26.808  25.369  1.00  0.00    -0.237 OA
ATOM     85  O   UNL A   1      41.277  29.207  25.851  1.00  0.00    -0.744 OA
ENDBRANCH  79  82
ENDBRANCH  51  75
BRANCH  63  86
ATOM     86  C   UNL A   1      44.596  28.104  35.423  1.00  0.00     0.023 A 
ATOM     87  C   UNL A   1      45.873  28.583  35.072  1.00  0.00     0.012 A 
ATOM     88  C   UNL A   1      44.487  26.918  36.178  1.00  0.00     0.148 A 
ATOM     89  C   UNL A   1      47.020  27.876  35.437  1.00  0.00     0.002 A 
ATOM     90  C   UNL A   1      45.635  26.248  36.583  1.00  0.00     0.091 A 
ATOM     91  F   UNL A   1      43.263  26.469  36.489  1.00  0.00    -0.205 F 
ATOM     92  C   UNL A   1      46.902  26.717  36.201  1.00  0.00     0.022 A 
BRANCH  90  93
ATOM     93  S   UNL A   1      45.584  24.804  37.651  1.00  0.00     0.127 S 
ATOM     94  O   UNL A   1      44.916  23.824  36.795  1.00  0.00    -0.237 OA
ATOM     95  O   UNL A   1      47.005  24.542  37.884  1.00  0.00    -0.237 OA
ATOM     96  O   UNL A   1      44.840  25.206  38.837  1.00  0.00    -0.744 OA
ENDBRANCH  90  93
ENDBRANCH  63  86
ENDBRANCH  37  38
ENDBRANCH  30  32
ENDBRANCH  29  30
ENDBRANCH  28  29
ENDBRANCH  27  28
ENDBRANCH  26  27
ENDBRANCH   1  26
TORSDOF 24
ENDMDL
MODEL 2
REMARK VINA RESULT:      -8.7      6.165     11.114
REMARK SMILES Nc1cc([N+](=O)[O-])ccc1[C@H]([NH3+])C(=O)OCCOCCOCCOC(=O)c1ccc(-c2c3nc(c(-c4cccc(S(=O)(=O)[O-])c4F)c4ccc([nH]4)c(-c4cccc(S(=O)(=O)[O-])c4F)c4nc(c(-c5cccc(S(=O)(=O)[O-])c5F)c5ccc2[nH]5)C=C4)C=C3)cc1
REMARK SMILES IDX 20 1 19 2 18 3 17 4 16 5 15 6 13 7 14 8 11 9 10 10 2 11 3 12
REMARK SMILES IDX 4 13 9 14 8 15 1 16 5 19 6 20 7 21 12 22 21 26 22 27 23 28
REMARK SMILES IDX 24 29 25 30 26 31 27 32 28 33 89 34 29 35 88 36 30 37 31 38
REMARK SMILES IDX 32 39 82 40 33 41 87 42 81 43 83 44 34 45 86 46 80 47 79 48
REMARK SMILES IDX 35 50 67 51 47 52 66 53 48 54 51 55 65 56 84 57 49 58 50 59
REMARK SMILES IDX 64 61 85 62 52 63 36 64 37 65 45 66 38 67 40 68 46 69 39 70
REMARK SMILES IDX 41 71 42 72 43 73 44 74 68 75 69 76 77 77 70 78 72 79 78 80
REMARK SMILES IDX 71 81 73 82 74 83 75 84 76 85 53 86 54 87 62 88 55 89 57 90
REMARK SMILES IDX 63 91 56 92 58 93 59 94 60 95 61 96
REMARK H PARENT 1 17 1 18 12 23 12 24 12 25 83 49 51 60
REMARK Flexibility Score: inf
ROOT
ATOM      1  C   UNL A   1      39.984  22.381  27.136  1.00  0.00     0.188 C 
ENDROOT
BRANCH   1   2
ATOM      2  C   UNL A   1      39.062  21.809  26.051  1.00  0.00     0.188 C 
BRANCH   2   3
ATOM      3  O   UNL A   1      38.019  22.604  25.534  1.00  0.00    -0.376 OA
BRANCH   3   4
ATOM      4  C   UNL A   1      36.753  22.640  26.167  1.00  0.00     0.202 C 
BRANCH   4   5
ATOM      5  C   UNL A   1      35.483  23.245  25.544  1.00  0.00     0.261 C 
BRANCH   5   6
ATOM      6  O   UNL A   1      34.307  23.314  26.359  1.00  0.00    -0.459 OA
BRANCH   6   7
ATOM      7  C   UNL A   1      33.188  23.795  25.742  1.00  0.00     0.369 C 
ATOM      8  O   UNL A   1      33.123  24.921  25.253  1.00  0.00    -0.245 OA
BRANCH   7   9
ATOM      9  C   UNL A   1      31.997  22.784  25.695  1.00  0.00     0.325 C 
BRANCH   9  10
ATOM     10  C   UNL A   1      32.309  21.489  24.930  1.00  0.00     0.044 A 
ATOM     11  C   UNL A   1      32.910  20.353  25.528  1.00  0.00     0.048 A 
ATOM     12  C   UNL A   1      33.014  19.163  24.794  1.00  0.00     0.111 A 
ATOM     13  C   UNL A   1      32.650  19.122  23.447  1.00  0.00     0.271 A 
ATOM     14  C   UNL A   1      32.027  21.432  23.546  1.00  0.00     0.020 A 
ATOM     15  C   UNL A   1      32.186  20.265  22.806  1.00  0.00     0.086 A 
BRANCH  11  16
ATOM     16  N   UNL A   1      33.280  20.303  26.871  1.00  0.00    -0.398 N 
ATOM     17  H   UNL A   1      32.596  20.379  27.573  1.00  0.00     0.156 HD
ATOM     18  H   UNL A   1      34.227  20.192  27.117  1.00  0.00     0.156 HD
ENDBRANCH  11  16
BRANCH  13  19
ATOM     19  N   UNL A   1      32.752  17.866  22.705  1.00  0.00     0.062 N 
ATOM     20  O   UNL A   1      33.576  17.028  23.099  1.00  0.00    -0.258 OA
ATOM     21  O   UNL A   1      31.998  17.704  21.734  1.00  0.00    -0.258 OA
ENDBRANCH  13  19
ENDBRANCH   9  10
BRANCH   9  22
ATOM     22  N   UNL A   1      30.770  23.453  25.211  1.00  0.00    -0.342 N 
ATOM     23  H   UNL A   1      30.463  23.012  24.345  1.00  0.00     0.345 HD
ATOM     24  H   UNL A   1      30.966  24.439  25.040  1.00  0.00     0.345 HD
ATOM     25  H   UNL A   1      30.037  23.368  25.915  1.00  0.00     0.345 HD
ENDBRANCH   9  22
ENDBRANCH   7   9
ENDBRANCH   6   7
ENDBRANCH   5   6
ENDBRANCH   4   5
ENDBRANCH   3   4
ENDBRANCH   2   3
ENDBRANCH   1   2
BRANCH   1  26
ATOM     26  O   UNL A   1      41.316  22.695  26.820  1.00  0.00    -0.376 OA
BRANCH  26  27
ATOM     27  C   UNL A   1      42.198  21.667  26.409  1.00  0.00     0.202 C 
BRANCH  27  28
ATOM     28  C   UNL A   1      43.371  21.829  25.418  1.00  0.00     0.261 C 
BRANCH  28  29
ATOM     29  O   UNL A   1      43.427  23.007  24.605  1.00  0.00    -0.460 OA
BRANCH  29  30
ATOM     30  C   UNL A   1      44.557  23.750  24.718  1.00  0.00     0.338 C 
ATOM     31  O   UNL A   1      45.592  23.614  24.079  1.00  0.00    -0.246 OA
BRANCH  30  32
ATOM     32  C   UNL A   1      44.280  24.925  25.572  1.00  0.00     0.060 A 
ATOM     33  C   UNL A   1      43.851  26.118  24.967  1.00  0.00     0.016 A 
ATOM     34  C   UNL A   1      44.463  24.861  26.951  1.00  0.00     0.016 A 
ATOM     35  C   UNL A   1      43.622  27.257  25.738  1.00  0.00     0.010 A 
ATOM     36  C   UNL A   1      44.263  26.012  27.720  1.00  0.00     0.010 A 
ATOM     37  C   UNL A   1      43.873  27.223  27.115  1.00  0.00    -0.014 A 
BRANCH  37  38
ATOM     38  C   UNL A   1      43.925  28.485  27.893  1.00  0.00     0.031 A 
ATOM     39  C   UNL A   1      42.642  29.019  28.470  1.00  0.00     0.074 A 
ATOM     40  C   UNL A   1      45.072  29.164  28.063  1.00  0.00     0.049 A 
ATOM     41  N   UNL A   1      42.417  30.145  29.094  1.00  0.00    -0.248 NA
ATOM     42  C   UNL A   1      41.451  28.168  28.310  1.00  0.00     0.031 C 
ATOM     43  C   UNL A   1      46.381  28.752  27.564  1.00  0.00     0.029 A 
ATOM     44  N   UNL A   1      45.305  30.375  28.671  1.00  0.00    -0.354 N 
ATOM     45  C   UNL A   1      41.054  30.158  29.366  1.00  0.00     0.074 A 
ATOM     46  C   UNL A   1      40.504  28.931  28.832  1.00  0.00     0.031 C 
ATOM     47  C   UNL A   1      47.274  29.718  27.841  1.00  0.00     0.029 A 
ATOM     48  C   UNL A   1      46.592  30.828  28.507  1.00  0.00     0.049 A 
ATOM     49  H   UNL A   1      44.617  30.868  29.174  1.00  0.00     0.167 HD
ATOM     50  C   UNL A   1      40.324  31.100  30.008  1.00  0.00     0.034 A 
ATOM     51  C   UNL A   1      47.146  32.019  28.818  1.00  0.00     0.034 A 
ATOM     52  C   UNL A   1      40.871  32.319  30.540  1.00  0.00     0.049 A 
ATOM     53  C   UNL A   1      46.311  33.071  29.504  1.00  0.00     0.074 A 
ATOM     54  C   UNL A   1      40.222  33.315  31.249  1.00  0.00     0.029 A 
ATOM     55  N   UNL A   1      42.190  32.721  30.404  1.00  0.00    -0.354 N 
ATOM     56  N   UNL A   1      45.049  33.025  29.856  1.00  0.00    -0.248 NA
ATOM     57  C   UNL A   1      46.986  34.326  29.866  1.00  0.00     0.031 C 
ATOM     58  C   UNL A   1      41.141  34.338  31.503  1.00  0.00     0.029 A 
ATOM     59  C   UNL A   1      42.374  33.958  30.998  1.00  0.00     0.049 A 
ATOM     60  H   UNL A   1      42.894  32.203  29.950  1.00  0.00     0.167 HD
ATOM     61  C   UNL A   1      44.787  34.226  30.509  1.00  0.00     0.074 A 
ATOM     62  C   UNL A   1      46.029  34.971  30.520  1.00  0.00     0.031 C 
ATOM     63  C   UNL A   1      43.624  34.674  31.044  1.00  0.00     0.034 A 
BRANCH  50  64
ATOM     64  C   UNL A   1      38.847  30.842  30.169  1.00  0.00     0.023 A 
ATOM     65  C   UNL A   1      38.398  29.901  31.118  1.00  0.00     0.012 A 
ATOM     66  C   UNL A   1      37.906  31.549  29.397  1.00  0.00     0.148 A 
ATOM     67  C   UNL A   1      37.036  29.632  31.261  1.00  0.00     0.002 A 
ATOM     68  C   UNL A   1      36.548  31.314  29.582  1.00  0.00     0.091 A 
ATOM     69  F   UNL A   1      38.352  32.424  28.485  1.00  0.00    -0.205 F 
ATOM     70  C   UNL A   1      36.113  30.345  30.501  1.00  0.00     0.022 A 
BRANCH  68  71
ATOM     71  S   UNL A   1      35.280  32.238  28.712  1.00  0.00     0.127 S 
ATOM     72  O   UNL A   1      34.494  31.164  28.107  1.00  0.00    -0.237 OA
ATOM     73  O   UNL A   1      34.608  32.942  29.805  1.00  0.00    -0.237 OA
ATOM     74  O   UNL A   1      35.983  33.103  27.775  1.00  0.00    -0.744 OA
ENDBRANCH  68  71
ENDBRANCH  50  64
BRANCH  51  75
ATOM     75  C   UNL A   1      48.574  32.279  28.482  1.00  0.00     0.023 A 
ATOM     76  C   UNL A   1      49.592  31.820  29.339  1.00  0.00     0.012 A 
ATOM     77  C   UNL A   1      48.926  32.965  27.303  1.00  0.00     0.148 A 
ATOM     78  C   UNL A   1      50.934  32.059  29.041  1.00  0.00     0.002 A 
ATOM     79  C   UNL A   1      50.265  33.149  26.982  1.00  0.00     0.091 A 
ATOM     80  F   UNL A   1      47.940  33.408  26.510  1.00  0.00    -0.205 F 
ATOM     81  C   UNL A   1      51.271  32.712  27.857  1.00  0.00     0.022 A 
BRANCH  79  82
ATOM     82  S   UNL A   1      50.796  33.866  25.424  1.00  0.00     0.127 S 
ATOM     83  O   UNL A   1      51.075  32.675  24.626  1.00  0.00    -0.237 OA
ATOM     84  O   UNL A   1      49.604  34.614  25.020  1.00  0.00    -0.237 OA
ATOM     85  O   UNL A   1      51.951  34.695  25.740  1.00  0.00    -0.744 OA
ENDBRANCH  79  82
ENDBRANCH  51  75
BRANCH  63  86
ATOM     86  C   UNL A   1      43.634  36.016  31.735  1.00  0.00     0.023 A 
ATOM     87  C   UNL A   1      43.680  36.091  33.140  1.00  0.00     0.012 A 
ATOM     88  C   UNL A   1      43.676  37.206  30.979  1.00  0.00     0.148 A 
ATOM     89  C   UNL A   1      43.732  37.328  33.784  1.00  0.00     0.002 A 
ATOM     90  C   UNL A   1      43.781  38.433  31.625  1.00  0.00     0.091 A 
ATOM     91  F   UNL A   1      43.615  37.117  29.643  1.00  0.00    -0.205 F 
ATOM     92  C   UNL A   1      43.795  38.497  33.027  1.00  0.00     0.022 A 
BRANCH  90  93
ATOM     93  S   UNL A   1      43.967  39.981  30.733  1.00  0.00     0.127 S 
ATOM     94  O   UNL A   1      44.234  40.921  31.821  1.00  0.00    -0.237 OA
ATOM     95  O   UNL A   1      45.115  39.704  29.869  1.00  0.00    -0.237 OA
ATOM     96  O   UNL A   1      42.712  40.191  30.023  1.00  0.00    -0.744 OA
ENDBRANCH  90  93
ENDBRANCH  63  86
ENDBRANCH  37  38
ENDBRANCH  30  32
ENDBRANCH  29  30
ENDBRANCH  28  29
ENDBRANCH  27  28
ENDBRANCH  26  27
ENDBRANCH   1  26
TORSDOF 24
ENDMDL
MODEL 3
REMARK VINA RESULT:      -8.6      2.883      3.984
REMARK SMILES Nc1cc([N+](=O)[O-])ccc1[C@H]([NH3+])C(=O)OCCOCCOCCOC(=O)c1ccc(-c2c3nc(c(-c4cccc(S(=O)(=O)[O-])c4F)c4ccc([nH]4)c(-c4cccc(S(=O)(=O)[O-])c4F)c4nc(c(-c5cccc(S(=O)(=O)[O-])c5F)c5ccc2[nH]5)C=C4)C=C3)cc1
REMARK SMILES IDX 20 1 19 2 18 3 17 4 16 5 15 6 13 7 14 8 11 9 10 10 2 11 3 12
REMARK SMILES IDX 4 13 9 14 8 15 1 16 5 19 6 20 7 21 12 22 21 26 22 27 23 28
REMARK SMILES IDX 24 29 25 30 26 31 27 32 28 33 89 34 29 35 88 36 30 37 31 38
REMARK SMILES IDX 32 39 82 40 33 41 87 42 81 43 83 44 34 45 86 46 80 47 79 48
REMARK SMILES IDX 35 50 67 51 47 52 66 53 48 54 51 55 65 56 84 57 49 58 50 59
REMARK SMILES IDX 64 61 85 62 52 63 36 64 37 65 45 66 38 67 40 68 46 69 39 70
REMARK SMILES IDX 41 71 42 72 43 73 44 74 68 75 69 76 77 77 70 78 72 79 78 80
REMARK SMILES IDX 71 81 73 82 74 83 75 84 76 85 53 86 54 87 62 88 55 89 57 90
REMARK SMILES IDX 63 91 56 92 58 93 59 94 60 95 61 96
REMARK H PARENT 1 17 1 18 12 23 12 24 12 25 83 49 51 60
REMARK Flexibility Score: inf
ROOT
ATOM      1  C   UNL A   1      34.814  30.047  27.637  1.00  0.00     0.188 C 
ENDROOT
BRANCH   1   2
ATOM      2  C   UNL A   1      34.013  28.949  26.924  1.00  0.00     0.188 C 
BRANCH   2   3
ATOM      3  O   UNL A   1      32.616  29.085  26.784  1.00  0.00    -0.376 OA
BRANCH   3   4
ATOM      4  C   UNL A   1      31.839  28.042  26.227  1.00  0.00     0.202 C 
BRANCH   4   5
ATOM      5  C   UNL A   1      32.098  26.543  26.457  1.00  0.00     0.261 C 
BRANCH   5   6
ATOM      6  O   UNL A   1      32.050  25.674  25.319  1.00  0.00    -0.459 OA
BRANCH   6   7
ATOM      7  C   UNL A   1      32.073  24.337  25.595  1.00  0.00     0.369 C 
ATOM      8  O   UNL A   1      31.203  23.772  26.253  1.00  0.00    -0.245 OA
BRANCH   7   9
ATOM      9  C   UNL A   1      33.297  23.578  24.986  1.00  0.00     0.325 C 
BRANCH   9  10
ATOM     10  C   UNL A   1      32.990  22.130  24.576  1.00  0.00     0.044 A 
ATOM     11  C   UNL A   1      32.303  21.783  23.385  1.00  0.00     0.048 A 
ATOM     12  C   UNL A   1      32.206  20.434  23.015  1.00  0.00     0.111 A 
ATOM     13  C   UNL A   1      32.665  19.426  23.865  1.00  0.00     0.271 A 
ATOM     14  C   UNL A   1      33.369  21.082  25.445  1.00  0.00     0.020 A 
ATOM     15  C   UNL A   1      33.218  19.743  25.100  1.00  0.00     0.086 A 
BRANCH  11  16
ATOM     16  N   UNL A   1      31.834  22.725  22.471  1.00  0.00    -0.398 N 
ATOM     17  H   UNL A   1      30.914  23.064  22.543  1.00  0.00     0.156 HD
ATOM     18  H   UNL A   1      32.425  23.051  21.754  1.00  0.00     0.156 HD
ENDBRANCH  11  16
BRANCH  13  19
ATOM     19  N   UNL A   1      32.568  18.027  23.452  1.00  0.00     0.062 N 
ATOM     20  O   UNL A   1      32.487  17.788  22.238  1.00  0.00    -0.258 OA
ATOM     21  O   UNL A   1      32.586  17.159  24.337  1.00  0.00    -0.258 OA
ENDBRANCH  13  19
ENDBRANCH   9  10
BRANCH   9  22
ATOM     22  N   UNL A   1      34.468  23.683  25.882  1.00  0.00    -0.342 N 
ATOM     23  H   UNL A   1      34.878  22.759  26.013  1.00  0.00     0.345 HD
ATOM     24  H   UNL A   1      34.173  24.055  26.785  1.00  0.00     0.345 HD
ATOM     25  H   UNL A   1      35.159  24.307  25.466  1.00  0.00     0.345 HD
ENDBRANCH   9  22
ENDBRANCH   7   9
ENDBRANCH   6   7
ENDBRANCH   5   6
ENDBRANCH   4   5
ENDBRANCH   3   4
ENDBRANCH   2   3
ENDBRANCH   1   2
BRANCH   1  26
ATOM     26  O   UNL A   1      34.136  31.030  28.377  1.00  0.00    -0.376 OA
BRANCH  26  27
ATOM     27  C   UNL A   1      33.793  32.256  27.759  1.00  0.00     0.202 C 
BRANCH  27  28
ATOM     28  C   UNL A   1      34.633  33.551  27.799  1.00  0.00     0.261 C 
BRANCH  28  29
ATOM     29  O   UNL A   1      34.042  34.737  28.344  1.00  0.00    -0.460 OA
BRANCH  29  30
ATOM     30  C   UNL A   1      33.683  34.673  29.651  1.00  0.00     0.338 C 
ATOM     31  O   UNL A   1      32.574  34.900  30.120  1.00  0.00    -0.246 OA
BRANCH  30  32
ATOM     32  C   UNL A   1      34.776  34.047  30.423  1.00  0.00     0.060 A 
ATOM     33  C   UNL A   1      36.090  34.512  30.242  1.00  0.00     0.016 A 
ATOM     34  C   UNL A   1      34.516  32.997  31.301  1.00  0.00     0.016 A 
ATOM     35  C   UNL A   1      37.149  33.915  30.924  1.00  0.00     0.010 A 
ATOM     36  C   UNL A   1      35.584  32.379  31.961  1.00  0.00     0.010 A 
ATOM     37  C   UNL A   1      36.907  32.814  31.752  1.00  0.00    -0.014 A 
BRANCH  37  38
ATOM     38  C   UNL A   1      38.039  31.988  32.241  1.00  0.00     0.031 A 
ATOM     39  C   UNL A   1      38.702  32.383  33.533  1.00  0.00     0.074 A 
ATOM     40  C   UNL A   1      38.495  30.931  31.548  1.00  0.00     0.049 A 
ATOM     41  N   UNL A   1      39.764  31.886  34.108  1.00  0.00    -0.248 NA
ATOM     42  C   UNL A   1      38.084  33.500  34.269  1.00  0.00     0.031 C 
ATOM     43  C   UNL A   1      37.938  30.439  30.292  1.00  0.00     0.029 A 
ATOM     44  N   UNL A   1      39.567  30.106  31.791  1.00  0.00    -0.354 N 
ATOM     45  C   UNL A   1      39.967  32.651  35.251  1.00  0.00     0.074 A 
ATOM     46  C   UNL A   1      38.922  33.651  35.281  1.00  0.00     0.031 C 
ATOM     47  C   UNL A   1      38.703  29.428  29.845  1.00  0.00     0.029 A 
ATOM     48  C   UNL A   1      39.820  29.225  30.768  1.00  0.00     0.049 A 
ATOM     49  H   UNL A   1      40.101  30.143  32.618  1.00  0.00     0.167 HD
ATOM     50  C   UNL A   1      40.931  32.531  36.194  1.00  0.00     0.034 A 
ATOM     51  C   UNL A   1      40.856  28.382  30.575  1.00  0.00     0.034 A 
ATOM     52  C   UNL A   1      41.969  31.537  36.164  1.00  0.00     0.049 A 
ATOM     53  C   UNL A   1      41.939  28.284  31.620  1.00  0.00     0.074 A 
ATOM     54  C   UNL A   1      42.964  31.304  37.098  1.00  0.00     0.029 A 
ATOM     55  N   UNL A   1      42.163  30.625  35.139  1.00  0.00    -0.354 N 
ATOM     56  N   UNL A   1      42.058  28.936  32.751  1.00  0.00    -0.248 NA
ATOM     57  C   UNL A   1      43.012  27.308  31.378  1.00  0.00     0.031 C 
ATOM     58  C   UNL A   1      43.783  30.279  36.615  1.00  0.00     0.029 A 
ATOM     59  C   UNL A   1      43.270  29.838  35.405  1.00  0.00     0.049 A 
ATOM     60  H   UNL A   1      41.595  30.548  34.337  1.00  0.00     0.167 HD
ATOM     61  C   UNL A   1      43.197  28.428  33.370  1.00  0.00     0.074 A 
ATOM     62  C   UNL A   1      43.721  27.400  32.496  1.00  0.00     0.031 C 
ATOM     63  C   UNL A   1      43.761  28.786  34.551  1.00  0.00     0.034 A 
BRANCH  50  64
ATOM     64  C   UNL A   1      40.901  33.508  37.342  1.00  0.00     0.023 A 
ATOM     65  C   UNL A   1      41.672  34.687  37.281  1.00  0.00     0.012 A 
ATOM     66  C   UNL A   1      40.091  33.270  38.469  1.00  0.00     0.148 A 
ATOM     67  C   UNL A   1      41.676  35.589  38.345  1.00  0.00     0.002 A 
ATOM     68  C   UNL A   1      40.059  34.199  39.502  1.00  0.00     0.091 A 
ATOM     69  F   UNL A   1      39.381  32.134  38.519  1.00  0.00    -0.205 F 
ATOM     70  C   UNL A   1      40.863  35.350  39.449  1.00  0.00     0.022 A 
BRANCH  68  71
ATOM     71  S   UNL A   1      38.983  34.022  40.928  1.00  0.00     0.127 S 
ATOM     72  O   UNL A   1      37.661  34.028  40.302  1.00  0.00    -0.237 OA
ATOM     73  O   UNL A   1      39.397  32.725  41.465  1.00  0.00    -0.237 OA
ATOM     74  O   UNL A   1      39.271  35.158  41.792  1.00  0.00    -0.744 OA
ENDBRANCH  68  71
ENDBRANCH  50  64
BRANCH  51  75
ATOM     75  C   UNL A   1      40.918  27.559  29.334  1.00  0.00     0.023 A 
ATOM     76  C   UNL A   1      40.133  26.395  29.225  1.00  0.00     0.012 A 
ATOM     77  C   UNL A   1      41.738  27.939  28.254  1.00  0.00     0.148 A 
ATOM     78  C   UNL A   1      40.183  25.611  28.071  1.00  0.00     0.002 A 
ATOM     79  C   UNL A   1      41.739  27.186  27.087  1.00  0.00     0.091 A 
ATOM     80  F   UNL A   1      42.490  29.041  28.387  1.00  0.00    -0.205 F 
ATOM     81  C   UNL A   1      40.975  26.013  26.998  1.00  0.00     0.022 A 
BRANCH  79  82
ATOM     82  S   UNL A   1      42.629  27.693  25.612  1.00  0.00     0.127 S 
ATOM     83  O   UNL A   1      44.013  27.685  26.080  1.00  0.00    -0.237 OA
ATOM     84  O   UNL A   1      42.289  26.620  24.676  1.00  0.00    -0.237 OA
ATOM     85  O   UNL A   1      42.094  28.999  25.253  1.00  0.00    -0.744 OA
ENDBRANCH  79  82
ENDBRANCH  51  75
BRANCH  63  86
ATOM     86  C   UNL A   1      44.988  28.034  35.005  1.00  0.00     0.023 A 
ATOM     87  C   UNL A   1      46.273  28.520  34.696  1.00  0.00     0.012 A 
ATOM     88  C   UNL A   1      44.861  26.882  35.808  1.00  0.00     0.148 A 
ATOM     89  C   UNL A   1      47.412  27.852  35.148  1.00  0.00     0.002 A 
ATOM     90  C   UNL A   1      45.999  26.253  36.300  1.00  0.00     0.091 A 
ATOM     91  F   UNL A   1      43.630  26.425  36.080  1.00  0.00    -0.205 F 
ATOM     92  C   UNL A   1      47.275  26.727  35.959  1.00  0.00     0.022 A 
BRANCH  90  93
ATOM     93  S   UNL A   1      45.918  24.859  37.430  1.00  0.00     0.127 S 
ATOM     94  O   UNL A   1      46.718  23.857  36.725  1.00  0.00    -0.237 OA
ATOM     95  O   UNL A   1      46.546  25.402  38.636  1.00  0.00    -0.237 OA
ATOM     96  O   UNL A   1      44.505  24.537  37.575  1.00  0.00    -0.744 OA
ENDBRANCH  90  93
ENDBRANCH  63  86
ENDBRANCH  37  38
ENDBRANCH  30  32
ENDBRANCH  29  30
ENDBRANCH  28  29
ENDBRANCH  27  28
ENDBRANCH  26  27
ENDBRANCH   1  26
TORSDOF 24
ENDMDL
