MODEL 1
REMARK VINA RESULT:      -9.4      0.000      0.000
REMARK SMILES Cc1cc(C(=O)N[C@H](C(=O)OCCOCCOCCOC(=O)c2ccc(-c3c4nc(c(-c5cccc(S(=O)(=O)[O-])c5F)c5ccc([nH]5)c(-c5cccc(S(=O)(=O)[O-])c5F)c5nc(c(-c6cccc(S(=O)(=O)[O-])c6F)c6ccc3[nH]6)C=C5)C=C4)cc2)C(C)C)c(C)s1
REMARK SMILES IDX 16 1 15 2 14 3 13 4 12 5 11 6 9 7 10 8 8 9 7 10 5 11 6 12
REMARK SMILES IDX 4 14 1 15 2 16 3 17 91 18 89 19 90 20 86 21 87 22 88 23
REMARK SMILES IDX 17 24 18 25 19 26 20 27 21 28 22 29 23 30 24 31 85 32 25 33
REMARK SMILES IDX 84 34 26 35 27 36 28 37 78 38 29 39 83 40 77 41 79 42 30 43
REMARK SMILES IDX 82 44 76 45 75 46 31 48 63 49 43 50 62 51 44 52 47 53 61 54
REMARK SMILES IDX 80 55 45 56 46 57 60 59 81 60 48 61 32 62 33 63 41 64 34 65
REMARK SMILES IDX 36 66 42 67 35 68 37 69 38 70 39 71 40 72 64 73 65 74 73 75
REMARK SMILES IDX 66 76 68 77 74 78 67 79 69 80 70 81 71 82 72 83 49 84 50 85
REMARK SMILES IDX 58 86 51 87 53 88 59 89 52 90 54 91 55 92 56 93 57 94
REMARK H PARENT 7 13 79 47 47 58
REMARK Flexibility Score: inf
ROOT
ATOM      1  C   UNL A   1      35.749  21.803  25.758  1.00  0.00     0.188 C 
ENDROOT
BRANCH   1   2
ATOM      2  C   UNL A   1      35.267  21.768  24.291  1.00  0.00     0.188 C 
BRANCH   2   3
ATOM      3  O   UNL A   1      34.177  20.892  24.063  1.00  0.00    -0.376 OA
BRANCH   3   4
ATOM      4  C   UNL A   1      33.550  20.365  25.222  1.00  0.00     0.202 C 
BRANCH   4   5
ATOM      5  C   UNL A   1      32.197  20.986  25.611  1.00  0.00     0.261 C 
BRANCH   5   6
ATOM      6  O   UNL A   1      32.218  22.241  26.324  1.00  0.00    -0.462 OA
BRANCH   6   7
ATOM      7  C   UNL A   1      31.108  23.031  26.235  1.00  0.00     0.328 C 
ATOM      8  O   UNL A   1      29.981  22.594  26.401  1.00  0.00    -0.250 OA
BRANCH   7   9
ATOM      9  C   UNL A   1      31.505  24.477  25.812  1.00  0.00     0.195 C 
BRANCH   9  10
ATOM     10  N   UNL A   1      32.957  24.475  25.656  1.00  0.00    -0.338 N 
ATOM     11  C   UNL A   1      33.907  25.459  25.551  1.00  0.00     0.253 C 
ATOM     12  O   UNL A   1      35.057  25.022  25.450  1.00  0.00    -0.269 OA
ATOM     13  H   UNL A   1      33.339  23.568  25.618  1.00  0.00     0.164 HD
BRANCH  11  14
ATOM     14  C   UNL A   1      33.607  26.908  25.522  1.00  0.00     0.053 A 
ATOM     15  C   UNL A   1      32.865  30.245  27.217  1.00  0.00     0.056 C 
ATOM     16  C   UNL A   1      33.140  29.126  26.269  1.00  0.00     0.003 A 
ATOM     17  C   UNL A   1      33.446  27.833  26.607  1.00  0.00     0.029 A 
ATOM     18  S   UNL A   1      33.094  29.299  24.590  1.00  0.00    -0.145 S 
ATOM     19  C   UNL A   1      33.430  27.623  24.334  1.00  0.00     0.014 A 
ATOM     20  C   UNL A   1      33.478  27.168  22.911  1.00  0.00     0.057 C 
ENDBRANCH  11  14
ENDBRANCH   9  10
BRANCH   9  21
ATOM     21  C   UNL A   1      30.806  25.242  24.649  1.00  0.00     0.017 C 
ATOM     22  C   UNL A   1      30.547  24.425  23.384  1.00  0.00     0.010 C 
ATOM     23  C   UNL A   1      29.491  25.893  25.106  1.00  0.00     0.010 C 
ENDBRANCH   9  21
ENDBRANCH   7   9
ENDBRANCH   6   7
ENDBRANCH   5   6
ENDBRANCH   4   5
ENDBRANCH   3   4
ENDBRANCH   2   3
ENDBRANCH   1   2
BRANCH   1  24
ATOM     24  O   UNL A   1      37.097  21.499  26.077  1.00  0.00    -0.376 OA
BRANCH  24  25
ATOM     25  C   UNL A   1      37.931  20.960  25.062  1.00  0.00     0.202 C 
BRANCH  25  26
ATOM     26  C   UNL A   1      38.933  19.832  25.390  1.00  0.00     0.261 C 
BRANCH  26  27
ATOM     27  O   UNL A   1      39.826  20.050  26.500  1.00  0.00    -0.460 OA
BRANCH  27  28
ATOM     28  C   UNL A   1      41.138  19.806  26.265  1.00  0.00     0.338 C 
ATOM     29  O   UNL A   1      41.609  18.786  25.770  1.00  0.00    -0.246 OA
BRANCH  28  30
ATOM     30  C   UNL A   1      41.950  21.029  26.473  1.00  0.00     0.060 A 
ATOM     31  C   UNL A   1      42.299  21.373  27.790  1.00  0.00     0.016 A 
ATOM     32  C   UNL A   1      42.309  21.871  25.418  1.00  0.00     0.016 A 
ATOM     33  C   UNL A   1      42.959  22.570  28.063  1.00  0.00     0.010 A 
ATOM     34  C   UNL A   1      42.939  23.095  25.699  1.00  0.00     0.010 A 
ATOM     35  C   UNL A   1      43.222  23.469  27.027  1.00  0.00    -0.014 A 
BRANCH  35  36
ATOM     36  C   UNL A   1      43.541  24.879  27.378  1.00  0.00     0.031 A 
ATOM     37  C   UNL A   1      44.974  25.335  27.259  1.00  0.00     0.074 A 
ATOM     38  C   UNL A   1      42.589  25.762  27.731  1.00  0.00     0.049 A 
ATOM     39  N   UNL A   1      45.494  26.514  27.478  1.00  0.00    -0.248 NA
ATOM     40  C   UNL A   1      45.951  24.318  26.832  1.00  0.00     0.031 C 
ATOM     41  C   UNL A   1      41.164  25.468  27.858  1.00  0.00     0.029 A 
ATOM     42  N   UNL A   1      42.690  27.091  28.063  1.00  0.00    -0.354 N 
ATOM     43  C   UNL A   1      46.858  26.376  27.245  1.00  0.00     0.074 A 
ATOM     44  C   UNL A   1      47.088  24.997  26.882  1.00  0.00     0.031 C 
ATOM     45  C   UNL A   1      40.526  26.578  28.270  1.00  0.00     0.029 A 
ATOM     46  C   UNL A   1      41.498  27.655  28.454  1.00  0.00     0.049 A 
ATOM     47  H   UNL A   1      43.536  27.594  28.025  1.00  0.00     0.167 HD
ATOM     48  C   UNL A   1      47.834  27.313  27.313  1.00  0.00     0.034 A 
ATOM     49  C   UNL A   1      41.229  28.890  28.925  1.00  0.00     0.034 A 
ATOM     50  C   UNL A   1      47.612  28.690  27.663  1.00  0.00     0.049 A 
ATOM     51  C   UNL A   1      42.340  29.906  29.029  1.00  0.00     0.074 A 
ATOM     52  C   UNL A   1      48.533  29.721  27.721  1.00  0.00     0.029 A 
ATOM     53  N   UNL A   1      46.389  29.226  28.034  1.00  0.00    -0.354 N 
ATOM     54  N   UNL A   1      43.604  29.790  28.700  1.00  0.00    -0.248 NA
ATOM     55  C   UNL A   1      41.976  31.239  29.535  1.00  0.00     0.031 C 
ATOM     56  C   UNL A   1      47.874  30.872  28.166  1.00  0.00     0.029 A 
ATOM     57  C   UNL A   1      46.533  30.568  28.339  1.00  0.00     0.049 A 
ATOM     58  H   UNL A   1      45.543  28.725  28.075  1.00  0.00     0.167 HD
ATOM     59  C   UNL A   1      44.175  31.041  28.920  1.00  0.00     0.074 A 
ATOM     60  C   UNL A   1      43.112  31.907  29.388  1.00  0.00     0.031 C 
ATOM     61  C   UNL A   1      45.463  31.436  28.760  1.00  0.00     0.034 A 
BRANCH  48  62
ATOM     62  C   UNL A   1      49.241  26.876  26.995  1.00  0.00     0.023 A 
ATOM     63  C   UNL A   1      49.943  26.050  27.897  1.00  0.00     0.012 A 
ATOM     64  C   UNL A   1      49.850  27.251  25.782  1.00  0.00     0.148 A 
ATOM     65  C   UNL A   1      51.243  25.635  27.613  1.00  0.00     0.002 A 
ATOM     66  C   UNL A   1      51.128  26.791  25.484  1.00  0.00     0.091 A 
ATOM     67  F   UNL A   1      49.175  28.054  24.949  1.00  0.00    -0.205 F 
ATOM     68  C   UNL A   1      51.830  25.995  26.404  1.00  0.00     0.022 A 
BRANCH  66  69
ATOM     69  S   UNL A   1      51.939  27.133  23.918  1.00  0.00     0.127 S 
ATOM     70  O   UNL A   1      53.079  26.220  23.972  1.00  0.00    -0.237 OA
ATOM     71  O   UNL A   1      50.905  26.761  22.951  1.00  0.00    -0.237 OA
ATOM     72  O   UNL A   1      52.273  28.549  23.938  1.00  0.00    -0.744 OA
ENDBRANCH  66  69
ENDBRANCH  48  62
BRANCH  49  73
ATOM     73  C   UNL A   1      39.839  29.253  29.325  1.00  0.00     0.023 A 
ATOM     74  C   UNL A   1      38.877  29.545  28.337  1.00  0.00     0.012 A 
ATOM     75  C   UNL A   1      39.470  29.326  30.682  1.00  0.00     0.148 A 
ATOM     76  C   UNL A   1      37.586  29.937  28.694  1.00  0.00     0.002 A 
ATOM     77  C   UNL A   1      38.168  29.661  31.031  1.00  0.00     0.091 A 
ATOM     78  F   UNL A   1      40.404  29.064  31.608  1.00  0.00    -0.205 F 
ATOM     79  C   UNL A   1      37.228  29.986  30.039  1.00  0.00     0.022 A 
BRANCH  77  80
ATOM     80  S   UNL A   1      37.584  29.627  32.728  1.00  0.00     0.127 S 
ATOM     81  O   UNL A   1      38.616  30.400  33.415  1.00  0.00    -0.237 OA
ATOM     82  O   UNL A   1      36.287  30.295  32.609  1.00  0.00    -0.237 OA
ATOM     83  O   UNL A   1      37.504  28.219  33.091  1.00  0.00    -0.744 OA
ENDBRANCH  77  80
ENDBRANCH  49  73
BRANCH  61  84
ATOM     84  C   UNL A   1      45.797  32.880  29.044  1.00  0.00     0.023 A 
ATOM     85  C   UNL A   1      46.378  33.246  30.275  1.00  0.00     0.012 A 
ATOM     86  C   UNL A   1      45.581  33.872  28.065  1.00  0.00     0.148 A 
ATOM     87  C   UNL A   1      46.692  34.578  30.546  1.00  0.00     0.002 A 
ATOM     88  C   UNL A   1      45.947  35.188  28.320  1.00  0.00     0.091 A 
ATOM     89  F   UNL A   1      45.014  33.512  26.904  1.00  0.00    -0.205 F 
ATOM     90  C   UNL A   1      46.487  35.546  29.566  1.00  0.00     0.022 A 
BRANCH  88  91
ATOM     91  S   UNL A   1      45.813  36.483  27.081  1.00  0.00     0.127 S 
ATOM     92  O   UNL A   1      46.437  37.614  27.765  1.00  0.00    -0.237 OA
ATOM     93  O   UNL A   1      46.594  35.934  25.973  1.00  0.00    -0.237 OA
ATOM     94  O   UNL A   1      44.390  36.626  26.804  1.00  0.00    -0.744 OA
ENDBRANCH  88  91
ENDBRANCH  61  84
ENDBRANCH  35  36
ENDBRANCH  28  30
ENDBRANCH  27  28
ENDBRANCH  26  27
ENDBRANCH  25  26
ENDBRANCH  24  25
ENDBRANCH   1  24
TORSDOF 23
ENDMDL
MODEL 2
REMARK VINA RESULT:      -9.1      5.982     11.238
REMARK SMILES Cc1cc(C(=O)N[C@H](C(=O)OCCOCCOCCOC(=O)c2ccc(-c3c4nc(c(-c5cccc(S(=O)(=O)[O-])c5F)c5ccc([nH]5)c(-c5cccc(S(=O)(=O)[O-])c5F)c5nc(c(-c6cccc(S(=O)(=O)[O-])c6F)c6ccc3[nH]6)C=C5)C=C4)cc2)C(C)C)c(C)s1
REMARK SMILES IDX 16 1 15 2 14 3 13 4 12 5 11 6 9 7 10 8 8 9 7 10 5 11 6 12
REMARK SMILES IDX 4 14 1 15 2 16 3 17 91 18 89 19 90 20 86 21 87 22 88 23
REMARK SMILES IDX 17 24 18 25 19 26 20 27 21 28 22 29 23 30 24 31 85 32 25 33
REMARK SMILES IDX 84 34 26 35 27 36 28 37 78 38 29 39 83 40 77 41 79 42 30 43
REMARK SMILES IDX 82 44 76 45 75 46 31 48 63 49 43 50 62 51 44 52 47 53 61 54
REMARK SMILES IDX 80 55 45 56 46 57 60 59 81 60 48 61 32 62 33 63 41 64 34 65
REMARK SMILES IDX 36 66 42 67 35 68 37 69 38 70 39 71 40 72 64 73 65 74 73 75
REMARK SMILES IDX 66 76 68 77 74 78 67 79 69 80 70 81 71 82 72 83 49 84 50 85
REMARK SMILES IDX 58 86 51 87 53 88 59 89 52 90 54 91 55 92 56 93 57 94
REMARK H PARENT 7 13 79 47 47 58
REMARK Flexibility Score: inf
ROOT
ATOM      1  C   UNL A   1      33.337  30.634  26.872  1.00  0.00     0.188 C 
ENDROOT
BRANCH   1   2
ATOM      2  C   UNL A   1      32.222  29.565  26.845  1.00  0.00     0.188 C 
BRANCH   2   3
ATOM      3  O   UNL A   1      32.625  28.326  26.288  1.00  0.00    -0.376 OA
BRANCH   3   4
ATOM      4  C   UNL A   1      33.723  28.376  25.390  1.00  0.00     0.202 C 
BRANCH   4   5
ATOM      5  C   UNL A   1      33.996  27.101  24.571  1.00  0.00     0.261 C 
BRANCH   5   6
ATOM      6  O   UNL A   1      34.124  25.858  25.294  1.00  0.00    -0.462 OA
BRANCH   6   7
ATOM      7  C   UNL A   1      33.772  24.714  24.638  1.00  0.00     0.328 C 
ATOM      8  O   UNL A   1      34.471  24.217  23.771  1.00  0.00    -0.250 OA
BRANCH   7   9
ATOM      9  C   UNL A   1      32.360  24.240  25.096  1.00  0.00     0.195 C 
BRANCH   9  10
ATOM     10  N   UNL A   1      32.520  23.723  26.452  1.00  0.00    -0.338 N 
ATOM     11  C   UNL A   1      33.246  22.699  27.004  1.00  0.00     0.253 C 
ATOM     12  O   UNL A   1      33.115  22.606  28.228  1.00  0.00    -0.269 OA
ATOM     13  H   UNL A   1      31.990  24.220  27.118  1.00  0.00     0.164 HD
BRANCH  11  14
ATOM     14  C   UNL A   1      34.084  21.759  26.226  1.00  0.00     0.053 A 
ATOM     15  C   UNL A   1      37.450  20.453  24.992  1.00  0.00     0.056 C 
ATOM     16  C   UNL A   1      36.011  20.699  25.299  1.00  0.00     0.003 A 
ATOM     17  C   UNL A   1      35.513  21.667  26.132  1.00  0.00     0.029 A 
ATOM     18  S   UNL A   1      34.751  19.796  24.628  1.00  0.00    -0.145 S 
ATOM     19  C   UNL A   1      33.548  20.752  25.419  1.00  0.00     0.014 A 
ATOM     20  C   UNL A   1      32.125  20.391  25.137  1.00  0.00     0.057 C 
ENDBRANCH  11  14
ENDBRANCH   9  10
BRANCH   9  21
ATOM     21  C   UNL A   1      31.086  25.127  24.969  1.00  0.00     0.017 C 
ATOM     22  C   UNL A   1      30.379  25.077  23.615  1.00  0.00     0.010 C 
ATOM     23  C   UNL A   1      30.068  24.824  26.080  1.00  0.00     0.010 C 
ENDBRANCH   9  21
ENDBRANCH   7   9
ENDBRANCH   6   7
ENDBRANCH   5   6
ENDBRANCH   4   5
ENDBRANCH   3   4
ENDBRANCH   2   3
ENDBRANCH   1   2
BRANCH   1  24
ATOM     24  O   UNL A   1      33.287  31.698  27.808  1.00  0.00    -0.376 OA
BRANCH  24  25
ATOM     25  C   UNL A   1      32.511  32.844  27.493  1.00  0.00     0.202 C 
BRANCH  25  26
ATOM     26  C   UNL A   1      33.090  34.261  27.697  1.00  0.00     0.261 C 
BRANCH  26  27
ATOM     27  O   UNL A   1      32.554  35.038  28.786  1.00  0.00    -0.460 OA
BRANCH  27  28
ATOM     28  C   UNL A   1      33.396  35.271  29.822  1.00  0.00     0.338 C 
ATOM     29  O   UNL A   1      33.227  36.083  30.727  1.00  0.00    -0.246 OA
BRANCH  28  30
ATOM     30  C   UNL A   1      34.474  34.252  29.868  1.00  0.00     0.060 A 
ATOM     31  C   UNL A   1      34.303  33.150  30.722  1.00  0.00     0.016 A 
ATOM     32  C   UNL A   1      35.662  34.397  29.150  1.00  0.00     0.016 A 
ATOM     33  C   UNL A   1      35.327  32.221  30.899  1.00  0.00     0.010 A 
ATOM     34  C   UNL A   1      36.708  33.481  29.360  1.00  0.00     0.010 A 
ATOM     35  C   UNL A   1      36.560  32.418  30.272  1.00  0.00    -0.014 A 
BRANCH  35  36
ATOM     36  C   UNL A   1      37.740  31.669  30.781  1.00  0.00     0.031 A 
ATOM     37  C   UNL A   1      38.245  31.992  32.165  1.00  0.00     0.074 A 
ATOM     38  C   UNL A   1      38.319  30.681  30.075  1.00  0.00     0.049 A 
ATOM     39  N   UNL A   1      39.231  31.459  32.836  1.00  0.00    -0.248 NA
ATOM     40  C   UNL A   1      37.535  33.061  32.888  1.00  0.00     0.031 C 
ATOM     41  C   UNL A   1      37.918  30.244  28.740  1.00  0.00     0.029 A 
ATOM     42  N   UNL A   1      39.387  29.875  30.387  1.00  0.00    -0.354 N 
ATOM     43  C   UNL A   1      39.281  32.145  34.045  1.00  0.00     0.074 A 
ATOM     44  C   UNL A   1      38.234  33.141  34.010  1.00  0.00     0.031 C 
ATOM     45  C   UNL A   1      38.749  29.268  28.334  1.00  0.00     0.029 A 
ATOM     46  C   UNL A   1      39.752  29.024  29.371  1.00  0.00     0.049 A 
ATOM     47  H   UNL A   1      39.848  29.904  31.256  1.00  0.00     0.167 HD
ATOM     48  C   UNL A   1      40.112  31.958  35.099  1.00  0.00     0.034 A 
ATOM     49  C   UNL A   1      40.787  28.164  29.281  1.00  0.00     0.034 A 
ATOM     50  C   UNL A   1      41.148  30.963  35.147  1.00  0.00     0.049 A 
ATOM     51  C   UNL A   1      41.722  27.999  30.454  1.00  0.00     0.074 A 
ATOM     52  C   UNL A   1      42.014  30.673  36.186  1.00  0.00     0.029 A 
ATOM     53  N   UNL A   1      41.474  30.108  34.106  1.00  0.00    -0.354 N 
ATOM     54  N   UNL A   1      41.687  28.577  31.630  1.00  0.00    -0.248 NA
ATOM     55  C   UNL A   1      42.821  27.032  30.297  1.00  0.00     0.031 C 
ATOM     56  C   UNL A   1      42.890  29.670  35.759  1.00  0.00     0.029 A 
ATOM     57  C   UNL A   1      42.538  29.301  34.470  1.00  0.00     0.049 A 
ATOM     58  H   UNL A   1      41.015  30.079  33.235  1.00  0.00     0.167 HD
ATOM     59  C   UNL A   1      42.730  28.016  32.364  1.00  0.00     0.074 A 
ATOM     60  C   UNL A   1      43.362  27.036  31.507  1.00  0.00     0.031 C 
ATOM     61  C   UNL A   1      43.134  28.295  33.629  1.00  0.00     0.034 A 
BRANCH  48  62
ATOM     62  C   UNL A   1      39.927  32.853  36.297  1.00  0.00     0.023 A 
ATOM     63  C   UNL A   1      40.574  34.106  36.347  1.00  0.00     0.012 A 
ATOM     64  C   UNL A   1      39.079  32.470  37.354  1.00  0.00     0.148 A 
ATOM     65  C   UNL A   1      40.408  34.946  37.448  1.00  0.00     0.002 A 
ATOM     66  C   UNL A   1      38.880  33.335  38.424  1.00  0.00     0.091 A 
ATOM     67  F   UNL A   1      38.492  31.267  37.299  1.00  0.00    -0.205 F 
ATOM     68  C   UNL A   1      39.554  34.566  38.479  1.00  0.00     0.022 A 
BRANCH  66  69
ATOM     69  S   UNL A   1      37.738  32.973  39.762  1.00  0.00     0.127 S 
ATOM     70  O   UNL A   1      37.879  34.163  40.600  1.00  0.00    -0.237 OA
ATOM     71  O   UNL A   1      36.461  32.873  39.054  1.00  0.00    -0.237 OA
ATOM     72  O   UNL A   1      38.200  31.730  40.362  1.00  0.00    -0.744 OA
ENDBRANCH  66  69
ENDBRANCH  48  62
BRANCH  49  73
ATOM     73  C   UNL A   1      40.994  27.366  28.037  1.00  0.00     0.023 A 
ATOM     74  C   UNL A   1      41.646  27.947  26.931  1.00  0.00     0.012 A 
ATOM     75  C   UNL A   1      40.534  26.039  27.941  1.00  0.00     0.148 A 
ATOM     76  C   UNL A   1      41.802  27.234  25.741  1.00  0.00     0.002 A 
ATOM     77  C   UNL A   1      40.744  25.314  26.775  1.00  0.00     0.091 A 
ATOM     78  F   UNL A   1      39.900  25.510  28.998  1.00  0.00    -0.205 F 
ATOM     79  C   UNL A   1      41.360  25.916  25.666  1.00  0.00     0.022 A 
BRANCH  77  80
ATOM     80  S   UNL A   1      40.323  23.575  26.632  1.00  0.00     0.127 S 
ATOM     81  O   UNL A   1      40.196  23.180  28.032  1.00  0.00    -0.237 OA
ATOM     82  O   UNL A   1      39.062  23.635  25.890  1.00  0.00    -0.237 OA
ATOM     83  O   UNL A   1      41.422  22.961  25.900  1.00  0.00    -0.744 OA
ENDBRANCH  77  80
ENDBRANCH  49  73
BRANCH  61  84
ATOM     84  C   UNL A   1      44.286  27.499  34.192  1.00  0.00     0.023 A 
ATOM     85  C   UNL A   1      45.613  27.928  33.987  1.00  0.00     0.012 A 
ATOM     86  C   UNL A   1      44.049  26.347  34.972  1.00  0.00     0.148 A 
ATOM     87  C   UNL A   1      46.684  27.199  34.505  1.00  0.00     0.002 A 
ATOM     88  C   UNL A   1      45.118  25.658  35.531  1.00  0.00     0.091 A 
ATOM     89  F   UNL A   1      42.782  25.943  35.146  1.00  0.00    -0.205 F 
ATOM     90  C   UNL A   1      46.437  26.072  35.284  1.00  0.00     0.022 A 
BRANCH  88  91
ATOM     91  S   UNL A   1      44.890  24.255  36.631  1.00  0.00     0.127 S 
ATOM     92  O   UNL A   1      44.174  23.316  35.769  1.00  0.00    -0.237 OA
ATOM     93  O   UNL A   1      46.269  23.873  36.937  1.00  0.00    -0.237 OA
ATOM     94  O   UNL A   1      44.136  24.758  37.771  1.00  0.00    -0.744 OA
ENDBRANCH  88  91
ENDBRANCH  61  84
ENDBRANCH  35  36
ENDBRANCH  28  30
ENDBRANCH  27  28
ENDBRANCH  26  27
ENDBRANCH  25  26
ENDBRANCH  24  25
ENDBRANCH   1  24
TORSDOF 23
ENDMDL
MODEL 3
REMARK VINA RESULT:      -9.1      3.620      4.868
REMARK SMILES Cc1cc(C(=O)N[C@H](C(=O)OCCOCCOCCOC(=O)c2ccc(-c3c4nc(c(-c5cccc(S(=O)(=O)[O-])c5F)c5ccc([nH]5)c(-c5cccc(S(=O)(=O)[O-])c5F)c5nc(c(-c6cccc(S(=O)(=O)[O-])c6F)c6ccc3[nH]6)C=C5)C=C4)cc2)C(C)C)c(C)s1
REMARK SMILES IDX 16 1 15 2 14 3 13 4 12 5 11 6 9 7 10 8 8 9 7 10 5 11 6 12
REMARK SMILES IDX 4 14 1 15 2 16 3 17 91 18 89 19 90 20 86 21 87 22 88 23
REMARK SMILES IDX 17 24 18 25 19 26 20 27 21 28 22 29 23 30 24 31 85 32 25 33
REMARK SMILES IDX 84 34 26 35 27 36 28 37 78 38 29 39 83 40 77 41 79 42 30 43
REMARK SMILES IDX 82 44 76 45 75 46 31 48 63 49 43 50 62 51 44 52 47 53 61 54
REMARK SMILES IDX 80 55 45 56 46 57 60 59 81 60 48 61 32 62 33 63 41 64 34 65
REMARK SMILES IDX 36 66 42 67 35 68 37 69 38 70 39 71 40 72 64 73 65 74 73 75
REMARK SMILES IDX 66 76 68 77 74 78 67 79 69 80 70 81 71 82 72 83 49 84 50 85
REMARK SMILES IDX 58 86 51 87 53 88 59 89 52 90 54 91 55 92 56 93 57 94
REMARK H PARENT 7 13 79 47 47 58
REMARK Flexibility Score: inf
ROOT
ATOM      1  C   UNL A   1      34.955  23.215  26.018  1.00  0.00     0.188 C 
ENDROOT
BRANCH   1   2
ATOM      2  C   UNL A   1      34.214  23.260  24.663  1.00  0.00     0.188 C 
BRANCH   2   3
ATOM      3  O   UNL A   1      33.405  22.125  24.411  1.00  0.00    -0.376 OA
BRANCH   3   4
ATOM      4  C   UNL A   1      32.404  21.847  25.378  1.00  0.00     0.202 C 
BRANCH   4   5
ATOM      5  C   UNL A   1      31.065  22.587  25.210  1.00  0.00     0.261 C 
BRANCH   5   6
ATOM      6  O   UNL A   1      31.103  24.028  25.129  1.00  0.00    -0.462 OA
BRANCH   6   7
ATOM      7  C   UNL A   1      31.286  24.715  26.294  1.00  0.00     0.328 C 
ATOM      8  O   UNL A   1      31.022  24.235  27.384  1.00  0.00    -0.250 OA
BRANCH   7   9
ATOM      9  C   UNL A   1      31.767  26.167  25.996  1.00  0.00     0.195 C 
BRANCH   9  10
ATOM     10  N   UNL A   1      30.666  26.830  25.304  1.00  0.00    -0.338 N 
ATOM     11  C   UNL A   1      30.436  27.189  24.000  1.00  0.00     0.253 C 
ATOM     12  O   UNL A   1      29.339  27.729  23.825  1.00  0.00    -0.269 OA
ATOM     13  H   UNL A   1      29.924  27.074  25.905  1.00  0.00     0.164 HD
BRANCH  11  14
ATOM     14  C   UNL A   1      31.405  26.994  22.899  1.00  0.00     0.053 A 
ATOM     15  C   UNL A   1      32.719  25.134  19.837  1.00  0.00     0.056 C 
ATOM     16  C   UNL A   1      32.466  26.071  20.971  1.00  0.00     0.003 A 
ATOM     17  C   UNL A   1      31.408  26.025  21.841  1.00  0.00     0.029 A 
ATOM     18  S   UNL A   1      33.492  27.354  21.361  1.00  0.00    -0.145 S 
ATOM     19  C   UNL A   1      32.535  27.799  22.729  1.00  0.00     0.014 A 
ATOM     20  C   UNL A   1      33.033  28.954  23.538  1.00  0.00     0.057 C 
ENDBRANCH  11  14
ENDBRANCH   9  10
BRANCH   9  21
ATOM     21  C   UNL A   1      32.399  27.090  27.080  1.00  0.00     0.017 C 
ATOM     22  C   UNL A   1      33.705  27.777  26.682  1.00  0.00     0.010 C 
ATOM     23  C   UNL A   1      31.403  28.150  27.577  1.00  0.00     0.010 C 
ENDBRANCH   9  21
ENDBRANCH   7   9
ENDBRANCH   6   7
ENDBRANCH   5   6
ENDBRANCH   4   5
ENDBRANCH   3   4
ENDBRANCH   2   3
ENDBRANCH   1   2
BRANCH   1  24
ATOM     24  O   UNL A   1      36.370  23.304  26.065  1.00  0.00    -0.376 OA
BRANCH  24  25
ATOM     25  C   UNL A   1      37.120  22.780  24.980  1.00  0.00     0.202 C 
BRANCH  25  26
ATOM     26  C   UNL A   1      38.237  21.743  25.230  1.00  0.00     0.261 C 
BRANCH  26  27
ATOM     27  O   UNL A   1      38.911  21.800  26.502  1.00  0.00    -0.460 OA
BRANCH  27  28
ATOM     28  C   UNL A   1      40.116  22.421  26.510  1.00  0.00     0.338 C 
ATOM     29  O   UNL A   1      41.162  21.981  26.044  1.00  0.00    -0.246 OA
BRANCH  28  30
ATOM     30  C   UNL A   1      39.983  23.828  26.960  1.00  0.00     0.060 A 
ATOM     31  C   UNL A   1      40.328  24.845  26.055  1.00  0.00     0.016 A 
ATOM     32  C   UNL A   1      39.599  24.157  28.262  1.00  0.00     0.016 A 
ATOM     33  C   UNL A   1      40.338  26.181  26.454  1.00  0.00     0.010 A 
ATOM     34  C   UNL A   1      39.648  25.500  28.673  1.00  0.00     0.010 A 
ATOM     35  C   UNL A   1      40.064  26.510  27.784  1.00  0.00    -0.014 A 
BRANCH  35  36
ATOM     36  C   UNL A   1      40.471  27.852  28.279  1.00  0.00     0.031 A 
ATOM     37  C   UNL A   1      41.940  28.195  28.279  1.00  0.00     0.074 A 
ATOM     38  C   UNL A   1      39.571  28.778  28.658  1.00  0.00     0.049 A 
ATOM     39  N   UNL A   1      42.536  29.304  28.632  1.00  0.00    -0.248 NA
ATOM     40  C   UNL A   1      42.859  27.141  27.815  1.00  0.00     0.031 C 
ATOM     41  C   UNL A   1      38.122  28.594  28.681  1.00  0.00     0.029 A 
ATOM     42  N   UNL A   1      39.756  30.061  29.115  1.00  0.00    -0.354 N 
ATOM     43  C   UNL A   1      43.897  29.072  28.462  1.00  0.00     0.074 A 
ATOM     44  C   UNL A   1      44.040  27.715  27.987  1.00  0.00     0.031 C 
ATOM     45  C   UNL A   1      37.550  29.714  29.157  1.00  0.00     0.029 A 
ATOM     46  C   UNL A   1      38.591  30.686  29.490  1.00  0.00     0.049 A 
ATOM     47  H   UNL A   1      40.639  30.492  29.168  1.00  0.00     0.167 HD
ATOM     48  C   UNL A   1      44.937  29.915  28.667  1.00  0.00     0.034 A 
ATOM     49  C   UNL A   1      38.391  31.894  30.056  1.00  0.00     0.034 A 
ATOM     50  C   UNL A   1      44.804  31.271  29.128  1.00  0.00     0.049 A 
ATOM     51  C   UNL A   1      39.570  32.802  30.311  1.00  0.00     0.074 A 
ATOM     52  C   UNL A   1      45.797  32.212  29.329  1.00  0.00     0.029 A 
ATOM     53  N   UNL A   1      43.606  31.873  29.479  1.00  0.00    -0.354 N 
ATOM     54  N   UNL A   1      40.838  32.609  30.042  1.00  0.00    -0.248 NA
ATOM     55  C   UNL A   1      39.281  34.112  30.915  1.00  0.00     0.031 C 
ATOM     56  C   UNL A   1      45.204  33.372  29.840  1.00  0.00     0.029 A 
ATOM     57  C   UNL A   1      43.836  33.167  29.911  1.00  0.00     0.049 A 
ATOM     58  H   UNL A   1      42.722  31.443  29.429  1.00  0.00     0.167 HD
ATOM     59  C   UNL A   1      41.491  33.784  30.405  1.00  0.00     0.074 A 
ATOM     60  C   UNL A   1      40.473  34.692  30.891  1.00  0.00     0.031 C 
ATOM     61  C   UNL A   1      42.813  34.082  30.351  1.00  0.00     0.034 A 
BRANCH  48  62
ATOM     62  C   UNL A   1      46.323  29.391  28.386  1.00  0.00     0.023 A 
ATOM     63  C   UNL A   1      46.935  29.649  27.142  1.00  0.00     0.012 A 
ATOM     64  C   UNL A   1      47.032  28.678  29.372  1.00  0.00     0.148 A 
ATOM     65  C   UNL A   1      48.217  29.174  26.872  1.00  0.00     0.002 A 
ATOM     66  C   UNL A   1      48.329  28.252  29.112  1.00  0.00     0.091 A 
ATOM     67  F   UNL A   1      46.424  28.424  30.539  1.00  0.00    -0.205 F 
ATOM     68  C   UNL A   1      48.918  28.487  27.859  1.00  0.00     0.022 A 
BRANCH  66  69
ATOM     69  S   UNL A   1      49.343  27.430  30.346  1.00  0.00     0.127 S 
ATOM     70  O   UNL A   1      49.454  28.464  31.373  1.00  0.00    -0.237 OA
ATOM     71  O   UNL A   1      48.507  26.288  30.717  1.00  0.00    -0.237 OA
ATOM     72  O   UNL A   1      50.588  27.080  29.676  1.00  0.00    -0.744 OA
ENDBRANCH  66  69
ENDBRANCH  48  62
BRANCH  49  73
ATOM     73  C   UNL A   1      37.011  32.337  30.412  1.00  0.00     0.023 A 
ATOM     74  C   UNL A   1      36.523  32.135  31.718  1.00  0.00     0.012 A 
ATOM     75  C   UNL A   1      36.176  32.944  29.454  1.00  0.00     0.148 A 
ATOM     76  C   UNL A   1      35.217  32.496  32.053  1.00  0.00     0.002 A 
ATOM     77  C   UNL A   1      34.897  33.355  29.809  1.00  0.00     0.091 A 
ATOM     78  F   UNL A   1      36.652  33.111  28.212  1.00  0.00    -0.205 F 
ATOM     79  C   UNL A   1      34.408  33.114  31.103  1.00  0.00     0.022 A 
BRANCH  77  80
ATOM     80  S   UNL A   1      33.832  34.269  28.691  1.00  0.00     0.127 S 
ATOM     81  O   UNL A   1      34.696  35.376  28.291  1.00  0.00    -0.237 OA
ATOM     82  O   UNL A   1      33.576  33.276  27.647  1.00  0.00    -0.237 OA
ATOM     83  O   UNL A   1      32.659  34.636  29.473  1.00  0.00    -0.744 OA
ENDBRANCH  77  80
ENDBRANCH  49  73
BRANCH  61  84
ATOM     84  C   UNL A   1      43.242  35.464  30.783  1.00  0.00     0.023 A 
ATOM     85  C   UNL A   1      43.441  36.478  29.825  1.00  0.00     0.012 A 
ATOM     86  C   UNL A   1      43.397  35.770  32.151  1.00  0.00     0.148 A 
ATOM     87  C   UNL A   1      43.836  37.758  30.216  1.00  0.00     0.002 A 
ATOM     88  C   UNL A   1      43.736  37.062  32.536  1.00  0.00     0.091 A 
ATOM     89  F   UNL A   1      43.218  34.792  33.051  1.00  0.00    -0.205 F 
ATOM     90  C   UNL A   1      43.973  38.052  31.570  1.00  0.00     0.022 A 
BRANCH  88  91
ATOM     91  S   UNL A   1      43.835  37.558  34.261  1.00  0.00     0.127 S 
ATOM     92  O   UNL A   1      44.063  38.997  34.144  1.00  0.00    -0.237 OA
ATOM     93  O   UNL A   1      42.512  37.190  34.766  1.00  0.00    -0.237 OA
ATOM     94  O   UNL A   1      44.934  36.794  34.835  1.00  0.00    -0.744 OA
ENDBRANCH  88  91
ENDBRANCH  61  84
ENDBRANCH  35  36
ENDBRANCH  28  30
ENDBRANCH  27  28
ENDBRANCH  26  27
ENDBRANCH  25  26
ENDBRANCH  24  25
ENDBRANCH   1  24
TORSDOF 23
ENDMDL
