MODEL 1
REMARK VINA RESULT:      -9.4      0.000      0.000
REMARK SMILES CCC(CC)(CC)NC(=O)NC[C@@H]1CC[C@H](C(=O)OCCOCCOCCOC(=O)c2ccc(-c3c4nc(c(-c5cccc(S(=O)(=O)[O-])c5F)c5ccc([nH]5)c(-c5cccc(S(=O)(=O)[O-])c5F)c5nc(c(-c6cccc(S(=O)(=O)[O-])c6F)c6ccc3[nH]6)C=C5)C=C4)cc2)O1
REMARK SMILES IDX 23 1 22 2 21 3 20 4 19 5 17 6 18 7 16 8 13 9 14 10 94 11
REMARK SMILES IDX 15 12 12 13 11 14 8 15 9 16 10 18 3 20 2 21 1 22 4 23 5 24
REMARK SMILES IDX 6 25 7 26 24 27 25 28 26 29 27 30 28 31 29 32 30 33 31 34
REMARK SMILES IDX 32 35 93 36 33 37 92 38 34 39 35 40 36 41 86 42 37 43 91 44
REMARK SMILES IDX 85 45 87 46 38 47 90 48 84 49 83 50 39 52 71 53 51 54 70 55
REMARK SMILES IDX 52 56 55 57 69 58 88 59 53 60 54 61 68 63 89 64 56 65 40 66
REMARK SMILES IDX 41 67 49 68 42 69 44 70 50 71 43 72 45 73 46 74 47 75 48 76
REMARK SMILES IDX 72 77 73 78 81 79 74 80 76 81 82 82 75 83 77 84 78 85 79 86
REMARK SMILES IDX 80 87 57 88 58 89 66 90 59 91 61 92 67 93 60 94 62 95 63 96
REMARK SMILES IDX 64 97 65 98
REMARK H PARENT 8 17 11 19 87 51 55 62
REMARK Flexibility Score: inf
ROOT
ATOM      1  C   UNL A   1      39.966  21.189  26.329  1.00  0.00     0.188 C 
ENDROOT
BRANCH   1   2
ATOM      2  O   UNL A   1      38.657  21.742  26.412  1.00  0.00    -0.376 OA
BRANCH   2   3
ATOM      3  C   UNL A   1      37.942  21.910  25.190  1.00  0.00     0.202 C 
BRANCH   3   4
ATOM      4  C   UNL A   1      36.984  20.775  24.800  1.00  0.00     0.261 C 
BRANCH   4   5
ATOM      5  O   UNL A   1      35.631  21.217  24.505  1.00  0.00    -0.461 OA
BRANCH   5   6
ATOM      6  C   UNL A   1      34.646  20.456  25.049  1.00  0.00     0.335 C 
ATOM      7  O   UNL A   1      34.439  19.297  24.691  1.00  0.00    -0.249 OA
BRANCH   6   8
ATOM      8  C   UNL A   1      33.730  21.144  26.093  1.00  0.00     0.228 C 
ATOM      9  C   UNL A   1      32.487  23.154  26.225  1.00  0.00     0.138 C 
ATOM     10  C   UNL A   1      33.271  23.045  27.530  1.00  0.00     0.037 C 
ATOM     11  O   UNL A   1      32.944  22.104  25.363  1.00  0.00    -0.361 OA
ATOM     12  C   UNL A   1      34.212  21.854  27.348  1.00  0.00     0.047 C 
BRANCH   9  13
ATOM     13  C   UNL A   1      32.442  24.497  25.421  1.00  0.00     0.149 C 
BRANCH  13  14
ATOM     14  N   UNL A   1      32.509  25.760  26.171  1.00  0.00    -0.336 N 
ATOM     15  N   UNL A   1      31.052  27.502  25.381  1.00  0.00    -0.333 N 
ATOM     16  C   UNL A   1      31.600  26.737  26.341  1.00  0.00     0.315 C 
ATOM     17  H   UNL A   1      30.292  28.010  25.745  1.00  0.00     0.165 HD
ATOM     18  O   UNL A   1      31.302  27.021  27.507  1.00  0.00    -0.249 OA
ATOM     19  H   UNL A   1      33.368  25.918  26.628  1.00  0.00     0.165 HD
BRANCH  15  20
ATOM     20  C   UNL A   1      31.238  27.821  23.930  1.00  0.00     0.041 C 
BRANCH  20  21
ATOM     21  C   UNL A   1      32.709  27.990  23.575  1.00  0.00     0.025 C 
ATOM     22  C   UNL A   1      33.313  29.168  24.326  1.00  0.00     0.006 C 
ENDBRANCH  20  21
BRANCH  20  23
ATOM     23  C   UNL A   1      30.493  29.173  23.586  1.00  0.00     0.025 C 
ATOM     24  C   UNL A   1      30.412  29.525  22.090  1.00  0.00     0.006 C 
ENDBRANCH  20  23
BRANCH  20  25
ATOM     25  C   UNL A   1      30.541  26.730  23.063  1.00  0.00     0.025 C 
ATOM     26  C   UNL A   1      31.452  25.804  22.273  1.00  0.00     0.006 C 
ENDBRANCH  20  25
ENDBRANCH  15  20
ENDBRANCH  13  14
ENDBRANCH   9  13
ENDBRANCH   6   8
ENDBRANCH   5   6
ENDBRANCH   4   5
ENDBRANCH   3   4
ENDBRANCH   2   3
ENDBRANCH   1   2
BRANCH   1  27
ATOM     27  C   UNL A   1      41.126  22.112  26.726  1.00  0.00     0.188 C 
BRANCH  27  28
ATOM     28  O   UNL A   1      42.270  21.991  25.899  1.00  0.00    -0.376 OA
BRANCH  28  29
ATOM     29  C   UNL A   1      42.567  23.106  25.076  1.00  0.00     0.202 C 
BRANCH  29  30
ATOM     30  C   UNL A   1      44.057  23.315  24.773  1.00  0.00     0.261 C 
BRANCH  30  31
ATOM     31  O   UNL A   1      44.821  23.926  25.828  1.00  0.00    -0.460 OA
BRANCH  31  32
ATOM     32  C   UNL A   1      45.088  25.255  25.716  1.00  0.00     0.338 C 
ATOM     33  O   UNL A   1      45.619  25.811  24.790  1.00  0.00    -0.246 OA
BRANCH  32  34
ATOM     34  C   UNL A   1      44.333  25.932  26.811  1.00  0.00     0.060 A 
ATOM     35  C   UNL A   1      44.233  27.333  26.787  1.00  0.00     0.016 A 
ATOM     36  C   UNL A   1      43.648  25.196  27.780  1.00  0.00     0.016 A 
ATOM     37  C   UNL A   1      43.458  27.997  27.742  1.00  0.00     0.010 A 
ATOM     38  C   UNL A   1      42.895  25.864  28.750  1.00  0.00     0.010 A 
ATOM     39  C   UNL A   1      42.820  27.268  28.753  1.00  0.00    -0.014 A 
BRANCH  39  40
ATOM     40  C   UNL A   1      42.290  27.970  29.947  1.00  0.00     0.031 A 
ATOM     41  C   UNL A   1      40.925  28.596  29.833  1.00  0.00     0.074 A 
ATOM     42  C   UNL A   1      42.986  28.072  31.093  1.00  0.00     0.049 A 
ATOM     43  N   UNL A   1      40.253  29.293  30.710  1.00  0.00    -0.248 NA
ATOM     44  C   UNL A   1      40.228  28.407  28.549  1.00  0.00     0.031 C 
ATOM     45  C   UNL A   1      44.310  27.503  31.337  1.00  0.00     0.029 A 
ATOM     46  N   UNL A   1      42.675  28.717  32.265  1.00  0.00    -0.354 N 
ATOM     47  C   UNL A   1      39.067  29.646  30.077  1.00  0.00     0.074 A 
ATOM     48  C   UNL A   1      39.117  29.101  28.739  1.00  0.00     0.031 C 
ATOM     49  C   UNL A   1      44.710  27.850  32.575  1.00  0.00     0.029 A 
ATOM     50  C   UNL A   1      43.682  28.682  33.200  1.00  0.00     0.049 A 
ATOM     51  H   UNL A   1      41.811  29.164  32.420  1.00  0.00     0.167 HD
ATOM     52  C   UNL A   1      38.020  30.349  30.567  1.00  0.00     0.034 A 
ATOM     53  C   UNL A   1      43.767  29.272  34.411  1.00  0.00     0.034 A 
ATOM     54  C   UNL A   1      37.968  30.895  31.894  1.00  0.00     0.049 A 
ATOM     55  C   UNL A   1      42.606  30.094  34.917  1.00  0.00     0.074 A 
ATOM     56  C   UNL A   1      36.940  31.599  32.494  1.00  0.00     0.029 A 
ATOM     57  N   UNL A   1      38.994  30.814  32.821  1.00  0.00    -0.354 N 
ATOM     58  N   UNL A   1      41.444  30.323  34.354  1.00  0.00    -0.248 NA
ATOM     59  C   UNL A   1      42.757  30.715  36.243  1.00  0.00     0.031 C 
ATOM     60  C   UNL A   1      37.358  31.970  33.775  1.00  0.00     0.029 A 
ATOM     61  C   UNL A   1      38.631  31.465  33.986  1.00  0.00     0.049 A 
ATOM     62  H   UNL A   1      39.856  30.361  32.673  1.00  0.00     0.167 HD
ATOM     63  C   UNL A   1      40.713  31.073  35.272  1.00  0.00     0.074 A 
ATOM     64  C   UNL A   1      41.558  31.247  36.434  1.00  0.00     0.031 C 
ATOM     65  C   UNL A   1      39.460  31.581  35.160  1.00  0.00     0.034 A 
BRANCH  52  66
ATOM     66  C   UNL A   1      36.839  30.550  29.656  1.00  0.00     0.023 A 
ATOM     67  C   UNL A   1      36.227  29.432  29.050  1.00  0.00     0.012 A 
ATOM     68  C   UNL A   1      36.322  31.836  29.415  1.00  0.00     0.148 A 
ATOM     69  C   UNL A   1      35.144  29.596  28.188  1.00  0.00     0.002 A 
ATOM     70  C   UNL A   1      35.213  31.987  28.593  1.00  0.00     0.091 A 
ATOM     71  F   UNL A   1      36.936  32.888  29.977  1.00  0.00    -0.205 F 
ATOM     72  C   UNL A   1      34.631  30.871  27.969  1.00  0.00     0.022 A 
BRANCH  70  73
ATOM     73  S   UNL A   1      34.431  33.579  28.309  1.00  0.00     0.127 S 
ATOM     74  O   UNL A   1      35.402  34.231  27.431  1.00  0.00    -0.237 OA
ATOM     75  O   UNL A   1      33.181  33.194  27.656  1.00  0.00    -0.237 OA
ATOM     76  O   UNL A   1      34.269  34.186  29.622  1.00  0.00    -0.744 OA
ENDBRANCH  70  73
ENDBRANCH  52  66
BRANCH  53  77
ATOM     77  C   UNL A   1      44.981  29.083  35.258  1.00  0.00     0.023 A 
ATOM     78  C   UNL A   1      46.065  29.973  35.125  1.00  0.00     0.012 A 
ATOM     79  C   UNL A   1      45.074  28.024  36.181  1.00  0.00     0.148 A 
ATOM     80  C   UNL A   1      47.231  29.793  35.871  1.00  0.00     0.002 A 
ATOM     81  C   UNL A   1      46.218  27.880  36.959  1.00  0.00     0.091 A 
ATOM     82  F   UNL A   1      44.041  27.175  36.279  1.00  0.00    -0.205 F 
ATOM     83  C   UNL A   1      47.304  28.754  36.794  1.00  0.00     0.022 A 
BRANCH  81  84
ATOM     84  S   UNL A   1      46.361  26.640  38.249  1.00  0.00     0.127 S 
ATOM     85  O   UNL A   1      45.009  26.086  38.285  1.00  0.00    -0.237 OA
ATOM     86  O   UNL A   1      47.379  25.746  37.694  1.00  0.00    -0.237 OA
ATOM     87  O   UNL A   1      46.779  27.359  39.445  1.00  0.00    -0.744 OA
ENDBRANCH  81  84
ENDBRANCH  53  77
BRANCH  65  88
ATOM     88  C   UNL A   1      38.892  32.330  36.338  1.00  0.00     0.023 A 
ATOM     89  C   UNL A   1      39.138  33.710  36.484  1.00  0.00     0.012 A 
ATOM     90  C   UNL A   1      38.045  31.680  37.258  1.00  0.00     0.148 A 
ATOM     91  C   UNL A   1      38.577  34.422  37.545  1.00  0.00     0.002 A 
ATOM     92  C   UNL A   1      37.448  32.405  38.282  1.00  0.00     0.091 A 
ATOM     93  F   UNL A   1      37.834  30.363  37.114  1.00  0.00    -0.205 F 
ATOM     94  C   UNL A   1      37.724  33.774  38.435  1.00  0.00     0.022 A 
BRANCH  92  95
ATOM     95  S   UNL A   1      36.258  31.677  39.414  1.00  0.00     0.127 S 
ATOM     96  O   UNL A   1      35.063  32.478  39.145  1.00  0.00    -0.237 OA
ATOM     97  O   UNL A   1      36.185  30.295  38.941  1.00  0.00    -0.237 OA
ATOM     98  O   UNL A   1      36.825  31.830  40.747  1.00  0.00    -0.744 OA
ENDBRANCH  92  95
ENDBRANCH  65  88
ENDBRANCH  39  40
ENDBRANCH  32  34
ENDBRANCH  31  32
ENDBRANCH  30  31
ENDBRANCH  29  30
ENDBRANCH  28  29
ENDBRANCH  27  28
ENDBRANCH   1  27
TORSDOF 26
ENDMDL
MODEL 2
REMARK VINA RESULT:      -8.8      7.706     12.379
REMARK SMILES CCC(CC)(CC)NC(=O)NC[C@@H]1CC[C@H](C(=O)OCCOCCOCCOC(=O)c2ccc(-c3c4nc(c(-c5cccc(S(=O)(=O)[O-])c5F)c5ccc([nH]5)c(-c5cccc(S(=O)(=O)[O-])c5F)c5nc(c(-c6cccc(S(=O)(=O)[O-])c6F)c6ccc3[nH]6)C=C5)C=C4)cc2)O1
REMARK SMILES IDX 23 1 22 2 21 3 20 4 19 5 17 6 18 7 16 8 13 9 14 10 94 11
REMARK SMILES IDX 15 12 12 13 11 14 8 15 9 16 10 18 3 20 2 21 1 22 4 23 5 24
REMARK SMILES IDX 6 25 7 26 24 27 25 28 26 29 27 30 28 31 29 32 30 33 31 34
REMARK SMILES IDX 32 35 93 36 33 37 92 38 34 39 35 40 36 41 86 42 37 43 91 44
REMARK SMILES IDX 85 45 87 46 38 47 90 48 84 49 83 50 39 52 71 53 51 54 70 55
REMARK SMILES IDX 52 56 55 57 69 58 88 59 53 60 54 61 68 63 89 64 56 65 40 66
REMARK SMILES IDX 41 67 49 68 42 69 44 70 50 71 43 72 45 73 46 74 47 75 48 76
REMARK SMILES IDX 72 77 73 78 81 79 74 80 76 81 82 82 75 83 77 84 78 85 79 86
REMARK SMILES IDX 80 87 57 88 58 89 66 90 59 91 61 92 67 93 60 94 62 95 63 96
REMARK SMILES IDX 64 97 65 98
REMARK H PARENT 8 17 11 19 87 51 55 62
REMARK Flexibility Score: inf
ROOT
ATOM      1  C   UNL A   1      39.919  19.980  26.066  1.00  0.00     0.188 C 
ENDROOT
BRANCH   1   2
ATOM      2  O   UNL A   1      38.831  20.525  25.328  1.00  0.00    -0.376 OA
BRANCH   2   3
ATOM      3  C   UNL A   1      38.027  21.506  25.981  1.00  0.00     0.202 C 
BRANCH   3   4
ATOM      4  C   UNL A   1      37.923  22.873  25.289  1.00  0.00     0.261 C 
BRANCH   4   5
ATOM      5  O   UNL A   1      36.611  23.490  25.390  1.00  0.00    -0.461 OA
BRANCH   5   6
ATOM      6  C   UNL A   1      35.607  22.811  24.776  1.00  0.00     0.335 C 
ATOM      7  O   UNL A   1      35.643  22.528  23.580  1.00  0.00    -0.249 OA
BRANCH   6   8
ATOM      8  C   UNL A   1      34.364  22.477  25.639  1.00  0.00     0.228 C 
ATOM      9  C   UNL A   1      32.015  22.660  25.408  1.00  0.00     0.138 C 
ATOM     10  C   UNL A   1      32.359  23.227  26.783  1.00  0.00     0.037 C 
ATOM     11  O   UNL A   1      33.252  22.409  24.728  1.00  0.00    -0.361 OA
ATOM     12  C   UNL A   1      33.886  23.284  26.836  1.00  0.00     0.047 C 
BRANCH   9  13
ATOM     13  C   UNL A   1      31.041  23.416  24.444  1.00  0.00     0.149 C 
BRANCH  13  14
ATOM     14  N   UNL A   1      30.410  24.655  24.923  1.00  0.00    -0.336 N 
ATOM     15  N   UNL A   1      31.432  26.691  24.152  1.00  0.00    -0.333 N 
ATOM     16  C   UNL A   1      30.378  25.892  24.395  1.00  0.00     0.315 C 
ATOM     17  H   UNL A   1      31.155  27.459  23.603  1.00  0.00     0.165 HD
ATOM     18  O   UNL A   1      29.260  26.380  24.194  1.00  0.00    -0.249 OA
ATOM     19  H   UNL A   1      29.929  24.564  25.777  1.00  0.00     0.165 HD
BRANCH  15  20
ATOM     20  C   UNL A   1      32.895  26.775  24.456  1.00  0.00     0.041 C 
BRANCH  20  21
ATOM     21  C   UNL A   1      33.161  26.748  25.955  1.00  0.00     0.025 C 
ATOM     22  C   UNL A   1      33.864  28.022  26.401  1.00  0.00     0.006 C 
ENDBRANCH  20  21
BRANCH  20  23
ATOM     23  C   UNL A   1      33.478  28.127  23.879  1.00  0.00     0.025 C 
ATOM     24  C   UNL A   1      32.516  28.944  22.999  1.00  0.00     0.006 C 
ENDBRANCH  20  23
BRANCH  20  25
ATOM     25  C   UNL A   1      33.650  25.640  23.700  1.00  0.00     0.025 C 
ATOM     26  C   UNL A   1      33.301  25.450  22.233  1.00  0.00     0.006 C 
ENDBRANCH  20  25
ENDBRANCH  15  20
ENDBRANCH  13  14
ENDBRANCH   9  13
ENDBRANCH   6   8
ENDBRANCH   5   6
ENDBRANCH   4   5
ENDBRANCH   3   4
ENDBRANCH   2   3
ENDBRANCH   1   2
BRANCH   1  27
ATOM     27  C   UNL A   1      41.185  20.842  26.157  1.00  0.00     0.188 C 
BRANCH  27  28
ATOM     28  O   UNL A   1      42.331  20.250  25.572  1.00  0.00    -0.376 OA
BRANCH  28  29
ATOM     29  C   UNL A   1      43.535  20.993  25.664  1.00  0.00     0.202 C 
BRANCH  29  30
ATOM     30  C   UNL A   1      43.484  22.201  26.610  1.00  0.00     0.261 C 
BRANCH  30  31
ATOM     31  O   UNL A   1      44.757  22.648  27.108  1.00  0.00    -0.460 OA
BRANCH  31  32
ATOM     32  C   UNL A   1      44.761  23.338  28.281  1.00  0.00     0.338 C 
ATOM     33  O   UNL A   1      44.599  22.888  29.385  1.00  0.00    -0.246 OA
BRANCH  32  34
ATOM     34  C   UNL A   1      45.302  24.694  27.972  1.00  0.00     0.060 A 
ATOM     35  C   UNL A   1      45.317  25.120  26.634  1.00  0.00     0.016 A 
ATOM     36  C   UNL A   1      45.688  25.568  28.991  1.00  0.00     0.016 A 
ATOM     37  C   UNL A   1      45.730  26.416  26.314  1.00  0.00     0.010 A 
ATOM     38  C   UNL A   1      46.125  26.855  28.667  1.00  0.00     0.010 A 
ATOM     39  C   UNL A   1      46.175  27.275  27.326  1.00  0.00    -0.014 A 
BRANCH  39  40
ATOM     40  C   UNL A   1      46.923  28.506  26.971  1.00  0.00     0.031 A 
ATOM     41  C   UNL A   1      48.414  28.384  26.798  1.00  0.00     0.074 A 
ATOM     42  C   UNL A   1      46.321  29.699  26.820  1.00  0.00     0.049 A 
ATOM     43  N   UNL A   1      49.298  29.307  26.527  1.00  0.00    -0.248 NA
ATOM     44  C   UNL A   1      48.979  27.033  26.955  1.00  0.00     0.031 C 
ATOM     45  C   UNL A   1      44.887  29.950  26.950  1.00  0.00     0.029 A 
ATOM     46  N   UNL A   1      46.856  30.934  26.545  1.00  0.00    -0.354 N 
ATOM     47  C   UNL A   1      50.525  28.654  26.506  1.00  0.00     0.074 A 
ATOM     48  C   UNL A   1      50.274  27.262  26.806  1.00  0.00     0.031 C 
ATOM     49  C   UNL A   1      44.659  31.266  26.781  1.00  0.00     0.029 A 
ATOM     50  C   UNL A   1      45.932  31.952  26.555  1.00  0.00     0.049 A 
ATOM     51  H   UNL A   1      47.812  31.076  26.359  1.00  0.00     0.167 HD
ATOM     52  C   UNL A   1      51.752  29.160  26.245  1.00  0.00     0.034 A 
ATOM     53  C   UNL A   1      46.101  33.283  26.417  1.00  0.00     0.034 A 
ATOM     54  C   UNL A   1      52.006  30.542  25.950  1.00  0.00     0.049 A 
ATOM     55  C   UNL A   1      47.488  33.832  26.177  1.00  0.00     0.074 A 
ATOM     56  C   UNL A   1      53.210  31.149  25.646  1.00  0.00     0.029 A 
ATOM     57  N   UNL A   1      51.041  31.537  25.941  1.00  0.00    -0.354 N 
ATOM     58  N   UNL A   1      48.622  33.189  26.044  1.00  0.00    -0.248 NA
ATOM     59  C   UNL A   1      47.611  35.292  26.037  1.00  0.00     0.031 C 
ATOM     60  C   UNL A   1      52.979  32.518  25.482  1.00  0.00     0.029 A 
ATOM     61  C   UNL A   1      51.624  32.757  25.648  1.00  0.00     0.049 A 
ATOM     62  H   UNL A   1      50.083  31.397  26.118  1.00  0.00     0.167 HD
ATOM     63  C   UNL A   1      49.583  34.157  25.762  1.00  0.00     0.074 A 
ATOM     64  C   UNL A   1      48.893  35.429  25.728  1.00  0.00     0.031 C 
ATOM     65  C   UNL A   1      50.915  34.009  25.559  1.00  0.00     0.034 A 
BRANCH  52  66
ATOM     66  C   UNL A   1      52.910  28.198  26.255  1.00  0.00     0.023 A 
ATOM     67  C   UNL A   1      53.318  27.585  25.052  1.00  0.00     0.012 A 
ATOM     68  C   UNL A   1      53.606  27.918  27.446  1.00  0.00     0.148 A 
ATOM     69  C   UNL A   1      54.376  26.678  25.041  1.00  0.00     0.002 A 
ATOM     70  C   UNL A   1      54.689  27.049  27.418  1.00  0.00     0.091 A 
ATOM     71  F   UNL A   1      53.183  28.487  28.584  1.00  0.00    -0.205 F 
ATOM     72  C   UNL A   1      55.068  26.418  26.221  1.00  0.00     0.022 A 
BRANCH  70  73
ATOM     73  S   UNL A   1      55.691  26.709  28.870  1.00  0.00     0.127 S 
ATOM     74  O   UNL A   1      54.728  26.034  29.740  1.00  0.00    -0.237 OA
ATOM     75  O   UNL A   1      56.734  25.840  28.325  1.00  0.00    -0.237 OA
ATOM     76  O   UNL A   1      56.163  28.002  29.343  1.00  0.00    -0.744 OA
ENDBRANCH  70  73
ENDBRANCH  52  66
BRANCH  53  77
ATOM     77  C   UNL A   1      44.926  34.203  26.464  1.00  0.00     0.023 A 
ATOM     78  C   UNL A   1      44.017  34.222  25.387  1.00  0.00     0.012 A 
ATOM     79  C   UNL A   1      44.713  35.066  27.556  1.00  0.00     0.148 A 
ATOM     80  C   UNL A   1      42.937  35.104  25.383  1.00  0.00     0.002 A 
ATOM     81  C   UNL A   1      43.604  35.906  27.569  1.00  0.00     0.091 A 
ATOM     82  F   UNL A   1      45.599  35.048  28.561  1.00  0.00    -0.205 F 
ATOM     83  C   UNL A   1      42.724  35.939  26.476  1.00  0.00     0.022 A 
BRANCH  81  84
ATOM     84  S   UNL A   1      43.189  36.936  28.980  1.00  0.00     0.127 S 
ATOM     85  O   UNL A   1      42.956  35.939  30.022  1.00  0.00    -0.237 OA
ATOM     86  O   UNL A   1      44.410  37.726  29.145  1.00  0.00    -0.237 OA
ATOM     87  O   UNL A   1      42.022  37.708  28.574  1.00  0.00    -0.744 OA
ENDBRANCH  81  84
ENDBRANCH  53  77
BRANCH  65  88
ATOM     88  C   UNL A   1      51.722  35.239  25.227  1.00  0.00     0.023 A 
ATOM     89  C   UNL A   1      52.081  35.511  23.891  1.00  0.00     0.012 A 
ATOM     90  C   UNL A   1      52.055  36.169  26.233  1.00  0.00     0.148 A 
ATOM     91  C   UNL A   1      52.786  36.671  23.568  1.00  0.00     0.002 A 
ATOM     92  C   UNL A   1      52.712  37.347  25.897  1.00  0.00     0.091 A 
ATOM     93  F   UNL A   1      51.720  35.887  27.501  1.00  0.00    -0.205 F 
ATOM     94  C   UNL A   1      53.090  37.593  24.567  1.00  0.00     0.022 A 
BRANCH  92  95
ATOM     95  S   UNL A   1      53.054  38.637  27.099  1.00  0.00     0.127 S 
ATOM     96  O   UNL A   1      53.831  39.586  26.304  1.00  0.00    -0.237 OA
ATOM     97  O   UNL A   1      51.711  39.094  27.455  1.00  0.00    -0.237 OA
ATOM     98  O   UNL A   1      53.779  37.991  28.187  1.00  0.00    -0.744 OA
ENDBRANCH  92  95
ENDBRANCH  65  88
ENDBRANCH  39  40
ENDBRANCH  32  34
ENDBRANCH  31  32
ENDBRANCH  30  31
ENDBRANCH  29  30
ENDBRANCH  28  29
ENDBRANCH  27  28
ENDBRANCH   1  27
TORSDOF 26
ENDMDL
MODEL 3
REMARK VINA RESULT:      -8.7      5.184      6.860
REMARK SMILES CCC(CC)(CC)NC(=O)NC[C@@H]1CC[C@H](C(=O)OCCOCCOCCOC(=O)c2ccc(-c3c4nc(c(-c5cccc(S(=O)(=O)[O-])c5F)c5ccc([nH]5)c(-c5cccc(S(=O)(=O)[O-])c5F)c5nc(c(-c6cccc(S(=O)(=O)[O-])c6F)c6ccc3[nH]6)C=C5)C=C4)cc2)O1
REMARK SMILES IDX 23 1 22 2 21 3 20 4 19 5 17 6 18 7 16 8 13 9 14 10 94 11
REMARK SMILES IDX 15 12 12 13 11 14 8 15 9 16 10 18 3 20 2 21 1 22 4 23 5 24
REMARK SMILES IDX 6 25 7 26 24 27 25 28 26 29 27 30 28 31 29 32 30 33 31 34
REMARK SMILES IDX 32 35 93 36 33 37 92 38 34 39 35 40 36 41 86 42 37 43 91 44
REMARK SMILES IDX 85 45 87 46 38 47 90 48 84 49 83 50 39 52 71 53 51 54 70 55
REMARK SMILES IDX 52 56 55 57 69 58 88 59 53 60 54 61 68 63 89 64 56 65 40 66
REMARK SMILES IDX 41 67 49 68 42 69 44 70 50 71 43 72 45 73 46 74 47 75 48 76
REMARK SMILES IDX 72 77 73 78 81 79 74 80 76 81 82 82 75 83 77 84 78 85 79 86
REMARK SMILES IDX 80 87 57 88 58 89 66 90 59 91 61 92 67 93 60 94 62 95 63 96
REMARK SMILES IDX 64 97 65 98
REMARK H PARENT 8 17 11 19 87 51 55 62
REMARK Flexibility Score: inf
ROOT
ATOM      1  C   UNL A   1      37.680  20.070  24.867  1.00  0.00     0.188 C 
ENDROOT
BRANCH   1   2
ATOM      2  O   UNL A   1      37.060  21.295  24.493  1.00  0.00    -0.376 OA
BRANCH   2   3
ATOM      3  C   UNL A   1      36.112  21.851  25.402  1.00  0.00     0.202 C 
BRANCH   3   4
ATOM      4  C   UNL A   1      36.492  23.191  26.047  1.00  0.00     0.261 C 
BRANCH   4   5
ATOM      5  O   UNL A   1      35.417  24.169  26.060  1.00  0.00    -0.461 OA
BRANCH   5   6
ATOM      6  C   UNL A   1      34.574  24.110  24.996  1.00  0.00     0.335 C 
ATOM      7  O   UNL A   1      34.846  24.630  23.914  1.00  0.00    -0.249 OA
BRANCH   6   8
ATOM      8  C   UNL A   1      33.204  23.425  25.230  1.00  0.00     0.228 C 
ATOM      9  C   UNL A   1      31.037  23.554  24.287  1.00  0.00     0.138 C 
ATOM     10  C   UNL A   1      30.853  23.610  25.802  1.00  0.00     0.037 C 
ATOM     11  O   UNL A   1      32.444  23.629  24.025  1.00  0.00    -0.361 OA
ATOM     12  C   UNL A   1      32.261  23.725  26.385  1.00  0.00     0.047 C 
BRANCH   9  13
ATOM     13  C   UNL A   1      30.283  24.552  23.346  1.00  0.00     0.149 C 
BRANCH  13  14
ATOM     14  N   UNL A   1      29.331  25.496  23.951  1.00  0.00    -0.336 N 
ATOM     15  N   UNL A   1      30.156  27.734  24.253  1.00  0.00    -0.333 N 
ATOM     16  C   UNL A   1      29.237  26.835  23.862  1.00  0.00     0.315 C 
ATOM     17  H   UNL A   1      29.921  28.628  23.915  1.00  0.00     0.165 HD
ATOM     18  O   UNL A   1      28.158  27.289  23.463  1.00  0.00    -0.249 OA
ATOM     19  H   UNL A   1      28.645  25.075  24.518  1.00  0.00     0.165 HD
BRANCH  15  20
ATOM     20  C   UNL A   1      31.427  27.799  25.041  1.00  0.00     0.041 C 
BRANCH  20  21
ATOM     21  C   UNL A   1      31.275  27.149  26.409  1.00  0.00     0.025 C 
ATOM     22  C   UNL A   1      31.658  28.124  27.514  1.00  0.00     0.006 C 
ENDBRANCH  20  21
BRANCH  20  23
ATOM     23  C   UNL A   1      31.839  29.310  25.258  1.00  0.00     0.025 C 
ATOM     24  C   UNL A   1      30.865  30.353  24.682  1.00  0.00     0.006 C 
ENDBRANCH  20  23
BRANCH  20  25
ATOM     25  C   UNL A   1      32.587  27.167  24.212  1.00  0.00     0.025 C 
ATOM     26  C   UNL A   1      32.826  27.746  22.826  1.00  0.00     0.006 C 
ENDBRANCH  20  25
ENDBRANCH  15  20
ENDBRANCH  13  14
ENDBRANCH   9  13
ENDBRANCH   6   8
ENDBRANCH   5   6
ENDBRANCH   4   5
ENDBRANCH   3   4
ENDBRANCH   2   3
ENDBRANCH   1   2
BRANCH   1  27
ATOM     27  C   UNL A   1      39.078  20.172  25.492  1.00  0.00     0.188 C 
BRANCH  27  28
ATOM     28  O   UNL A   1      39.186  21.156  26.506  1.00  0.00    -0.376 OA
BRANCH  28  29
ATOM     29  C   UNL A   1      40.365  21.942  26.490  1.00  0.00     0.202 C 
BRANCH  29  30
ATOM     30  C   UNL A   1      41.426  21.549  27.527  1.00  0.00     0.261 C 
BRANCH  30  31
ATOM     31  O   UNL A   1      42.732  22.113  27.318  1.00  0.00    -0.460 OA
BRANCH  31  32
ATOM     32  C   UNL A   1      42.916  22.868  26.201  1.00  0.00     0.338 C 
ATOM     33  O   UNL A   1      42.645  22.562  25.070  1.00  0.00    -0.246 OA
BRANCH  32  34
ATOM     34  C   UNL A   1      43.228  24.249  26.671  1.00  0.00     0.060 A 
ATOM     35  C   UNL A   1      43.773  24.412  27.955  1.00  0.00     0.016 A 
ATOM     36  C   UNL A   1      43.088  25.350  25.823  1.00  0.00     0.016 A 
ATOM     37  C   UNL A   1      44.165  25.679  28.396  1.00  0.00     0.010 A 
ATOM     38  C   UNL A   1      43.456  26.621  26.276  1.00  0.00     0.010 A 
ATOM     39  C   UNL A   1      43.970  26.795  27.573  1.00  0.00    -0.014 A 
BRANCH  39  40
ATOM     40  C   UNL A   1      44.060  28.159  28.148  1.00  0.00     0.031 A 
ATOM     41  C   UNL A   1      42.792  28.773  28.678  1.00  0.00     0.074 A 
ATOM     42  C   UNL A   1      45.214  28.849  28.192  1.00  0.00     0.049 A 
ATOM     43  N   UNL A   1      42.592  29.957  29.192  1.00  0.00    -0.248 NA
ATOM     44  C   UNL A   1      41.585  27.931  28.613  1.00  0.00     0.031 C 
ATOM     45  C   UNL A   1      46.512  28.366  27.723  1.00  0.00     0.029 A 
ATOM     46  N   UNL A   1      45.469  30.123  28.637  1.00  0.00    -0.354 N 
ATOM     47  C   UNL A   1      41.236  30.011  29.490  1.00  0.00     0.074 A 
ATOM     48  C   UNL A   1      40.658  28.749  29.084  1.00  0.00     0.031 C 
ATOM     49  C   UNL A   1      47.422  29.345  27.881  1.00  0.00     0.029 A 
ATOM     50  C   UNL A   1      46.768  30.529  28.440  1.00  0.00     0.049 A 
ATOM     51  H   UNL A   1      44.785  30.692  29.058  1.00  0.00     0.167 HD
ATOM     52  C   UNL A   1      40.531  31.014  30.064  1.00  0.00     0.034 A 
ATOM     53  C   UNL A   1      47.351  31.724  28.665  1.00  0.00     0.034 A 
ATOM     54  C   UNL A   1      41.101  32.270  30.465  1.00  0.00     0.049 A 
ATOM     55  C   UNL A   1      46.533  32.846  29.260  1.00  0.00     0.074 A 
ATOM     56  C   UNL A   1      40.476  33.339  31.079  1.00  0.00     0.029 A 
ATOM     57  N   UNL A   1      42.424  32.632  30.274  1.00  0.00    -0.354 N 
ATOM     58  N   UNL A   1      45.279  32.845  29.643  1.00  0.00    -0.248 NA
ATOM     59  C   UNL A   1      47.222  34.128  29.482  1.00  0.00     0.031 C 
ATOM     60  C   UNL A   1      41.417  34.362  31.233  1.00  0.00     0.029 A 
ATOM     61  C   UNL A   1      42.635  33.915  30.749  1.00  0.00     0.049 A 
ATOM     62  H   UNL A   1      43.113  32.062  29.862  1.00  0.00     0.167 HD
ATOM     63  C   UNL A   1      45.042  34.104  30.190  1.00  0.00     0.074 A 
ATOM     64  C   UNL A   1      46.288  34.836  30.102  1.00  0.00     0.031 C 
ATOM     65  C   UNL A   1      43.896  34.611  30.709  1.00  0.00     0.034 A 
BRANCH  52  66
ATOM     66  C   UNL A   1      39.064  30.776  30.302  1.00  0.00     0.023 A 
ATOM     67  C   UNL A   1      38.658  29.821  31.258  1.00  0.00     0.012 A 
ATOM     68  C   UNL A   1      38.090  31.509  29.598  1.00  0.00     0.148 A 
ATOM     69  C   UNL A   1      37.306  29.572  31.481  1.00  0.00     0.002 A 
ATOM     70  C   UNL A   1      36.744  31.288  29.861  1.00  0.00     0.091 A 
ATOM     71  F   UNL A   1      38.496  32.390  28.672  1.00  0.00    -0.205 F 
ATOM     72  C   UNL A   1      36.349  30.312  30.791  1.00  0.00     0.022 A 
BRANCH  70  73
ATOM     73  S   UNL A   1      35.439  32.244  29.080  1.00  0.00     0.127 S 
ATOM     74  O   UNL A   1      34.389  32.194  30.097  1.00  0.00    -0.237 OA
ATOM     75  O   UNL A   1      36.071  33.553  28.921  1.00  0.00    -0.237 OA
ATOM     76  O   UNL A   1      35.133  31.560  27.832  1.00  0.00    -0.744 OA
ENDBRANCH  70  73
ENDBRANCH  52  66
BRANCH  53  77
ATOM     77  C   UNL A   1      48.799  31.927  28.367  1.00  0.00     0.023 A 
ATOM     78  C   UNL A   1      49.764  31.548  29.321  1.00  0.00     0.012 A 
ATOM     79  C   UNL A   1      49.225  32.504  27.155  1.00  0.00     0.148 A 
ATOM     80  C   UNL A   1      51.122  31.768  29.088  1.00  0.00     0.002 A 
ATOM     81  C   UNL A   1      50.582  32.673  26.906  1.00  0.00     0.091 A 
ATOM     82  F   UNL A   1      48.292  32.877  26.268  1.00  0.00    -0.205 F 
ATOM     83  C   UNL A   1      51.532  32.321  27.879  1.00  0.00     0.022 A 
BRANCH  81  84
ATOM     84  S   UNL A   1      51.211  33.276  25.336  1.00  0.00     0.127 S 
ATOM     85  O   UNL A   1      51.339  32.039  24.570  1.00  0.00    -0.237 OA
ATOM     86  O   UNL A   1      50.130  34.162  24.901  1.00  0.00    -0.237 OA
ATOM     87  O   UNL A   1      52.460  33.957  25.647  1.00  0.00    -0.744 OA
ENDBRANCH  81  84
ENDBRANCH  53  77
BRANCH  65  88
ATOM     88  C   UNL A   1      43.934  36.008  31.275  1.00  0.00     0.023 A 
ATOM     89  C   UNL A   1      44.160  36.207  32.652  1.00  0.00     0.012 A 
ATOM     90  C   UNL A   1      43.826  37.128  30.426  1.00  0.00     0.148 A 
ATOM     91  C   UNL A   1      44.244  37.497  33.178  1.00  0.00     0.002 A 
ATOM     92  C   UNL A   1      43.962  38.409  30.947  1.00  0.00     0.091 A 
ATOM     93  F   UNL A   1      43.595  36.921  29.121  1.00  0.00    -0.205 F 
ATOM     94  C   UNL A   1      44.158  38.595  32.326  1.00  0.00     0.022 A 
BRANCH  92  95
ATOM     95  S   UNL A   1      43.966  39.877  29.912  1.00  0.00     0.127 S 
ATOM     96  O   UNL A   1      42.553  39.993  29.554  1.00  0.00    -0.237 OA
ATOM     97  O   UNL A   1      44.448  40.905  30.834  1.00  0.00    -0.237 OA
ATOM     98  O   UNL A   1      44.869  39.586  28.806  1.00  0.00    -0.744 OA
ENDBRANCH  92  95
ENDBRANCH  65  88
ENDBRANCH  39  40
ENDBRANCH  32  34
ENDBRANCH  31  32
ENDBRANCH  30  31
ENDBRANCH  29  30
ENDBRANCH  28  29
ENDBRANCH  27  28
ENDBRANCH   1  27
TORSDOF 26
ENDMDL
