MODEL 1
REMARK VINA RESULT:      -9.2      0.000      0.000
REMARK SMILES C/C=C/C=C/C(=O)N[C@@H](C)CC(=O)OCCOCCOCCOC(=O)c1ccc(-c2c3nc(c(-c4cccc(S(=O)(=O)[O-])c4F)c4ccc([nH]4)c(-c4cccc(S(=O)(=O)[O-])c4F)c4nc(c(-c5cccc(S(=O)(=O)[O-])c5F)c5ccc2[nH]5)C=C4)C=C3)cc1
REMARK SMILES IDX 18 1 17 2 16 3 15 4 14 5 12 6 13 7 11 8 9 9 10 10 8 11 6 12
REMARK SMILES IDX 7 13 5 15 4 16 3 17 1 18 2 19 19 20 20 21 21 22 22 23 23 24
REMARK SMILES IDX 24 25 25 26 26 27 27 28 88 29 28 30 87 31 29 32 30 33 31 34
REMARK SMILES IDX 81 35 32 36 86 37 80 38 82 39 33 40 85 41 79 42 78 43 34 45
REMARK SMILES IDX 66 46 46 47 65 48 47 49 50 50 64 51 83 52 48 53 49 54 63 56
REMARK SMILES IDX 84 57 51 58 35 59 36 60 44 61 37 62 39 63 45 64 38 65 40 66
REMARK SMILES IDX 41 67 42 68 43 69 67 70 68 71 76 72 69 73 71 74 77 75 70 76
REMARK SMILES IDX 72 77 73 78 74 79 75 80 52 81 53 82 61 83 54 84 56 85 62 86
REMARK SMILES IDX 55 87 57 88 58 89 59 90 60 91
REMARK H PARENT 8 14 82 44 50 55
REMARK Flexibility Score: inf
ROOT
ATOM      1  C   UNL A   1      35.252  31.817  28.135  1.00  0.00     0.188 C 
ENDROOT
BRANCH   1   2
ATOM      2  O   UNL A   1      35.359  30.431  28.430  1.00  0.00    -0.376 OA
BRANCH   2   3
ATOM      3  C   UNL A   1      35.382  29.493  27.369  1.00  0.00     0.202 C 
BRANCH   3   4
ATOM      4  C   UNL A   1      34.034  29.120  26.752  1.00  0.00     0.261 C 
BRANCH   4   5
ATOM      5  O   UNL A   1      32.987  28.821  27.703  1.00  0.00    -0.463 OA
BRANCH   5   6
ATOM      6  C   UNL A   1      31.947  28.094  27.226  1.00  0.00     0.307 C 
ATOM      7  O   UNL A   1      31.029  27.661  27.914  1.00  0.00    -0.252 OA
BRANCH   6   8
ATOM      8  C   UNL A   1      32.083  27.688  25.774  1.00  0.00     0.147 C 
BRANCH   8   9
ATOM      9  C   UNL A   1      32.137  26.205  25.367  1.00  0.00     0.090 C 
ATOM     10  C   UNL A   1      31.490  26.089  23.975  1.00  0.00     0.031 C 
BRANCH   9  11
ATOM     11  N   UNL A   1      31.381  25.346  26.277  1.00  0.00    -0.350 N 
ATOM     12  C   UNL A   1      31.568  24.079  26.726  1.00  0.00     0.244 C 
ATOM     13  O   UNL A   1      30.693  23.584  27.441  1.00  0.00    -0.270 OA
ATOM     14  H   UNL A   1      30.571  25.774  26.639  1.00  0.00     0.164 HD
BRANCH  12  15
ATOM     15  C   UNL A   1      32.802  23.287  26.493  1.00  0.00     0.071 C 
ATOM     16  C   UNL A   1      34.089  23.656  26.433  1.00  0.00     0.005 C 
BRANCH  16  17
ATOM     17  C   UNL A   1      35.149  22.691  26.212  1.00  0.00    -0.004 C 
ATOM     18  C   UNL A   1      36.183  20.721  25.070  1.00  0.00     0.035 C 
ATOM     19  C   UNL A   1      35.046  21.650  25.373  1.00  0.00    -0.030 C 
ENDBRANCH  16  17
ENDBRANCH  12  15
ENDBRANCH   9  11
ENDBRANCH   8   9
ENDBRANCH   6   8
ENDBRANCH   5   6
ENDBRANCH   4   5
ENDBRANCH   3   4
ENDBRANCH   2   3
ENDBRANCH   1   2
BRANCH   1  20
ATOM     20  C   UNL A   1      35.084  32.824  29.282  1.00  0.00     0.188 C 
BRANCH  20  21
ATOM     21  O   UNL A   1      35.063  34.187  28.885  1.00  0.00    -0.376 OA
BRANCH  21  22
ATOM     22  C   UNL A   1      33.877  34.606  28.226  1.00  0.00     0.202 C 
BRANCH  22  23
ATOM     23  C   UNL A   1      33.097  35.596  29.089  1.00  0.00     0.261 C 
BRANCH  23  24
ATOM     24  O   UNL A   1      32.615  35.004  30.306  1.00  0.00    -0.460 OA
BRANCH  24  25
ATOM     25  C   UNL A   1      32.856  35.707  31.431  1.00  0.00     0.338 C 
ATOM     26  O   UNL A   1      32.275  36.717  31.808  1.00  0.00    -0.246 OA
BRANCH  25  27
ATOM     27  C   UNL A   1      33.900  35.013  32.194  1.00  0.00     0.060 A 
ATOM     28  C   UNL A   1      35.228  35.458  32.139  1.00  0.00     0.016 A 
ATOM     29  C   UNL A   1      33.562  33.869  32.910  1.00  0.00     0.016 A 
ATOM     30  C   UNL A   1      36.239  34.724  32.759  1.00  0.00     0.010 A 
ATOM     31  C   UNL A   1      34.571  33.141  33.537  1.00  0.00     0.010 A 
ATOM     32  C   UNL A   1      35.915  33.545  33.436  1.00  0.00    -0.014 A 
BRANCH  32  33
ATOM     33  C   UNL A   1      36.960  32.637  33.957  1.00  0.00     0.031 A 
ATOM     34  C   UNL A   1      37.668  33.014  35.224  1.00  0.00     0.074 A 
ATOM     35  C   UNL A   1      37.343  31.561  33.249  1.00  0.00     0.049 A 
ATOM     36  N   UNL A   1      38.788  32.558  35.714  1.00  0.00    -0.248 NA
ATOM     37  C   UNL A   1      37.027  34.055  36.045  1.00  0.00     0.031 C 
ATOM     38  C   UNL A   1      36.697  31.075  32.032  1.00  0.00     0.029 A 
ATOM     39  N   UNL A   1      38.415  30.723  33.426  1.00  0.00    -0.354 N 
ATOM     40  C   UNL A   1      39.018  33.293  36.870  1.00  0.00     0.074 A 
ATOM     41  C   UNL A   1      37.908  34.210  37.022  1.00  0.00     0.031 C 
ATOM     42  C   UNL A   1      37.423  30.061  31.531  1.00  0.00     0.029 A 
ATOM     43  C   UNL A   1      38.610  29.871  32.362  1.00  0.00     0.049 A 
ATOM     44  H   UNL A   1      38.986  30.729  34.228  1.00  0.00     0.167 HD
ATOM     45  C   UNL A   1      40.067  33.214  37.721  1.00  0.00     0.034 A 
ATOM     46  C   UNL A   1      39.661  29.082  32.061  1.00  0.00     0.034 A 
ATOM     47  C   UNL A   1      41.156  32.290  37.563  1.00  0.00     0.049 A 
ATOM     48  C   UNL A   1      40.842  29.047  32.993  1.00  0.00     0.074 A 
ATOM     49  C   UNL A   1      42.258  32.112  38.379  1.00  0.00     0.029 A 
ATOM     50  N   UNL A   1      41.281  31.394  36.514  1.00  0.00    -0.354 N 
ATOM     51  N   UNL A   1      41.026  29.697  34.117  1.00  0.00    -0.248 NA
ATOM     52  C   UNL A   1      41.954  28.156  32.628  1.00  0.00     0.031 C 
ATOM     53  C   UNL A   1      43.061  31.116  37.811  1.00  0.00     0.029 A 
ATOM     54  C   UNL A   1      42.444  30.661  36.656  1.00  0.00     0.049 A 
ATOM     55  H   UNL A   1      40.636  31.294  35.776  1.00  0.00     0.167 HD
ATOM     56  C   UNL A   1      42.251  29.264  34.614  1.00  0.00     0.074 A 
ATOM     57  C   UNL A   1      42.763  28.292  33.670  1.00  0.00     0.031 C 
ATOM     58  C   UNL A   1      42.899  29.645  35.742  1.00  0.00     0.034 A 
BRANCH  45  59
ATOM     59  C   UNL A   1      40.084  34.145  38.902  1.00  0.00     0.023 A 
ATOM     60  C   UNL A   1      40.858  35.321  38.854  1.00  0.00     0.012 A 
ATOM     61  C   UNL A   1      39.291  33.884  40.037  1.00  0.00     0.148 A 
ATOM     62  C   UNL A   1      40.860  36.213  39.926  1.00  0.00     0.002 A 
ATOM     63  C   UNL A   1      39.268  34.796  41.085  1.00  0.00     0.091 A 
ATOM     64  F   UNL A   1      38.585  32.744  40.075  1.00  0.00    -0.205 F 
ATOM     65  C   UNL A   1      40.057  35.956  41.036  1.00  0.00     0.022 A 
BRANCH  63  66
ATOM     66  S   UNL A   1      38.213  34.584  42.523  1.00  0.00     0.127 S 
ATOM     67  O   UNL A   1      38.536  35.776  43.305  1.00  0.00    -0.237 OA
ATOM     68  O   UNL A   1      36.875  34.588  41.930  1.00  0.00    -0.237 OA
ATOM     69  O   UNL A   1      38.604  33.315  43.121  1.00  0.00    -0.744 OA
ENDBRANCH  63  66
ENDBRANCH  45  59
BRANCH  46  70
ATOM     70  C   UNL A   1      39.636  28.263  30.816  1.00  0.00     0.023 A 
ATOM     71  C   UNL A   1      38.914  27.056  30.799  1.00  0.00     0.012 A 
ATOM     72  C   UNL A   1      40.288  28.691  29.642  1.00  0.00     0.148 A 
ATOM     73  C   UNL A   1      38.856  26.279  29.642  1.00  0.00     0.002 A 
ATOM     74  C   UNL A   1      40.181  27.941  28.478  1.00  0.00     0.091 A 
ATOM     75  F   UNL A   1      40.989  29.833  29.685  1.00  0.00    -0.205 F 
ATOM     76  C   UNL A   1      39.478  26.727  28.479  1.00  0.00     0.022 A 
BRANCH  74  77
ATOM     77  S   UNL A   1      40.842  28.505  26.906  1.00  0.00     0.127 S 
ATOM     78  O   UNL A   1      39.764  29.361  26.419  1.00  0.00    -0.237 OA
ATOM     79  O   UNL A   1      42.052  29.215  27.323  1.00  0.00    -0.237 OA
ATOM     80  O   UNL A   1      41.093  27.298  26.130  1.00  0.00    -0.744 OA
ENDBRANCH  74  77
ENDBRANCH  46  70
BRANCH  58  81
ATOM     81  C   UNL A   1      44.203  28.968  36.069  1.00  0.00     0.023 A 
ATOM     82  C   UNL A   1      45.418  29.558  35.676  1.00  0.00     0.012 A 
ATOM     83  C   UNL A   1      44.219  27.806  36.867  1.00  0.00     0.148 A 
ATOM     84  C   UNL A   1      46.634  28.990  36.059  1.00  0.00     0.002 A 
ATOM     85  C   UNL A   1      45.432  27.272  37.280  1.00  0.00     0.091 A 
ATOM     86  F   UNL A   1      43.047  27.253  37.214  1.00  0.00    -0.205 F 
ATOM     87  C   UNL A   1      46.640  27.858  36.871  1.00  0.00     0.022 A 
BRANCH  85  88
ATOM     88  S   UNL A   1      45.534  25.875  38.406  1.00  0.00     0.127 S 
ATOM     89  O   UNL A   1      46.881  26.032  38.953  1.00  0.00    -0.237 OA
ATOM     90  O   UNL A   1      44.453  26.158  39.351  1.00  0.00    -0.237 OA
ATOM     91  O   UNL A   1      45.327  24.686  37.590  1.00  0.00    -0.744 OA
ENDBRANCH  85  88
ENDBRANCH  58  81
ENDBRANCH  32  33
ENDBRANCH  25  27
ENDBRANCH  24  25
ENDBRANCH  23  24
ENDBRANCH  22  23
ENDBRANCH  21  22
ENDBRANCH  20  21
ENDBRANCH   1  20
TORSDOF 24
ENDMDL
MODEL 2
REMARK VINA RESULT:      -8.9      1.470      2.641
REMARK SMILES C/C=C/C=C/C(=O)N[C@@H](C)CC(=O)OCCOCCOCCOC(=O)c1ccc(-c2c3nc(c(-c4cccc(S(=O)(=O)[O-])c4F)c4ccc([nH]4)c(-c4cccc(S(=O)(=O)[O-])c4F)c4nc(c(-c5cccc(S(=O)(=O)[O-])c5F)c5ccc2[nH]5)C=C4)C=C3)cc1
REMARK SMILES IDX 18 1 17 2 16 3 15 4 14 5 12 6 13 7 11 8 9 9 10 10 8 11 6 12
REMARK SMILES IDX 7 13 5 15 4 16 3 17 1 18 2 19 19 20 20 21 21 22 22 23 23 24
REMARK SMILES IDX 24 25 25 26 26 27 27 28 88 29 28 30 87 31 29 32 30 33 31 34
REMARK SMILES IDX 81 35 32 36 86 37 80 38 82 39 33 40 85 41 79 42 78 43 34 45
REMARK SMILES IDX 66 46 46 47 65 48 47 49 50 50 64 51 83 52 48 53 49 54 63 56
REMARK SMILES IDX 84 57 51 58 35 59 36 60 44 61 37 62 39 63 45 64 38 65 40 66
REMARK SMILES IDX 41 67 42 68 43 69 67 70 68 71 76 72 69 73 71 74 77 75 70 76
REMARK SMILES IDX 72 77 73 78 74 79 75 80 52 81 53 82 61 83 54 84 56 85 62 86
REMARK SMILES IDX 55 87 57 88 58 89 59 90 60 91
REMARK H PARENT 8 14 82 44 50 55
REMARK Flexibility Score: inf
ROOT
ATOM      1  C   UNL A   1      35.062  31.781  28.427  1.00  0.00     0.188 C 
ENDROOT
BRANCH   1   2
ATOM      2  O   UNL A   1      35.481  30.473  28.792  1.00  0.00    -0.376 OA
BRANCH   2   3
ATOM      3  C   UNL A   1      35.870  29.560  27.782  1.00  0.00     0.202 C 
BRANCH   3   4
ATOM      4  C   UNL A   1      34.752  28.961  26.929  1.00  0.00     0.261 C 
BRANCH   4   5
ATOM      5  O   UNL A   1      33.507  28.729  27.627  1.00  0.00    -0.463 OA
BRANCH   5   6
ATOM      6  C   UNL A   1      32.482  28.270  26.867  1.00  0.00     0.307 C 
ATOM      7  O   UNL A   1      31.483  27.715  27.312  1.00  0.00    -0.252 OA
BRANCH   6   8
ATOM      8  C   UNL A   1      32.734  28.330  25.376  1.00  0.00     0.147 C 
BRANCH   8   9
ATOM      9  C   UNL A   1      32.966  27.047  24.559  1.00  0.00     0.090 C 
ATOM     10  C   UNL A   1      33.430  27.477  23.156  1.00  0.00     0.031 C 
BRANCH   9  11
ATOM     11  N   UNL A   1      31.745  26.258  24.396  1.00  0.00    -0.350 N 
ATOM     12  C   UNL A   1      30.455  26.589  24.138  1.00  0.00     0.244 C 
ATOM     13  O   UNL A   1      29.615  25.685  24.141  1.00  0.00    -0.270 OA
ATOM     14  H   UNL A   1      31.889  25.289  24.494  1.00  0.00     0.164 HD
BRANCH  12  15
ATOM     15  C   UNL A   1      30.005  27.951  23.756  1.00  0.00     0.071 C 
ATOM     16  C   UNL A   1      30.043  28.597  22.582  1.00  0.00     0.005 C 
BRANCH  16  17
ATOM     17  C   UNL A   1      29.518  29.939  22.432  1.00  0.00    -0.004 C 
ATOM     18  C   UNL A   1      28.262  31.954  23.219  1.00  0.00     0.035 C 
ATOM     19  C   UNL A   1      28.713  30.529  23.330  1.00  0.00    -0.030 C 
ENDBRANCH  16  17
ENDBRANCH  12  15
ENDBRANCH   9  11
ENDBRANCH   8   9
ENDBRANCH   6   8
ENDBRANCH   5   6
ENDBRANCH   4   5
ENDBRANCH   3   4
ENDBRANCH   2   3
ENDBRANCH   1   2
BRANCH   1  20
ATOM     20  C   UNL A   1      34.740  32.805  29.525  1.00  0.00     0.188 C 
BRANCH  20  21
ATOM     21  O   UNL A   1      34.853  34.164  29.128  1.00  0.00    -0.376 OA
BRANCH  21  22
ATOM     22  C   UNL A   1      33.741  34.678  28.411  1.00  0.00     0.202 C 
BRANCH  22  23
ATOM     23  C   UNL A   1      32.926  35.632  29.283  1.00  0.00     0.261 C 
BRANCH  23  24
ATOM     24  O   UNL A   1      32.555  35.047  30.541  1.00  0.00    -0.460 OA
BRANCH  24  25
ATOM     25  C   UNL A   1      32.854  35.777  31.634  1.00  0.00     0.338 C 
ATOM     26  O   UNL A   1      32.309  36.811  32.002  1.00  0.00    -0.246 OA
BRANCH  25  27
ATOM     27  C   UNL A   1      33.912  35.084  32.378  1.00  0.00     0.060 A 
ATOM     28  C   UNL A   1      35.241  35.522  32.289  1.00  0.00     0.016 A 
ATOM     29  C   UNL A   1      33.586  33.947  33.110  1.00  0.00     0.016 A 
ATOM     30  C   UNL A   1      36.262  34.788  32.890  1.00  0.00     0.010 A 
ATOM     31  C   UNL A   1      34.605  33.219  33.719  1.00  0.00     0.010 A 
ATOM     32  C   UNL A   1      35.949  33.615  33.583  1.00  0.00    -0.014 A 
BRANCH  32  33
ATOM     33  C   UNL A   1      37.001  32.706  34.086  1.00  0.00     0.031 A 
ATOM     34  C   UNL A   1      37.733  33.084  35.340  1.00  0.00     0.074 A 
ATOM     35  C   UNL A   1      37.369  31.628  33.374  1.00  0.00     0.049 A 
ATOM     36  N   UNL A   1      38.861  32.626  35.810  1.00  0.00    -0.248 NA
ATOM     37  C   UNL A   1      37.110  34.128  36.171  1.00  0.00     0.031 C 
ATOM     38  C   UNL A   1      36.700  31.141  32.170  1.00  0.00     0.029 A 
ATOM     39  N   UNL A   1      38.442  30.788  33.532  1.00  0.00    -0.354 N 
ATOM     40  C   UNL A   1      39.115  33.363  36.960  1.00  0.00     0.074 A 
ATOM     41  C   UNL A   1      38.009  34.283  37.131  1.00  0.00     0.031 C 
ATOM     42  C   UNL A   1      37.413  30.124  31.658  1.00  0.00     0.029 A 
ATOM     43  C   UNL A   1      38.616  29.934  32.467  1.00  0.00     0.049 A 
ATOM     44  H   UNL A   1      39.027  30.794  34.324  1.00  0.00     0.167 HD
ATOM     45  C   UNL A   1      40.179  33.284  37.792  1.00  0.00     0.034 A 
ATOM     46  C   UNL A   1      39.659  29.142  32.148  1.00  0.00     0.034 A 
ATOM     47  C   UNL A   1      41.262  32.357  37.615  1.00  0.00     0.049 A 
ATOM     48  C   UNL A   1      40.857  29.106  33.058  1.00  0.00     0.074 A 
ATOM     49  C   UNL A   1      42.379  32.178  38.411  1.00  0.00     0.029 A 
ATOM     50  N   UNL A   1      41.367  31.459  36.566  1.00  0.00    -0.354 N 
ATOM     51  N   UNL A   1      41.063  29.758  34.177  1.00  0.00    -0.248 NA
ATOM     52  C   UNL A   1      41.960  28.212  32.674  1.00  0.00     0.031 C 
ATOM     53  C   UNL A   1      43.169  31.180  37.831  1.00  0.00     0.029 A 
ATOM     54  C   UNL A   1      42.530  30.723  36.688  1.00  0.00     0.049 A 
ATOM     55  H   UNL A   1      40.708  31.358  35.840  1.00  0.00     0.167 HD
ATOM     56  C   UNL A   1      42.296  29.323  34.652  1.00  0.00     0.074 A 
ATOM     57  C   UNL A   1      42.789  28.348  33.701  1.00  0.00     0.031 C 
ATOM     58  C   UNL A   1      42.966  29.704  35.768  1.00  0.00     0.034 A 
BRANCH  45  59
ATOM     59  C   UNL A   1      40.219  34.217  38.970  1.00  0.00     0.023 A 
ATOM     60  C   UNL A   1      41.032  35.366  38.924  1.00  0.00     0.012 A 
ATOM     61  C   UNL A   1      39.411  33.985  40.101  1.00  0.00     0.148 A 
ATOM     62  C   UNL A   1      41.057  36.261  39.994  1.00  0.00     0.002 A 
ATOM     63  C   UNL A   1      39.412  34.900  41.147  1.00  0.00     0.091 A 
ATOM     64  F   UNL A   1      38.668  32.870  40.138  1.00  0.00    -0.205 F 
ATOM     65  C   UNL A   1      40.240  36.034  41.099  1.00  0.00     0.022 A 
BRANCH  63  66
ATOM     66  S   UNL A   1      38.343  34.727  42.579  1.00  0.00     0.127 S 
ATOM     67  O   UNL A   1      38.597  33.342  42.972  1.00  0.00    -0.237 OA
ATOM     68  O   UNL A   1      38.886  35.731  43.496  1.00  0.00    -0.237 OA
ATOM     69  O   UNL A   1      36.995  35.009  42.107  1.00  0.00    -0.744 OA
ENDBRANCH  63  66
ENDBRANCH  45  59
BRANCH  46  70
ATOM     70  C   UNL A   1      39.610  28.321  30.905  1.00  0.00     0.023 A 
ATOM     71  C   UNL A   1      38.842  27.142  30.888  1.00  0.00     0.012 A 
ATOM     72  C   UNL A   1      40.283  28.720  29.733  1.00  0.00     0.148 A 
ATOM     73  C   UNL A   1      38.760  26.364  29.733  1.00  0.00     0.002 A 
ATOM     74  C   UNL A   1      40.154  27.970  28.571  1.00  0.00     0.091 A 
ATOM     75  F   UNL A   1      41.027  29.834  29.777  1.00  0.00    -0.205 F 
ATOM     76  C   UNL A   1      39.405  26.784  28.572  1.00  0.00     0.022 A 
BRANCH  74  77
ATOM     77  S   UNL A   1      40.844  28.504  27.001  1.00  0.00     0.127 S 
ATOM     78  O   UNL A   1      40.957  27.239  26.279  1.00  0.00    -0.237 OA
ATOM     79  O   UNL A   1      39.804  29.406  26.504  1.00  0.00    -0.237 OA
ATOM     80  O   UNL A   1      42.100  29.162  27.328  1.00  0.00    -0.744 OA
ENDBRANCH  74  77
ENDBRANCH  46  70
BRANCH  58  81
ATOM     81  C   UNL A   1      44.274  29.026  36.072  1.00  0.00     0.023 A 
ATOM     82  C   UNL A   1      45.484  29.618  35.666  1.00  0.00     0.012 A 
ATOM     83  C   UNL A   1      44.301  27.858  36.861  1.00  0.00     0.148 A 
ATOM     84  C   UNL A   1      46.705  29.048  36.027  1.00  0.00     0.002 A 
ATOM     85  C   UNL A   1      45.520  27.321  37.254  1.00  0.00     0.091 A 
ATOM     86  F   UNL A   1      43.134  27.302  37.221  1.00  0.00    -0.205 F 
ATOM     87  C   UNL A   1      46.722  27.909  36.832  1.00  0.00     0.022 A 
BRANCH  85  88
ATOM     88  S   UNL A   1      45.638  25.916  38.369  1.00  0.00     0.127 S 
ATOM     89  O   UNL A   1      45.125  24.831  37.535  1.00  0.00    -0.237 OA
ATOM     90  O   UNL A   1      47.075  25.853  38.638  1.00  0.00    -0.237 OA
ATOM     91  O   UNL A   1      44.820  26.253  39.527  1.00  0.00    -0.744 OA
ENDBRANCH  85  88
ENDBRANCH  58  81
ENDBRANCH  32  33
ENDBRANCH  25  27
ENDBRANCH  24  25
ENDBRANCH  23  24
ENDBRANCH  22  23
ENDBRANCH  21  22
ENDBRANCH  20  21
ENDBRANCH   1  20
TORSDOF 24
ENDMDL
MODEL 3
REMARK VINA RESULT:      -8.4      6.093     10.034
REMARK SMILES C/C=C/C=C/C(=O)N[C@@H](C)CC(=O)OCCOCCOCCOC(=O)c1ccc(-c2c3nc(c(-c4cccc(S(=O)(=O)[O-])c4F)c4ccc([nH]4)c(-c4cccc(S(=O)(=O)[O-])c4F)c4nc(c(-c5cccc(S(=O)(=O)[O-])c5F)c5ccc2[nH]5)C=C4)C=C3)cc1
REMARK SMILES IDX 18 1 17 2 16 3 15 4 14 5 12 6 13 7 11 8 9 9 10 10 8 11 6 12
REMARK SMILES IDX 7 13 5 15 4 16 3 17 1 18 2 19 19 20 20 21 21 22 22 23 23 24
REMARK SMILES IDX 24 25 25 26 26 27 27 28 88 29 28 30 87 31 29 32 30 33 31 34
REMARK SMILES IDX 81 35 32 36 86 37 80 38 82 39 33 40 85 41 79 42 78 43 34 45
REMARK SMILES IDX 66 46 46 47 65 48 47 49 50 50 64 51 83 52 48 53 49 54 63 56
REMARK SMILES IDX 84 57 51 58 35 59 36 60 44 61 37 62 39 63 45 64 38 65 40 66
REMARK SMILES IDX 41 67 42 68 43 69 67 70 68 71 76 72 69 73 71 74 77 75 70 76
REMARK SMILES IDX 72 77 73 78 74 79 75 80 52 81 53 82 61 83 54 84 56 85 62 86
REMARK SMILES IDX 55 87 57 88 58 89 59 90 60 91
REMARK H PARENT 8 14 82 44 50 55
REMARK Flexibility Score: inf
ROOT
ATOM      1  C   UNL A   1      34.746  22.594  25.741  1.00  0.00     0.188 C 
ENDROOT
BRANCH   1   2
ATOM      2  O   UNL A   1      33.832  23.276  24.893  1.00  0.00    -0.376 OA
BRANCH   2   3
ATOM      3  C   UNL A   1      32.718  22.577  24.367  1.00  0.00     0.202 C 
BRANCH   3   4
ATOM      4  C   UNL A   1      31.345  23.218  24.571  1.00  0.00     0.261 C 
BRANCH   4   5
ATOM      5  O   UNL A   1      31.334  24.664  24.538  1.00  0.00    -0.463 OA
BRANCH   5   6
ATOM      6  C   UNL A   1      31.168  25.280  25.734  1.00  0.00     0.307 C 
ATOM      7  O   UNL A   1      31.517  24.808  26.811  1.00  0.00    -0.252 OA
BRANCH   6   8
ATOM      8  C   UNL A   1      30.342  26.547  25.675  1.00  0.00     0.147 C 
BRANCH   8   9
ATOM      9  C   UNL A   1      30.612  27.619  24.605  1.00  0.00     0.090 C 
ATOM     10  C   UNL A   1      29.549  27.446  23.506  1.00  0.00     0.031 C 
BRANCH   9  11
ATOM     11  N   UNL A   1      31.924  27.468  23.978  1.00  0.00    -0.350 N 
ATOM     12  C   UNL A   1      33.143  28.007  24.235  1.00  0.00     0.244 C 
ATOM     13  O   UNL A   1      34.066  27.744  23.461  1.00  0.00    -0.270 OA
ATOM     14  H   UNL A   1      31.924  26.848  23.213  1.00  0.00     0.164 HD
BRANCH  12  15
ATOM     15  C   UNL A   1      33.458  28.814  25.441  1.00  0.00     0.071 C 
ATOM     16  C   UNL A   1      34.255  28.560  26.489  1.00  0.00     0.005 C 
BRANCH  16  17
ATOM     17  C   UNL A   1      34.434  29.519  27.561  1.00  0.00    -0.004 C 
ATOM     18  C   UNL A   1      34.416  31.824  28.531  1.00  0.00     0.035 C 
ATOM     19  C   UNL A   1      34.336  30.847  27.397  1.00  0.00    -0.030 C 
ENDBRANCH  16  17
ENDBRANCH  12  15
ENDBRANCH   9  11
ENDBRANCH   8   9
ENDBRANCH   6   8
ENDBRANCH   5   6
ENDBRANCH   4   5
ENDBRANCH   3   4
ENDBRANCH   2   3
ENDBRANCH   1   2
BRANCH   1  20
ATOM     20  C   UNL A   1      34.787  21.059  25.730  1.00  0.00     0.188 C 
BRANCH  20  21
ATOM     21  O   UNL A   1      35.836  20.494  24.957  1.00  0.00    -0.376 OA
BRANCH  21  22
ATOM     22  C   UNL A   1      36.904  21.377  24.651  1.00  0.00     0.202 C 
BRANCH  22  23
ATOM     23  C   UNL A   1      38.213  20.882  25.264  1.00  0.00     0.261 C 
BRANCH  23  24
ATOM     24  O   UNL A   1      38.754  21.803  26.225  1.00  0.00    -0.460 OA
BRANCH  24  25
ATOM     25  C   UNL A   1      40.068  21.663  26.490  1.00  0.00     0.338 C 
ATOM     26  O   UNL A   1      40.761  20.674  26.284  1.00  0.00    -0.246 OA
BRANCH  25  27
ATOM     27  C   UNL A   1      40.574  22.940  27.005  1.00  0.00     0.060 A 
ATOM     28  C   UNL A   1      40.325  24.131  26.308  1.00  0.00     0.016 A 
ATOM     29  C   UNL A   1      41.363  22.938  28.152  1.00  0.00     0.016 A 
ATOM     30  C   UNL A   1      40.914  25.324  26.728  1.00  0.00     0.010 A 
ATOM     31  C   UNL A   1      41.943  24.132  28.575  1.00  0.00     0.010 A 
ATOM     32  C   UNL A   1      41.750  25.321  27.847  1.00  0.00    -0.014 A 
BRANCH  32  33
ATOM     33  C   UNL A   1      42.539  26.512  28.230  1.00  0.00     0.031 A 
ATOM     34  C   UNL A   1      41.829  27.656  28.891  1.00  0.00     0.074 A 
ATOM     35  C   UNL A   1      43.835  26.610  27.890  1.00  0.00     0.049 A 
ATOM     36  N   UNL A   1      42.220  28.892  29.050  1.00  0.00    -0.248 NA
ATOM     37  C   UNL A   1      40.493  27.368  29.439  1.00  0.00     0.031 C 
ATOM     38  C   UNL A   1      44.635  25.546  27.290  1.00  0.00     0.029 A 
ATOM     39  N   UNL A   1      44.684  27.687  27.946  1.00  0.00    -0.354 N 
ATOM     40  C   UNL A   1      41.158  29.544  29.663  1.00  0.00     0.074 A 
ATOM     41  C   UNL A   1      40.115  28.562  29.871  1.00  0.00     0.031 C 
ATOM     42  C   UNL A   1      45.843  26.039  26.971  1.00  0.00     0.029 A 
ATOM     43  C   UNL A   1      45.875  27.464  27.292  1.00  0.00     0.049 A 
ATOM     44  H   UNL A   1      44.466  28.530  28.404  1.00  0.00     0.167 HD
ATOM     45  C   UNL A   1      41.062  30.848  30.013  1.00  0.00     0.034 A 
ATOM     46  C   UNL A   1      46.845  28.328  26.933  1.00  0.00     0.034 A 
ATOM     47  C   UNL A   1      42.111  31.808  29.812  1.00  0.00     0.049 A 
ATOM     48  C   UNL A   1      46.696  29.784  27.285  1.00  0.00     0.074 A 
ATOM     49  C   UNL A   1      42.127  33.149  30.148  1.00  0.00     0.029 A 
ATOM     50  N   UNL A   1      43.329  31.529  29.214  1.00  0.00    -0.354 N 
ATOM     51  N   UNL A   1      45.718  30.384  27.921  1.00  0.00    -0.248 NA
ATOM     52  C   UNL A   1      47.792  30.681  26.887  1.00  0.00     0.031 C 
ATOM     53  C   UNL A   1      43.351  33.686  29.737  1.00  0.00     0.029 A 
ATOM     54  C   UNL A   1      44.105  32.671  29.166  1.00  0.00     0.049 A 
ATOM     55  H   UNL A   1      43.602  30.645  28.873  1.00  0.00     0.167 HD
ATOM     56  C   UNL A   1      46.099  31.717  28.037  1.00  0.00     0.074 A 
ATOM     57  C   UNL A   1      47.398  31.836  27.410  1.00  0.00     0.031 C 
ATOM     58  C   UNL A   1      45.428  32.751  28.602  1.00  0.00     0.034 A 
BRANCH  45  59
ATOM     59  C   UNL A   1      39.783  31.309  30.656  1.00  0.00     0.023 A 
ATOM     60  C   UNL A   1      38.708  31.732  29.849  1.00  0.00     0.012 A 
ATOM     61  C   UNL A   1      39.625  31.271  32.055  1.00  0.00     0.148 A 
ATOM     62  C   UNL A   1      37.503  32.132  30.426  1.00  0.00     0.002 A 
ATOM     63  C   UNL A   1      38.409  31.635  32.621  1.00  0.00     0.091 A 
ATOM     64  F   UNL A   1      40.670  30.894  32.807  1.00  0.00    -0.205 F 
ATOM     65  C   UNL A   1      37.350  32.073  31.809  1.00  0.00     0.022 A 
BRANCH  63  66
ATOM     66  S   UNL A   1      38.097  31.525  34.386  1.00  0.00     0.127 S 
ATOM     67  O   UNL A   1      36.759  32.105  34.486  1.00  0.00    -0.237 OA
ATOM     68  O   UNL A   1      38.154  30.081  34.622  1.00  0.00    -0.237 OA
ATOM     69  O   UNL A   1      39.160  32.284  35.028  1.00  0.00    -0.744 OA
ENDBRANCH  63  66
ENDBRANCH  45  59
BRANCH  46  70
ATOM     70  C   UNL A   1      48.042  27.831  26.198  1.00  0.00     0.023 A 
ATOM     71  C   UNL A   1      49.135  27.323  26.923  1.00  0.00     0.012 A 
ATOM     72  C   UNL A   1      48.087  27.821  24.789  1.00  0.00     0.148 A 
ATOM     73  C   UNL A   1      50.261  26.832  26.261  1.00  0.00     0.002 A 
ATOM     74  C   UNL A   1      49.187  27.281  24.135  1.00  0.00     0.091 A 
ATOM     75  F   UNL A   1      47.044  28.330  24.117  1.00  0.00    -0.205 F 
ATOM     76  C   UNL A   1      50.281  26.798  24.869  1.00  0.00     0.022 A 
BRANCH  74  77
ATOM     77  S   UNL A   1      49.243  27.081  22.351  1.00  0.00     0.127 S 
ATOM     78  O   UNL A   1      48.287  25.997  22.141  1.00  0.00    -0.237 OA
ATOM     79  O   UNL A   1      48.796  28.395  21.885  1.00  0.00    -0.237 OA
ATOM     80  O   UNL A   1      50.631  26.774  22.035  1.00  0.00    -0.744 OA
ENDBRANCH  74  77
ENDBRANCH  46  70
BRANCH  58  81
ATOM     81  C   UNL A   1      46.103  34.096  28.636  1.00  0.00     0.023 A 
ATOM     82  C   UNL A   1      45.921  35.001  27.574  1.00  0.00     0.012 A 
ATOM     83  C   UNL A   1      46.824  34.499  29.778  1.00  0.00     0.148 A 
ATOM     84  C   UNL A   1      46.462  36.285  27.640  1.00  0.00     0.002 A 
ATOM     85  C   UNL A   1      47.323  35.793  29.855  1.00  0.00     0.091 A 
ATOM     86  F   UNL A   1      47.000  33.612  30.769  1.00  0.00    -0.205 F 
ATOM     87  C   UNL A   1      47.149  36.684  28.785  1.00  0.00     0.022 A 
BRANCH  85  88
ATOM     88  S   UNL A   1      48.134  36.424  31.330  1.00  0.00     0.127 S 
ATOM     89  O   UNL A   1      48.826  37.600  30.807  1.00  0.00    -0.237 OA
ATOM     90  O   UNL A   1      47.000  36.720  32.206  1.00  0.00    -0.237 OA
ATOM     91  O   UNL A   1      48.998  35.350  31.803  1.00  0.00    -0.744 OA
ENDBRANCH  85  88
ENDBRANCH  58  81
ENDBRANCH  32  33
ENDBRANCH  25  27
ENDBRANCH  24  25
ENDBRANCH  23  24
ENDBRANCH  22  23
ENDBRANCH  21  22
ENDBRANCH  20  21
ENDBRANCH   1  20
TORSDOF 24
ENDMDL
