MODEL 1
REMARK VINA RESULT:      -9.6      0.000      0.000
REMARK SMILES O=C(Cc1c(F)cccc1F)NC[C@H]1CC[C@H](C(=O)OCCOCCOCCOC(=O)c2ccc(-c3c4nc(c(-c5cccc(S(=O)(=O)[O-])c5F)c5ccc([nH]5)c(-c5cccc(S(=O)(=O)[O-])c5F)c5nc(c(-c6cccc(S(=O)(=O)[O-])c6F)c6ccc3[nH]6)C=C5)C=C4)cc2)O1
REMARK SMILES IDX 24 1 23 2 22 3 21 4 20 5 18 6 19 7 17 8 14 9 15 10 95 11
REMARK SMILES IDX 16 12 13 13 12 14 1 15 2 16 3 18 4 19 5 20 10 21 6 22 7 23
REMARK SMILES IDX 9 24 11 25 8 26 25 27 26 28 27 29 28 30 29 31 30 32 31 33
REMARK SMILES IDX 32 34 33 35 94 36 34 37 93 38 35 39 36 40 37 41 87 42 38 43
REMARK SMILES IDX 92 44 86 45 88 46 39 47 91 48 85 49 84 50 40 52 72 53 52 54
REMARK SMILES IDX 71 55 53 56 56 57 70 58 89 59 54 60 55 61 69 63 90 64 57 65
REMARK SMILES IDX 41 66 42 67 50 68 43 69 45 70 51 71 44 72 46 73 47 74 48 75
REMARK SMILES IDX 49 76 73 77 74 78 82 79 75 80 77 81 83 82 76 83 78 84 79 85
REMARK SMILES IDX 80 86 81 87 58 88 59 89 67 90 60 91 62 92 68 93 61 94 63 95
REMARK SMILES IDX 64 96 65 97 66 98
REMARK H PARENT 12 17 88 51 56 62
REMARK Flexibility Score: inf
ROOT
ATOM      1  C   UNL A   1      39.960  22.793  27.173  1.00  0.00     0.188 C 
ENDROOT
BRANCH   1   2
ATOM      2  O   UNL A   1      38.985  22.642  26.146  1.00  0.00    -0.376 OA
BRANCH   2   3
ATOM      3  C   UNL A   1      37.939  23.613  26.086  1.00  0.00     0.202 C 
BRANCH   3   4
ATOM      4  C   UNL A   1      36.531  23.121  25.712  1.00  0.00     0.261 C 
BRANCH   4   5
ATOM      5  O   UNL A   1      35.752  24.077  24.957  1.00  0.00    -0.461 OA
BRANCH   5   6
ATOM      6  C   UNL A   1      35.318  23.654  23.739  1.00  0.00     0.335 C 
ATOM      7  O   UNL A   1      36.064  23.277  22.839  1.00  0.00    -0.249 OA
BRANCH   6   8
ATOM      8  C   UNL A   1      33.789  23.612  23.604  1.00  0.00     0.228 C 
ATOM      9  C   UNL A   1      32.500  22.295  25.057  1.00  0.00     0.138 C 
ATOM     10  C   UNL A   1      32.735  21.490  23.794  1.00  0.00     0.037 C 
ATOM     11  O   UNL A   1      33.249  23.516  24.937  1.00  0.00    -0.361 OA
ATOM     12  C   UNL A   1      33.122  22.526  22.777  1.00  0.00     0.047 C 
BRANCH   9  13
ATOM     13  C   UNL A   1      31.034  22.646  25.337  1.00  0.00     0.147 C 
BRANCH  13  14
ATOM     14  N   UNL A   1      30.675  23.976  24.883  1.00  0.00    -0.353 N 
ATOM     15  O   UNL A   1      29.828  24.745  26.863  1.00  0.00    -0.275 OA
ATOM     16  C   UNL A   1      30.180  24.957  25.705  1.00  0.00     0.224 C 
ATOM     17  H   UNL A   1      30.794  24.188  23.929  1.00  0.00     0.163 HD
BRANCH  16  18
ATOM     18  C   UNL A   1      30.051  26.321  25.043  1.00  0.00     0.141 C 
BRANCH  18  19
ATOM     19  C   UNL A   1      31.346  27.093  25.010  1.00  0.00     0.033 A 
ATOM     20  C   UNL A   1      31.776  27.835  26.113  1.00  0.00     0.129 A 
ATOM     21  C   UNL A   1      32.155  27.098  23.873  1.00  0.00     0.129 A 
ATOM     22  F   UNL A   1      31.032  27.873  27.227  1.00  0.00    -0.207 F 
ATOM     23  C   UNL A   1      32.982  28.535  26.097  1.00  0.00     0.040 A 
ATOM     24  C   UNL A   1      33.360  27.799  23.836  1.00  0.00     0.040 A 
ATOM     25  F   UNL A   1      31.786  26.399  22.791  1.00  0.00    -0.207 F 
ATOM     26  C   UNL A   1      33.779  28.517  24.955  1.00  0.00     0.006 A 
ENDBRANCH  18  19
ENDBRANCH  16  18
ENDBRANCH  13  14
ENDBRANCH   9  13
ENDBRANCH   6   8
ENDBRANCH   5   6
ENDBRANCH   4   5
ENDBRANCH   3   4
ENDBRANCH   2   3
ENDBRANCH   1   2
BRANCH   1  27
ATOM     27  C   UNL A   1      41.028  21.696  27.266  1.00  0.00     0.188 C 
BRANCH  27  28
ATOM     28  O   UNL A   1      41.186  20.943  26.078  1.00  0.00    -0.376 OA
BRANCH  28  29
ATOM     29  C   UNL A   1      41.262  19.523  26.154  1.00  0.00     0.202 C 
BRANCH  29  30
ATOM     30  C   UNL A   1      42.605  18.832  25.820  1.00  0.00     0.261 C 
BRANCH  30  31
ATOM     31  O   UNL A   1      43.233  19.199  24.578  1.00  0.00    -0.460 OA
BRANCH  31  32
ATOM     32  C   UNL A   1      44.508  19.651  24.647  1.00  0.00     0.338 C 
ATOM     33  O   UNL A   1      45.489  19.113  24.154  1.00  0.00    -0.246 OA
BRANCH  32  34
ATOM     34  C   UNL A   1      44.489  21.052  25.152  1.00  0.00     0.060 A 
ATOM     35  C   UNL A   1      44.218  22.074  24.230  1.00  0.00     0.016 A 
ATOM     36  C   UNL A   1      44.660  21.362  26.505  1.00  0.00     0.016 A 
ATOM     37  C   UNL A   1      44.210  23.409  24.639  1.00  0.00     0.010 A 
ATOM     38  C   UNL A   1      44.664  22.703  26.912  1.00  0.00     0.010 A 
ATOM     39  C   UNL A   1      44.500  23.736  25.969  1.00  0.00    -0.014 A 
BRANCH  39  40
ATOM     40  C   UNL A   1      44.902  25.130  26.296  1.00  0.00     0.031 A 
ATOM     41  C   UNL A   1      43.847  26.056  26.848  1.00  0.00     0.074 A 
ATOM     42  C   UNL A   1      46.170  25.566  26.168  1.00  0.00     0.049 A 
ATOM     43  N   UNL A   1      43.951  27.298  27.243  1.00  0.00    -0.248 NA
ATOM     44  C   UNL A   1      42.487  25.501  26.971  1.00  0.00     0.031 C 
ATOM     45  C   UNL A   1      47.292  24.782  25.659  1.00  0.00     0.029 A 
ATOM     46  N   UNL A   1      46.717  26.795  26.449  1.00  0.00    -0.354 N 
ATOM     47  C   UNL A   1      42.670  27.679  27.632  1.00  0.00     0.074 A 
ATOM     48  C   UNL A   1      41.803  26.546  27.404  1.00  0.00     0.031 C 
ATOM     49  C   UNL A   1      48.392  25.556  25.644  1.00  0.00     0.029 A 
ATOM     50  C   UNL A   1      48.050  26.895  26.125  1.00  0.00     0.049 A 
ATOM     51  H   UNL A   1      46.203  27.536  26.844  1.00  0.00     0.167 HD
ATOM     52  C   UNL A   1      42.250  28.857  28.150  1.00  0.00     0.034 A 
ATOM     53  C   UNL A   1      48.891  27.948  26.196  1.00  0.00     0.034 A 
ATOM     54  C   UNL A   1      43.108  29.984  28.395  1.00  0.00     0.049 A 
ATOM     55  C   UNL A   1      48.394  29.260  26.755  1.00  0.00     0.074 A 
ATOM     56  C   UNL A   1      42.783  31.205  28.958  1.00  0.00     0.029 A 
ATOM     57  N   UNL A   1      44.456  30.035  28.079  1.00  0.00    -0.354 N 
ATOM     58  N   UNL A   1      47.209  29.566  27.226  1.00  0.00    -0.248 NA
ATOM     59  C   UNL A   1      49.367  30.361  26.828  1.00  0.00     0.031 C 
ATOM     60  C   UNL A   1      43.927  32.011  28.945  1.00  0.00     0.029 A 
ATOM     61  C   UNL A   1      44.976  31.273  28.420  1.00  0.00     0.049 A 
ATOM     62  H   UNL A   1      44.969  29.300  27.671  1.00  0.00     0.167 HD
ATOM     63  C   UNL A   1      47.306  30.877  27.685  1.00  0.00     0.074 A 
ATOM     64  C   UNL A   1      48.673  31.297  27.460  1.00  0.00     0.031 C 
ATOM     65  C   UNL A   1      46.348  31.668  28.233  1.00  0.00     0.034 A 
BRANCH  52  66
ATOM     66  C   UNL A   1      40.789  28.982  28.498  1.00  0.00     0.023 A 
ATOM     67  C   UNL A   1      39.841  29.214  27.481  1.00  0.00     0.012 A 
ATOM     68  C   UNL A   1      40.354  28.830  29.828  1.00  0.00     0.148 A 
ATOM     69  C   UNL A   1      38.486  29.331  27.788  1.00  0.00     0.002 A 
ATOM     70  C   UNL A   1      38.997  28.898  30.119  1.00  0.00     0.091 A 
ATOM     71  F   UNL A   1      41.273  28.634  30.784  1.00  0.00    -0.205 F 
ATOM     72  C   UNL A   1      38.063  29.162  29.104  1.00  0.00     0.022 A 
BRANCH  70  73
ATOM     73  S   UNL A   1      38.344  28.612  31.767  1.00  0.00     0.127 S 
ATOM     74  O   UNL A   1      37.017  29.217  31.668  1.00  0.00    -0.237 OA
ATOM     75  O   UNL A   1      38.343  27.151  31.846  1.00  0.00    -0.237 OA
ATOM     76  O   UNL A   1      39.262  29.271  32.685  1.00  0.00    -0.744 OA
ENDBRANCH  70  73
ENDBRANCH  52  66
BRANCH  53  77
ATOM     77  C   UNL A   1      50.308  27.810  25.753  1.00  0.00     0.023 A 
ATOM     78  C   UNL A   1      51.333  27.670  26.710  1.00  0.00     0.012 A 
ATOM     79  C   UNL A   1      50.647  27.836  24.385  1.00  0.00     0.148 A 
ATOM     80  C   UNL A   1      52.670  27.595  26.316  1.00  0.00     0.002 A 
ATOM     81  C   UNL A   1      51.975  27.702  23.997  1.00  0.00     0.091 A 
ATOM     82  F   UNL A   1      49.661  27.990  23.491  1.00  0.00    -0.205 F 
ATOM     83  C   UNL A   1      52.990  27.601  24.961  1.00  0.00     0.022 A 
BRANCH  81  84
ATOM     84  S   UNL A   1      52.471  27.580  22.276  1.00  0.00     0.127 S 
ATOM     85  O   UNL A   1      51.429  26.719  21.724  1.00  0.00    -0.237 OA
ATOM     86  O   UNL A   1      52.406  28.979  21.848  1.00  0.00    -0.237 OA
ATOM     87  O   UNL A   1      53.814  27.016  22.291  1.00  0.00    -0.744 OA
ENDBRANCH  81  84
ENDBRANCH  53  77
BRANCH  65  88
ATOM     88  C   UNL A   1      46.749  33.055  28.673  1.00  0.00     0.023 A 
ATOM     89  C   UNL A   1      47.190  33.281  29.992  1.00  0.00     0.012 A 
ATOM     90  C   UNL A   1      46.732  34.131  27.759  1.00  0.00     0.148 A 
ATOM     91  C   UNL A   1      47.556  34.561  30.410  1.00  0.00     0.002 A 
ATOM     92  C   UNL A   1      47.152  35.391  28.168  1.00  0.00     0.091 A 
ATOM     93  F   UNL A   1      46.298  33.904  26.511  1.00  0.00    -0.205 F 
ATOM     94  C   UNL A   1      47.547  35.613  29.496  1.00  0.00     0.022 A 
BRANCH  92  95
ATOM     95  S   UNL A   1      47.267  36.780  27.034  1.00  0.00     0.127 S 
ATOM     96  O   UNL A   1      47.467  37.899  27.952  1.00  0.00    -0.237 OA
ATOM     97  O   UNL A   1      48.443  36.431  26.234  1.00  0.00    -0.237 OA
ATOM     98  O   UNL A   1      46.016  36.795  26.290  1.00  0.00    -0.744 OA
ENDBRANCH  92  95
ENDBRANCH  65  88
ENDBRANCH  39  40
ENDBRANCH  32  34
ENDBRANCH  31  32
ENDBRANCH  30  31
ENDBRANCH  29  30
ENDBRANCH  28  29
ENDBRANCH  27  28
ENDBRANCH   1  27
TORSDOF 24
ENDMDL
MODEL 2
REMARK VINA RESULT:      -9.5      1.686      7.469
REMARK SMILES O=C(Cc1c(F)cccc1F)NC[C@H]1CC[C@H](C(=O)OCCOCCOCCOC(=O)c2ccc(-c3c4nc(c(-c5cccc(S(=O)(=O)[O-])c5F)c5ccc([nH]5)c(-c5cccc(S(=O)(=O)[O-])c5F)c5nc(c(-c6cccc(S(=O)(=O)[O-])c6F)c6ccc3[nH]6)C=C5)C=C4)cc2)O1
REMARK SMILES IDX 24 1 23 2 22 3 21 4 20 5 18 6 19 7 17 8 14 9 15 10 95 11
REMARK SMILES IDX 16 12 13 13 12 14 1 15 2 16 3 18 4 19 5 20 10 21 6 22 7 23
REMARK SMILES IDX 9 24 11 25 8 26 25 27 26 28 27 29 28 30 29 31 30 32 31 33
REMARK SMILES IDX 32 34 33 35 94 36 34 37 93 38 35 39 36 40 37 41 87 42 38 43
REMARK SMILES IDX 92 44 86 45 88 46 39 47 91 48 85 49 84 50 40 52 72 53 52 54
REMARK SMILES IDX 71 55 53 56 56 57 70 58 89 59 54 60 55 61 69 63 90 64 57 65
REMARK SMILES IDX 41 66 42 67 50 68 43 69 45 70 51 71 44 72 46 73 47 74 48 75
REMARK SMILES IDX 49 76 73 77 74 78 82 79 75 80 77 81 83 82 76 83 78 84 79 85
REMARK SMILES IDX 80 86 81 87 58 88 59 89 67 90 60 91 62 92 68 93 61 94 63 95
REMARK SMILES IDX 64 96 65 97 66 98
REMARK H PARENT 12 17 88 51 56 62
REMARK Flexibility Score: inf
ROOT
ATOM      1  C   UNL A   1      40.256  22.640  27.178  1.00  0.00     0.188 C 
ENDROOT
BRANCH   1   2
ATOM      2  O   UNL A   1      39.491  22.822  25.991  1.00  0.00    -0.376 OA
BRANCH   2   3
ATOM      3  C   UNL A   1      38.334  23.656  26.077  1.00  0.00     0.202 C 
BRANCH   3   4
ATOM      4  C   UNL A   1      36.964  23.000  25.832  1.00  0.00     0.261 C 
BRANCH   4   5
ATOM      5  O   UNL A   1      35.966  23.900  25.298  1.00  0.00    -0.461 OA
BRANCH   5   6
ATOM      6  C   UNL A   1      35.478  23.579  24.070  1.00  0.00     0.335 C 
ATOM      7  O   UNL A   1      36.182  23.259  23.116  1.00  0.00    -0.249 OA
BRANCH   6   8
ATOM      8  C   UNL A   1      33.944  23.572  23.992  1.00  0.00     0.228 C 
ATOM      9  C   UNL A   1      32.707  21.843  24.986  1.00  0.00     0.138 C 
ATOM     10  C   UNL A   1      32.885  21.497  23.521  1.00  0.00     0.037 C 
ATOM     11  O   UNL A   1      33.459  23.041  25.242  1.00  0.00    -0.361 OA
ATOM     12  C   UNL A   1      33.236  22.811  22.884  1.00  0.00     0.047 C 
BRANCH   9  13
ATOM     13  C   UNL A   1      31.256  22.072  25.426  1.00  0.00     0.147 C 
BRANCH  13  14
ATOM     14  N   UNL A   1      30.781  23.411  25.129  1.00  0.00    -0.353 N 
ATOM     15  O   UNL A   1      30.799  24.211  27.271  1.00  0.00    -0.275 OA
ATOM     16  C   UNL A   1      30.673  24.409  26.065  1.00  0.00     0.224 C 
ATOM     17  H   UNL A   1      30.522  23.614  24.202  1.00  0.00     0.163 HD
BRANCH  16  18
ATOM     18  C   UNL A   1      30.329  25.772  25.486  1.00  0.00     0.141 C 
BRANCH  18  19
ATOM     19  C   UNL A   1      31.539  26.640  25.240  1.00  0.00     0.033 A 
ATOM     20  C   UNL A   1      32.064  27.453  26.248  1.00  0.00     0.129 A 
ATOM     21  C   UNL A   1      32.169  26.664  23.996  1.00  0.00     0.129 A 
ATOM     22  F   UNL A   1      31.490  27.475  27.459  1.00  0.00    -0.207 F 
ATOM     23  C   UNL A   1      33.194  28.242  26.035  1.00  0.00     0.040 A 
ATOM     24  C   UNL A   1      33.295  27.453  23.763  1.00  0.00     0.040 A 
ATOM     25  F   UNL A   1      31.703  25.900  22.999  1.00  0.00    -0.207 F 
ATOM     26  C   UNL A   1      33.813  28.243  24.788  1.00  0.00     0.006 A 
ENDBRANCH  18  19
ENDBRANCH  16  18
ENDBRANCH  13  14
ENDBRANCH   9  13
ENDBRANCH   6   8
ENDBRANCH   5   6
ENDBRANCH   4   5
ENDBRANCH   3   4
ENDBRANCH   2   3
ENDBRANCH   1   2
BRANCH   1  27
ATOM     27  C   UNL A   1      41.027  21.320  27.296  1.00  0.00     0.188 C 
BRANCH  27  28
ATOM     28  O   UNL A   1      40.776  20.409  26.242  1.00  0.00    -0.376 OA
BRANCH  28  29
ATOM     29  C   UNL A   1      41.365  19.113  26.282  1.00  0.00     0.202 C 
BRANCH  29  30
ATOM     30  C   UNL A   1      42.817  18.940  25.777  1.00  0.00     0.261 C 
BRANCH  30  31
ATOM     31  O   UNL A   1      43.245  19.815  24.717  1.00  0.00    -0.460 OA
BRANCH  31  32
ATOM     32  C   UNL A   1      44.456  20.405  24.860  1.00  0.00     0.338 C 
ATOM     33  O   UNL A   1      45.497  20.047  24.329  1.00  0.00    -0.246 OA
BRANCH  32  34
ATOM     34  C   UNL A   1      44.265  21.727  25.519  1.00  0.00     0.060 A 
ATOM     35  C   UNL A   1      43.748  22.775  24.741  1.00  0.00     0.016 A 
ATOM     36  C   UNL A   1      44.515  21.928  26.880  1.00  0.00     0.016 A 
ATOM     37  C   UNL A   1      43.570  24.044  25.297  1.00  0.00     0.010 A 
ATOM     38  C   UNL A   1      44.347  23.205  27.432  1.00  0.00     0.010 A 
ATOM     39  C   UNL A   1      43.932  24.283  26.627  1.00  0.00    -0.014 A 
BRANCH  39  40
ATOM     40  C   UNL A   1      44.140  25.686  27.075  1.00  0.00     0.031 A 
ATOM     41  C   UNL A   1      45.522  26.274  26.929  1.00  0.00     0.074 A 
ATOM     42  C   UNL A   1      43.137  26.451  27.547  1.00  0.00     0.049 A 
ATOM     43  N   UNL A   1      45.950  27.477  27.209  1.00  0.00    -0.248 NA
ATOM     44  C   UNL A   1      46.562  25.378  26.393  1.00  0.00     0.031 C 
ATOM     45  C   UNL A   1      41.754  26.021  27.733  1.00  0.00     0.029 A 
ATOM     46  N   UNL A   1      43.144  27.759  27.971  1.00  0.00    -0.354 N 
ATOM     47  C   UNL A   1      47.309  27.473  26.911  1.00  0.00     0.074 A 
ATOM     48  C   UNL A   1      47.639  26.144  26.451  1.00  0.00     0.031 C 
ATOM     49  C   UNL A   1      41.048  27.041  28.253  1.00  0.00     0.029 A 
ATOM     50  C   UNL A   1      41.931  28.190  28.454  1.00  0.00     0.049 A 
ATOM     51  H   UNL A   1      43.943  28.333  27.932  1.00  0.00     0.167 HD
ATOM     52  C   UNL A   1      48.204  28.486  26.992  1.00  0.00     0.034 A 
ATOM     53  C   UNL A   1      41.579  29.370  29.006  1.00  0.00     0.034 A 
ATOM     54  C   UNL A   1      47.883  29.815  27.432  1.00  0.00     0.049 A 
ATOM     55  C   UNL A   1      42.600  30.477  29.109  1.00  0.00     0.074 A 
ATOM     56  C   UNL A   1      48.712  30.920  27.506  1.00  0.00     0.029 A 
ATOM     57  N   UNL A   1      46.638  30.219  27.887  1.00  0.00    -0.354 N 
ATOM     58  N   UNL A   1      43.851  30.492  28.715  1.00  0.00    -0.248 NA
ATOM     59  C   UNL A   1      42.146  31.747  29.699  1.00  0.00     0.031 C 
ATOM     60  C   UNL A   1      47.978  31.982  28.045  1.00  0.00     0.029 A 
ATOM     61  C   UNL A   1      46.679  31.552  28.260  1.00  0.00     0.049 A 
ATOM     62  H   UNL A   1      45.841  29.642  27.939  1.00  0.00     0.167 HD
ATOM     63  C   UNL A   1      44.319  31.778  28.971  1.00  0.00     0.074 A 
ATOM     64  C   UNL A   1      43.209  32.520  29.531  1.00  0.00     0.031 C 
ATOM     65  C   UNL A   1      45.558  32.296  28.774  1.00  0.00     0.034 A 
BRANCH  52  66
ATOM     66  C   UNL A   1      49.625  28.192  26.582  1.00  0.00     0.023 A 
ATOM     67  C   UNL A   1      49.985  28.221  25.220  1.00  0.00     0.012 A 
ATOM     68  C   UNL A   1      50.609  27.924  27.553  1.00  0.00     0.148 A 
ATOM     69  C   UNL A   1      51.295  27.951  24.827  1.00  0.00     0.002 A 
ATOM     70  C   UNL A   1      51.923  27.706  27.157  1.00  0.00     0.091 A 
ATOM     71  F   UNL A   1      50.242  27.877  28.841  1.00  0.00    -0.205 F 
ATOM     72  C   UNL A   1      52.266  27.705  25.795  1.00  0.00     0.022 A 
BRANCH  70  73
ATOM     73  S   UNL A   1      53.260  27.463  28.330  1.00  0.00     0.127 S 
ATOM     74  O   UNL A   1      52.820  26.259  29.034  1.00  0.00    -0.237 OA
ATOM     75  O   UNL A   1      54.410  27.266  27.447  1.00  0.00    -0.237 OA
ATOM     76  O   UNL A   1      53.313  28.673  29.138  1.00  0.00    -0.744 OA
ENDBRANCH  70  73
ENDBRANCH  52  66
BRANCH  53  77
ATOM     77  C   UNL A   1      40.184  29.589  29.487  1.00  0.00     0.023 A 
ATOM     78  C   UNL A   1      39.205  30.080  28.600  1.00  0.00     0.012 A 
ATOM     79  C   UNL A   1      39.828  29.330  30.825  1.00  0.00     0.148 A 
ATOM     80  C   UNL A   1      37.909  30.344  29.045  1.00  0.00     0.002 A 
ATOM     81  C   UNL A   1      38.520  29.539  31.248  1.00  0.00     0.091 A 
ATOM     82  F   UNL A   1      40.777  28.882  31.658  1.00  0.00    -0.205 F 
ATOM     83  C   UNL A   1      37.564  30.064  30.365  1.00  0.00     0.022 A 
BRANCH  81  84
ATOM     84  S   UNL A   1      37.954  29.098  32.894  1.00  0.00     0.127 S 
ATOM     85  O   UNL A   1      36.616  29.682  32.917  1.00  0.00    -0.237 OA
ATOM     86  O   UNL A   1      37.989  27.636  32.838  1.00  0.00    -0.237 OA
ATOM     87  O   UNL A   1      38.917  29.690  33.813  1.00  0.00    -0.744 OA
ENDBRANCH  81  84
ENDBRANCH  53  77
BRANCH  65  88
ATOM     88  C   UNL A   1      45.776  33.749  29.121  1.00  0.00     0.023 A 
ATOM     89  C   UNL A   1      46.162  34.117  30.425  1.00  0.00     0.012 A 
ATOM     90  C   UNL A   1      45.642  34.749  28.135  1.00  0.00     0.148 A 
ATOM     91  C   UNL A   1      46.359  35.458  30.757  1.00  0.00     0.002 A 
ATOM     92  C   UNL A   1      45.895  36.077  28.459  1.00  0.00     0.091 A 
ATOM     93  F   UNL A   1      45.261  34.387  26.902  1.00  0.00    -0.205 F 
ATOM     94  C   UNL A   1      46.235  36.436  29.773  1.00  0.00     0.022 A 
BRANCH  92  95
ATOM     95  S   UNL A   1      45.856  37.390  27.233  1.00  0.00     0.127 S 
ATOM     96  O   UNL A   1      44.420  37.620  27.087  1.00  0.00    -0.237 OA
ATOM     97  O   UNL A   1      46.581  38.468  27.909  1.00  0.00    -0.237 OA
ATOM     98  O   UNL A   1      46.528  36.858  26.055  1.00  0.00    -0.744 OA
ENDBRANCH  92  95
ENDBRANCH  65  88
ENDBRANCH  39  40
ENDBRANCH  32  34
ENDBRANCH  31  32
ENDBRANCH  30  31
ENDBRANCH  29  30
ENDBRANCH  28  29
ENDBRANCH  27  28
ENDBRANCH   1  27
TORSDOF 24
ENDMDL
MODEL 3
REMARK VINA RESULT:      -9.4      2.480      7.880
REMARK SMILES O=C(Cc1c(F)cccc1F)NC[C@H]1CC[C@H](C(=O)OCCOCCOCCOC(=O)c2ccc(-c3c4nc(c(-c5cccc(S(=O)(=O)[O-])c5F)c5ccc([nH]5)c(-c5cccc(S(=O)(=O)[O-])c5F)c5nc(c(-c6cccc(S(=O)(=O)[O-])c6F)c6ccc3[nH]6)C=C5)C=C4)cc2)O1
REMARK SMILES IDX 24 1 23 2 22 3 21 4 20 5 18 6 19 7 17 8 14 9 15 10 95 11
REMARK SMILES IDX 16 12 13 13 12 14 1 15 2 16 3 18 4 19 5 20 10 21 6 22 7 23
REMARK SMILES IDX 9 24 11 25 8 26 25 27 26 28 27 29 28 30 29 31 30 32 31 33
REMARK SMILES IDX 32 34 33 35 94 36 34 37 93 38 35 39 36 40 37 41 87 42 38 43
REMARK SMILES IDX 92 44 86 45 88 46 39 47 91 48 85 49 84 50 40 52 72 53 52 54
REMARK SMILES IDX 71 55 53 56 56 57 70 58 89 59 54 60 55 61 69 63 90 64 57 65
REMARK SMILES IDX 41 66 42 67 50 68 43 69 45 70 51 71 44 72 46 73 47 74 48 75
REMARK SMILES IDX 49 76 73 77 74 78 82 79 75 80 77 81 83 82 76 83 78 84 79 85
REMARK SMILES IDX 80 86 81 87 58 88 59 89 67 90 60 91 62 92 68 93 61 94 63 95
REMARK SMILES IDX 64 96 65 97 66 98
REMARK H PARENT 12 17 88 51 56 62
REMARK Flexibility Score: inf
ROOT
ATOM      1  C   UNL A   1      40.097  22.983  27.412  1.00  0.00     0.188 C 
ENDROOT
BRANCH   1   2
ATOM      2  O   UNL A   1      39.549  23.328  26.143  1.00  0.00    -0.376 OA
BRANCH   2   3
ATOM      3  C   UNL A   1      38.294  24.010  26.133  1.00  0.00     0.202 C 
BRANCH   3   4
ATOM      4  C   UNL A   1      37.052  23.210  25.701  1.00  0.00     0.261 C 
BRANCH   4   5
ATOM      5  O   UNL A   1      35.928  24.030  25.310  1.00  0.00    -0.461 OA
BRANCH   5   6
ATOM      6  C   UNL A   1      35.450  23.817  24.054  1.00  0.00     0.335 C 
ATOM      7  O   UNL A   1      36.133  23.400  23.123  1.00  0.00    -0.249 OA
BRANCH   6   8
ATOM      8  C   UNL A   1      33.942  24.069  23.912  1.00  0.00     0.228 C 
ATOM      9  C   UNL A   1      32.390  22.580  24.853  1.00  0.00     0.138 C 
ATOM     10  C   UNL A   1      32.568  22.200  23.395  1.00  0.00     0.037 C 
ATOM     11  O   UNL A   1      33.323  23.635  25.140  1.00  0.00    -0.361 OA
ATOM     12  C   UNL A   1      33.162  23.431  22.775  1.00  0.00     0.047 C 
BRANCH   9  13
ATOM     13  C   UNL A   1      30.982  23.054  25.231  1.00  0.00     0.147 C 
BRANCH  13  14
ATOM     14  N   UNL A   1      30.591  24.270  24.543  1.00  0.00    -0.353 N 
ATOM     15  O   UNL A   1      30.162  25.534  26.399  1.00  0.00    -0.275 OA
ATOM     16  C   UNL A   1      30.296  25.448  25.181  1.00  0.00     0.224 C 
ATOM     17  H   UNL A   1      30.536  24.248  23.560  1.00  0.00     0.163 HD
BRANCH  16  18
ATOM     18  C   UNL A   1      30.093  26.630  24.245  1.00  0.00     0.141 C 
BRANCH  18  19
ATOM     19  C   UNL A   1      31.371  27.364  23.924  1.00  0.00     0.033 A 
ATOM     20  C   UNL A   1      32.063  27.129  22.733  1.00  0.00     0.129 A 
ATOM     21  C   UNL A   1      31.909  28.299  24.809  1.00  0.00     0.129 A 
ATOM     22  F   UNL A   1      31.595  26.234  21.852  1.00  0.00    -0.207 F 
ATOM     23  C   UNL A   1      33.234  27.818  22.420  1.00  0.00     0.040 A 
ATOM     24  C   UNL A   1      33.084  28.991  24.517  1.00  0.00     0.040 A 
ATOM     25  F   UNL A   1      31.281  28.560  25.964  1.00  0.00    -0.207 F 
ATOM     26  C   UNL A   1      33.747  28.754  23.314  1.00  0.00     0.006 A 
ENDBRANCH  18  19
ENDBRANCH  16  18
ENDBRANCH  13  14
ENDBRANCH   9  13
ENDBRANCH   6   8
ENDBRANCH   5   6
ENDBRANCH   4   5
ENDBRANCH   3   4
ENDBRANCH   2   3
ENDBRANCH   1   2
BRANCH   1  27
ATOM     27  C   UNL A   1      40.571  21.535  27.579  1.00  0.00     0.188 C 
BRANCH  27  28
ATOM     28  O   UNL A   1      40.485  20.760  26.398  1.00  0.00    -0.376 OA
BRANCH  28  29
ATOM     29  C   UNL A   1      41.297  19.598  26.261  1.00  0.00     0.202 C 
BRANCH  29  30
ATOM     30  C   UNL A   1      42.773  19.770  25.829  1.00  0.00     0.261 C 
BRANCH  30  31
ATOM     31  O   UNL A   1      43.122  21.009  25.185  1.00  0.00    -0.460 OA
BRANCH  31  32
ATOM     32  C   UNL A   1      44.255  21.620  25.606  1.00  0.00     0.338 C 
ATOM     33  O   UNL A   1      45.392  21.349  25.249  1.00  0.00    -0.246 OA
BRANCH  32  34
ATOM     34  C   UNL A   1      43.882  22.865  26.333  1.00  0.00     0.060 A 
ATOM     35  C   UNL A   1      43.393  23.941  25.576  1.00  0.00     0.016 A 
ATOM     36  C   UNL A   1      43.938  22.963  27.727  1.00  0.00     0.016 A 
ATOM     37  C   UNL A   1      43.049  25.143  26.199  1.00  0.00     0.010 A 
ATOM     38  C   UNL A   1      43.604  24.174  28.349  1.00  0.00     0.010 A 
ATOM     39  C   UNL A   1      43.217  25.289  27.581  1.00  0.00    -0.014 A 
BRANCH  39  40
ATOM     40  C   UNL A   1      43.260  26.658  28.160  1.00  0.00     0.031 A 
ATOM     41  C   UNL A   1      44.606  27.326  28.291  1.00  0.00     0.074 A 
ATOM     42  C   UNL A   1      42.146  27.329  28.513  1.00  0.00     0.049 A 
ATOM     43  N   UNL A   1      44.906  28.521  28.727  1.00  0.00    -0.248 NA
ATOM     44  C   UNL A   1      45.775  26.532  27.871  1.00  0.00     0.031 C 
ATOM     45  C   UNL A   1      40.782  26.816  28.432  1.00  0.00     0.029 A 
ATOM     46  N   UNL A   1      42.000  28.595  29.027  1.00  0.00    -0.354 N 
ATOM     47  C   UNL A   1      46.293  28.611  28.661  1.00  0.00     0.074 A 
ATOM     48  C   UNL A   1      46.777  27.343  28.165  1.00  0.00     0.031 C 
ATOM     49  C   UNL A   1      39.936  27.751  28.901  1.00  0.00     0.029 A 
ATOM     50  C   UNL A   1      40.700  28.922  29.331  1.00  0.00     0.049 A 
ATOM     51  H   UNL A   1      42.757  29.211  29.165  1.00  0.00     0.167 HD
ATOM     52  C   UNL A   1      47.096  29.657  28.965  1.00  0.00     0.034 A 
ATOM     53  C   UNL A   1      40.188  30.033  29.903  1.00  0.00     0.034 A 
ATOM     54  C   UNL A   1      46.623  30.928  29.443  1.00  0.00     0.049 A 
ATOM     55  C   UNL A   1      41.106  31.178  30.257  1.00  0.00     0.074 A 
ATOM     56  C   UNL A   1      47.357  32.063  29.736  1.00  0.00     0.029 A 
ATOM     57  N   UNL A   1      45.297  31.228  29.712  1.00  0.00    -0.354 N 
ATOM     58  N   UNL A   1      42.401  31.289  30.079  1.00  0.00    -0.248 NA
ATOM     59  C   UNL A   1      40.482  32.369  30.855  1.00  0.00     0.031 C 
ATOM     60  C   UNL A   1      46.479  33.038  30.222  1.00  0.00     0.029 A 
ATOM     61  C   UNL A   1      45.192  32.525  30.184  1.00  0.00     0.049 A 
ATOM     62  H   UNL A   1      44.541  30.609  29.586  1.00  0.00     0.167 HD
ATOM     63  C   UNL A   1      42.738  32.571  30.506  1.00  0.00     0.074 A 
ATOM     64  C   UNL A   1      41.507  33.207  30.925  1.00  0.00     0.031 C 
ATOM     65  C   UNL A   1      43.957  33.166  30.558  1.00  0.00     0.034 A 
BRANCH  52  66
ATOM     66  C   UNL A   1      48.580  29.471  28.779  1.00  0.00     0.023 A 
ATOM     67  C   UNL A   1      49.367  28.978  29.840  1.00  0.00     0.012 A 
ATOM     68  C   UNL A   1      49.187  29.749  27.539  1.00  0.00     0.148 A 
ATOM     69  C   UNL A   1      50.740  28.800  29.681  1.00  0.00     0.002 A 
ATOM     70  C   UNL A   1      50.548  29.522  27.373  1.00  0.00     0.091 A 
ATOM     71  F   UNL A   1      48.426  30.240  26.550  1.00  0.00    -0.205 F 
ATOM     72  C   UNL A   1      51.328  29.061  28.446  1.00  0.00     0.022 A 
BRANCH  70  73
ATOM     73  S   UNL A   1      51.382  29.748  25.801  1.00  0.00     0.127 S 
ATOM     74  O   UNL A   1      50.623  28.850  24.931  1.00  0.00    -0.237 OA
ATOM     75  O   UNL A   1      51.168  31.171  25.542  1.00  0.00    -0.237 OA
ATOM     76  O   UNL A   1      52.771  29.371  26.023  1.00  0.00    -0.744 OA
ENDBRANCH  70  73
ENDBRANCH  52  66
BRANCH  53  77
ATOM     77  C   UNL A   1      38.722  30.140  30.158  1.00  0.00     0.023 A 
ATOM     78  C   UNL A   1      38.162  29.531  31.299  1.00  0.00     0.012 A 
ATOM     79  C   UNL A   1      37.878  30.828  29.264  1.00  0.00     0.148 A 
ATOM     80  C   UNL A   1      36.785  29.574  31.525  1.00  0.00     0.002 A 
ATOM     81  C   UNL A   1      36.516  30.917  29.525  1.00  0.00     0.091 A 
ATOM     82  F   UNL A   1      38.426  31.383  28.174  1.00  0.00    -0.205 F 
ATOM     83  C   UNL A   1      35.964  30.274  30.645  1.00  0.00     0.022 A 
BRANCH  81  84
ATOM     84  S   UNL A   1      35.400  31.894  28.515  1.00  0.00     0.127 S 
ATOM     85  O   UNL A   1      34.943  30.911  27.537  1.00  0.00    -0.237 OA
ATOM     86  O   UNL A   1      34.392  32.304  29.495  1.00  0.00    -0.237 OA
ATOM     87  O   UNL A   1      36.203  32.987  27.984  1.00  0.00    -0.744 OA
ENDBRANCH  81  84
ENDBRANCH  53  77
BRANCH  65  88
ATOM     88  C   UNL A   1      44.022  34.594  31.042  1.00  0.00     0.023 A 
ATOM     89  C   UNL A   1      44.222  34.871  32.410  1.00  0.00     0.012 A 
ATOM     90  C   UNL A   1      43.932  35.666  30.130  1.00  0.00     0.148 A 
ATOM     91  C   UNL A   1      44.277  36.187  32.869  1.00  0.00     0.002 A 
ATOM     92  C   UNL A   1      44.044  36.974  30.587  1.00  0.00     0.091 A 
ATOM     93  F   UNL A   1      43.729  35.389  28.834  1.00  0.00    -0.205 F 
ATOM     94  C   UNL A   1      44.198  37.238  31.957  1.00  0.00     0.022 A 
BRANCH  92  95
ATOM     95  S   UNL A   1      44.053  38.384  29.473  1.00  0.00     0.127 S 
ATOM     96  O   UNL A   1      42.750  38.259  28.823  1.00  0.00    -0.237 OA
ATOM     97  O   UNL A   1      44.166  39.512  30.400  1.00  0.00    -0.237 OA
ATOM     98  O   UNL A   1      45.207  38.201  28.604  1.00  0.00    -0.744 OA
ENDBRANCH  92  95
ENDBRANCH  65  88
ENDBRANCH  39  40
ENDBRANCH  32  34
ENDBRANCH  31  32
ENDBRANCH  30  31
ENDBRANCH  29  30
ENDBRANCH  28  29
ENDBRANCH  27  28
ENDBRANCH   1  27
TORSDOF 24
ENDMDL
