MODEL 1
REMARK VINA RESULT:     -11.5      0.000      0.000
REMARK SMILES Cc1cccc(CC(=O)N2CCC3(CCC(=O)N([C@H](C)C(=O)OCCOCCOCCOC(=O)c4ccc(-c5c6nc(c(-c7cccc(S(=O)(=O)[O-])c7F)c7ccc([nH]7)c(-c7cccc(S(=O)(=O)[O-])c7F)c7nc(c(-c8cccc(S(=O)(=O)[O-])c8F)c8ccc5[nH]8)C=C7)C=C6)cc4)C3)CC2)c1
REMARK SMILES IDX 27 1 26 2 25 3 24 4 23 5 21 6 22 7 19 8 20 9 18 10 8 11 9 12
REMARK SMILES IDX 10 13 11 14 100 15 12 16 99 17 13 18 14 19 98 20 15 21 16 22
REMARK SMILES IDX 17 23 7 24 6 25 1 26 2 27 3 28 101 29 4 30 5 31 28 32 29 33
REMARK SMILES IDX 30 34 31 35 32 36 33 37 34 38 35 39 36 40 97 41 37 42 96 43
REMARK SMILES IDX 38 44 39 45 40 46 90 47 41 48 95 49 89 50 91 51 42 52 94 53
REMARK SMILES IDX 88 54 87 55 43 57 75 58 55 59 74 60 56 61 59 62 73 63 92 64
REMARK SMILES IDX 57 65 58 66 72 68 93 69 60 70 44 71 45 72 53 73 46 74 48 75
REMARK SMILES IDX 54 76 47 77 49 78 50 79 51 80 52 81 76 82 77 83 85 84 78 85
REMARK SMILES IDX 80 86 86 87 79 88 81 89 82 90 83 91 84 92 61 93 62 94 70 95
REMARK SMILES IDX 63 96 65 97 71 98 64 99 66 100 67 101 68 102 69 103
REMARK H PARENT 91 56 59 67
REMARK Flexibility Score: inf
ROOT
ATOM      1  C   UNL A   1      40.756  20.198  26.254  1.00  0.00     0.188 C 
ENDROOT
BRANCH   1   2
ATOM      2  O   UNL A   1      40.237  21.197  27.180  1.00  0.00    -0.376 OA
BRANCH   2   3
ATOM      3  C   UNL A   1      40.080  22.627  26.844  1.00  0.00     0.202 C 
BRANCH   3   4
ATOM      4  C   UNL A   1      38.624  23.608  26.458  1.00  0.00     0.261 C 
BRANCH   4   5
ATOM      5  O   UNL A   1      36.983  23.025  25.931  1.00  0.00    -0.462 OA
BRANCH   5   6
ATOM      6  C   UNL A   1      35.914  22.041  25.726  1.00  0.00     0.328 C 
ATOM      7  O   UNL A   1      35.985  21.282  24.745  1.00  0.00    -0.250 OA
BRANCH   6   8
ATOM      8  C   UNL A   1      34.485  21.670  26.555  1.00  0.00     0.192 C 
ATOM      9  C   UNL A   1      34.001  21.437  28.004  1.00  0.00     0.044 C 
BRANCH   8  10
ATOM     10  N   UNL A   1      33.280  22.137  25.815  1.00  0.00    -0.329 N 
ATOM     11  C   UNL A   1      33.036  27.748  22.312  1.00  0.00     0.226 C 
ATOM     12  O   UNL A   1      33.976  28.212  21.654  1.00  0.00    -0.275 OA
ATOM     13  N   UNL A   1      32.905  26.385  22.497  1.00  0.00    -0.342 N 
ATOM     14  C   UNL A   1      34.086  25.524  22.458  1.00  0.00     0.120 C 
ATOM     15  C   UNL A   1      31.670  25.671  22.782  1.00  0.00     0.120 C 
ATOM     16  C   UNL A   1      34.206  24.739  23.782  1.00  0.00     0.030 C 
ATOM     17  C   UNL A   1      31.751  25.091  24.176  1.00  0.00     0.030 C 
ATOM     18  C   UNL A   1      32.880  24.042  24.216  1.00  0.00    -0.008 C 
ATOM     19  C   UNL A   1      32.490  22.928  23.183  1.00  0.00     0.019 C 
ATOM     20  C   UNL A   1      32.963  23.538  25.698  1.00  0.00     0.127 C 
ATOM     21  C   UNL A   1      33.076  21.578  23.493  1.00  0.00     0.101 C 
ATOM     22  C   UNL A   1      32.627  21.344  24.901  1.00  0.00     0.223 C 
ATOM     23  O   UNL A   1      31.512  20.889  25.134  1.00  0.00    -0.275 OA
BRANCH  11  24
ATOM     24  C   UNL A   1      32.166  28.716  23.122  1.00  0.00     0.135 C 
BRANCH  24  25
ATOM     25  C   UNL A   1      32.326  28.759  24.621  1.00  0.00    -0.038 A 
ATOM     26  C   UNL A   1      35.189  29.319  27.084  1.00  0.00     0.044 C 
ATOM     27  C   UNL A   1      33.835  28.988  26.527  1.00  0.00    -0.051 A 
ATOM     28  C   UNL A   1      32.869  28.384  27.341  1.00  0.00     0.003 A 
ATOM     29  C   UNL A   1      33.544  29.201  25.174  1.00  0.00     0.007 A 
ATOM     30  C   UNL A   1      31.629  28.011  26.817  1.00  0.00     0.001 A 
ATOM     31  C   UNL A   1      31.348  28.210  25.463  1.00  0.00     0.004 A 
ENDBRANCH  24  25
ENDBRANCH  11  24
ENDBRANCH   8  10
ENDBRANCH   6   8
ENDBRANCH   5   6
ENDBRANCH   4   5
ENDBRANCH   3   4
ENDBRANCH   2   3
ENDBRANCH   1   2
BRANCH   1  32
ATOM     32  C   UNL A   1      42.141  19.546  26.313  1.00  0.00     0.188 C 
BRANCH  32  33
ATOM     33  O   UNL A   1      42.641  19.218  25.031  1.00  0.00    -0.376 OA
BRANCH  33  34
ATOM     34  C   UNL A   1      44.060  19.096  24.982  1.00  0.00     0.202 C 
BRANCH  34  35
ATOM     35  C   UNL A   1      44.895  20.321  25.425  1.00  0.00     0.261 C 
BRANCH  35  36
ATOM     36  O   UNL A   1      44.636  21.471  24.597  1.00  0.00    -0.460 OA
BRANCH  36  37
ATOM     37  C   UNL A   1      43.725  22.353  25.100  1.00  0.00     0.338 C 
ATOM     38  O   UNL A   1      42.654  22.617  24.569  1.00  0.00    -0.246 OA
BRANCH  37  39
ATOM     39  C   UNL A   1      44.372  23.118  26.196  1.00  0.00     0.060 A 
ATOM     40  C   UNL A   1      43.908  22.970  27.508  1.00  0.00     0.016 A 
ATOM     41  C   UNL A   1      45.057  24.264  25.828  1.00  0.00     0.016 A 
ATOM     42  C   UNL A   1      43.863  24.083  28.351  1.00  0.00     0.010 A 
ATOM     43  C   UNL A   1      44.854  25.380  26.598  1.00  0.00     0.010 A 
ATOM     44  C   UNL A   1      44.228  25.330  27.849  1.00  0.00    -0.014 A 
BRANCH  44  45
ATOM     45  C   UNL A   1      44.060  26.646  28.535  1.00  0.00     0.031 A 
ATOM     46  C   UNL A   1      42.295  27.019  28.621  1.00  0.00     0.074 A 
ATOM     47  C   UNL A   1      45.264  27.300  29.065  1.00  0.00     0.049 A 
ATOM     48  N   UNL A   1      41.861  28.253  28.601  1.00  0.00    -0.248 NA
ATOM     49  C   UNL A   1      41.043  26.224  28.557  1.00  0.00     0.031 C 
ATOM     50  C   UNL A   1      45.524  28.227  30.311  1.00  0.00     0.029 A 
ATOM     51  N   UNL A   1      46.626  27.224  28.726  1.00  0.00    -0.354 N 
ATOM     52  C   UNL A   1      40.592  28.472  28.966  1.00  0.00     0.074 A 
ATOM     53  C   UNL A   1      40.053  27.143  28.750  1.00  0.00     0.031 C 
ATOM     54  C   UNL A   1      46.776  28.508  30.609  1.00  0.00     0.029 A 
ATOM     55  C   UNL A   1      47.409  28.191  29.404  1.00  0.00     0.049 A 
ATOM     56  H   UNL A   1      46.995  26.570  28.089  1.00  0.00     0.167 HD
ATOM     57  C   UNL A   1      40.241  29.730  29.422  1.00  0.00     0.034 A 
ATOM     58  C   UNL A   1      48.181  29.164  28.872  1.00  0.00     0.034 A 
ATOM     59  C   UNL A   1      41.397  30.662  29.869  1.00  0.00     0.049 A 
ATOM     60  C   UNL A   1      47.486  30.570  28.875  1.00  0.00     0.074 A 
ATOM     61  C   UNL A   1      41.951  30.911  31.126  1.00  0.00     0.029 A 
ATOM     62  N   UNL A   1      42.226  31.444  29.015  1.00  0.00    -0.354 N 
ATOM     63  N   UNL A   1      46.354  30.904  29.494  1.00  0.00    -0.248 NA
ATOM     64  C   UNL A   1      48.068  31.733  28.209  1.00  0.00     0.031 C 
ATOM     65  C   UNL A   1      43.203  31.608  30.984  1.00  0.00     0.029 A 
ATOM     66  C   UNL A   1      43.428  31.891  29.647  1.00  0.00     0.049 A 
ATOM     67  H   UNL A   1      41.995  31.655  28.082  1.00  0.00     0.167 HD
ATOM     68  C   UNL A   1      45.887  32.123  28.995  1.00  0.00     0.074 A 
ATOM     69  C   UNL A   1      47.109  32.661  28.382  1.00  0.00     0.031 C 
ATOM     70  C   UNL A   1      44.558  32.575  28.910  1.00  0.00     0.034 A 
BRANCH  57  71
ATOM     71  C   UNL A   1      38.789  30.045  29.746  1.00  0.00     0.023 A 
ATOM     72  C   UNL A   1      37.994  29.076  30.393  1.00  0.00     0.012 A 
ATOM     73  C   UNL A   1      38.168  31.289  29.473  1.00  0.00     0.148 A 
ATOM     74  C   UNL A   1      36.640  29.297  30.684  1.00  0.00     0.002 A 
ATOM     75  C   UNL A   1      36.809  31.497  29.730  1.00  0.00     0.091 A 
ATOM     76  F   UNL A   1      38.905  32.290  28.980  1.00  0.00    -0.205 F 
ATOM     77  C   UNL A   1      36.040  30.499  30.335  1.00  0.00     0.022 A 
BRANCH  75  78
ATOM     78  S   UNL A   1      35.947  33.004  29.242  1.00  0.00     0.127 S 
ATOM     79  O   UNL A   1      34.640  32.818  29.875  1.00  0.00    -0.237 OA
ATOM     80  O   UNL A   1      36.770  34.053  29.840  1.00  0.00    -0.237 OA
ATOM     81  O   UNL A   1      35.913  32.997  27.785  1.00  0.00    -0.744 OA
ENDBRANCH  75  78
ENDBRANCH  57  71
BRANCH  58  82
ATOM     82  C   UNL A   1      49.241  28.426  28.123  1.00  0.00     0.023 A 
ATOM     83  C   UNL A   1      49.812  27.370  28.920  1.00  0.00     0.012 A 
ATOM     84  C   UNL A   1      49.045  28.186  26.758  1.00  0.00     0.148 A 
ATOM     85  C   UNL A   1      49.858  26.055  28.443  1.00  0.00     0.002 A 
ATOM     86  C   UNL A   1      49.150  26.874  26.279  1.00  0.00     0.091 A 
ATOM     87  F   UNL A   1      48.559  29.181  26.005  1.00  0.00    -0.205 F 
ATOM     88  C   UNL A   1      49.487  25.804  27.131  1.00  0.00     0.022 A 
BRANCH  86  89
ATOM     89  S   UNL A   1      48.631  26.472  24.607  1.00  0.00     0.127 S 
ATOM     90  O   UNL A   1      48.239  25.076  24.751  1.00  0.00    -0.237 OA
ATOM     91  O   UNL A   1      47.529  27.406  24.382  1.00  0.00    -0.237 OA
ATOM     92  O   UNL A   1      49.805  26.749  23.789  1.00  0.00    -0.744 OA
ENDBRANCH  86  89
ENDBRANCH  58  82
BRANCH  70  93
ATOM     93  C   UNL A   1      44.224  33.770  27.993  1.00  0.00     0.023 A 
ATOM     94  C   UNL A   1      43.871  33.582  26.634  1.00  0.00     0.012 A 
ATOM     95  C   UNL A   1      44.191  35.106  28.462  1.00  0.00     0.148 A 
ATOM     96  C   UNL A   1      43.717  34.643  25.736  1.00  0.00     0.002 A 
ATOM     97  C   UNL A   1      43.915  36.164  27.586  1.00  0.00     0.091 A 
ATOM     98  F   UNL A   1      44.467  35.359  29.748  1.00  0.00    -0.205 F 
ATOM     99  C   UNL A   1      43.744  35.939  26.214  1.00  0.00     0.022 A 
BRANCH  97 100
ATOM    100  S   UNL A   1      43.674  37.857  28.146  1.00  0.00     0.127 S 
ATOM    101  O   UNL A   1      44.740  38.001  29.136  1.00  0.00    -0.237 OA
ATOM    102  O   UNL A   1      43.890  38.626  26.916  1.00  0.00    -0.237 OA
ATOM    103  O   UNL A   1      42.316  37.919  28.665  1.00  0.00    -0.744 OA
ENDBRANCH  97 100
ENDBRANCH  70  93
ENDBRANCH  44  45
ENDBRANCH  37  39
ENDBRANCH  36  37
ENDBRANCH  35  36
ENDBRANCH  34  35
ENDBRANCH  33  34
ENDBRANCH  32  33
ENDBRANCH   1  32
TORSDOF 23
ENDMDL
MODEL 2
REMARK VINA RESULT:     -11.1      5.575     11.099
REMARK SMILES Cc1cccc(CC(=O)N2CCC3(CCC(=O)N([C@H](C)C(=O)OCCOCCOCCOC(=O)c4ccc(-c5c6nc(c(-c7cccc(S(=O)(=O)[O-])c7F)c7ccc([nH]7)c(-c7cccc(S(=O)(=O)[O-])c7F)c7nc(c(-c8cccc(S(=O)(=O)[O-])c8F)c8ccc5[nH]8)C=C7)C=C6)cc4)C3)CC2)c1
REMARK SMILES IDX 27 1 26 2 25 3 24 4 23 5 21 6 22 7 19 8 20 9 18 10 8 11 9 12
REMARK SMILES IDX 10 13 11 14 100 15 12 16 99 17 13 18 14 19 98 20 15 21 16 22
REMARK SMILES IDX 17 23 7 24 6 25 1 26 2 27 3 28 101 29 4 30 5 31 28 32 29 33
REMARK SMILES IDX 30 34 31 35 32 36 33 37 34 38 35 39 36 40 97 41 37 42 96 43
REMARK SMILES IDX 38 44 39 45 40 46 90 47 41 48 95 49 89 50 91 51 42 52 94 53
REMARK SMILES IDX 88 54 87 55 43 57 75 58 55 59 74 60 56 61 59 62 73 63 92 64
REMARK SMILES IDX 57 65 58 66 72 68 93 69 60 70 44 71 45 72 53 73 46 74 48 75
REMARK SMILES IDX 54 76 47 77 49 78 50 79 51 80 52 81 76 82 77 83 85 84 78 85
REMARK SMILES IDX 80 86 86 87 79 88 81 89 82 90 83 91 84 92 61 93 62 94 70 95
REMARK SMILES IDX 63 96 65 97 71 98 64 99 66 100 67 101 68 102 69 103
REMARK H PARENT 91 56 59 67
REMARK Flexibility Score: inf
ROOT
ATOM      1  C   UNL A   1      41.207  21.497  27.144  1.00  0.00     0.188 C 
ENDROOT
BRANCH   1   2
ATOM      2  O   UNL A   1      40.365  22.513  27.762  1.00  0.00    -0.376 OA
BRANCH   2   3
ATOM      3  C   UNL A   1      39.960  23.765  27.093  1.00  0.00     0.202 C 
BRANCH   3   4
ATOM      4  C   UNL A   1      38.480  24.199  26.168  1.00  0.00     0.261 C 
BRANCH   4   5
ATOM      5  O   UNL A   1      36.863  23.367  26.181  1.00  0.00    -0.462 OA
BRANCH   5   6
ATOM      6  C   UNL A   1      35.791  22.515  25.652  1.00  0.00     0.328 C 
ATOM      7  O   UNL A   1      35.816  22.205  24.450  1.00  0.00    -0.250 OA
BRANCH   6   8
ATOM      8  C   UNL A   1      34.409  21.811  26.332  1.00  0.00     0.192 C 
ATOM      9  C   UNL A   1      33.942  21.217  27.680  1.00  0.00     0.044 C 
BRANCH   8  10
ATOM     10  N   UNL A   1      33.164  22.283  25.666  1.00  0.00    -0.329 N 
ATOM     11  C   UNL A   1      32.583  28.146  22.646  1.00  0.00     0.226 C 
ATOM     12  O   UNL A   1      33.482  28.703  22.005  1.00  0.00    -0.275 OA
ATOM     13  N   UNL A   1      32.513  26.768  22.722  1.00  0.00    -0.342 N 
ATOM     14  C   UNL A   1      33.727  25.965  22.581  1.00  0.00     0.120 C 
ATOM     15  C   UNL A   1      31.318  25.980  22.980  1.00  0.00     0.120 C 
ATOM     16  C   UNL A   1      33.920  25.080  23.831  1.00  0.00     0.030 C 
ATOM     17  C   UNL A   1      31.465  25.292  24.318  1.00  0.00     0.030 C 
ATOM     18  C   UNL A   1      32.637  24.293  24.241  1.00  0.00    -0.008 C 
ATOM     19  C   UNL A   1      32.263  23.251  23.131  1.00  0.00     0.019 C 
ATOM     20  C   UNL A   1      32.786  23.675  25.674  1.00  0.00     0.127 C 
ATOM     21  C   UNL A   1      32.913  21.907  23.312  1.00  0.00     0.101 C 
ATOM     22  C   UNL A   1      32.517  21.540  24.707  1.00  0.00     0.223 C 
ATOM     23  O   UNL A   1      31.429  21.019  24.931  1.00  0.00    -0.275 OA
BRANCH  11  24
ATOM     24  C   UNL A   1      31.698  29.006  23.557  1.00  0.00     0.135 C 
BRANCH  24  25
ATOM     25  C   UNL A   1      31.952  28.992  25.043  1.00  0.00    -0.038 A 
ATOM     26  C   UNL A   1      34.796  30.021  27.374  1.00  0.00     0.044 C 
ATOM     27  C   UNL A   1      33.509  29.433  26.872  1.00  0.00    -0.051 A 
ATOM     28  C   UNL A   1      32.758  28.583  27.692  1.00  0.00     0.003 A 
ATOM     29  C   UNL A   1      33.082  29.658  25.558  1.00  0.00     0.007 A 
ATOM     30  C   UNL A   1      31.593  27.978  27.213  1.00  0.00     0.001 A 
ATOM     31  C   UNL A   1      31.179  28.191  25.897  1.00  0.00     0.004 A 
ENDBRANCH  24  25
ENDBRANCH  11  24
ENDBRANCH   8  10
ENDBRANCH   6   8
ENDBRANCH   5   6
ENDBRANCH   4   5
ENDBRANCH   3   4
ENDBRANCH   2   3
ENDBRANCH   1   2
BRANCH   1  32
ATOM     32  C   UNL A   1      42.686  21.653  26.773  1.00  0.00     0.188 C 
BRANCH  32  33
ATOM     33  O   UNL A   1      42.892  21.700  25.374  1.00  0.00    -0.376 OA
BRANCH  33  34
ATOM     34  C   UNL A   1      44.263  21.615  24.994  1.00  0.00     0.202 C 
BRANCH  34  35
ATOM     35  C   UNL A   1      44.756  22.578  23.889  1.00  0.00     0.261 C 
BRANCH  35  36
ATOM     36  O   UNL A   1      44.797  23.943  24.349  1.00  0.00    -0.460 OA
BRANCH  36  37
ATOM     37  C   UNL A   1      46.036  24.401  24.691  1.00  0.00     0.338 C 
ATOM     38  O   UNL A   1      47.055  24.182  24.048  1.00  0.00    -0.246 OA
BRANCH  37  39
ATOM     39  C   UNL A   1      45.971  24.929  26.077  1.00  0.00     0.060 A 
ATOM     40  C   UNL A   1      46.099  26.305  26.297  1.00  0.00     0.016 A 
ATOM     41  C   UNL A   1      46.262  24.035  27.093  1.00  0.00     0.016 A 
ATOM     42  C   UNL A   1      46.801  26.760  27.417  1.00  0.00     0.010 A 
ATOM     43  C   UNL A   1      47.089  24.480  28.092  1.00  0.00     0.010 A 
ATOM     44  C   UNL A   1      47.407  25.833  28.260  1.00  0.00    -0.014 A 
BRANCH  44  45
ATOM     45  C   UNL A   1      48.349  26.136  29.379  1.00  0.00     0.031 A 
ATOM     46  C   UNL A   1      50.021  26.232  28.703  1.00  0.00     0.074 A 
ATOM     47  C   UNL A   1      47.775  26.381  30.709  1.00  0.00     0.049 A 
ATOM     48  N   UNL A   1      51.063  25.898  29.421  1.00  0.00    -0.248 NA
ATOM     49  C   UNL A   1      50.604  26.475  27.360  1.00  0.00     0.031 C 
ATOM     50  C   UNL A   1      48.205  27.299  31.913  1.00  0.00     0.029 A 
ATOM     51  N   UNL A   1      46.574  25.986  31.324  1.00  0.00    -0.354 N 
ATOM     52  C   UNL A   1      52.269  26.272  28.977  1.00  0.00     0.074 A 
ATOM     53  C   UNL A   1      51.952  26.471  27.576  1.00  0.00     0.031 C 
ATOM     54  C   UNL A   1      47.360  27.424  32.916  1.00  0.00     0.029 A 
ATOM     55  C   UNL A   1      46.537  26.315  32.702  1.00  0.00     0.049 A 
ATOM     56  H   UNL A   1      45.840  25.533  30.850  1.00  0.00     0.167 HD
ATOM     57  C   UNL A   1      53.305  26.384  29.886  1.00  0.00     0.034 A 
ATOM     58  C   UNL A   1      46.386  25.483  33.756  1.00  0.00     0.034 A 
ATOM     59  C   UNL A   1      52.917  26.475  31.385  1.00  0.00     0.049 A 
ATOM     60  C   UNL A   1      47.741  25.142  34.468  1.00  0.00     0.074 A 
ATOM     61  C   UNL A   1      52.729  27.573  32.225  1.00  0.00     0.029 A 
ATOM     62  N   UNL A   1      52.579  25.384  32.236  1.00  0.00    -0.354 N 
ATOM     63  N   UNL A   1      48.925  25.717  34.258  1.00  0.00    -0.248 NA
ATOM     64  C   UNL A   1      47.839  24.141  35.528  1.00  0.00     0.031 C 
ATOM     65  C   UNL A   1      52.069  27.161  33.437  1.00  0.00     0.029 A 
ATOM     66  C   UNL A   1      51.902  25.785  33.429  1.00  0.00     0.049 A 
ATOM     67  H   UNL A   1      52.790  24.446  32.022  1.00  0.00     0.167 HD
ATOM     68  C   UNL A   1      49.936  24.931  34.818  1.00  0.00     0.074 A 
ATOM     69  C   UNL A   1      49.163  24.113  35.763  1.00  0.00     0.031 C 
ATOM     70  C   UNL A   1      51.274  24.814  34.403  1.00  0.00     0.034 A 
BRANCH  57  71
ATOM     71  C   UNL A   1      54.712  26.704  29.403  1.00  0.00     0.023 A 
ATOM     72  C   UNL A   1      55.064  28.040  29.125  1.00  0.00     0.012 A 
ATOM     73  C   UNL A   1      55.735  25.735  29.244  1.00  0.00     0.148 A 
ATOM     74  C   UNL A   1      56.334  28.391  28.643  1.00  0.00     0.002 A 
ATOM     75  C   UNL A   1      56.988  26.078  28.730  1.00  0.00     0.091 A 
ATOM     76  F   UNL A   1      55.499  24.472  29.616  1.00  0.00    -0.205 F 
ATOM     77  C   UNL A   1      57.291  27.408  28.425  1.00  0.00     0.022 A 
BRANCH  75  78
ATOM     78  S   UNL A   1      58.255  24.850  28.355  1.00  0.00     0.127 S 
ATOM     79  O   UNL A   1      58.561  24.322  29.686  1.00  0.00    -0.237 OA
ATOM     80  O   UNL A   1      57.549  23.919  27.478  1.00  0.00    -0.237 OA
ATOM     81  O   UNL A   1      59.353  25.578  27.733  1.00  0.00    -0.744 OA
ENDBRANCH  75  78
ENDBRANCH  57  71
BRANCH  58  82
ATOM     82  C   UNL A   1      45.024  24.900  33.574  1.00  0.00     0.023 A 
ATOM     83  C   UNL A   1      45.060  23.459  33.582  1.00  0.00     0.012 A 
ATOM     84  C   UNL A   1      43.943  25.532  34.199  1.00  0.00     0.148 A 
ATOM     85  C   UNL A   1      44.249  22.725  34.454  1.00  0.00     0.002 A 
ATOM     86  C   UNL A   1      43.100  24.777  35.025  1.00  0.00     0.091 A 
ATOM     87  F   UNL A   1      43.880  26.869  34.153  1.00  0.00    -0.205 F 
ATOM     88  C   UNL A   1      43.294  23.393  35.205  1.00  0.00     0.022 A 
BRANCH  86  89
ATOM     89  S   UNL A   1      41.882  25.587  36.067  1.00  0.00     0.127 S 
ATOM     90  O   UNL A   1      41.083  26.302  35.080  1.00  0.00    -0.237 OA
ATOM     91  O   UNL A   1      41.211  24.459  36.709  1.00  0.00    -0.237 OA
ATOM     92  O   UNL A   1      42.674  26.394  36.986  1.00  0.00    -0.744 OA
ENDBRANCH  86  89
ENDBRANCH  58  82
BRANCH  70  93
ATOM     93  C   UNL A   1      52.119  23.624  34.908  1.00  0.00     0.023 A 
ATOM     94  C   UNL A   1      52.833  23.692  36.129  1.00  0.00     0.012 A 
ATOM     95  C   UNL A   1      52.180  22.387  34.222  1.00  0.00     0.148 A 
ATOM     96  C   UNL A   1      53.729  22.700  36.539  1.00  0.00     0.002 A 
ATOM     97  C   UNL A   1      52.986  21.345  34.700  1.00  0.00     0.091 A 
ATOM     98  F   UNL A   1      51.493  22.230  33.083  1.00  0.00    -0.205 F 
ATOM     99  C   UNL A   1      53.809  21.524  35.818  1.00  0.00     0.022 A 
BRANCH  97 100
ATOM    100  S   UNL A   1      52.969  19.692  33.987  1.00  0.00     0.127 S 
ATOM    101  O   UNL A   1      53.548  19.929  32.665  1.00  0.00    -0.237 OA
ATOM    102  O   UNL A   1      53.843  18.950  34.901  1.00  0.00    -0.237 OA
ATOM    103  O   UNL A   1      51.578  19.264  34.001  1.00  0.00    -0.744 OA
ENDBRANCH  97 100
ENDBRANCH  70  93
ENDBRANCH  44  45
ENDBRANCH  37  39
ENDBRANCH  36  37
ENDBRANCH  35  36
ENDBRANCH  34  35
ENDBRANCH  33  34
ENDBRANCH  32  33
ENDBRANCH   1  32
TORSDOF 23
ENDMDL
MODEL 3
REMARK VINA RESULT:     -10.8      2.314      3.134
REMARK SMILES Cc1cccc(CC(=O)N2CCC3(CCC(=O)N([C@H](C)C(=O)OCCOCCOCCOC(=O)c4ccc(-c5c6nc(c(-c7cccc(S(=O)(=O)[O-])c7F)c7ccc([nH]7)c(-c7cccc(S(=O)(=O)[O-])c7F)c7nc(c(-c8cccc(S(=O)(=O)[O-])c8F)c8ccc5[nH]8)C=C7)C=C6)cc4)C3)CC2)c1
REMARK SMILES IDX 27 1 26 2 25 3 24 4 23 5 21 6 22 7 19 8 20 9 18 10 8 11 9 12
REMARK SMILES IDX 10 13 11 14 100 15 12 16 99 17 13 18 14 19 98 20 15 21 16 22
REMARK SMILES IDX 17 23 7 24 6 25 1 26 2 27 3 28 101 29 4 30 5 31 28 32 29 33
REMARK SMILES IDX 30 34 31 35 32 36 33 37 34 38 35 39 36 40 97 41 37 42 96 43
REMARK SMILES IDX 38 44 39 45 40 46 90 47 41 48 95 49 89 50 91 51 42 52 94 53
REMARK SMILES IDX 88 54 87 55 43 57 75 58 55 59 74 60 56 61 59 62 73 63 92 64
REMARK SMILES IDX 57 65 58 66 72 68 93 69 60 70 44 71 45 72 53 73 46 74 48 75
REMARK SMILES IDX 54 76 47 77 49 78 50 79 51 80 52 81 76 82 77 83 85 84 78 85
REMARK SMILES IDX 80 86 86 87 79 88 81 89 82 90 83 91 84 92 61 93 62 94 70 95
REMARK SMILES IDX 63 96 65 97 71 98 64 99 66 100 67 101 68 102 69 103
REMARK H PARENT 91 56 59 67
REMARK Flexibility Score: inf
ROOT
ATOM      1  C   UNL A   1      40.792  22.161  28.229  1.00  0.00     0.188 C 
ENDROOT
BRANCH   1   2
ATOM      2  O   UNL A   1      40.050  23.344  27.814  1.00  0.00    -0.376 OA
BRANCH   2   3
ATOM      3  C   UNL A   1      39.565  23.570  26.437  1.00  0.00     0.202 C 
BRANCH   3   4
ATOM      4  C   UNL A   1      38.225  22.817  25.506  1.00  0.00     0.261 C 
BRANCH   4   5
ATOM      5  O   UNL A   1      36.609  22.251  26.119  1.00  0.00    -0.462 OA
BRANCH   5   6
ATOM      6  C   UNL A   1      35.302  21.590  26.036  1.00  0.00     0.328 C 
ATOM      7  O   UNL A   1      35.259  20.400  25.680  1.00  0.00    -0.250 OA
BRANCH   6   8
ATOM      8  C   UNL A   1      33.710  22.098  26.311  1.00  0.00     0.192 C 
ATOM      9  C   UNL A   1      32.890  22.839  27.390  1.00  0.00     0.044 C 
BRANCH   8  10
ATOM     10  N   UNL A   1      32.979  22.340  25.037  1.00  0.00    -0.329 N 
ATOM     11  C   UNL A   1      31.426  28.355  22.749  1.00  0.00     0.226 C 
ATOM     12  O   UNL A   1      32.135  29.362  22.871  1.00  0.00    -0.275 OA
ATOM     13  N   UNL A   1      31.990  27.096  22.669  1.00  0.00    -0.342 N 
ATOM     14  C   UNL A   1      33.292  26.837  23.283  1.00  0.00     0.120 C 
ATOM     15  C   UNL A   1      31.393  25.924  22.049  1.00  0.00     0.120 C 
ATOM     16  C   UNL A   1      33.170  25.685  24.304  1.00  0.00     0.030 C 
ATOM     17  C   UNL A   1      31.099  24.899  23.121  1.00  0.00     0.030 C 
ATOM     18  C   UNL A   1      32.430  24.432  23.744  1.00  0.00    -0.008 C 
ATOM     19  C   UNL A   1      33.262  23.783  22.584  1.00  0.00     0.019 C 
ATOM     20  C   UNL A   1      32.053  23.436  24.895  1.00  0.00     0.127 C 
ATOM     21  C   UNL A   1      34.253  22.752  23.048  1.00  0.00     0.101 C 
ATOM     22  C   UNL A   1      33.399  21.812  23.838  1.00  0.00     0.223 C 
ATOM     23  O   UNL A   1      32.767  20.921  23.279  1.00  0.00    -0.275 OA
BRANCH  11  24
ATOM     24  C   UNL A   1      29.912  28.502  22.939  1.00  0.00     0.135 C 
BRANCH  24  25
ATOM     25  C   UNL A   1      29.296  29.875  22.847  1.00  0.00    -0.038 A 
ATOM     26  C   UNL A   1      27.983  32.139  20.067  1.00  0.00     0.044 C 
ATOM     27  C   UNL A   1      28.427  31.653  21.416  1.00  0.00    -0.051 A 
ATOM     28  C   UNL A   1      28.608  32.561  22.465  1.00  0.00     0.003 A 
ATOM     29  C   UNL A   1      28.744  30.305  21.624  1.00  0.00     0.007 A 
ATOM     30  C   UNL A   1      29.084  32.130  23.706  1.00  0.00     0.001 A 
ATOM     31  C   UNL A   1      29.414  30.788  23.906  1.00  0.00     0.004 A 
ENDBRANCH  24  25
ENDBRANCH  11  24
ENDBRANCH   8  10
ENDBRANCH   6   8
ENDBRANCH   5   6
ENDBRANCH   4   5
ENDBRANCH   3   4
ENDBRANCH   2   3
ENDBRANCH   1   2
BRANCH   1  32
ATOM     32  C   UNL A   1      42.071  21.623  27.580  1.00  0.00     0.188 C 
BRANCH  32  33
ATOM     33  O   UNL A   1      41.919  21.392  26.192  1.00  0.00    -0.376 OA
BRANCH  33  34
ATOM     34  C   UNL A   1      42.943  21.982  25.397  1.00  0.00     0.202 C 
BRANCH  34  35
ATOM     35  C   UNL A   1      42.989  23.526  25.326  1.00  0.00     0.261 C 
BRANCH  35  36
ATOM     36  O   UNL A   1      44.274  24.042  25.723  1.00  0.00    -0.460 OA
BRANCH  36  37
ATOM     37  C   UNL A   1      44.469  24.137  27.070  1.00  0.00     0.338 C 
ATOM     38  O   UNL A   1      45.144  23.355  27.727  1.00  0.00    -0.246 OA
BRANCH  37  39
ATOM     39  C   UNL A   1      43.512  25.137  27.610  1.00  0.00     0.060 A 
ATOM     40  C   UNL A   1      43.095  26.198  26.800  1.00  0.00     0.016 A 
ATOM     41  C   UNL A   1      43.452  25.250  28.988  1.00  0.00     0.016 A 
ATOM     42  C   UNL A   1      42.909  27.463  27.365  1.00  0.00     0.010 A 
ATOM     43  C   UNL A   1      43.432  26.521  29.504  1.00  0.00     0.010 A 
ATOM     44  C   UNL A   1      43.199  27.652  28.714  1.00  0.00    -0.014 A 
BRANCH  44  45
ATOM     45  C   UNL A   1      43.247  28.959  29.434  1.00  0.00     0.031 A 
ATOM     46  C   UNL A   1      41.587  29.338  30.036  1.00  0.00     0.074 A 
ATOM     47  C   UNL A   1      44.558  29.603  29.597  1.00  0.00     0.049 A 
ATOM     48  N   UNL A   1      41.175  30.573  30.158  1.00  0.00    -0.248 NA
ATOM     49  C   UNL A   1      40.365  28.547  30.331  1.00  0.00     0.031 C 
ATOM     50  C   UNL A   1      45.177  30.513  30.723  1.00  0.00     0.029 A 
ATOM     51  N   UNL A   1      45.761  29.526  28.874  1.00  0.00    -0.354 N 
ATOM     52  C   UNL A   1      40.069  30.792  30.881  1.00  0.00     0.074 A 
ATOM     53  C   UNL A   1      39.482  29.468  30.816  1.00  0.00     0.031 C 
ATOM     54  C   UNL A   1      46.463  30.785  30.645  1.00  0.00     0.029 A 
ATOM     55  C   UNL A   1      46.715  30.483  29.305  1.00  0.00     0.049 A 
ATOM     56  H   UNL A   1      45.924  28.880  28.149  1.00  0.00     0.167 HD
ATOM     57  C   UNL A   1      39.876  32.044  31.434  1.00  0.00     0.034 A 
ATOM     58  C   UNL A   1      47.304  31.460  28.581  1.00  0.00     0.034 A 
ATOM     59  C   UNL A   1      41.118  32.967  31.535  1.00  0.00     0.049 A 
ATOM     60  C   UNL A   1      46.650  32.868  28.804  1.00  0.00     0.074 A 
ATOM     61  C   UNL A   1      42.017  33.197  32.577  1.00  0.00     0.029 A 
ATOM     62  N   UNL A   1      41.667  33.757  30.485  1.00  0.00    -0.354 N 
ATOM     63  N   UNL A   1      45.751  33.197  29.730  1.00  0.00    -0.248 NA
ATOM     64  C   UNL A   1      47.020  34.037  28.010  1.00  0.00     0.031 C 
ATOM     65  C   UNL A   1      43.178  33.892  32.085  1.00  0.00     0.029 A 
ATOM     66  C   UNL A   1      43.004  34.191  30.743  1.00  0.00     0.049 A 
ATOM     67  H   UNL A   1      41.175  33.981  29.662  1.00  0.00     0.167 HD
ATOM     68  C   UNL A   1      45.167  34.425  29.404  1.00  0.00     0.074 A 
ATOM     69  C   UNL A   1      46.161  34.966  28.467  1.00  0.00     0.031 C 
ATOM     70  C   UNL A   1      43.874  34.881  29.716  1.00  0.00     0.034 A 
BRANCH  57  71
ATOM     71  C   UNL A   1      38.584  32.360  32.172  1.00  0.00     0.023 A 
ATOM     72  C   UNL A   1      38.565  32.342  33.582  1.00  0.00     0.012 A 
ATOM     73  C   UNL A   1      37.371  32.718  31.530  1.00  0.00     0.148 A 
ATOM     74  C   UNL A   1      37.396  32.589  34.315  1.00  0.00     0.002 A 
ATOM     75  C   UNL A   1      36.196  32.928  32.258  1.00  0.00     0.091 A 
ATOM     76  F   UNL A   1      37.360  32.877  30.202  1.00  0.00    -0.205 F 
ATOM     77  C   UNL A   1      36.205  32.862  33.654  1.00  0.00     0.022 A 
BRANCH  75  78
ATOM     78  S   UNL A   1      34.602  33.218  31.468  1.00  0.00     0.127 S 
ATOM     79  O   UNL A   1      34.651  32.280  30.344  1.00  0.00    -0.237 OA
ATOM     80  O   UNL A   1      33.652  32.858  32.519  1.00  0.00    -0.237 OA
ATOM     81  O   UNL A   1      34.593  34.622  31.076  1.00  0.00    -0.744 OA
ENDBRANCH  75  78
ENDBRANCH  57  71
BRANCH  58  82
ATOM     82  C   UNL A   1      48.094  30.729  27.548  1.00  0.00     0.023 A 
ATOM     83  C   UNL A   1      49.180  29.988  28.138  1.00  0.00     0.012 A 
ATOM     84  C   UNL A   1      47.407  30.143  26.478  1.00  0.00     0.148 A 
ATOM     85  C   UNL A   1      49.334  28.619  27.894  1.00  0.00     0.002 A 
ATOM     86  C   UNL A   1      47.610  28.785  26.203  1.00  0.00     0.091 A 
ATOM     87  F   UNL A   1      46.428  30.848  25.895  1.00  0.00    -0.205 F 
ATOM     88  C   UNL A   1      48.518  28.010  26.952  1.00  0.00     0.022 A 
BRANCH  86  89
ATOM     89  S   UNL A   1      46.550  27.924  25.037  1.00  0.00     0.127 S 
ATOM     90  O   UNL A   1      46.709  26.540  25.464  1.00  0.00    -0.237 OA
ATOM     91  O   UNL A   1      45.238  28.509  25.307  1.00  0.00    -0.237 OA
ATOM     92  O   UNL A   1      47.088  28.279  23.730  1.00  0.00    -0.744 OA
ENDBRANCH  86  89
ENDBRANCH  58  82
BRANCH  70  93
ATOM     93  C   UNL A   1      43.296  36.090  28.950  1.00  0.00     0.023 A 
ATOM     94  C   UNL A   1      42.474  35.917  27.810  1.00  0.00     0.012 A 
ATOM     95  C   UNL A   1      43.497  37.427  29.370  1.00  0.00     0.148 A 
ATOM     96  C   UNL A   1      42.063  36.981  27.002  1.00  0.00     0.002 A 
ATOM     97  C   UNL A   1      42.981  38.496  28.625  1.00  0.00     0.091 A 
ATOM     98  F   UNL A   1      44.225  37.670  30.468  1.00  0.00    -0.205 F 
ATOM     99  C   UNL A   1      42.322  38.276  27.410  1.00  0.00     0.022 A 
BRANCH  97 100
ATOM    100  S   UNL A   1      43.038  40.202  29.196  1.00  0.00     0.127 S 
ATOM    101  O   UNL A   1      42.604  40.068  30.586  1.00  0.00    -0.237 OA
ATOM    102  O   UNL A   1      44.457  40.534  29.040  1.00  0.00    -0.237 OA
ATOM    103  O   UNL A   1      42.144  40.947  28.323  1.00  0.00    -0.744 OA
ENDBRANCH  97 100
ENDBRANCH  70  93
ENDBRANCH  44  45
ENDBRANCH  37  39
ENDBRANCH  36  37
ENDBRANCH  35  36
ENDBRANCH  34  35
ENDBRANCH  33  34
ENDBRANCH  32  33
ENDBRANCH   1  32
TORSDOF 23
ENDMDL
