MODEL 1
REMARK VINA RESULT:     -11.3      0.000      0.000
REMARK SMILES CCc1ccc(S(=O)(=O)c2nnn(-c3ccc(C(=O)OCCOCCOCCOC(=O)c4ccc(-c5c6nc(c(-c7cccc(S(=O)(=O)[O-])c7F)c7ccc([nH]7)c(-c7cccc(S(=O)(=O)[O-])c7F)c7nc(c(-c8cccc(S(=O)(=O)[O-])c8F)c8ccc5[nH]8)C=C7)C=C6)cc4)cc3)c2C)cc1
REMARK SMILES IDX 24 1 23 2 22 3 21 4 20 5 18 6 19 7 17 8 14 9 15 10 96 11
REMARK SMILES IDX 16 12 95 13 13 14 10 15 11 16 97 17 12 18 98 19 7 20 8 21
REMARK SMILES IDX 9 22 6 23 3 24 4 25 100 26 5 27 99 28 2 29 1 30 25 31 26 32
REMARK SMILES IDX 27 33 28 34 29 35 30 36 31 37 32 38 33 39 94 40 34 41 93 42
REMARK SMILES IDX 35 43 36 44 37 45 87 46 38 47 92 48 86 49 88 50 39 51 91 52
REMARK SMILES IDX 85 53 84 54 40 56 72 57 52 58 71 59 53 60 56 61 70 62 89 63
REMARK SMILES IDX 54 64 55 65 69 67 90 68 57 69 41 70 42 71 50 72 43 73 45 74
REMARK SMILES IDX 51 75 44 76 46 77 47 78 48 79 49 80 73 81 74 82 82 83 75 84
REMARK SMILES IDX 77 85 83 86 76 87 78 88 79 89 80 90 81 91 58 92 59 93 67 94
REMARK SMILES IDX 60 95 62 96 68 97 61 98 63 99 64 100 65 101 66 102
REMARK H PARENT 88 55 56 66
REMARK Flexibility Score: inf
ROOT
ATOM      1  C   UNL A   1      36.704  23.265  25.907  1.00  0.00     0.188 C 
ENDROOT
BRANCH   1   2
ATOM      2  O   UNL A   1      35.525  22.499  25.795  1.00  0.00    -0.376 OA
BRANCH   2   3
ATOM      3  C   UNL A   1      35.547  21.085  25.804  1.00  0.00     0.202 C 
BRANCH   3   4
ATOM      4  C   UNL A   1      34.947  20.188  24.705  1.00  0.00     0.261 C 
BRANCH   4   5
ATOM      5  O   UNL A   1      33.650  19.646  24.956  1.00  0.00    -0.460 OA
BRANCH   5   6
ATOM      6  C   UNL A   1      32.694  19.977  24.060  1.00  0.00     0.338 C 
ATOM      7  O   UNL A   1      32.263  19.286  23.148  1.00  0.00    -0.246 OA
BRANCH   6   8
ATOM      8  C   UNL A   1      32.109  21.285  24.413  1.00  0.00     0.060 A 
ATOM      9  C   UNL A   1      31.327  23.856  25.074  1.00  0.00     0.067 A 
ATOM     10  C   UNL A   1      31.623  23.567  23.740  1.00  0.00     0.029 A 
ATOM     11  C   UNL A   1      31.253  22.837  26.036  1.00  0.00     0.029 A 
ATOM     12  C   UNL A   1      32.050  22.278  23.421  1.00  0.00     0.018 A 
ATOM     13  C   UNL A   1      31.639  21.542  25.703  1.00  0.00     0.018 A 
BRANCH   9  14
ATOM     14  N   UNL A   1      31.334  25.201  25.499  1.00  0.00    -0.216 N 
ATOM     15  C   UNL A   1      31.564  27.365  25.574  1.00  0.00     0.205 A 
ATOM     16  N   UNL A   1      30.739  26.977  26.594  1.00  0.00    -0.117 NA
ATOM     17  C   UNL A   1      31.894  26.264  24.804  1.00  0.00     0.081 A 
ATOM     18  N   UNL A   1      30.535  25.670  26.482  1.00  0.00    -0.061 NA
ATOM     19  C   UNL A   1      32.512  26.152  23.458  1.00  0.00     0.070 C 
BRANCH  15  20
ATOM     20  S   UNL A   1      31.955  29.016  25.261  1.00  0.00     0.227 S 
ATOM     21  O   UNL A   1      33.166  28.943  24.464  1.00  0.00    -0.217 OA
ATOM     22  O   UNL A   1      31.908  29.698  26.536  1.00  0.00    -0.217 OA
BRANCH  20  23
ATOM     23  C   UNL A   1      30.691  29.714  24.228  1.00  0.00     0.073 A 
ATOM     24  C   UNL A   1      28.731  30.955  22.651  1.00  0.00    -0.048 A 
ATOM     25  C   UNL A   1      29.140  31.533  23.860  1.00  0.00     0.005 A 
ATOM     26  C   UNL A   1      29.316  29.747  22.243  1.00  0.00     0.005 A 
ATOM     27  C   UNL A   1      30.124  30.923  24.642  1.00  0.00     0.021 A 
ATOM     28  C   UNL A   1      30.286  29.118  23.032  1.00  0.00     0.021 A 
BRANCH  24  29
ATOM     29  C   UNL A   1      27.643  31.594  21.822  1.00  0.00     0.032 C 
ATOM     30  C   UNL A   1      28.093  31.952  20.413  1.00  0.00     0.009 C 
ENDBRANCH  24  29
ENDBRANCH  20  23
ENDBRANCH  15  20
ENDBRANCH   9  14
ENDBRANCH   6   8
ENDBRANCH   5   6
ENDBRANCH   4   5
ENDBRANCH   3   4
ENDBRANCH   2   3
ENDBRANCH   1   2
BRANCH   1  31
ATOM     31  C   UNL A   1      38.085  22.662  25.568  1.00  0.00     0.188 C 
BRANCH  31  32
ATOM     32  O   UNL A   1      38.988  22.307  26.594  1.00  0.00    -0.376 OA
BRANCH  32  33
ATOM     33  C   UNL A   1      40.041  21.374  26.420  1.00  0.00     0.202 C 
BRANCH  33  34
ATOM     34  C   UNL A   1      41.521  21.703  26.240  1.00  0.00     0.261 C 
BRANCH  34  35
ATOM     35  O   UNL A   1      41.802  22.975  25.707  1.00  0.00    -0.460 OA
BRANCH  35  36
ATOM     36  C   UNL A   1      42.732  23.650  26.414  1.00  0.00     0.338 C 
ATOM     37  O   UNL A   1      43.941  23.618  26.260  1.00  0.00    -0.246 OA
BRANCH  36  38
ATOM     38  C   UNL A   1      42.062  24.415  27.462  1.00  0.00     0.060 A 
ATOM     39  C   UNL A   1      40.892  25.074  27.085  1.00  0.00     0.016 A 
ATOM     40  C   UNL A   1      42.775  24.730  28.627  1.00  0.00     0.016 A 
ATOM     41  C   UNL A   1      40.599  26.250  27.725  1.00  0.00     0.010 A 
ATOM     42  C   UNL A   1      42.479  25.906  29.264  1.00  0.00     0.010 A 
ATOM     43  C   UNL A   1      41.477  26.699  28.719  1.00  0.00    -0.014 A 
BRANCH  43  44
ATOM     44  C   UNL A   1      41.319  28.058  29.172  1.00  0.00     0.031 A 
ATOM     45  C   UNL A   1      42.286  28.977  28.548  1.00  0.00     0.074 A 
ATOM     46  C   UNL A   1      40.360  28.408  30.047  1.00  0.00     0.049 A 
ATOM     47  N   UNL A   1      43.316  29.519  29.104  1.00  0.00    -0.248 NA
ATOM     48  C   UNL A   1      42.220  29.142  27.090  1.00  0.00     0.031 C 
ATOM     49  C   UNL A   1      39.207  27.623  30.506  1.00  0.00     0.029 A 
ATOM     50  N   UNL A   1      40.146  29.621  30.615  1.00  0.00    -0.354 N 
ATOM     51  C   UNL A   1      43.884  30.306  28.111  1.00  0.00     0.074 A 
ATOM     52  C   UNL A   1      43.317  29.865  26.864  1.00  0.00     0.031 C 
ATOM     53  C   UNL A   1      38.293  28.462  31.049  1.00  0.00     0.029 A 
ATOM     54  C   UNL A   1      38.859  29.799  31.104  1.00  0.00     0.049 A 
ATOM     55  H   UNL A   1      40.844  30.313  30.677  1.00  0.00     0.167 HD
ATOM     56  C   UNL A   1      44.551  31.448  28.424  1.00  0.00     0.034 A 
ATOM     57  C   UNL A   1      38.292  30.989  31.424  1.00  0.00     0.034 A 
ATOM     58  C   UNL A   1      44.913  31.489  29.817  1.00  0.00     0.049 A 
ATOM     59  C   UNL A   1      39.397  31.955  31.642  1.00  0.00     0.074 A 
ATOM     60  C   UNL A   1      45.673  30.693  30.651  1.00  0.00     0.029 A 
ATOM     61  N   UNL A   1      44.127  32.260  30.640  1.00  0.00    -0.354 N 
ATOM     62  N   UNL A   1      40.246  31.860  32.626  1.00  0.00    -0.248 NA
ATOM     63  C   UNL A   1      39.837  32.753  30.508  1.00  0.00     0.031 C 
ATOM     64  C   UNL A   1      44.972  30.687  31.891  1.00  0.00     0.029 A 
ATOM     65  C   UNL A   1      43.862  31.526  31.765  1.00  0.00     0.049 A 
ATOM     66  H   UNL A   1      43.812  33.174  30.454  1.00  0.00     0.167 HD
ATOM     67  C   UNL A   1      41.472  32.178  32.053  1.00  0.00     0.074 A 
ATOM     68  C   UNL A   1      41.144  32.817  30.781  1.00  0.00     0.031 C 
ATOM     69  C   UNL A   1      42.632  31.630  32.520  1.00  0.00     0.034 A 
BRANCH  56  70
ATOM     70  C   UNL A   1      44.517  32.694  27.579  1.00  0.00     0.023 A 
ATOM     71  C   UNL A   1      45.429  32.769  26.504  1.00  0.00     0.012 A 
ATOM     72  C   UNL A   1      43.856  33.889  27.948  1.00  0.00     0.148 A 
ATOM     73  C   UNL A   1      45.703  33.981  25.865  1.00  0.00     0.002 A 
ATOM     74  C   UNL A   1      44.069  35.072  27.254  1.00  0.00     0.091 A 
ATOM     75  F   UNL A   1      43.121  33.935  29.062  1.00  0.00    -0.205 F 
ATOM     76  C   UNL A   1      45.016  35.132  26.233  1.00  0.00     0.022 A 
BRANCH  74  77
ATOM     77  S   UNL A   1      43.171  36.573  27.668  1.00  0.00     0.127 S 
ATOM     78  O   UNL A   1      43.452  36.693  29.096  1.00  0.00    -0.237 OA
ATOM     79  O   UNL A   1      43.836  37.560  26.818  1.00  0.00    -0.237 OA
ATOM     80  O   UNL A   1      41.785  36.312  27.303  1.00  0.00    -0.744 OA
ENDBRANCH  74  77
ENDBRANCH  56  70
BRANCH  57  81
ATOM     81  C   UNL A   1      36.893  31.435  31.223  1.00  0.00     0.023 A 
ATOM     82  C   UNL A   1      36.149  31.912  32.320  1.00  0.00     0.012 A 
ATOM     83  C   UNL A   1      36.390  31.670  29.924  1.00  0.00     0.148 A 
ATOM     84  C   UNL A   1      34.960  32.627  32.129  1.00  0.00     0.002 A 
ATOM     85  C   UNL A   1      35.206  32.377  29.738  1.00  0.00     0.091 A 
ATOM     86  F   UNL A   1      37.120  31.282  28.870  1.00  0.00    -0.205 F 
ATOM     87  C   UNL A   1      34.493  32.868  30.839  1.00  0.00     0.022 A 
BRANCH  85  88
ATOM     88  S   UNL A   1      34.558  32.754  28.103  1.00  0.00     0.127 S 
ATOM     89  O   UNL A   1      34.547  31.434  27.472  1.00  0.00    -0.237 OA
ATOM     90  O   UNL A   1      33.238  33.293  28.419  1.00  0.00    -0.237 OA
ATOM     91  O   UNL A   1      35.497  33.696  27.508  1.00  0.00    -0.744 OA
ENDBRANCH  85  88
ENDBRANCH  57  81
BRANCH  69  92
ATOM     92  C   UNL A   1      42.581  30.858  33.814  1.00  0.00     0.023 A 
ATOM     93  C   UNL A   1      42.610  31.488  35.077  1.00  0.00     0.012 A 
ATOM     94  C   UNL A   1      42.314  29.481  33.750  1.00  0.00     0.148 A 
ATOM     95  C   UNL A   1      42.397  30.756  36.248  1.00  0.00     0.002 A 
ATOM     96  C   UNL A   1      42.058  28.765  34.911  1.00  0.00     0.091 A 
ATOM     97  F   UNL A   1      42.283  28.900  32.541  1.00  0.00    -0.205 F 
ATOM     98  C   UNL A   1      42.106  29.396  36.164  1.00  0.00     0.022 A 
BRANCH  96  99
ATOM     99  S   UNL A   1      41.554  27.044  34.857  1.00  0.00     0.127 S 
ATOM    100  O   UNL A   1      40.427  27.086  33.927  1.00  0.00    -0.237 OA
ATOM    101  O   UNL A   1      42.752  26.383  34.338  1.00  0.00    -0.237 OA
ATOM    102  O   UNL A   1      41.222  26.679  36.229  1.00  0.00    -0.744 OA
ENDBRANCH  96  99
ENDBRANCH  69  92
ENDBRANCH  43  44
ENDBRANCH  36  38
ENDBRANCH  35  36
ENDBRANCH  34  35
ENDBRANCH  33  34
ENDBRANCH  32  33
ENDBRANCH  31  32
ENDBRANCH   1  31
TORSDOF 24
ENDMDL
MODEL 2
REMARK VINA RESULT:     -11.1      2.040      2.879
REMARK SMILES CCc1ccc(S(=O)(=O)c2nnn(-c3ccc(C(=O)OCCOCCOCCOC(=O)c4ccc(-c5c6nc(c(-c7cccc(S(=O)(=O)[O-])c7F)c7ccc([nH]7)c(-c7cccc(S(=O)(=O)[O-])c7F)c7nc(c(-c8cccc(S(=O)(=O)[O-])c8F)c8ccc5[nH]8)C=C7)C=C6)cc4)cc3)c2C)cc1
REMARK SMILES IDX 24 1 23 2 22 3 21 4 20 5 18 6 19 7 17 8 14 9 15 10 96 11
REMARK SMILES IDX 16 12 95 13 13 14 10 15 11 16 97 17 12 18 98 19 7 20 8 21
REMARK SMILES IDX 9 22 6 23 3 24 4 25 100 26 5 27 99 28 2 29 1 30 25 31 26 32
REMARK SMILES IDX 27 33 28 34 29 35 30 36 31 37 32 38 33 39 94 40 34 41 93 42
REMARK SMILES IDX 35 43 36 44 37 45 87 46 38 47 92 48 86 49 88 50 39 51 91 52
REMARK SMILES IDX 85 53 84 54 40 56 72 57 52 58 71 59 53 60 56 61 70 62 89 63
REMARK SMILES IDX 54 64 55 65 69 67 90 68 57 69 41 70 42 71 50 72 43 73 45 74
REMARK SMILES IDX 51 75 44 76 46 77 47 78 48 79 49 80 73 81 74 82 82 83 75 84
REMARK SMILES IDX 77 85 83 86 76 87 78 88 79 89 80 90 81 91 58 92 59 93 67 94
REMARK SMILES IDX 60 95 62 96 68 97 61 98 63 99 64 100 65 101 66 102
REMARK H PARENT 88 55 56 66
REMARK Flexibility Score: inf
ROOT
ATOM      1  C   UNL A   1      36.635  23.796  25.846  1.00  0.00     0.188 C 
ENDROOT
BRANCH   1   2
ATOM      2  O   UNL A   1      35.450  23.038  25.745  1.00  0.00    -0.376 OA
BRANCH   2   3
ATOM      3  C   UNL A   1      35.404  21.670  26.098  1.00  0.00     0.202 C 
BRANCH   3   4
ATOM      4  C   UNL A   1      35.047  20.523  25.133  1.00  0.00     0.261 C 
BRANCH   4   5
ATOM      5  O   UNL A   1      33.784  19.888  25.328  1.00  0.00    -0.460 OA
BRANCH   5   6
ATOM      6  C   UNL A   1      32.943  19.920  24.272  1.00  0.00     0.338 C 
ATOM      7  O   UNL A   1      32.729  19.024  23.468  1.00  0.00    -0.246 OA
BRANCH   6   8
ATOM      8  C   UNL A   1      32.175  21.181  24.282  1.00  0.00     0.060 A 
ATOM      9  C   UNL A   1      31.029  23.699  24.243  1.00  0.00     0.067 A 
ATOM     10  C   UNL A   1      31.327  23.080  23.028  1.00  0.00     0.029 A 
ATOM     11  C   UNL A   1      31.139  23.003  25.456  1.00  0.00     0.029 A 
ATOM     12  C   UNL A   1      31.936  21.826  23.056  1.00  0.00     0.018 A 
ATOM     13  C   UNL A   1      31.708  21.733  25.477  1.00  0.00     0.018 A 
BRANCH   9  14
ATOM     14  N   UNL A   1      30.843  25.097  24.269  1.00  0.00    -0.216 N 
ATOM     15  C   UNL A   1      31.133  27.245  24.067  1.00  0.00     0.205 A 
ATOM     16  N   UNL A   1      29.796  26.997  24.218  1.00  0.00    -0.117 NA
ATOM     17  C   UNL A   1      31.821  26.046  24.011  1.00  0.00     0.081 A 
ATOM     18  N   UNL A   1      29.624  25.681  24.248  1.00  0.00    -0.061 NA
ATOM     19  C   UNL A   1      33.210  25.726  23.592  1.00  0.00     0.070 C 
BRANCH  15  20
ATOM     20  S   UNL A   1      31.771  28.830  23.825  1.00  0.00     0.227 S 
ATOM     21  O   UNL A   1      30.603  29.690  23.887  1.00  0.00    -0.217 OA
ATOM     22  O   UNL A   1      32.615  28.758  22.652  1.00  0.00    -0.217 OA
BRANCH  20  23
ATOM     23  C   UNL A   1      32.802  29.246  25.208  1.00  0.00     0.073 A 
ATOM     24  C   UNL A   1      34.307  29.957  27.466  1.00  0.00    -0.048 A 
ATOM     25  C   UNL A   1      33.120  30.637  27.161  1.00  0.00     0.005 A 
ATOM     26  C   UNL A   1      34.729  28.916  26.625  1.00  0.00     0.005 A 
ATOM     27  C   UNL A   1      32.363  30.279  26.044  1.00  0.00     0.021 A 
ATOM     28  C   UNL A   1      33.988  28.566  25.491  1.00  0.00     0.021 A 
BRANCH  24  29
ATOM     29  C   UNL A   1      35.145  30.365  28.654  1.00  0.00     0.032 C 
ATOM     30  C   UNL A   1      36.520  29.714  28.673  1.00  0.00     0.009 C 
ENDBRANCH  24  29
ENDBRANCH  20  23
ENDBRANCH  15  20
ENDBRANCH   9  14
ENDBRANCH   6   8
ENDBRANCH   5   6
ENDBRANCH   4   5
ENDBRANCH   3   4
ENDBRANCH   2   3
ENDBRANCH   1   2
BRANCH   1  31
ATOM     31  C   UNL A   1      38.012  23.173  25.527  1.00  0.00     0.188 C 
BRANCH  31  32
ATOM     32  O   UNL A   1      38.862  22.732  26.566  1.00  0.00    -0.376 OA
BRANCH  32  33
ATOM     33  C   UNL A   1      39.678  21.577  26.470  1.00  0.00     0.202 C 
BRANCH  33  34
ATOM     34  C   UNL A   1      41.190  21.553  26.258  1.00  0.00     0.261 C 
BRANCH  34  35
ATOM     35  O   UNL A   1      41.756  22.746  25.772  1.00  0.00    -0.460 OA
BRANCH  35  36
ATOM     36  C   UNL A   1      42.732  23.228  26.568  1.00  0.00     0.338 C 
ATOM     37  O   UNL A   1      43.905  22.893  26.583  1.00  0.00    -0.246 OA
BRANCH  36  38
ATOM     38  C   UNL A   1      42.154  24.212  27.478  1.00  0.00     0.060 A 
ATOM     39  C   UNL A   1      41.352  25.192  26.892  1.00  0.00     0.016 A 
ATOM     40  C   UNL A   1      42.691  24.337  28.767  1.00  0.00     0.016 A 
ATOM     41  C   UNL A   1      41.334  26.427  27.484  1.00  0.00     0.010 A 
ATOM     42  C   UNL A   1      42.671  25.573  29.356  1.00  0.00     0.010 A 
ATOM     43  C   UNL A   1      42.099  26.618  28.641  1.00  0.00    -0.014 A 
BRANCH  43  44
ATOM     44  C   UNL A   1      42.301  27.975  29.080  1.00  0.00     0.031 A 
ATOM     45  C   UNL A   1      43.528  28.573  28.527  1.00  0.00     0.074 A 
ATOM     46  C   UNL A   1      41.421  28.599  29.884  1.00  0.00     0.049 A 
ATOM     47  N   UNL A   1      44.629  28.814  29.155  1.00  0.00    -0.248 NA
ATOM     48  C   UNL A   1      43.611  28.719  27.067  1.00  0.00     0.031 C 
ATOM     49  C   UNL A   1      40.066  28.180  30.260  1.00  0.00     0.029 A 
ATOM     50  N   UNL A   1      41.520  29.835  30.435  1.00  0.00    -0.354 N 
ATOM     51  C   UNL A   1      45.462  29.389  28.205  1.00  0.00     0.074 A 
ATOM     52  C   UNL A   1      44.881  29.100  26.920  1.00  0.00     0.031 C 
ATOM     53  C   UNL A   1      39.390  29.253  30.735  1.00  0.00     0.029 A 
ATOM     54  C   UNL A   1      40.305  30.378  30.830  1.00  0.00     0.049 A 
ATOM     55  H   UNL A   1      42.379  30.304  30.546  1.00  0.00     0.167 HD
ATOM     56  C   UNL A   1      46.401  30.304  28.564  1.00  0.00     0.034 A 
ATOM     57  C   UNL A   1      40.075  31.685  31.108  1.00  0.00     0.034 A 
ATOM     58  C   UNL A   1      46.663  30.270  29.980  1.00  0.00     0.049 A 
ATOM     59  C   UNL A   1      41.391  32.306  31.404  1.00  0.00     0.074 A 
ATOM     60  C   UNL A   1      47.109  29.310  30.866  1.00  0.00     0.029 A 
ATOM     61  N   UNL A   1      46.072  31.247  30.743  1.00  0.00    -0.354 N 
ATOM     62  N   UNL A   1      42.109  31.996  32.447  1.00  0.00    -0.248 NA
ATOM     63  C   UNL A   1      42.114  32.925  30.305  1.00  0.00     0.031 C 
ATOM     64  C   UNL A   1      46.351  29.527  32.053  1.00  0.00     0.029 A 
ATOM     65  C   UNL A   1      45.535  30.642  31.846  1.00  0.00     0.049 A 
ATOM     66  H   UNL A   1      46.041  32.209  30.535  1.00  0.00     0.167 HD
ATOM     67  C   UNL A   1      43.411  31.945  31.963  1.00  0.00     0.074 A 
ATOM     68  C   UNL A   1      43.365  32.624  30.670  1.00  0.00     0.031 C 
ATOM     69  C   UNL A   1      44.335  31.103  32.512  1.00  0.00     0.034 A 
BRANCH  56  70
ATOM     70  C   UNL A   1      46.778  31.491  27.717  1.00  0.00     0.023 A 
ATOM     71  C   UNL A   1      48.154  31.746  27.540  1.00  0.00     0.012 A 
ATOM     72  C   UNL A   1      45.878  32.514  27.337  1.00  0.00     0.148 A 
ATOM     73  C   UNL A   1      48.611  32.974  27.054  1.00  0.00     0.002 A 
ATOM     74  C   UNL A   1      46.333  33.699  26.775  1.00  0.00     0.091 A 
ATOM     75  F   UNL A   1      44.581  32.418  27.640  1.00  0.00    -0.205 F 
ATOM     76  C   UNL A   1      47.701  33.949  26.662  1.00  0.00     0.022 A 
BRANCH  74  77
ATOM     77  S   UNL A   1      45.191  34.968  26.216  1.00  0.00     0.127 S 
ATOM     78  O   UNL A   1      44.482  35.286  27.452  1.00  0.00    -0.237 OA
ATOM     79  O   UNL A   1      46.108  36.005  25.741  1.00  0.00    -0.237 OA
ATOM     80  O   UNL A   1      44.401  34.345  25.162  1.00  0.00    -0.744 OA
ENDBRANCH  74  77
ENDBRANCH  56  70
BRANCH  57  81
ATOM     81  C   UNL A   1      38.877  32.503  30.807  1.00  0.00     0.023 A 
ATOM     82  C   UNL A   1      38.613  32.889  29.478  1.00  0.00     0.012 A 
ATOM     83  C   UNL A   1      37.847  32.653  31.762  1.00  0.00     0.148 A 
ATOM     84  C   UNL A   1      37.354  33.379  29.107  1.00  0.00     0.002 A 
ATOM     85  C   UNL A   1      36.600  33.144  31.390  1.00  0.00     0.091 A 
ATOM     86  F   UNL A   1      38.061  32.227  33.014  1.00  0.00    -0.205 F 
ATOM     87  C   UNL A   1      36.345  33.497  30.059  1.00  0.00     0.022 A 
BRANCH  85  88
ATOM     88  S   UNL A   1      35.239  33.295  32.557  1.00  0.00     0.127 S 
ATOM     89  O   UNL A   1      35.006  34.740  32.562  1.00  0.00    -0.237 OA
ATOM     90  O   UNL A   1      34.194  32.510  31.905  1.00  0.00    -0.237 OA
ATOM     91  O   UNL A   1      35.733  32.763  33.819  1.00  0.00    -0.744 OA
ENDBRANCH  85  88
ENDBRANCH  57  81
BRANCH  69  92
ATOM     92  C   UNL A   1      43.980  30.403  33.800  1.00  0.00     0.023 A 
ATOM     93  C   UNL A   1      44.160  31.003  35.065  1.00  0.00     0.012 A 
ATOM     94  C   UNL A   1      43.280  29.188  33.718  1.00  0.00     0.148 A 
ATOM     95  C   UNL A   1      43.669  30.392  36.222  1.00  0.00     0.002 A 
ATOM     96  C   UNL A   1      42.756  28.607  34.864  1.00  0.00     0.091 A 
ATOM     97  F   UNL A   1      43.113  28.637  32.506  1.00  0.00    -0.205 F 
ATOM     98  C   UNL A   1      42.954  29.200  36.121  1.00  0.00     0.022 A 
BRANCH  96  99
ATOM     99  S   UNL A   1      41.720  27.144  34.781  1.00  0.00     0.127 S 
ATOM    100  O   UNL A   1      40.747  27.518  33.758  1.00  0.00    -0.237 OA
ATOM    101  O   UNL A   1      42.672  26.110  34.373  1.00  0.00    -0.237 OA
ATOM    102  O   UNL A   1      41.180  26.958  36.122  1.00  0.00    -0.744 OA
ENDBRANCH  96  99
ENDBRANCH  69  92
ENDBRANCH  43  44
ENDBRANCH  36  38
ENDBRANCH  35  36
ENDBRANCH  34  35
ENDBRANCH  33  34
ENDBRANCH  32  33
ENDBRANCH  31  32
ENDBRANCH   1  31
TORSDOF 24
ENDMDL
MODEL 3
REMARK VINA RESULT:     -10.8      3.977      8.124
REMARK SMILES CCc1ccc(S(=O)(=O)c2nnn(-c3ccc(C(=O)OCCOCCOCCOC(=O)c4ccc(-c5c6nc(c(-c7cccc(S(=O)(=O)[O-])c7F)c7ccc([nH]7)c(-c7cccc(S(=O)(=O)[O-])c7F)c7nc(c(-c8cccc(S(=O)(=O)[O-])c8F)c8ccc5[nH]8)C=C7)C=C6)cc4)cc3)c2C)cc1
REMARK SMILES IDX 24 1 23 2 22 3 21 4 20 5 18 6 19 7 17 8 14 9 15 10 96 11
REMARK SMILES IDX 16 12 95 13 13 14 10 15 11 16 97 17 12 18 98 19 7 20 8 21
REMARK SMILES IDX 9 22 6 23 3 24 4 25 100 26 5 27 99 28 2 29 1 30 25 31 26 32
REMARK SMILES IDX 27 33 28 34 29 35 30 36 31 37 32 38 33 39 94 40 34 41 93 42
REMARK SMILES IDX 35 43 36 44 37 45 87 46 38 47 92 48 86 49 88 50 39 51 91 52
REMARK SMILES IDX 85 53 84 54 40 56 72 57 52 58 71 59 53 60 56 61 70 62 89 63
REMARK SMILES IDX 54 64 55 65 69 67 90 68 57 69 41 70 42 71 50 72 43 73 45 74
REMARK SMILES IDX 51 75 44 76 46 77 47 78 48 79 49 80 73 81 74 82 82 83 75 84
REMARK SMILES IDX 77 85 83 86 76 87 78 88 79 89 80 90 81 91 58 92 59 93 67 94
REMARK SMILES IDX 60 95 62 96 68 97 61 98 63 99 64 100 65 101 66 102
REMARK H PARENT 88 55 56 66
REMARK Flexibility Score: inf
ROOT
ATOM      1  C   UNL A   1      40.642  25.650  27.191  1.00  0.00     0.188 C 
ENDROOT
BRANCH   1   2
ATOM      2  O   UNL A   1      41.092  24.317  27.285  1.00  0.00    -0.376 OA
BRANCH   2   3
ATOM      3  C   UNL A   1      40.205  23.243  27.529  1.00  0.00     0.202 C 
BRANCH   3   4
ATOM      4  C   UNL A   1      39.759  22.214  26.474  1.00  0.00     0.261 C 
BRANCH   4   5
ATOM      5  O   UNL A   1      38.540  22.488  25.783  1.00  0.00    -0.460 OA
BRANCH   5   6
ATOM      6  C   UNL A   1      37.978  21.438  25.145  1.00  0.00     0.338 C 
ATOM      7  O   UNL A   1      38.414  20.298  25.070  1.00  0.00    -0.246 OA
BRANCH   6   8
ATOM      8  C   UNL A   1      36.645  21.816  24.638  1.00  0.00     0.060 A 
ATOM      9  C   UNL A   1      34.141  22.758  23.929  1.00  0.00     0.067 A 
ATOM     10  C   UNL A   1      35.268  23.471  23.515  1.00  0.00     0.029 A 
ATOM     11  C   UNL A   1      34.265  21.500  24.539  1.00  0.00     0.029 A 
ATOM     12  C   UNL A   1      36.524  23.008  23.905  1.00  0.00     0.018 A 
ATOM     13  C   UNL A   1      35.524  21.021  24.890  1.00  0.00     0.018 A 
BRANCH   9  14
ATOM     14  N   UNL A   1      32.890  23.409  23.947  1.00  0.00    -0.216 N 
ATOM     15  C   UNL A   1      31.186  24.640  24.512  1.00  0.00     0.205 A 
ATOM     16  N   UNL A   1      31.086  24.341  23.181  1.00  0.00    -0.117 NA
ATOM     17  C   UNL A   1      32.371  24.130  25.013  1.00  0.00     0.081 A 
ATOM     18  N   UNL A   1      32.176  23.668  22.830  1.00  0.00    -0.061 NA
ATOM     19  C   UNL A   1      33.097  24.390  26.282  1.00  0.00     0.070 C 
BRANCH  15  20
ATOM     20  S   UNL A   1      30.050  25.645  25.335  1.00  0.00     0.227 S 
ATOM     21  O   UNL A   1      29.819  24.957  26.591  1.00  0.00    -0.217 OA
ATOM     22  O   UNL A   1      28.984  25.916  24.394  1.00  0.00    -0.217 OA
BRANCH  20  23
ATOM     23  C   UNL A   1      30.833  27.191  25.721  1.00  0.00     0.073 A 
ATOM     24  C   UNL A   1      32.002  29.694  26.209  1.00  0.00    -0.048 A 
ATOM     25  C   UNL A   1      31.648  29.318  24.906  1.00  0.00     0.005 A 
ATOM     26  C   UNL A   1      31.763  28.799  27.263  1.00  0.00     0.005 A 
ATOM     27  C   UNL A   1      31.056  28.077  24.662  1.00  0.00     0.021 A 
ATOM     28  C   UNL A   1      31.191  27.546  27.023  1.00  0.00     0.021 A 
BRANCH  24  29
ATOM     29  C   UNL A   1      32.674  31.020  26.471  1.00  0.00     0.032 C 
ATOM     30  C   UNL A   1      31.704  32.114  26.893  1.00  0.00     0.009 C 
ENDBRANCH  24  29
ENDBRANCH  20  23
ENDBRANCH  15  20
ENDBRANCH   9  14
ENDBRANCH   6   8
ENDBRANCH   5   6
ENDBRANCH   4   5
ENDBRANCH   3   4
ENDBRANCH   2   3
ENDBRANCH   1   2
BRANCH   1  31
ATOM     31  C   UNL A   1      39.970  26.354  28.390  1.00  0.00     0.188 C 
BRANCH  31  32
ATOM     32  O   UNL A   1      38.878  27.229  28.193  1.00  0.00    -0.376 OA
BRANCH  32  33
ATOM     33  C   UNL A   1      38.968  28.636  28.342  1.00  0.00     0.202 C 
BRANCH  33  34
ATOM     34  C   UNL A   1      38.064  29.674  27.683  1.00  0.00     0.261 C 
BRANCH  34  35
ATOM     35  O   UNL A   1      36.755  29.755  28.194  1.00  0.00    -0.460 OA
BRANCH  35  36
ATOM     36  C   UNL A   1      36.337  31.025  28.374  1.00  0.00     0.338 C 
ATOM     37  O   UNL A   1      35.807  31.751  27.549  1.00  0.00    -0.246 OA
BRANCH  36  38
ATOM     38  C   UNL A   1      36.668  31.441  29.734  1.00  0.00     0.060 A 
ATOM     39  C   UNL A   1      37.604  32.468  29.850  1.00  0.00     0.016 A 
ATOM     40  C   UNL A   1      36.326  30.595  30.799  1.00  0.00     0.016 A 
ATOM     41  C   UNL A   1      38.415  32.458  30.954  1.00  0.00     0.010 A 
ATOM     42  C   UNL A   1      37.140  30.588  31.901  1.00  0.00     0.010 A 
ATOM     43  C   UNL A   1      38.240  31.436  31.895  1.00  0.00    -0.014 A 
BRANCH  43  44
ATOM     44  C   UNL A   1      39.273  31.269  32.885  1.00  0.00     0.031 A 
ATOM     45  C   UNL A   1      39.149  32.226  33.999  1.00  0.00     0.074 A 
ATOM     46  C   UNL A   1      40.211  30.311  32.779  1.00  0.00     0.049 A 
ATOM     47  N   UNL A   1      39.893  33.254  34.229  1.00  0.00    -0.248 NA
ATOM     48  C   UNL A   1      37.935  32.151  34.822  1.00  0.00     0.031 C 
ATOM     49  C   UNL A   1      40.253  29.167  31.860  1.00  0.00     0.029 A 
ATOM     50  N   UNL A   1      41.279  30.090  33.586  1.00  0.00    -0.354 N 
ATOM     51  C   UNL A   1      39.380  33.811  35.393  1.00  0.00     0.074 A 
ATOM     52  C   UNL A   1      38.071  33.242  35.578  1.00  0.00     0.031 C 
ATOM     53  C   UNL A   1      41.123  28.249  32.341  1.00  0.00     0.029 A 
ATOM     54  C   UNL A   1      41.794  28.804  33.504  1.00  0.00     0.049 A 
ATOM     55  H   UNL A   1      41.655  30.783  34.177  1.00  0.00     0.167 HD
ATOM     56  C   UNL A   1      40.188  34.470  36.264  1.00  0.00     0.034 A 
ATOM     57  C   UNL A   1      42.631  28.229  34.403  1.00  0.00     0.034 A 
ATOM     58  C   UNL A   1      41.440  34.838  35.655  1.00  0.00     0.049 A 
ATOM     59  C   UNL A   1      43.274  29.327  35.167  1.00  0.00     0.074 A 
ATOM     60  C   UNL A   1      41.807  35.609  34.570  1.00  0.00     0.029 A 
ATOM     61  N   UNL A   1      42.527  34.050  35.947  1.00  0.00    -0.354 N 
ATOM     62  N   UNL A   1      44.100  30.182  34.633  1.00  0.00    -0.248 NA
ATOM     63  C   UNL A   1      42.642  29.755  36.405  1.00  0.00     0.031 C 
ATOM     64  C   UNL A   1      42.903  34.913  33.981  1.00  0.00     0.029 A 
ATOM     65  C   UNL A   1      43.181  33.796  34.772  1.00  0.00     0.049 A 
ATOM     66  H   UNL A   1      42.788  33.727  36.840  1.00  0.00     0.167 HD
ATOM     67  C   UNL A   1      43.741  31.402  35.193  1.00  0.00     0.074 A 
ATOM     68  C   UNL A   1      42.912  31.063  36.347  1.00  0.00     0.031 C 
ATOM     69  C   UNL A   1      43.899  32.569  34.501  1.00  0.00     0.034 A 
BRANCH  56  70
ATOM     70  C   UNL A   1      40.020  34.422  37.760  1.00  0.00     0.023 A 
ATOM     71  C   UNL A   1      39.775  33.161  38.342  1.00  0.00     0.012 A 
ATOM     72  C   UNL A   1      39.804  35.560  38.573  1.00  0.00     0.148 A 
ATOM     73  C   UNL A   1      39.295  33.041  39.648  1.00  0.00     0.002 A 
ATOM     74  C   UNL A   1      39.408  35.433  39.897  1.00  0.00     0.091 A 
ATOM     75  F   UNL A   1      39.840  36.784  38.041  1.00  0.00    -0.205 F 
ATOM     76  C   UNL A   1      39.119  34.177  40.431  1.00  0.00     0.022 A 
BRANCH  74  77
ATOM     77  S   UNL A   1      39.210  36.870  40.956  1.00  0.00     0.127 S 
ATOM     78  O   UNL A   1      38.698  36.261  42.180  1.00  0.00    -0.237 OA
ATOM     79  O   UNL A   1      40.583  37.370  41.038  1.00  0.00    -0.237 OA
ATOM     80  O   UNL A   1      38.297  37.756  40.246  1.00  0.00    -0.744 OA
ENDBRANCH  74  77
ENDBRANCH  56  70
BRANCH  57  81
ATOM     81  C   UNL A   1      42.662  26.825  34.878  1.00  0.00     0.023 A 
ATOM     82  C   UNL A   1      41.585  26.323  35.637  1.00  0.00     0.012 A 
ATOM     83  C   UNL A   1      43.591  25.903  34.348  1.00  0.00     0.148 A 
ATOM     84  C   UNL A   1      41.423  24.946  35.833  1.00  0.00     0.002 A 
ATOM     85  C   UNL A   1      43.428  24.537  34.549  1.00  0.00     0.091 A 
ATOM     86  F   UNL A   1      44.581  26.361  33.569  1.00  0.00    -0.205 F 
ATOM     87  C   UNL A   1      42.338  24.052  35.282  1.00  0.00     0.022 A 
BRANCH  85  88
ATOM     88  S   UNL A   1      44.550  23.320  33.843  1.00  0.00     0.127 S 
ATOM     89  O   UNL A   1      44.122  22.092  34.512  1.00  0.00    -0.237 OA
ATOM     90  O   UNL A   1      44.218  23.392  32.422  1.00  0.00    -0.237 OA
ATOM     91  O   UNL A   1      45.893  23.760  34.199  1.00  0.00    -0.744 OA
ENDBRANCH  85  88
ENDBRANCH  57  81
BRANCH  69  92
ATOM     92  C   UNL A   1      44.685  32.530  33.215  1.00  0.00     0.023 A 
ATOM     93  C   UNL A   1      46.096  32.558  33.185  1.00  0.00     0.012 A 
ATOM     94  C   UNL A   1      43.987  32.276  32.023  1.00  0.00     0.148 A 
ATOM     95  C   UNL A   1      46.791  32.357  31.990  1.00  0.00     0.002 A 
ATOM     96  C   UNL A   1      44.681  32.031  30.847  1.00  0.00     0.091 A 
ATOM     97  F   UNL A   1      42.646  32.246  32.072  1.00  0.00    -0.205 F 
ATOM     98  C   UNL A   1      46.084  32.078  30.822  1.00  0.00     0.022 A 
BRANCH  96  99
ATOM     99  S   UNL A   1      43.832  31.544  29.343  1.00  0.00     0.127 S 
ATOM    100  O   UNL A   1      43.086  32.755  29.009  1.00  0.00    -0.237 OA
ATOM    101  O   UNL A   1      44.942  31.239  28.440  1.00  0.00    -0.237 OA
ATOM    102  O   UNL A   1      43.020  30.386  29.698  1.00  0.00    -0.744 OA
ENDBRANCH  96  99
ENDBRANCH  69  92
ENDBRANCH  43  44
ENDBRANCH  36  38
ENDBRANCH  35  36
ENDBRANCH  34  35
ENDBRANCH  33  34
ENDBRANCH  32  33
ENDBRANCH  31  32
ENDBRANCH   1  31
TORSDOF 24
ENDMDL
