MODEL 1
REMARK VINA RESULT:      -9.7      0.000      0.000
REMARK SMILES COCC[C@@]1(C(=O)OCCOCCOCCOC(=O)c2ccc(-c3c4nc(c(-c5cccc(S(=O)(=O)[O-])c5F)c5ccc([nH]5)c(-c5cccc(S(=O)(=O)[O-])c5F)c5nc(c(-c6cccc(S(=O)(=O)[O-])c6F)c6ccc3[nH]6)C=C5)C=C4)cc2)CCCN(C(=O)NCc2ccc(OC)cc2)C1
REMARK SMILES IDX 12 1 11 2 10 3 9 4 8 5 6 6 7 7 5 8 83 9 99 10 84 11 86 12
REMARK SMILES IDX 85 13 4 14 3 15 2 16 1 17 87 18 88 19 89 20 90 22 91 23
REMARK SMILES IDX 92 24 98 25 93 26 97 27 94 28 95 29 96 30 13 31 14 32 15 33
REMARK SMILES IDX 16 34 17 35 18 36 19 37 20 38 21 39 82 40 22 41 81 42 23 43
REMARK SMILES IDX 24 44 25 45 75 46 26 47 80 48 74 49 76 50 27 51 79 52 73 53
REMARK SMILES IDX 72 54 28 56 60 57 40 58 59 59 41 60 44 61 58 62 77 63 42 64
REMARK SMILES IDX 43 65 57 67 78 68 45 69 29 70 30 71 38 72 31 73 33 74 39 75
REMARK SMILES IDX 32 76 34 77 35 78 36 79 37 80 61 81 62 82 70 83 63 84 65 85
REMARK SMILES IDX 71 86 64 87 66 88 67 89 68 90 69 91 46 92 47 93 55 94 48 95
REMARK SMILES IDX 50 96 56 97 49 98 51 99 52 100 53 101 54 102
REMARK H PARENT 89 21 76 55 44 66
REMARK Flexibility Score: inf
ROOT
ATOM      1  C   UNL A   1      35.526  30.650  27.739  1.00  0.00     0.188 C 
ENDROOT
BRANCH   1   2
ATOM      2  O   UNL A   1      35.013  29.337  27.882  1.00  0.00    -0.376 OA
BRANCH   2   3
ATOM      3  C   UNL A   1      33.793  29.064  27.215  1.00  0.00     0.202 C 
BRANCH   3   4
ATOM      4  C   UNL A   1      33.827  27.926  26.198  1.00  0.00     0.261 C 
BRANCH   4   5
ATOM      5  O   UNL A   1      32.618  27.758  25.443  1.00  0.00    -0.463 OA
BRANCH   5   6
ATOM      6  C   UNL A   1      32.650  27.574  24.100  1.00  0.00     0.314 C 
ATOM      7  O   UNL A   1      33.681  27.461  23.456  1.00  0.00    -0.252 OA
BRANCH   6   8
ATOM      8  C   UNL A   1      31.208  27.515  23.529  1.00  0.00     0.088 C 
ATOM      9  C   UNL A   1      30.304  26.734  24.528  1.00  0.00     0.022 C 
ATOM     10  C   UNL A   1      31.276  26.732  22.185  1.00  0.00     0.140 C 
ATOM     11  C   UNL A   1      30.631  25.243  24.615  1.00  0.00     0.023 C 
ATOM     12  N   UNL A   1      31.652  25.334  22.420  1.00  0.00    -0.324 N 
ATOM     13  C   UNL A   1      30.665  24.634  23.223  1.00  0.00     0.121 C 
BRANCH   8  14
ATOM     14  C   UNL A   1      30.632  28.969  23.420  1.00  0.00     0.049 C 
BRANCH  14  15
ATOM     15  C   UNL A   1      29.279  29.151  22.726  1.00  0.00     0.161 C 
BRANCH  15  16
ATOM     16  O   UNL A   1      29.468  29.853  21.504  1.00  0.00    -0.385 OA
ATOM     17  C   UNL A   1      28.575  30.937  21.287  1.00  0.00     0.194 C 
ENDBRANCH  15  16
ENDBRANCH  14  15
ENDBRANCH   8  14
BRANCH  12  18
ATOM     18  C   UNL A   1      32.877  24.913  21.994  1.00  0.00     0.317 C 
ATOM     19  O   UNL A   1      33.272  25.100  20.839  1.00  0.00    -0.249 OA
ATOM     20  N   UNL A   1      33.774  24.329  22.802  1.00  0.00    -0.334 N 
ATOM     21  H   UNL A   1      34.619  24.138  22.333  1.00  0.00     0.165 HD
BRANCH  20  22
ATOM     22  C   UNL A   1      33.821  23.906  24.186  1.00  0.00     0.153 C 
BRANCH  22  23
ATOM     23  C   UNL A   1      33.805  22.400  24.295  1.00  0.00    -0.028 A 
ATOM     24  C   UNL A   1      32.719  21.661  23.804  1.00  0.00     0.009 A 
ATOM     25  C   UNL A   1      34.872  21.709  24.885  1.00  0.00     0.009 A 
ATOM     26  C   UNL A   1      32.689  20.273  23.931  1.00  0.00     0.047 A 
ATOM     27  C   UNL A   1      34.836  20.317  25.018  1.00  0.00     0.047 A 
ATOM     28  C   UNL A   1      33.747  19.593  24.532  1.00  0.00     0.118 A 
BRANCH  28  29
ATOM     29  O   UNL A   1      33.591  18.236  24.589  1.00  0.00    -0.497 OA
ATOM     30  C   UNL A   1      32.665  17.747  25.549  1.00  0.00     0.278 C 
ENDBRANCH  28  29
ENDBRANCH  22  23
ENDBRANCH  20  22
ENDBRANCH  12  18
ENDBRANCH   6   8
ENDBRANCH   5   6
ENDBRANCH   4   5
ENDBRANCH   3   4
ENDBRANCH   2   3
ENDBRANCH   1   2
BRANCH   1  31
ATOM     31  C   UNL A   1      34.803  31.678  28.641  1.00  0.00     0.188 C 
BRANCH  31  32
ATOM     32  O   UNL A   1      33.683  32.413  28.164  1.00  0.00    -0.376 OA
BRANCH  32  33
ATOM     33  C   UNL A   1      33.693  33.824  28.274  1.00  0.00     0.202 C 
BRANCH  33  34
ATOM     34  C   UNL A   1      34.387  34.437  29.499  1.00  0.00     0.261 C 
BRANCH  34  35
ATOM     35  O   UNL A   1      33.644  35.457  30.194  1.00  0.00    -0.460 OA
BRANCH  35  36
ATOM     36  C   UNL A   1      33.254  35.155  31.461  1.00  0.00     0.338 C 
ATOM     37  O   UNL A   1      32.120  35.203  31.902  1.00  0.00    -0.246 OA
BRANCH  36  38
ATOM     38  C   UNL A   1      34.379  34.553  32.225  1.00  0.00     0.060 A 
ATOM     39  C   UNL A   1      35.536  35.326  32.406  1.00  0.00     0.016 A 
ATOM     40  C   UNL A   1      34.342  33.243  32.702  1.00  0.00     0.016 A 
ATOM     41  C   UNL A   1      36.660  34.794  33.045  1.00  0.00     0.010 A 
ATOM     42  C   UNL A   1      35.485  32.697  33.312  1.00  0.00     0.010 A 
ATOM     43  C   UNL A   1      36.660  33.459  33.463  1.00  0.00    -0.014 A 
BRANCH  43  44
ATOM     44  C   UNL A   1      37.941  32.810  33.861  1.00  0.00     0.031 A 
ATOM     45  C   UNL A   1      38.459  31.669  33.021  1.00  0.00     0.074 A 
ATOM     46  C   UNL A   1      38.653  33.220  34.927  1.00  0.00     0.049 A 
ATOM     47  N   UNL A   1      39.503  30.904  33.209  1.00  0.00    -0.248 NA
ATOM     48  C   UNL A   1      37.695  31.356  31.802  1.00  0.00     0.031 C 
ATOM     49  C   UNL A   1      38.305  34.338  35.801  1.00  0.00     0.029 A 
ATOM     50  N   UNL A   1      39.814  32.718  35.471  1.00  0.00    -0.354 N 
ATOM     51  C   UNL A   1      39.504  29.997  32.155  1.00  0.00     0.074 A 
ATOM     52  C   UNL A   1      38.354  30.307  31.332  1.00  0.00     0.031 C 
ATOM     53  C   UNL A   1      39.214  34.418  36.791  1.00  0.00     0.029 A 
ATOM     54  C   UNL A   1      40.187  33.335  36.643  1.00  0.00     0.049 A 
ATOM     55  H   UNL A   1      40.329  31.988  35.059  1.00  0.00     0.167 HD
ATOM     56  C   UNL A   1      40.379  28.999  31.888  1.00  0.00     0.034 A 
ATOM     57  C   UNL A   1      41.176  33.039  37.514  1.00  0.00     0.034 A 
ATOM     58  C   UNL A   1      41.531  28.692  32.691  1.00  0.00     0.049 A 
ATOM     59  C   UNL A   1      42.102  31.881  37.227  1.00  0.00     0.074 A 
ATOM     60  C   UNL A   1      42.485  27.710  32.485  1.00  0.00     0.029 A 
ATOM     61  N   UNL A   1      41.882  29.348  33.860  1.00  0.00    -0.354 N 
ATOM     62  N   UNL A   1      42.136  31.083  36.186  1.00  0.00    -0.248 NA
ATOM     63  C   UNL A   1      43.146  31.597  38.226  1.00  0.00     0.031 C 
ATOM     64  C   UNL A   1      43.393  27.750  33.548  1.00  0.00     0.029 A 
ATOM     65  C   UNL A   1      43.029  28.786  34.393  1.00  0.00     0.049 A 
ATOM     66  H   UNL A   1      41.387  30.104  34.254  1.00  0.00     0.167 HD
ATOM     67  C   UNL A   1      43.224  30.238  36.385  1.00  0.00     0.074 A 
ATOM     68  C   UNL A   1      43.836  30.630  37.637  1.00  0.00     0.031 C 
ATOM     69  C   UNL A   1      43.671  29.220  35.607  1.00  0.00     0.034 A 
BRANCH  56  70
ATOM     70  C   UNL A   1      40.129  28.160  30.662  1.00  0.00     0.023 A 
ATOM     71  C   UNL A   1      39.189  27.110  30.710  1.00  0.00     0.012 A 
ATOM     72  C   UNL A   1      40.786  28.447  29.450  1.00  0.00     0.148 A 
ATOM     73  C   UNL A   1      38.932  26.338  29.578  1.00  0.00     0.002 A 
ATOM     74  C   UNL A   1      40.490  27.704  28.314  1.00  0.00     0.091 A 
ATOM     75  F   UNL A   1      41.689  29.437  29.431  1.00  0.00    -0.205 F 
ATOM     76  C   UNL A   1      39.573  26.641  28.380  1.00  0.00     0.022 A 
BRANCH  74  77
ATOM     77  S   UNL A   1      41.200  28.066  26.705  1.00  0.00     0.127 S 
ATOM     78  O   UNL A   1      40.386  29.200  26.272  1.00  0.00    -0.237 OA
ATOM     79  O   UNL A   1      42.582  28.402  27.049  1.00  0.00    -0.237 OA
ATOM     80  O   UNL A   1      41.048  26.853  25.913  1.00  0.00    -0.744 OA
ENDBRANCH  74  77
ENDBRANCH  56  70
BRANCH  57  81
ATOM     81  C   UNL A   1      41.360  33.850  38.754  1.00  0.00     0.023 A 
ATOM     82  C   UNL A   1      40.694  33.474  39.938  1.00  0.00     0.012 A 
ATOM     83  C   UNL A   1      42.163  35.007  38.759  1.00  0.00     0.148 A 
ATOM     84  C   UNL A   1      40.791  34.259  41.090  1.00  0.00     0.002 A 
ATOM     85  C   UNL A   1      42.302  35.752  39.925  1.00  0.00     0.091 A 
ATOM     86  F   UNL A   1      42.770  35.362  37.617  1.00  0.00    -0.205 F 
ATOM     87  C   UNL A   1      41.601  35.391  41.085  1.00  0.00     0.022 A 
BRANCH  85  88
ATOM     88  S   UNL A   1      43.411  37.158  40.047  1.00  0.00     0.127 S 
ATOM     89  O   UNL A   1      43.552  37.305  41.494  1.00  0.00    -0.237 OA
ATOM     90  O   UNL A   1      44.603  36.661  39.359  1.00  0.00    -0.237 OA
ATOM     91  O   UNL A   1      42.735  38.254  39.365  1.00  0.00    -0.744 OA
ENDBRANCH  85  88
ENDBRANCH  57  81
BRANCH  69  92
ATOM     92  C   UNL A   1      44.916  28.485  36.041  1.00  0.00     0.023 A 
ATOM     93  C   UNL A   1      46.187  28.951  35.652  1.00  0.00     0.012 A 
ATOM     94  C   UNL A   1      44.825  27.376  36.909  1.00  0.00     0.148 A 
ATOM     95  C   UNL A   1      47.344  28.305  36.088  1.00  0.00     0.002 A 
ATOM     96  C   UNL A   1      45.983  26.770  37.381  1.00  0.00     0.091 A 
ATOM     97  F   UNL A   1      43.607  26.938  37.259  1.00  0.00    -0.205 F 
ATOM     98  C   UNL A   1      47.243  27.224  36.961  1.00  0.00     0.022 A 
BRANCH  96  99
ATOM     99  S   UNL A   1      45.955  25.436  38.584  1.00  0.00     0.127 S 
ATOM    100  O   UNL A   1      45.773  26.168  39.836  1.00  0.00    -0.237 OA
ATOM    101  O   UNL A   1      44.791  24.658  38.157  1.00  0.00    -0.237 OA
ATOM    102  O   UNL A   1      47.229  24.742  38.446  1.00  0.00    -0.744 OA
ENDBRANCH  96  99
ENDBRANCH  69  92
ENDBRANCH  43  44
ENDBRANCH  36  38
ENDBRANCH  35  36
ENDBRANCH  34  35
ENDBRANCH  33  34
ENDBRANCH  32  33
ENDBRANCH  31  32
ENDBRANCH   1  31
TORSDOF 27
ENDMDL
MODEL 2
REMARK VINA RESULT:      -9.3      2.329      7.213
REMARK SMILES COCC[C@@]1(C(=O)OCCOCCOCCOC(=O)c2ccc(-c3c4nc(c(-c5cccc(S(=O)(=O)[O-])c5F)c5ccc([nH]5)c(-c5cccc(S(=O)(=O)[O-])c5F)c5nc(c(-c6cccc(S(=O)(=O)[O-])c6F)c6ccc3[nH]6)C=C5)C=C4)cc2)CCCN(C(=O)NCc2ccc(OC)cc2)C1
REMARK SMILES IDX 12 1 11 2 10 3 9 4 8 5 6 6 7 7 5 8 83 9 99 10 84 11 86 12
REMARK SMILES IDX 85 13 4 14 3 15 2 16 1 17 87 18 88 19 89 20 90 22 91 23
REMARK SMILES IDX 92 24 98 25 93 26 97 27 94 28 95 29 96 30 13 31 14 32 15 33
REMARK SMILES IDX 16 34 17 35 18 36 19 37 20 38 21 39 82 40 22 41 81 42 23 43
REMARK SMILES IDX 24 44 25 45 75 46 26 47 80 48 74 49 76 50 27 51 79 52 73 53
REMARK SMILES IDX 72 54 28 56 60 57 40 58 59 59 41 60 44 61 58 62 77 63 42 64
REMARK SMILES IDX 43 65 57 67 78 68 45 69 29 70 30 71 38 72 31 73 33 74 39 75
REMARK SMILES IDX 32 76 34 77 35 78 36 79 37 80 61 81 62 82 70 83 63 84 65 85
REMARK SMILES IDX 71 86 64 87 66 88 67 89 68 90 69 91 46 92 47 93 55 94 48 95
REMARK SMILES IDX 50 96 56 97 49 98 51 99 52 100 53 101 54 102
REMARK H PARENT 89 21 76 55 44 66
REMARK Flexibility Score: inf
ROOT
ATOM      1  C   UNL A   1      35.393  30.589  27.541  1.00  0.00     0.188 C 
ENDROOT
BRANCH   1   2
ATOM      2  O   UNL A   1      34.846  29.315  27.832  1.00  0.00    -0.376 OA
BRANCH   2   3
ATOM      3  C   UNL A   1      33.679  28.954  27.113  1.00  0.00     0.202 C 
BRANCH   3   4
ATOM      4  C   UNL A   1      33.764  27.658  26.309  1.00  0.00     0.261 C 
BRANCH   4   5
ATOM      5  O   UNL A   1      32.651  27.421  25.434  1.00  0.00    -0.463 OA
BRANCH   5   6
ATOM      6  C   UNL A   1      32.760  27.610  24.096  1.00  0.00     0.314 C 
ATOM      7  O   UNL A   1      33.827  27.692  23.508  1.00  0.00    -0.252 OA
BRANCH   6   8
ATOM      8  C   UNL A   1      31.353  27.683  23.445  1.00  0.00     0.088 C 
ATOM      9  C   UNL A   1      30.332  26.958  24.371  1.00  0.00     0.022 C 
ATOM     10  C   UNL A   1      31.434  26.928  22.086  1.00  0.00     0.140 C 
ATOM     11  C   UNL A   1      30.531  25.443  24.436  1.00  0.00     0.023 C 
ATOM     12  N   UNL A   1      31.680  25.498  22.304  1.00  0.00    -0.324 N 
ATOM     13  C   UNL A   1      30.594  24.866  23.032  1.00  0.00     0.121 C 
BRANCH   8  14
ATOM     14  C   UNL A   1      30.905  29.182  23.344  1.00  0.00     0.049 C 
BRANCH  14  15
ATOM     15  C   UNL A   1      29.698  29.508  22.459  1.00  0.00     0.161 C 
BRANCH  15  16
ATOM     16  O   UNL A   1      28.609  29.912  23.280  1.00  0.00    -0.385 OA
ATOM     17  C   UNL A   1      27.357  29.327  22.952  1.00  0.00     0.194 C 
ENDBRANCH  15  16
ENDBRANCH  14  15
ENDBRANCH   8  14
BRANCH  12  18
ATOM     18  C   UNL A   1      32.888  24.986  21.935  1.00  0.00     0.317 C 
ATOM     19  O   UNL A   1      33.314  25.073  20.779  1.00  0.00    -0.249 OA
ATOM     20  N   UNL A   1      33.738  24.414  22.800  1.00  0.00    -0.334 N 
ATOM     21  H   UNL A   1      34.580  24.148  22.364  1.00  0.00     0.165 HD
BRANCH  20  22
ATOM     22  C   UNL A   1      33.736  24.084  24.210  1.00  0.00     0.153 C 
BRANCH  22  23
ATOM     23  C   UNL A   1      33.304  22.655  24.434  1.00  0.00    -0.028 A 
ATOM     24  C   UNL A   1      33.474  22.047  25.686  1.00  0.00     0.009 A 
ATOM     25  C   UNL A   1      32.723  21.908  23.400  1.00  0.00     0.009 A 
ATOM     26  C   UNL A   1      33.103  20.718  25.885  1.00  0.00     0.047 A 
ATOM     27  C   UNL A   1      32.359  20.572  23.601  1.00  0.00     0.047 A 
ATOM     28  C   UNL A   1      32.540  19.975  24.848  1.00  0.00     0.118 A 
BRANCH  28  29
ATOM     29  O   UNL A   1      32.219  18.688  25.180  1.00  0.00    -0.497 OA
ATOM     30  C   UNL A   1      32.777  17.669  24.361  1.00  0.00     0.278 C 
ENDBRANCH  28  29
ENDBRANCH  22  23
ENDBRANCH  20  22
ENDBRANCH  12  18
ENDBRANCH   6   8
ENDBRANCH   5   6
ENDBRANCH   4   5
ENDBRANCH   3   4
ENDBRANCH   2   3
ENDBRANCH   1   2
BRANCH   1  31
ATOM     31  C   UNL A   1      34.910  31.687  28.518  1.00  0.00     0.188 C 
BRANCH  31  32
ATOM     32  O   UNL A   1      33.699  32.394  28.286  1.00  0.00    -0.376 OA
BRANCH  32  33
ATOM     33  C   UNL A   1      33.750  33.794  28.085  1.00  0.00     0.202 C 
BRANCH  33  34
ATOM     34  C   UNL A   1      34.600  34.622  29.061  1.00  0.00     0.261 C 
BRANCH  34  35
ATOM     35  O   UNL A   1      33.885  35.606  29.834  1.00  0.00    -0.460 OA
BRANCH  35  36
ATOM     36  C   UNL A   1      33.375  35.180  31.021  1.00  0.00     0.338 C 
ATOM     37  O   UNL A   1      32.198  35.118  31.325  1.00  0.00    -0.246 OA
BRANCH  36  38
ATOM     38  C   UNL A   1      34.447  34.594  31.870  1.00  0.00     0.060 A 
ATOM     39  C   UNL A   1      35.505  35.430  32.259  1.00  0.00     0.016 A 
ATOM     40  C   UNL A   1      34.463  33.246  32.229  1.00  0.00     0.016 A 
ATOM     41  C   UNL A   1      36.584  34.925  32.990  1.00  0.00     0.010 A 
ATOM     42  C   UNL A   1      35.566  32.731  32.933  1.00  0.00     0.010 A 
ATOM     43  C   UNL A   1      36.646  33.561  33.294  1.00  0.00    -0.014 A 
BRANCH  43  44
ATOM     44  C   UNL A   1      37.920  32.974  33.797  1.00  0.00     0.031 A 
ATOM     45  C   UNL A   1      38.288  33.190  35.244  1.00  0.00     0.074 A 
ATOM     46  C   UNL A   1      38.735  32.246  33.011  1.00  0.00     0.049 A 
ATOM     47  N   UNL A   1      39.373  32.844  35.888  1.00  0.00    -0.248 NA
ATOM     48  C   UNL A   1      37.293  33.888  36.075  1.00  0.00     0.031 C 
ATOM     49  C   UNL A   1      38.487  31.911  31.611  1.00  0.00     0.029 A 
ATOM     50  N   UNL A   1      39.959  31.676  33.281  1.00  0.00    -0.354 N 
ATOM     51  C   UNL A   1      39.209  33.311  37.187  1.00  0.00     0.074 A 
ATOM     52  C   UNL A   1      37.919  33.966  37.239  1.00  0.00     0.031 C 
ATOM     53  C   UNL A   1      39.541  31.223  31.133  1.00  0.00     0.029 A 
ATOM     54  C   UNL A   1      40.554  31.099  32.182  1.00  0.00     0.049 A 
ATOM     55  H   UNL A   1      40.368  31.680  34.176  1.00  0.00     0.167 HD
ATOM     56  C   UNL A   1      40.047  33.203  38.245  1.00  0.00     0.034 A 
ATOM     57  C   UNL A   1      41.785  30.566  32.031  1.00  0.00     0.034 A 
ATOM     58  C   UNL A   1      41.323  32.543  38.208  1.00  0.00     0.049 A 
ATOM     59  C   UNL A   1      42.728  30.514  33.210  1.00  0.00     0.074 A 
ATOM     60  C   UNL A   1      42.231  32.369  39.238  1.00  0.00     0.029 A 
ATOM     61  N   UNL A   1      41.882  31.960  37.082  1.00  0.00    -0.354 N 
ATOM     62  N   UNL A   1      42.526  30.890  34.451  1.00  0.00    -0.248 NA
ATOM     63  C   UNL A   1      44.063  29.940  32.973  1.00  0.00     0.031 C 
ATOM     64  C   UNL A   1      43.354  31.711  38.727  1.00  0.00     0.029 A 
ATOM     65  C   UNL A   1      43.126  31.437  37.388  1.00  0.00     0.049 A 
ATOM     66  H   UNL A   1      41.456  31.923  36.195  1.00  0.00     0.167 HD
ATOM     67  C   UNL A   1      43.686  30.558  35.146  1.00  0.00     0.074 A 
ATOM     68  C   UNL A   1      44.581  29.935  34.194  1.00  0.00     0.031 C 
ATOM     69  C   UNL A   1      43.988  30.761  36.453  1.00  0.00     0.034 A 
BRANCH  56  70
ATOM     70  C   UNL A   1      39.606  33.814  39.550  1.00  0.00     0.023 A 
ATOM     71  C   UNL A   1      40.061  35.097  39.914  1.00  0.00     0.012 A 
ATOM     72  C   UNL A   1      38.698  33.137  40.388  1.00  0.00     0.148 A 
ATOM     73  C   UNL A   1      39.646  35.684  41.109  1.00  0.00     0.002 A 
ATOM     74  C   UNL A   1      38.251  33.748  41.554  1.00  0.00     0.091 A 
ATOM     75  F   UNL A   1      38.292  31.911  40.033  1.00  0.00    -0.205 F 
ATOM     76  C   UNL A   1      38.734  35.015  41.922  1.00  0.00     0.022 A 
BRANCH  74  77
ATOM     77  S   UNL A   1      37.018  33.005  42.627  1.00  0.00     0.127 S 
ATOM     78  O   UNL A   1      36.499  31.933  41.780  1.00  0.00    -0.237 OA
ATOM     79  O   UNL A   1      37.829  32.552  43.757  1.00  0.00    -0.237 OA
ATOM     80  O   UNL A   1      36.068  34.063  42.944  1.00  0.00    -0.744 OA
ENDBRANCH  74  77
ENDBRANCH  56  70
BRANCH  57  81
ATOM     81  C   UNL A   1      42.219  30.026  30.708  1.00  0.00     0.023 A 
ATOM     82  C   UNL A   1      42.766  30.897  29.744  1.00  0.00     0.012 A 
ATOM     83  C   UNL A   1      42.061  28.664  30.387  1.00  0.00     0.148 A 
ATOM     84  C   UNL A   1      43.109  30.430  28.473  1.00  0.00     0.002 A 
ATOM     85  C   UNL A   1      42.458  28.193  29.139  1.00  0.00     0.091 A 
ATOM     86  F   UNL A   1      41.517  27.854  31.307  1.00  0.00    -0.205 F 
ATOM     87  C   UNL A   1      42.963  29.078  28.175  1.00  0.00     0.022 A 
BRANCH  85  88
ATOM     88  S   UNL A   1      42.415  26.452  28.705  1.00  0.00     0.127 S 
ATOM     89  O   UNL A   1      40.986  26.160  28.778  1.00  0.00    -0.237 OA
ATOM     90  O   UNL A   1      42.973  26.466  27.353  1.00  0.00    -0.237 OA
ATOM     91  O   UNL A   1      43.248  25.779  29.693  1.00  0.00    -0.744 OA
ENDBRANCH  85  88
ENDBRANCH  57  81
BRANCH  69  92
ATOM     92  C   UNL A   1      45.316  30.258  36.963  1.00  0.00     0.023 A 
ATOM     93  C   UNL A   1      46.452  31.090  36.927  1.00  0.00     0.012 A 
ATOM     94  C   UNL A   1      45.417  28.982  37.557  1.00  0.00     0.148 A 
ATOM     95  C   UNL A   1      47.672  30.649  37.439  1.00  0.00     0.002 A 
ATOM     96  C   UNL A   1      46.622  28.570  38.113  1.00  0.00     0.091 A 
ATOM     97  F   UNL A   1      44.330  28.197  37.571  1.00  0.00    -0.205 F 
ATOM     98  C   UNL A   1      47.755  29.396  38.043  1.00  0.00     0.022 A 
BRANCH  96  99
ATOM     99  S   UNL A   1      46.798  27.016  38.997  1.00  0.00     0.127 S 
ATOM    100  O   UNL A   1      45.770  27.141  40.028  1.00  0.00    -0.237 OA
ATOM    101  O   UNL A   1      46.502  26.031  37.955  1.00  0.00    -0.237 OA
ATOM    102  O   UNL A   1      48.171  26.984  39.485  1.00  0.00    -0.744 OA
ENDBRANCH  96  99
ENDBRANCH  69  92
ENDBRANCH  43  44
ENDBRANCH  36  38
ENDBRANCH  35  36
ENDBRANCH  34  35
ENDBRANCH  33  34
ENDBRANCH  32  33
ENDBRANCH  31  32
ENDBRANCH   1  31
TORSDOF 27
ENDMDL
MODEL 3
REMARK VINA RESULT:      -8.6      4.600      9.661
REMARK SMILES COCC[C@@]1(C(=O)OCCOCCOCCOC(=O)c2ccc(-c3c4nc(c(-c5cccc(S(=O)(=O)[O-])c5F)c5ccc([nH]5)c(-c5cccc(S(=O)(=O)[O-])c5F)c5nc(c(-c6cccc(S(=O)(=O)[O-])c6F)c6ccc3[nH]6)C=C5)C=C4)cc2)CCCN(C(=O)NCc2ccc(OC)cc2)C1
REMARK SMILES IDX 12 1 11 2 10 3 9 4 8 5 6 6 7 7 5 8 83 9 99 10 84 11 86 12
REMARK SMILES IDX 85 13 4 14 3 15 2 16 1 17 87 18 88 19 89 20 90 22 91 23
REMARK SMILES IDX 92 24 98 25 93 26 97 27 94 28 95 29 96 30 13 31 14 32 15 33
REMARK SMILES IDX 16 34 17 35 18 36 19 37 20 38 21 39 82 40 22 41 81 42 23 43
REMARK SMILES IDX 24 44 25 45 75 46 26 47 80 48 74 49 76 50 27 51 79 52 73 53
REMARK SMILES IDX 72 54 28 56 60 57 40 58 59 59 41 60 44 61 58 62 77 63 42 64
REMARK SMILES IDX 43 65 57 67 78 68 45 69 29 70 30 71 38 72 31 73 33 74 39 75
REMARK SMILES IDX 32 76 34 77 35 78 36 79 37 80 61 81 62 82 70 83 63 84 65 85
REMARK SMILES IDX 71 86 64 87 66 88 67 89 68 90 69 91 46 92 47 93 55 94 48 95
REMARK SMILES IDX 50 96 56 97 49 98 51 99 52 100 53 101 54 102
REMARK H PARENT 89 21 76 55 44 66
REMARK Flexibility Score: inf
ROOT
ATOM      1  C   UNL A   1      39.103  21.778  26.008  1.00  0.00     0.188 C 
ENDROOT
BRANCH   1   2
ATOM      2  O   UNL A   1      38.281  22.900  25.740  1.00  0.00    -0.376 OA
BRANCH   2   3
ATOM      3  C   UNL A   1      36.884  22.665  25.721  1.00  0.00     0.202 C 
BRANCH   3   4
ATOM      4  C   UNL A   1      36.064  23.580  24.813  1.00  0.00     0.261 C 
BRANCH   4   5
ATOM      5  O   UNL A   1      35.230  24.521  25.504  1.00  0.00    -0.463 OA
BRANCH   5   6
ATOM      6  C   UNL A   1      33.947  24.217  25.824  1.00  0.00     0.314 C 
ATOM      7  O   UNL A   1      33.607  23.155  26.321  1.00  0.00    -0.252 OA
BRANCH   6   8
ATOM      8  C   UNL A   1      33.010  25.407  25.485  1.00  0.00     0.088 C 
ATOM      9  C   UNL A   1      31.589  25.102  26.044  1.00  0.00     0.022 C 
ATOM     10  C   UNL A   1      32.937  25.508  23.933  1.00  0.00     0.140 C 
ATOM     11  C   UNL A   1      30.873  23.965  25.313  1.00  0.00     0.023 C 
ATOM     12  N   UNL A   1      32.274  24.327  23.370  1.00  0.00    -0.324 N 
ATOM     13  C   UNL A   1      30.896  24.214  23.814  1.00  0.00     0.121 C 
BRANCH   8  14
ATOM     14  C   UNL A   1      33.527  26.697  26.209  1.00  0.00     0.049 C 
BRANCH  14  15
ATOM     15  C   UNL A   1      33.392  28.033  25.470  1.00  0.00     0.161 C 
BRANCH  15  16
ATOM     16  O   UNL A   1      32.167  28.652  25.838  1.00  0.00    -0.385 OA
ATOM     17  C   UNL A   1      31.958  28.795  27.236  1.00  0.00     0.194 C 
ENDBRANCH  15  16
ENDBRANCH  14  15
ENDBRANCH   8  14
BRANCH  12  18
ATOM     18  C   UNL A   1      33.023  23.450  22.641  1.00  0.00     0.317 C 
ATOM     19  O   UNL A   1      33.887  23.828  21.845  1.00  0.00    -0.249 OA
ATOM     20  N   UNL A   1      32.935  22.119  22.779  1.00  0.00    -0.334 N 
ATOM     21  H   UNL A   1      33.585  21.649  22.209  1.00  0.00     0.165 HD
BRANCH  20  22
ATOM     22  C   UNL A   1      32.129  21.195  23.549  1.00  0.00     0.153 C 
BRANCH  22  23
ATOM     23  C   UNL A   1      32.826  19.864  23.705  1.00  0.00    -0.028 A 
ATOM     24  C   UNL A   1      32.343  18.726  23.046  1.00  0.00     0.009 A 
ATOM     25  C   UNL A   1      33.969  19.740  24.506  1.00  0.00     0.009 A 
ATOM     26  C   UNL A   1      32.967  17.490  23.213  1.00  0.00     0.047 A 
ATOM     27  C   UNL A   1      34.589  18.498  24.678  1.00  0.00     0.047 A 
ATOM     28  C   UNL A   1      34.095  17.369  24.023  1.00  0.00     0.118 A 
BRANCH  28  29
ATOM     29  O   UNL A   1      34.610  16.105  24.096  1.00  0.00    -0.497 OA
ATOM     30  C   UNL A   1      35.338  15.788  25.275  1.00  0.00     0.278 C 
ENDBRANCH  28  29
ENDBRANCH  22  23
ENDBRANCH  20  22
ENDBRANCH  12  18
ENDBRANCH   6   8
ENDBRANCH   5   6
ENDBRANCH   4   5
ENDBRANCH   3   4
ENDBRANCH   2   3
ENDBRANCH   1   2
BRANCH   1  31
ATOM     31  C   UNL A   1      40.558  22.169  26.355  1.00  0.00     0.188 C 
BRANCH  31  32
ATOM     32  O   UNL A   1      41.658  21.599  25.658  1.00  0.00    -0.376 OA
BRANCH  32  33
ATOM     33  C   UNL A   1      42.804  22.395  25.417  1.00  0.00     0.202 C 
BRANCH  33  34
ATOM     34  C   UNL A   1      43.906  22.395  26.487  1.00  0.00     0.261 C 
BRANCH  34  35
ATOM     35  O   UNL A   1      44.549  23.663  26.722  1.00  0.00    -0.460 OA
BRANCH  35  36
ATOM     36  C   UNL A   1      43.823  24.583  27.410  1.00  0.00     0.338 C 
ATOM     37  O   UNL A   1      42.826  25.163  27.018  1.00  0.00    -0.246 OA
BRANCH  36  38
ATOM     38  C   UNL A   1      44.286  24.667  28.821  1.00  0.00     0.060 A 
ATOM     39  C   UNL A   1      43.477  24.092  29.812  1.00  0.00     0.016 A 
ATOM     40  C   UNL A   1      45.450  25.344  29.187  1.00  0.00     0.016 A 
ATOM     41  C   UNL A   1      43.813  24.203  31.164  1.00  0.00     0.010 A 
ATOM     42  C   UNL A   1      45.768  25.487  30.549  1.00  0.00     0.010 A 
ATOM     43  C   UNL A   1      44.938  24.942  31.548  1.00  0.00    -0.014 A 
BRANCH  43  44
ATOM     44  C   UNL A   1      45.125  25.314  32.978  1.00  0.00     0.031 A 
ATOM     45  C   UNL A   1      44.768  26.715  33.408  1.00  0.00     0.074 A 
ATOM     46  C   UNL A   1      45.581  24.439  33.894  1.00  0.00     0.049 A 
ATOM     47  N   UNL A   1      44.913  27.291  34.573  1.00  0.00    -0.248 NA
ATOM     48  C   UNL A   1      44.159  27.578  32.382  1.00  0.00     0.031 C 
ATOM     49  C   UNL A   1      45.918  23.041  33.638  1.00  0.00     0.029 A 
ATOM     50  N   UNL A   1      45.863  24.613  35.230  1.00  0.00    -0.354 N 
ATOM     51  C   UNL A   1      44.450  28.592  34.414  1.00  0.00     0.074 A 
ATOM     52  C   UNL A   1      44.019  28.720  33.038  1.00  0.00     0.031 C 
ATOM     53  C   UNL A   1      46.394  22.492  34.772  1.00  0.00     0.029 A 
ATOM     54  C   UNL A   1      46.429  23.509  35.824  1.00  0.00     0.049 A 
ATOM     55  H   UNL A   1      45.676  25.449  35.715  1.00  0.00     0.167 HD
ATOM     56  C   UNL A   1      44.381  29.591  35.325  1.00  0.00     0.034 A 
ATOM     57  C   UNL A   1      46.947  23.346  37.061  1.00  0.00     0.034 A 
ATOM     58  C   UNL A   1      44.793  29.471  36.697  1.00  0.00     0.049 A 
ATOM     59  C   UNL A   1      46.917  24.496  38.041  1.00  0.00     0.074 A 
ATOM     60  C   UNL A   1      44.741  30.426  37.697  1.00  0.00     0.029 A 
ATOM     61  N   UNL A   1      45.346  28.333  37.262  1.00  0.00    -0.354 N 
ATOM     62  N   UNL A   1      46.404  25.694  37.899  1.00  0.00    -0.248 NA
ATOM     63  C   UNL A   1      47.517  24.260  39.364  1.00  0.00     0.031 C 
ATOM     64  C   UNL A   1      45.295  29.877  38.858  1.00  0.00     0.029 A 
ATOM     65  C   UNL A   1      45.651  28.565  38.592  1.00  0.00     0.049 A 
ATOM     66  H   UNL A   1      45.499  27.484  36.787  1.00  0.00     0.167 HD
ATOM     67  C   UNL A   1      46.579  26.335  39.122  1.00  0.00     0.074 A 
ATOM     68  C   UNL A   1      47.231  25.388  40.001  1.00  0.00     0.031 C 
ATOM     69  C   UNL A   1      46.242  27.599  39.482  1.00  0.00     0.034 A 
BRANCH  56  70
ATOM     70  C   UNL A   1      43.829  30.916  34.868  1.00  0.00     0.023 A 
ATOM     71  C   UNL A   1      44.693  31.884  34.316  1.00  0.00     0.012 A 
ATOM     72  C   UNL A   1      42.447  31.180  34.936  1.00  0.00     0.148 A 
ATOM     73  C   UNL A   1      44.195  33.107  33.870  1.00  0.00     0.002 A 
ATOM     74  C   UNL A   1      41.951  32.383  34.446  1.00  0.00     0.091 A 
ATOM     75  F   UNL A   1      41.646  30.255  35.481  1.00  0.00    -0.205 F 
ATOM     76  C   UNL A   1      42.825  33.352  33.925  1.00  0.00     0.022 A 
BRANCH  74  77
ATOM     77  S   UNL A   1      40.197  32.760  34.397  1.00  0.00     0.127 S 
ATOM     78  O   UNL A   1      39.645  31.525  33.841  1.00  0.00    -0.237 OA
ATOM     79  O   UNL A   1      39.892  32.982  35.810  1.00  0.00    -0.237 OA
ATOM     80  O   UNL A   1      40.059  33.938  33.551  1.00  0.00    -0.744 OA
ENDBRANCH  74  77
ENDBRANCH  56  70
BRANCH  57  81
ATOM     81  C   UNL A   1      47.546  22.039  37.465  1.00  0.00     0.023 A 
ATOM     82  C   UNL A   1      48.776  21.634  36.909  1.00  0.00     0.012 A 
ATOM     83  C   UNL A   1      46.889  21.183  38.369  1.00  0.00     0.148 A 
ATOM     84  C   UNL A   1      49.318  20.383  37.214  1.00  0.00     0.002 A 
ATOM     85  C   UNL A   1      47.463  19.963  38.714  1.00  0.00     0.091 A 
ATOM     86  F   UNL A   1      45.709  21.574  38.871  1.00  0.00    -0.205 F 
ATOM     87  C   UNL A   1      48.667  19.553  38.122  1.00  0.00     0.022 A 
BRANCH  85  88
ATOM     88  S   UNL A   1      46.756  18.880  39.959  1.00  0.00     0.127 S 
ATOM     89  O   UNL A   1      45.494  18.489  39.335  1.00  0.00    -0.237 OA
ATOM     90  O   UNL A   1      47.760  17.818  40.037  1.00  0.00    -0.237 OA
ATOM     91  O   UNL A   1      46.640  19.689  41.165  1.00  0.00    -0.744 OA
ENDBRANCH  85  88
ENDBRANCH  57  81
BRANCH  69  92
ATOM     92  C   UNL A   1      46.510  28.029  40.904  1.00  0.00     0.023 A 
ATOM     93  C   UNL A   1      45.564  27.770  41.914  1.00  0.00     0.012 A 
ATOM     94  C   UNL A   1      47.744  28.619  41.251  1.00  0.00     0.148 A 
ATOM     95  C   UNL A   1      45.824  28.123  43.238  1.00  0.00     0.002 A 
ATOM     96  C   UNL A   1      48.018  28.919  42.580  1.00  0.00     0.091 A 
ATOM     97  F   UNL A   1      48.628  28.871  40.275  1.00  0.00    -0.205 F 
ATOM     98  C   UNL A   1      47.054  28.685  43.574  1.00  0.00     0.022 A 
BRANCH  96  99
ATOM     99  S   UNL A   1      49.610  29.554  43.120  1.00  0.00     0.127 S 
ATOM    100  O   UNL A   1      50.314  28.325  43.478  1.00  0.00    -0.237 OA
ATOM    101  O   UNL A   1      50.106  30.213  41.912  1.00  0.00    -0.237 OA
ATOM    102  O   UNL A   1      49.328  30.457  44.229  1.00  0.00    -0.744 OA
ENDBRANCH  96  99
ENDBRANCH  69  92
ENDBRANCH  43  44
ENDBRANCH  36  38
ENDBRANCH  35  36
ENDBRANCH  34  35
ENDBRANCH  33  34
ENDBRANCH  32  33
ENDBRANCH  31  32
ENDBRANCH   1  31
TORSDOF 27
ENDMDL
