MODEL 1
REMARK VINA RESULT:     -10.4      0.000      0.000
REMARK SMILES Cc1ccc(-c2nn(-c3ccccc3)cc2[C@@H]2[NH2+][C@H](C(=O)OCCOCCOCCOC(=O)c3ccc(-c4c5nc(c(-c6cccc(S(=O)(=O)[O-])c6F)c6ccc([nH]6)c(-c6cccc(S(=O)(=O)[O-])c6F)c6nc(c(-c7cccc(S(=O)(=O)[O-])c7F)c7ccc4[nH]7)C=C6)C=C5)cc3)CS2)cc1
REMARK SMILES IDX 27 1 26 2 25 3 24 4 23 5 22 6 20 7 21 8 19 9 17 10 18 11
REMARK SMILES IDX 98 12 97 15 16 16 6 17 7 18 8 19 15 20 5 21 1 22 2 23 3 24
REMARK SMILES IDX 100 25 4 26 99 27 9 28 10 29 14 30 11 31 13 32 12 33 28 34
REMARK SMILES IDX 29 35 30 36 31 37 32 38 33 39 34 40 35 41 96 42 36 43 95 44
REMARK SMILES IDX 37 45 38 46 39 47 89 48 40 49 94 50 88 51 90 52 41 53 93 54
REMARK SMILES IDX 87 55 86 56 42 58 74 59 54 60 73 61 55 62 58 63 72 64 91 65
REMARK SMILES IDX 56 66 57 67 71 69 92 70 59 71 43 72 44 73 52 74 45 75 47 76
REMARK SMILES IDX 53 77 46 78 48 79 49 80 50 81 51 82 75 83 76 84 84 85 77 86
REMARK SMILES IDX 79 87 85 88 78 89 80 90 81 91 82 92 83 93 60 94 61 95 69 96
REMARK SMILES IDX 62 97 64 98 70 99 63 100 65 101 66 102 67 103 68 104
REMARK H PARENT 18 13 18 14 90 57 58 68
REMARK Flexibility Score: inf
ROOT
ATOM      1  C   UNL A   1      39.430  34.630  34.870  1.00  0.00     0.188 C 
ENDROOT
BRANCH   1   2
ATOM      2  C   UNL A   1      39.030  34.117  33.487  1.00  0.00     0.188 C 
BRANCH   2   3
ATOM      3  O   UNL A   1      39.547  34.772  32.341  1.00  0.00    -0.376 OA
BRANCH   3   4
ATOM      4  C   UNL A   1      38.758  34.403  31.161  1.00  0.00     0.202 C 
BRANCH   4   5
ATOM      5  C   UNL A   1      39.121  33.012  30.512  1.00  0.00     0.261 C 
BRANCH   5   6
ATOM      6  O   UNL A   1      38.460  31.649  30.413  1.00  0.00    -0.459 OA
BRANCH   6   7
ATOM      7  C   UNL A   1      37.538  30.854  31.022  1.00  0.00     0.365 C 
ATOM      8  O   UNL A   1      36.762  31.131  31.930  1.00  0.00    -0.245 OA
BRANCH   7   9
ATOM      9  C   UNL A   1      37.382  29.457  30.482  1.00  0.00     0.304 C 
ATOM     10  C   UNL A   1      36.154  29.710  28.452  1.00  0.00     0.278 C 
ATOM     11  N   UNL A   1      36.094  29.186  29.833  1.00  0.00    -0.319 N 
ATOM     12  S   UNL A   1      37.885  29.718  27.932  1.00  0.00    -0.087 SA
ATOM     13  H   UNL A   1      35.922  28.181  29.814  1.00  0.00     0.348 HD
ATOM     14  H   UNL A   1      35.338  29.637  30.349  1.00  0.00     0.348 HD
ATOM     15  C   UNL A   1      38.519  29.143  29.522  1.00  0.00     0.153 C 
BRANCH  10  16
ATOM     16  C   UNL A   1      35.390  31.004  28.355  1.00  0.00     0.067 A 
ATOM     17  C   UNL A   1      34.090  31.149  27.782  1.00  0.00     0.103 A 
ATOM     18  N   UNL A   1      33.602  32.391  27.873  1.00  0.00    -0.167 NA
ATOM     19  N   UNL A   1      34.577  33.097  28.522  1.00  0.00    -0.240 N 
ATOM     20  C   UNL A   1      35.709  32.308  28.702  1.00  0.00     0.126 A 
BRANCH  17  21
ATOM     21  C   UNL A   1      33.462  30.137  26.960  1.00  0.00     0.003 A 
ATOM     22  C   UNL A   1      31.540  27.878  23.872  1.00  0.00     0.044 C 
ATOM     23  C   UNL A   1      32.213  28.638  24.972  1.00  0.00    -0.051 A 
ATOM     24  C   UNL A   1      33.506  28.299  25.402  1.00  0.00     0.004 A 
ATOM     25  C   UNL A   1      31.542  29.710  25.567  1.00  0.00     0.004 A 
ATOM     26  C   UNL A   1      34.138  29.050  26.399  1.00  0.00     0.011 A 
ATOM     27  C   UNL A   1      32.162  30.447  26.559  1.00  0.00     0.011 A 
ENDBRANCH  17  21
BRANCH  19  28
ATOM     28  C   UNL A   1      34.267  34.344  29.174  1.00  0.00     0.065 A 
ATOM     29  C   UNL A   1      33.873  35.463  28.420  1.00  0.00     0.028 A 
ATOM     30  C   UNL A   1      34.157  34.412  30.562  1.00  0.00     0.028 A 
ATOM     31  C   UNL A   1      33.335  36.595  29.051  1.00  0.00     0.002 A 
ATOM     32  C   UNL A   1      33.631  35.544  31.194  1.00  0.00     0.002 A 
ATOM     33  C   UNL A   1      33.209  36.633  30.438  1.00  0.00     0.000 A 
ENDBRANCH  19  28
ENDBRANCH  10  16
ENDBRANCH   7   9
ENDBRANCH   6   7
ENDBRANCH   5   6
ENDBRANCH   4   5
ENDBRANCH   3   4
ENDBRANCH   2   3
ENDBRANCH   1   2
BRANCH   1  34
ATOM     34  O   UNL A   1      40.787  34.507  35.307  1.00  0.00    -0.376 OA
BRANCH  34  35
ATOM     35  C   UNL A   1      41.127  33.429  36.176  1.00  0.00     0.202 C 
BRANCH  35  36
ATOM     36  C   UNL A   1      42.606  32.975  36.224  1.00  0.00     0.261 C 
BRANCH  36  37
ATOM     37  O   UNL A   1      42.796  31.664  35.669  1.00  0.00    -0.460 OA
BRANCH  37  38
ATOM     38  C   UNL A   1      42.932  31.597  34.296  1.00  0.00     0.338 C 
ATOM     39  O   UNL A   1      42.896  32.520  33.540  1.00  0.00    -0.246 OA
BRANCH  38  40
ATOM     40  C   UNL A   1      42.780  30.139  33.957  1.00  0.00     0.060 A 
ATOM     41  C   UNL A   1      43.877  29.360  33.633  1.00  0.00     0.016 A 
ATOM     42  C   UNL A   1      41.570  29.678  33.542  1.00  0.00     0.016 A 
ATOM     43  C   UNL A   1      43.779  28.321  32.652  1.00  0.00     0.010 A 
ATOM     44  C   UNL A   1      41.575  28.803  32.440  1.00  0.00     0.010 A 
ATOM     45  C   UNL A   1      42.662  28.124  31.847  1.00  0.00    -0.014 A 
BRANCH  45  46
ATOM     46  C   UNL A   1      42.776  27.553  30.319  1.00  0.00     0.031 A 
ATOM     47  C   UNL A   1      43.146  26.137  29.602  1.00  0.00     0.074 A 
ATOM     48  C   UNL A   1      42.225  28.439  29.444  1.00  0.00     0.049 A 
ATOM     49  N   UNL A   1      42.581  25.717  28.480  1.00  0.00    -0.248 NA
ATOM     50  C   UNL A   1      44.114  25.086  30.008  1.00  0.00     0.031 C 
ATOM     51  C   UNL A   1      41.813  28.289  28.047  1.00  0.00     0.029 A 
ATOM     52  N   UNL A   1      42.119  29.825  29.638  1.00  0.00    -0.354 N 
ATOM     53  C   UNL A   1      42.998  24.423  28.157  1.00  0.00     0.074 A 
ATOM     54  C   UNL A   1      43.862  24.025  29.227  1.00  0.00     0.031 C 
ATOM     55  C   UNL A   1      41.891  29.489  27.450  1.00  0.00     0.029 A 
ATOM     56  C   UNL A   1      42.488  30.394  28.412  1.00  0.00     0.049 A 
ATOM     57  H   UNL A   1      41.846  30.295  30.459  1.00  0.00     0.167 HD
ATOM     58  C   UNL A   1      42.972  23.865  26.904  1.00  0.00     0.034 A 
ATOM     59  C   UNL A   1      43.723  30.970  28.302  1.00  0.00     0.034 A 
ATOM     60  C   UNL A   1      43.187  24.900  25.913  1.00  0.00     0.049 A 
ATOM     61  C   UNL A   1      44.634  30.303  27.280  1.00  0.00     0.074 A 
ATOM     62  C   UNL A   1      42.392  25.748  25.171  1.00  0.00     0.029 A 
ATOM     63  N   UNL A   1      44.484  25.383  25.805  1.00  0.00    -0.354 N 
ATOM     64  N   UNL A   1      44.352  29.247  26.558  1.00  0.00    -0.248 NA
ATOM     65  C   UNL A   1      45.985  30.797  27.028  1.00  0.00     0.031 C 
ATOM     66  C   UNL A   1      43.193  26.894  24.864  1.00  0.00     0.029 A 
ATOM     67  C   UNL A   1      44.477  26.692  25.355  1.00  0.00     0.049 A 
ATOM     68  H   UNL A   1      45.296  24.866  26.017  1.00  0.00     0.167 HD
ATOM     69  C   UNL A   1      45.513  28.787  25.977  1.00  0.00     0.074 A 
ATOM     70  C   UNL A   1      46.460  29.868  26.189  1.00  0.00     0.031 C 
ATOM     71  C   UNL A   1      45.683  27.514  25.491  1.00  0.00     0.034 A 
BRANCH  58  72
ATOM     72  C   UNL A   1      42.825  22.368  26.564  1.00  0.00     0.023 A 
ATOM     73  C   UNL A   1      41.986  21.558  27.372  1.00  0.00     0.012 A 
ATOM     74  C   UNL A   1      43.632  21.661  25.636  1.00  0.00     0.148 A 
ATOM     75  C   UNL A   1      42.006  20.149  27.312  1.00  0.00     0.002 A 
ATOM     76  C   UNL A   1      43.680  20.256  25.601  1.00  0.00     0.091 A 
ATOM     77  F   UNL A   1      44.425  22.354  24.815  1.00  0.00    -0.205 F 
ATOM     78  C   UNL A   1      42.871  19.495  26.447  1.00  0.00     0.022 A 
BRANCH  76  79
ATOM     79  S   UNL A   1      44.873  19.338  24.595  1.00  0.00     0.127 S 
ATOM     80  O   UNL A   1      46.146  19.932  25.009  1.00  0.00    -0.237 OA
ATOM     81  O   UNL A   1      44.671  17.961  25.039  1.00  0.00    -0.237 OA
ATOM     82  O   UNL A   1      44.513  19.603  23.209  1.00  0.00    -0.744 OA
ENDBRANCH  76  79
ENDBRANCH  58  72
BRANCH  59  83
ATOM     83  C   UNL A   1      44.188  31.705  29.543  1.00  0.00     0.023 A 
ATOM     84  C   UNL A   1      45.052  30.997  30.424  1.00  0.00     0.012 A 
ATOM     85  C   UNL A   1      44.054  33.097  29.743  1.00  0.00     0.148 A 
ATOM     86  C   UNL A   1      45.798  31.645  31.412  1.00  0.00     0.002 A 
ATOM     87  C   UNL A   1      44.823  33.747  30.723  1.00  0.00     0.091 A 
ATOM     88  F   UNL A   1      43.280  33.800  28.908  1.00  0.00    -0.205 F 
ATOM     89  C   UNL A   1      45.688  33.022  31.560  1.00  0.00     0.022 A 
BRANCH  87  90
ATOM     90  S   UNL A   1      44.987  35.551  30.752  1.00  0.00     0.127 S 
ATOM     91  O   UNL A   1      43.607  36.000  30.954  1.00  0.00    -0.237 OA
ATOM     92  O   UNL A   1      45.874  35.828  31.873  1.00  0.00    -0.237 OA
ATOM     93  O   UNL A   1      45.525  35.817  29.421  1.00  0.00    -0.744 OA
ENDBRANCH  87  90
ENDBRANCH  59  83
BRANCH  71  94
ATOM     94  C   UNL A   1      47.071  26.929  25.235  1.00  0.00     0.023 A 
ATOM     95  C   UNL A   1      47.755  27.155  24.018  1.00  0.00     0.012 A 
ATOM     96  C   UNL A   1      47.812  26.284  26.252  1.00  0.00     0.148 A 
ATOM     97  C   UNL A   1      49.043  26.670  23.774  1.00  0.00     0.002 A 
ATOM     98  C   UNL A   1      49.148  25.922  26.049  1.00  0.00     0.091 A 
ATOM     99  F   UNL A   1      47.234  26.033  27.437  1.00  0.00    -0.205 F 
ATOM    100  C   UNL A   1      49.752  26.065  24.799  1.00  0.00     0.022 A 
BRANCH  98 101
ATOM    101  S   UNL A   1      50.175  25.473  27.457  1.00  0.00     0.127 S 
ATOM    102  O   UNL A   1      51.523  25.536  26.902  1.00  0.00    -0.237 OA
ATOM    103  O   UNL A   1      49.873  26.520  28.436  1.00  0.00    -0.237 OA
ATOM    104  O   UNL A   1      49.680  24.152  27.826  1.00  0.00    -0.744 OA
ENDBRANCH  98 101
ENDBRANCH  71  94
ENDBRANCH  45  46
ENDBRANCH  38  40
ENDBRANCH  37  38
ENDBRANCH  36  37
ENDBRANCH  35  36
ENDBRANCH  34  35
ENDBRANCH   1  34
TORSDOF 23
ENDMDL
MODEL 2
REMARK VINA RESULT:      -9.9      4.349     10.214
REMARK SMILES Cc1ccc(-c2nn(-c3ccccc3)cc2[C@@H]2[NH2+][C@H](C(=O)OCCOCCOCCOC(=O)c3ccc(-c4c5nc(c(-c6cccc(S(=O)(=O)[O-])c6F)c6ccc([nH]6)c(-c6cccc(S(=O)(=O)[O-])c6F)c6nc(c(-c7cccc(S(=O)(=O)[O-])c7F)c7ccc4[nH]7)C=C6)C=C5)cc3)CS2)cc1
REMARK SMILES IDX 27 1 26 2 25 3 24 4 23 5 22 6 20 7 21 8 19 9 17 10 18 11
REMARK SMILES IDX 98 12 97 15 16 16 6 17 7 18 8 19 15 20 5 21 1 22 2 23 3 24
REMARK SMILES IDX 100 25 4 26 99 27 9 28 10 29 14 30 11 31 13 32 12 33 28 34
REMARK SMILES IDX 29 35 30 36 31 37 32 38 33 39 34 40 35 41 96 42 36 43 95 44
REMARK SMILES IDX 37 45 38 46 39 47 89 48 40 49 94 50 88 51 90 52 41 53 93 54
REMARK SMILES IDX 87 55 86 56 42 58 74 59 54 60 73 61 55 62 58 63 72 64 91 65
REMARK SMILES IDX 56 66 57 67 71 69 92 70 59 71 43 72 44 73 52 74 45 75 47 76
REMARK SMILES IDX 53 77 46 78 48 79 49 80 50 81 51 82 75 83 76 84 84 85 77 86
REMARK SMILES IDX 79 87 85 88 78 89 80 90 81 91 82 92 83 93 60 94 61 95 69 96
REMARK SMILES IDX 62 97 64 98 70 99 63 100 65 101 66 102 67 103 68 104
REMARK H PARENT 18 13 18 14 90 57 58 68
REMARK Flexibility Score: inf
ROOT
ATOM      1  C   UNL A   1      41.022  22.221  27.930  1.00  0.00     0.188 C 
ENDROOT
BRANCH   1   2
ATOM      2  C   UNL A   1      41.251  23.463  27.069  1.00  0.00     0.188 C 
BRANCH   2   3
ATOM      3  O   UNL A   1      40.756  24.711  27.527  1.00  0.00    -0.376 OA
BRANCH   3   4
ATOM      4  C   UNL A   1      39.347  24.575  27.910  1.00  0.00     0.202 C 
BRANCH   4   5
ATOM      5  C   UNL A   1      38.322  24.524  26.712  1.00  0.00     0.261 C 
BRANCH   5   6
ATOM      6  O   UNL A   1      36.864  24.137  26.540  1.00  0.00    -0.459 OA
BRANCH   6   7
ATOM      7  C   UNL A   1      36.044  23.056  26.433  1.00  0.00     0.365 C 
ATOM      8  O   UNL A   1      34.887  22.925  26.819  1.00  0.00    -0.245 OA
BRANCH   7   9
ATOM      9  C   UNL A   1      36.581  21.867  25.682  1.00  0.00     0.304 C 
ATOM     10  C   UNL A   1      35.253  21.729  23.704  1.00  0.00     0.278 C 
ATOM     11  N   UNL A   1      35.567  21.065  24.987  1.00  0.00    -0.319 N 
ATOM     12  S   UNL A   1      36.697  22.696  23.208  1.00  0.00    -0.087 SA
ATOM     13  H   UNL A   1      35.929  20.128  24.812  1.00  0.00     0.348 HD
ATOM     14  H   UNL A   1      34.726  20.988  25.560  1.00  0.00     0.348 HD
ATOM     15  C   UNL A   1      37.648  22.316  24.695  1.00  0.00     0.153 C 
BRANCH  10  16
ATOM     16  C   UNL A   1      33.933  22.446  23.802  1.00  0.00     0.067 A 
ATOM     17  C   UNL A   1      32.728  21.882  24.320  1.00  0.00     0.103 A 
ATOM     18  N   UNL A   1      31.705  22.744  24.355  1.00  0.00    -0.167 NA
ATOM     19  N   UNL A   1      32.224  23.911  23.865  1.00  0.00    -0.240 N 
ATOM     20  C   UNL A   1      33.523  23.711  23.408  1.00  0.00     0.126 A 
BRANCH  17  21
ATOM     21  C   UNL A   1      32.542  20.464  24.544  1.00  0.00     0.003 A 
ATOM     22  C   UNL A   1      32.814  16.193  24.665  1.00  0.00     0.044 C 
ATOM     23  C   UNL A   1      32.690  17.684  24.643  1.00  0.00    -0.051 A 
ATOM     24  C   UNL A   1      32.793  18.438  25.824  1.00  0.00     0.004 A 
ATOM     25  C   UNL A   1      32.480  18.332  23.423  1.00  0.00     0.004 A 
ATOM     26  C   UNL A   1      32.721  19.834  25.779  1.00  0.00     0.011 A 
ATOM     27  C   UNL A   1      32.400  19.711  23.378  1.00  0.00     0.011 A 
ENDBRANCH  17  21
BRANCH  19  28
ATOM     28  C   UNL A   1      31.573  25.169  24.130  1.00  0.00     0.065 A 
ATOM     29  C   UNL A   1      32.329  26.302  24.478  1.00  0.00     0.028 A 
ATOM     30  C   UNL A   1      30.217  25.340  23.854  1.00  0.00     0.028 A 
ATOM     31  C   UNL A   1      31.740  27.575  24.495  1.00  0.00     0.002 A 
ATOM     32  C   UNL A   1      29.625  26.608  23.882  1.00  0.00     0.002 A 
ATOM     33  C   UNL A   1      30.388  27.728  24.192  1.00  0.00     0.000 A 
ENDBRANCH  19  28
ENDBRANCH  10  16
ENDBRANCH   7   9
ENDBRANCH   6   7
ENDBRANCH   5   6
ENDBRANCH   4   5
ENDBRANCH   3   4
ENDBRANCH   2   3
ENDBRANCH   1   2
BRANCH   1  34
ATOM     34  O   UNL A   1      41.951  21.133  27.867  1.00  0.00    -0.376 OA
BRANCH  34  35
ATOM     35  C   UNL A   1      41.792  20.165  26.834  1.00  0.00     0.202 C 
BRANCH  35  36
ATOM     36  C   UNL A   1      42.918  20.039  25.778  1.00  0.00     0.261 C 
BRANCH  36  37
ATOM     37  O   UNL A   1      43.343  21.315  25.275  1.00  0.00    -0.460 OA
BRANCH  37  38
ATOM     38  C   UNL A   1      44.492  21.318  24.509  1.00  0.00     0.338 C 
ATOM     39  O   UNL A   1      44.835  20.459  23.753  1.00  0.00    -0.246 OA
BRANCH  38  40
ATOM     40  C   UNL A   1      45.344  22.417  25.081  1.00  0.00     0.060 A 
ATOM     41  C   UNL A   1      45.603  22.490  26.439  1.00  0.00     0.016 A 
ATOM     42  C   UNL A   1      45.506  23.567  24.375  1.00  0.00     0.016 A 
ATOM     43  C   UNL A   1      45.710  23.755  27.102  1.00  0.00     0.010 A 
ATOM     44  C   UNL A   1      45.403  24.769  25.099  1.00  0.00     0.010 A 
ATOM     45  C   UNL A   1      45.408  24.970  26.497  1.00  0.00    -0.014 A 
BRANCH  45  46
ATOM     46  C   UNL A   1      44.785  26.231  27.331  1.00  0.00     0.031 A 
ATOM     47  C   UNL A   1      43.401  27.092  27.329  1.00  0.00     0.074 A 
ATOM     48  C   UNL A   1      45.541  26.485  28.435  1.00  0.00     0.049 A 
ATOM     49  N   UNL A   1      42.852  27.595  28.425  1.00  0.00    -0.248 NA
ATOM     50  C   UNL A   1      42.516  27.473  26.199  1.00  0.00     0.031 C 
ATOM     51  C   UNL A   1      45.268  27.281  29.632  1.00  0.00     0.029 A 
ATOM     52  N   UNL A   1      46.907  26.194  28.576  1.00  0.00    -0.354 N 
ATOM     53  C   UNL A   1      41.614  28.182  28.148  1.00  0.00     0.074 A 
ATOM     54  C   UNL A   1      41.393  27.958  26.751  1.00  0.00     0.031 C 
ATOM     55  C   UNL A   1      46.436  27.717  30.128  1.00  0.00     0.029 A 
ATOM     56  C   UNL A   1      47.461  27.329  29.180  1.00  0.00     0.049 A 
ATOM     57  H   UNL A   1      47.373  25.369  28.309  1.00  0.00     0.167 HD
ATOM     58  C   UNL A   1      40.998  29.142  28.908  1.00  0.00     0.034 A 
ATOM     59  C   UNL A   1      48.198  28.187  28.410  1.00  0.00     0.034 A 
ATOM     60  C   UNL A   1      42.004  29.975  29.537  1.00  0.00     0.049 A 
ATOM     61  C   UNL A   1      47.616  29.591  28.308  1.00  0.00     0.074 A 
ATOM     62  C   UNL A   1      42.695  29.972  30.730  1.00  0.00     0.029 A 
ATOM     63  N   UNL A   1      42.657  30.877  28.707  1.00  0.00    -0.354 N 
ATOM     64  N   UNL A   1      46.497  30.010  28.844  1.00  0.00    -0.248 NA
ATOM     65  C   UNL A   1      48.280  30.635  27.533  1.00  0.00     0.031 C 
ATOM     66  C   UNL A   1      43.925  30.663  30.491  1.00  0.00     0.029 A 
ATOM     67  C   UNL A   1      43.929  31.141  29.186  1.00  0.00     0.049 A 
ATOM     68  H   UNL A   1      42.269  31.274  27.893  1.00  0.00     0.167 HD
ATOM     69  C   UNL A   1      46.175  31.232  28.294  1.00  0.00     0.074 A 
ATOM     70  C   UNL A   1      47.386  31.630  27.599  1.00  0.00     0.031 C 
ATOM     71  C   UNL A   1      44.916  31.779  28.311  1.00  0.00     0.034 A 
BRANCH  58  72
ATOM     72  C   UNL A   1      39.480  29.385  29.035  1.00  0.00     0.023 A 
ATOM     73  C   UNL A   1      38.698  29.473  27.855  1.00  0.00     0.012 A 
ATOM     74  C   UNL A   1      38.812  29.755  30.230  1.00  0.00     0.148 A 
ATOM     75  C   UNL A   1      37.374  29.962  27.857  1.00  0.00     0.002 A 
ATOM     76  C   UNL A   1      37.506  30.278  30.229  1.00  0.00     0.091 A 
ATOM     77  F   UNL A   1      39.470  29.668  31.388  1.00  0.00    -0.205 F 
ATOM     78  C   UNL A   1      36.786  30.391  29.039  1.00  0.00     0.022 A 
BRANCH  76  79
ATOM     79  S   UNL A   1      36.726  30.976  31.706  1.00  0.00     0.127 S 
ATOM     80  O   UNL A   1      37.680  32.015  32.096  1.00  0.00    -0.237 OA
ATOM     81  O   UNL A   1      35.456  31.478  31.188  1.00  0.00    -0.237 OA
ATOM     82  O   UNL A   1      36.618  29.877  32.657  1.00  0.00    -0.744 OA
ENDBRANCH  76  79
ENDBRANCH  58  72
BRANCH  59  83
ATOM     83  C   UNL A   1      49.050  27.512  27.355  1.00  0.00     0.023 A 
ATOM     84  C   UNL A   1      48.455  27.316  26.077  1.00  0.00     0.012 A 
ATOM     85  C   UNL A   1      50.446  27.319  27.459  1.00  0.00     0.148 A 
ATOM     86  C   UNL A   1      49.215  27.010  24.945  1.00  0.00     0.002 A 
ATOM     87  C   UNL A   1      51.207  27.033  26.313  1.00  0.00     0.091 A 
ATOM     88  F   UNL A   1      51.043  27.533  28.638  1.00  0.00    -0.205 F 
ATOM     89  C   UNL A   1      50.592  26.872  25.060  1.00  0.00     0.022 A 
BRANCH  87  90
ATOM     90  S   UNL A   1      53.013  27.171  26.321  1.00  0.00     0.127 S 
ATOM     91  O   UNL A   1      53.366  26.904  24.924  1.00  0.00    -0.237 OA
ATOM     92  O   UNL A   1      53.282  28.536  26.752  1.00  0.00    -0.237 OA
ATOM     93  O   UNL A   1      53.384  26.113  27.255  1.00  0.00    -0.744 OA
ENDBRANCH  87  90
ENDBRANCH  59  83
BRANCH  71  94
ATOM     94  C   UNL A   1      44.518  32.910  27.363  1.00  0.00     0.023 A 
ATOM     95  C   UNL A   1      44.266  32.671  25.993  1.00  0.00     0.012 A 
ATOM     96  C   UNL A   1      44.212  34.209  27.833  1.00  0.00     0.148 A 
ATOM     97  C   UNL A   1      43.858  33.679  25.113  1.00  0.00     0.002 A 
ATOM     98  C   UNL A   1      43.674  35.175  26.976  1.00  0.00     0.091 A 
ATOM     99  F   UNL A   1      44.423  34.514  29.122  1.00  0.00    -0.205 F 
ATOM    100  C   UNL A   1      43.543  34.933  25.608  1.00  0.00     0.022 A 
BRANCH  98 101
ATOM    101  S   UNL A   1      42.935  36.665  27.665  1.00  0.00     0.127 S 
ATOM    102  O   UNL A   1      42.274  37.257  26.506  1.00  0.00    -0.237 OA
ATOM    103  O   UNL A   1      42.021  36.143  28.683  1.00  0.00    -0.237 OA
ATOM    104  O   UNL A   1      44.080  37.388  28.207  1.00  0.00    -0.744 OA
ENDBRANCH  98 101
ENDBRANCH  71  94
ENDBRANCH  45  46
ENDBRANCH  38  40
ENDBRANCH  37  38
ENDBRANCH  36  37
ENDBRANCH  35  36
ENDBRANCH  34  35
ENDBRANCH   1  34
TORSDOF 23
ENDMDL
MODEL 3
REMARK VINA RESULT:      -9.9      4.170     10.795
REMARK SMILES Cc1ccc(-c2nn(-c3ccccc3)cc2[C@@H]2[NH2+][C@H](C(=O)OCCOCCOCCOC(=O)c3ccc(-c4c5nc(c(-c6cccc(S(=O)(=O)[O-])c6F)c6ccc([nH]6)c(-c6cccc(S(=O)(=O)[O-])c6F)c6nc(c(-c7cccc(S(=O)(=O)[O-])c7F)c7ccc4[nH]7)C=C6)C=C5)cc3)CS2)cc1
REMARK SMILES IDX 27 1 26 2 25 3 24 4 23 5 22 6 20 7 21 8 19 9 17 10 18 11
REMARK SMILES IDX 98 12 97 15 16 16 6 17 7 18 8 19 15 20 5 21 1 22 2 23 3 24
REMARK SMILES IDX 100 25 4 26 99 27 9 28 10 29 14 30 11 31 13 32 12 33 28 34
REMARK SMILES IDX 29 35 30 36 31 37 32 38 33 39 34 40 35 41 96 42 36 43 95 44
REMARK SMILES IDX 37 45 38 46 39 47 89 48 40 49 94 50 88 51 90 52 41 53 93 54
REMARK SMILES IDX 87 55 86 56 42 58 74 59 54 60 73 61 55 62 58 63 72 64 91 65
REMARK SMILES IDX 56 66 57 67 71 69 92 70 59 71 43 72 44 73 52 74 45 75 47 76
REMARK SMILES IDX 53 77 46 78 48 79 49 80 50 81 51 82 75 83 76 84 84 85 77 86
REMARK SMILES IDX 79 87 85 88 78 89 80 90 81 91 82 92 83 93 60 94 61 95 69 96
REMARK SMILES IDX 62 97 64 98 70 99 63 100 65 101 66 102 67 103 68 104
REMARK H PARENT 18 13 18 14 90 57 58 68
REMARK Flexibility Score: inf
ROOT
ATOM      1  C   UNL A   1      41.403  20.725  27.819  1.00  0.00     0.188 C 
ENDROOT
BRANCH   1   2
ATOM      2  C   UNL A   1      41.871  22.168  27.623  1.00  0.00     0.188 C 
BRANCH   2   3
ATOM      3  O   UNL A   1      40.915  23.211  27.701  1.00  0.00    -0.376 OA
BRANCH   3   4
ATOM      4  C   UNL A   1      40.203  23.327  26.424  1.00  0.00     0.202 C 
BRANCH   4   5
ATOM      5  C   UNL A   1      39.013  22.313  26.218  1.00  0.00     0.261 C 
BRANCH   5   6
ATOM      6  O   UNL A   1      37.976  22.052  25.141  1.00  0.00    -0.459 OA
BRANCH   6   7
ATOM      7  C   UNL A   1      36.992  22.662  24.424  1.00  0.00     0.365 C 
ATOM      8  O   UNL A   1      36.368  22.238  23.458  1.00  0.00    -0.245 OA
BRANCH   7   9
ATOM      9  C   UNL A   1      36.543  24.016  24.903  1.00  0.00     0.304 C 
ATOM     10  C   UNL A   1      34.308  23.692  25.674  1.00  0.00     0.278 C 
ATOM     11  N   UNL A   1      35.137  24.333  24.629  1.00  0.00    -0.319 N 
ATOM     12  S   UNL A   1      35.325  23.505  27.156  1.00  0.00    -0.087 SA
ATOM     13  H   UNL A   1      35.000  25.343  24.651  1.00  0.00     0.348 HD
ATOM     14  H   UNL A   1      34.871  23.987  23.707  1.00  0.00     0.348 HD
ATOM     15  C   UNL A   1      36.824  24.159  26.391  1.00  0.00     0.153 C 
BRANCH  10  16
ATOM     16  C   UNL A   1      33.643  22.459  25.123  1.00  0.00     0.067 A 
ATOM     17  C   UNL A   1      32.606  22.454  24.141  1.00  0.00     0.103 A 
ATOM     18  N   UNL A   1      32.224  21.226  23.773  1.00  0.00    -0.167 NA
ATOM     19  N   UNL A   1      33.017  20.387  24.505  1.00  0.00    -0.240 N 
ATOM     20  C   UNL A   1      33.782  21.111  25.414  1.00  0.00     0.126 A 
BRANCH  17  21
ATOM     21  C   UNL A   1      31.858  23.634  23.764  1.00  0.00     0.003 A 
ATOM     22  C   UNL A   1      30.116  27.530  23.416  1.00  0.00     0.044 C 
ATOM     23  C   UNL A   1      30.706  26.158  23.508  1.00  0.00    -0.051 A 
ATOM     24  C   UNL A   1      31.513  25.645  22.480  1.00  0.00     0.004 A 
ATOM     25  C   UNL A   1      30.457  25.386  24.646  1.00  0.00     0.004 A 
ATOM     26  C   UNL A   1      32.095  24.378  22.605  1.00  0.00     0.011 A 
ATOM     27  C   UNL A   1      31.023  24.131  24.767  1.00  0.00     0.011 A 
ENDBRANCH  17  21
BRANCH  19  28
ATOM     28  C   UNL A   1      33.206  19.018  24.098  1.00  0.00     0.065 A 
ATOM     29  C   UNL A   1      32.501  18.499  22.997  1.00  0.00     0.028 A 
ATOM     30  C   UNL A   1      34.227  18.246  24.651  1.00  0.00     0.028 A 
ATOM     31  C   UNL A   1      32.857  17.260  22.443  1.00  0.00     0.002 A 
ATOM     32  C   UNL A   1      34.574  17.004  24.106  1.00  0.00     0.002 A 
ATOM     33  C   UNL A   1      33.897  16.514  22.995  1.00  0.00     0.000 A 
ENDBRANCH  19  28
ENDBRANCH  10  16
ENDBRANCH   7   9
ENDBRANCH   6   7
ENDBRANCH   5   6
ENDBRANCH   4   5
ENDBRANCH   3   4
ENDBRANCH   2   3
ENDBRANCH   1   2
BRANCH   1  34
ATOM     34  O   UNL A   1      42.344  19.653  27.709  1.00  0.00    -0.376 OA
BRANCH  34  35
ATOM     35  C   UNL A   1      42.239  18.768  26.597  1.00  0.00     0.202 C 
BRANCH  35  36
ATOM     36  C   UNL A   1      43.268  18.921  25.449  1.00  0.00     0.261 C 
BRANCH  36  37
ATOM     37  O   UNL A   1      43.714  20.276  25.289  1.00  0.00    -0.460 OA
BRANCH  37  38
ATOM     38  C   UNL A   1      44.444  20.548  24.148  1.00  0.00     0.338 C 
ATOM     39  O   UNL A   1      44.579  19.822  23.210  1.00  0.00    -0.246 OA
BRANCH  38  40
ATOM     40  C   UNL A   1      45.280  21.750  24.494  1.00  0.00     0.060 A 
ATOM     41  C   UNL A   1      45.877  21.875  25.736  1.00  0.00     0.016 A 
ATOM     42  C   UNL A   1      45.110  22.900  23.788  1.00  0.00     0.016 A 
ATOM     43  C   UNL A   1      46.003  23.155  26.368  1.00  0.00     0.010 A 
ATOM     44  C   UNL A   1      45.058  24.093  24.534  1.00  0.00     0.010 A 
ATOM     45  C   UNL A   1      45.408  24.315  25.884  1.00  0.00    -0.014 A 
BRANCH  45  46
ATOM     46  C   UNL A   1      44.882  25.505  26.873  1.00  0.00     0.031 A 
ATOM     47  C   UNL A   1      43.514  26.370  27.073  1.00  0.00     0.074 A 
ATOM     48  C   UNL A   1      45.741  25.664  27.918  1.00  0.00     0.049 A 
ATOM     49  N   UNL A   1      43.076  26.783  28.253  1.00  0.00    -0.248 NA
ATOM     50  C   UNL A   1      42.532  26.847  26.065  1.00  0.00     0.031 C 
ATOM     51  C   UNL A   1      45.590  26.359  29.197  1.00  0.00     0.029 A 
ATOM     52  N   UNL A   1      47.110  25.356  27.907  1.00  0.00    -0.354 N 
ATOM     53  C   UNL A   1      41.825  27.396  28.142  1.00  0.00     0.074 A 
ATOM     54  C   UNL A   1      41.472  27.289  26.758  1.00  0.00     0.031 C 
ATOM     55  C   UNL A   1      46.805  26.748  29.615  1.00  0.00     0.029 A 
ATOM     56  C   UNL A   1      47.732  26.435  28.546  1.00  0.00     0.049 A 
ATOM     57  H   UNL A   1      47.539  24.553  27.530  1.00  0.00     0.167 HD
ATOM     58  C   UNL A   1      41.294  28.293  29.034  1.00  0.00     0.034 A 
ATOM     59  C   UNL A   1      48.404  27.350  27.784  1.00  0.00     0.034 A 
ATOM     60  C   UNL A   1      42.365  29.067  29.631  1.00  0.00     0.049 A 
ATOM     61  C   UNL A   1      47.832  28.760  27.851  1.00  0.00     0.074 A 
ATOM     62  C   UNL A   1      43.164  28.961  30.749  1.00  0.00     0.029 A 
ATOM     63  N   UNL A   1      42.948  30.031  28.820  1.00  0.00    -0.354 N 
ATOM     64  N   UNL A   1      46.773  29.139  28.523  1.00  0.00    -0.248 NA
ATOM     65  C   UNL A   1      48.434  29.861  27.106  1.00  0.00     0.031 C 
ATOM     66  C   UNL A   1      44.375  29.665  30.453  1.00  0.00     0.029 A 
ATOM     67  C   UNL A   1      44.262  30.249  29.197  1.00  0.00     0.049 A 
ATOM     68  H   UNL A   1      42.491  30.496  28.081  1.00  0.00     0.167 HD
ATOM     69  C   UNL A   1      46.417  30.403  28.108  1.00  0.00     0.074 A 
ATOM     70  C   UNL A   1      47.563  30.852  27.337  1.00  0.00     0.031 C 
ATOM     71  C   UNL A   1      45.171  30.953  28.288  1.00  0.00     0.034 A 
BRANCH  58  72
ATOM     72  C   UNL A   1      39.798  28.531  29.322  1.00  0.00     0.023 A 
ATOM     73  C   UNL A   1      38.930  28.837  28.243  1.00  0.00     0.012 A 
ATOM     74  C   UNL A   1      39.234  28.694  30.613  1.00  0.00     0.148 A 
ATOM     75  C   UNL A   1      37.625  29.337  28.436  1.00  0.00     0.002 A 
ATOM     76  C   UNL A   1      37.947  29.227  30.808  1.00  0.00     0.091 A 
ATOM     77  F   UNL A   1      39.976  28.395  31.681  1.00  0.00    -0.205 F 
ATOM     78  C   UNL A   1      37.142  29.558  29.717  1.00  0.00     0.022 A 
BRANCH  76  79
ATOM     79  S   UNL A   1      37.302  29.665  32.442  1.00  0.00     0.127 S 
ATOM     80  O   UNL A   1      38.280  30.650  32.906  1.00  0.00    -0.237 OA
ATOM     81  O   UNL A   1      35.985  30.214  32.127  1.00  0.00    -0.237 OA
ATOM     82  O   UNL A   1      37.291  28.427  33.210  1.00  0.00    -0.744 OA
ENDBRANCH  76  79
ENDBRANCH  58  72
BRANCH  59  83
ATOM     83  C   UNL A   1      49.145  26.761  26.601  1.00  0.00     0.023 A 
ATOM     84  C   UNL A   1      48.578  26.975  25.314  1.00  0.00     0.012 A 
ATOM     85  C   UNL A   1      50.468  26.266  26.654  1.00  0.00     0.148 A 
ATOM     86  C   UNL A   1      49.306  26.774  24.139  1.00  0.00     0.002 A 
ATOM     87  C   UNL A   1      51.203  26.086  25.469  1.00  0.00     0.091 A 
ATOM     88  F   UNL A   1      51.046  26.090  27.848  1.00  0.00    -0.205 F 
ATOM     89  C   UNL A   1      50.621  26.333  24.215  1.00  0.00     0.022 A 
BRANCH  87  90
ATOM     90  S   UNL A   1      52.998  25.844  25.500  1.00  0.00     0.127 S 
ATOM     91  O   UNL A   1      53.353  25.862  24.078  1.00  0.00    -0.237 OA
ATOM     92  O   UNL A   1      53.515  26.975  26.257  1.00  0.00    -0.237 OA
ATOM     93  O   UNL A   1      53.106  24.535  26.138  1.00  0.00    -0.744 OA
ENDBRANCH  87  90
ENDBRANCH  59  83
BRANCH  71  94
ATOM     94  C   UNL A   1      44.700  32.160  27.478  1.00  0.00     0.023 A 
ATOM     95  C   UNL A   1      44.511  32.082  26.079  1.00  0.00     0.012 A 
ATOM     96  C   UNL A   1      44.266  33.355  28.097  1.00  0.00     0.148 A 
ATOM     97  C   UNL A   1      44.038  33.158  25.320  1.00  0.00     0.002 A 
ATOM     98  C   UNL A   1      43.667  34.375  27.351  1.00  0.00     0.091 A 
ATOM     99  F   UNL A   1      44.411  33.506  29.423  1.00  0.00    -0.205 F 
ATOM    100  C   UNL A   1      43.598  34.305  25.959  1.00  0.00     0.022 A 
BRANCH  98 101
ATOM    101  S   UNL A   1      42.778  35.693  28.194  1.00  0.00     0.127 S 
ATOM    102  O   UNL A   1      42.178  36.432  27.088  1.00  0.00    -0.237 OA
ATOM    103  O   UNL A   1      41.819  34.966  29.029  1.00  0.00    -0.237 OA
ATOM    104  O   UNL A   1      43.824  36.376  28.946  1.00  0.00    -0.744 OA
ENDBRANCH  98 101
ENDBRANCH  71  94
ENDBRANCH  45  46
ENDBRANCH  38  40
ENDBRANCH  37  38
ENDBRANCH  36  37
ENDBRANCH  35  36
ENDBRANCH  34  35
ENDBRANCH   1  34
TORSDOF 23
ENDMDL
