MODEL 1
REMARK VINA RESULT:     -11.3      0.000      0.000
REMARK SMILES Cc1cc2cc(-c3ccc([C@@H](C)C(=O)OCCOCCOCCOC(=O)c4ccc(-c5c6nc(c(-c7cccc(S(=O)(=O)[O-])c7F)c7ccc([nH]7)c(-c7cccc(S(=O)(=O)[O-])c7F)c7nc(c(-c8cccc(S(=O)(=O)[O-])c8F)c8ccc5[nH]8)C=C7)C=C6)cc4)cc3)ccc2[nH]1
REMARK SMILES IDX 20 1 19 2 18 3 17 4 16 5 15 6 13 7 14 8 11 9 12 10 10 11
REMARK SMILES IDX 7 12 8 13 91 14 9 15 90 16 6 17 1 18 2 19 3 20 95 21 4 22
REMARK SMILES IDX 94 23 5 25 93 26 92 27 21 28 22 29 23 30 24 31 25 32 26 33
REMARK SMILES IDX 27 34 28 35 89 36 29 37 88 38 30 39 31 40 32 41 82 42 33 43
REMARK SMILES IDX 87 44 81 45 83 46 34 47 86 48 80 49 79 50 35 52 67 53 47 54
REMARK SMILES IDX 66 55 48 56 51 57 65 58 84 59 49 60 50 61 64 63 85 64 52 65
REMARK SMILES IDX 36 66 37 67 45 68 38 69 40 70 46 71 39 72 41 73 42 74 43 75
REMARK SMILES IDX 44 76 68 77 69 78 77 79 70 80 72 81 78 82 71 83 73 84 74 85
REMARK SMILES IDX 75 86 76 87 53 88 54 89 62 90 55 91 57 92 63 93 56 94 58 95
REMARK SMILES IDX 59 96 60 97 61 98
REMARK H PARENT 95 24 83 51 51 62
REMARK Flexibility Score: inf
ROOT
ATOM      1  C   UNL A   1      35.118  23.907  24.563  1.00  0.00     0.188 C 
ENDROOT
BRANCH   1   2
ATOM      2  C   UNL A   1      34.249  24.170  25.802  1.00  0.00     0.188 C 
BRANCH   2   3
ATOM      3  O   UNL A   1      33.381  25.297  25.804  1.00  0.00    -0.376 OA
BRANCH   3   4
ATOM      4  C   UNL A   1      33.941  26.605  25.809  1.00  0.00     0.202 C 
BRANCH   4   5
ATOM      5  C   UNL A   1      33.011  27.806  26.050  1.00  0.00     0.261 C 
BRANCH   5   6
ATOM      6  O   UNL A   1      31.944  27.973  25.089  1.00  0.00    -0.463 OA
BRANCH   6   7
ATOM      7  C   UNL A   1      32.315  28.256  23.814  1.00  0.00     0.313 C 
ATOM      8  O   UNL A   1      33.126  29.138  23.535  1.00  0.00    -0.252 OA
BRANCH   7   9
ATOM      9  C   UNL A   1      31.683  27.401  22.709  1.00  0.00     0.126 C 
ATOM     10  C   UNL A   1      30.218  27.814  22.565  1.00  0.00     0.025 C 
BRANCH   9  11
ATOM     11  C   UNL A   1      31.789  25.876  22.716  1.00  0.00    -0.034 A 
ATOM     12  C   UNL A   1      31.917  23.019  22.824  1.00  0.00    -0.018 A 
ATOM     13  C   UNL A   1      32.845  23.773  22.084  1.00  0.00     0.009 A 
ATOM     14  C   UNL A   1      30.913  23.717  23.503  1.00  0.00     0.009 A 
ATOM     15  C   UNL A   1      32.794  25.177  22.039  1.00  0.00     0.005 A 
ATOM     16  C   UNL A   1      30.855  25.121  23.458  1.00  0.00     0.005 A 
BRANCH  12  17
ATOM     17  C   UNL A   1      32.057  21.553  22.934  1.00  0.00    -0.018 A 
ATOM     18  C   UNL A   1      33.163  16.185  25.697  1.00  0.00     0.064 C 
ATOM     19  C   UNL A   1      32.874  17.449  24.977  1.00  0.00     0.013 A 
ATOM     20  C   UNL A   1      32.814  18.748  25.437  1.00  0.00     0.031 A 
ATOM     21  N   UNL A   1      32.601  17.484  23.628  1.00  0.00    -0.359 N 
ATOM     22  C   UNL A   1      32.514  19.593  24.336  1.00  0.00     0.000 A 
ATOM     23  C   UNL A   1      32.382  18.781  23.214  1.00  0.00     0.046 A 
ATOM     24  H   UNL A   1      32.566  16.694  23.041  1.00  0.00     0.166 HD
ATOM     25  C   UNL A   1      32.344  20.984  24.192  1.00  0.00     0.019 A 
ATOM     26  C   UNL A   1      32.080  19.300  21.948  1.00  0.00     0.027 A 
ATOM     27  C   UNL A   1      31.921  20.695  21.832  1.00  0.00     0.011 A 
ENDBRANCH  12  17
ENDBRANCH   9  11
ENDBRANCH   7   9
ENDBRANCH   6   7
ENDBRANCH   5   6
ENDBRANCH   4   5
ENDBRANCH   3   4
ENDBRANCH   2   3
ENDBRANCH   1   2
BRANCH   1  28
ATOM     28  O   UNL A   1      36.125  22.934  24.747  1.00  0.00    -0.376 OA
BRANCH  28  29
ATOM     29  C   UNL A   1      35.705  21.651  25.162  1.00  0.00     0.202 C 
BRANCH  29  30
ATOM     30  C   UNL A   1      36.803  20.583  25.275  1.00  0.00     0.261 C 
BRANCH  30  31
ATOM     31  O   UNL A   1      38.147  21.019  24.994  1.00  0.00    -0.460 OA
BRANCH  31  32
ATOM     32  C   UNL A   1      39.103  20.701  25.894  1.00  0.00     0.338 C 
ATOM     33  O   UNL A   1      39.605  19.597  26.069  1.00  0.00    -0.246 OA
BRANCH  32  34
ATOM     34  C   UNL A   1      39.613  21.958  26.488  1.00  0.00     0.060 A 
ATOM     35  C   UNL A   1      39.060  23.181  26.081  1.00  0.00     0.016 A 
ATOM     36  C   UNL A   1      40.633  21.932  27.442  1.00  0.00     0.016 A 
ATOM     37  C   UNL A   1      39.559  24.383  26.589  1.00  0.00     0.010 A 
ATOM     38  C   UNL A   1      41.144  23.137  27.935  1.00  0.00     0.010 A 
ATOM     39  C   UNL A   1      40.640  24.370  27.480  1.00  0.00    -0.014 A 
BRANCH  39  40
ATOM     40  C   UNL A   1      41.377  25.627  27.775  1.00  0.00     0.031 A 
ATOM     41  C   UNL A   1      40.651  26.724  28.509  1.00  0.00     0.074 A 
ATOM     42  C   UNL A   1      42.657  25.804  27.398  1.00  0.00     0.049 A 
ATOM     43  N   UNL A   1      41.063  27.922  28.832  1.00  0.00    -0.248 NA
ATOM     44  C   UNL A   1      39.271  26.429  28.930  1.00  0.00     0.031 C 
ATOM     45  C   UNL A   1      43.477  24.825  26.690  1.00  0.00     0.029 A 
ATOM     46  N   UNL A   1      43.480  26.895  27.539  1.00  0.00    -0.354 N 
ATOM     47  C   UNL A   1      39.985  28.537  29.458  1.00  0.00     0.074 A 
ATOM     48  C   UNL A   1      38.897  27.584  29.461  1.00  0.00     0.031 C 
ATOM     49  C   UNL A   1      44.679  25.370  26.430  1.00  0.00     0.029 A 
ATOM     50  C   UNL A   1      44.704  26.744  26.928  1.00  0.00     0.049 A 
ATOM     51  H   UNL A   1      43.220  27.708  28.032  1.00  0.00     0.167 HD
ATOM     52  C   UNL A   1      39.906  29.777  29.995  1.00  0.00     0.034 A 
ATOM     53  C   UNL A   1      45.713  27.624  26.766  1.00  0.00     0.034 A 
ATOM     54  C   UNL A   1      40.989  30.722  30.007  1.00  0.00     0.049 A 
ATOM     55  C   UNL A   1      45.593  29.010  27.351  1.00  0.00     0.074 A 
ATOM     56  C   UNL A   1      41.020  31.987  30.567  1.00  0.00     0.029 A 
ATOM     57  N   UNL A   1      42.226  30.517  29.416  1.00  0.00    -0.354 N 
ATOM     58  N   UNL A   1      44.608  29.538  28.036  1.00  0.00    -0.248 NA
ATOM     59  C   UNL A   1      46.744  29.909  27.172  1.00  0.00     0.031 C 
ATOM     60  C   UNL A   1      42.262  32.562  30.282  1.00  0.00     0.029 A 
ATOM     61  C   UNL A   1      43.023  31.635  29.587  1.00  0.00     0.049 A 
ATOM     62  H   UNL A   1      42.497  29.697  28.944  1.00  0.00     0.167 HD
ATOM     63  C   UNL A   1      45.036  30.810  28.407  1.00  0.00     0.074 A 
ATOM     64  C   UNL A   1      46.377  30.966  27.884  1.00  0.00     0.031 C 
ATOM     65  C   UNL A   1      44.377  31.763  29.110  1.00  0.00     0.034 A 
BRANCH  52  66
ATOM     66  C   UNL A   1      38.598  30.184  30.625  1.00  0.00     0.023 A 
ATOM     67  C   UNL A   1      38.339  29.866  31.974  1.00  0.00     0.012 A 
ATOM     68  C   UNL A   1      37.649  30.923  29.895  1.00  0.00     0.148 A 
ATOM     69  C   UNL A   1      37.140  30.247  32.574  1.00  0.00     0.002 A 
ATOM     70  C   UNL A   1      36.478  31.342  30.514  1.00  0.00     0.091 A 
ATOM     71  F   UNL A   1      37.904  31.196  28.607  1.00  0.00    -0.205 F 
ATOM     72  C   UNL A   1      36.215  30.993  31.848  1.00  0.00     0.022 A 
BRANCH  70  73
ATOM     73  S   UNL A   1      35.263  32.378  29.691  1.00  0.00     0.127 S 
ATOM     74  O   UNL A   1      34.647  31.430  28.764  1.00  0.00    -0.237 OA
ATOM     75  O   UNL A   1      34.406  32.787  30.804  1.00  0.00    -0.237 OA
ATOM     76  O   UNL A   1      36.011  33.461  29.069  1.00  0.00    -0.744 OA
ENDBRANCH  70  73
ENDBRANCH  52  66
BRANCH  53  77
ATOM     77  C   UNL A   1      46.948  27.220  26.034  1.00  0.00     0.023 A 
ATOM     78  C   UNL A   1      47.028  27.410  24.640  1.00  0.00     0.012 A 
ATOM     79  C   UNL A   1      48.041  26.642  26.710  1.00  0.00     0.148 A 
ATOM     80  C   UNL A   1      48.156  26.998  23.928  1.00  0.00     0.002 A 
ATOM     81  C   UNL A   1      49.184  26.287  26.004  1.00  0.00     0.091 A 
ATOM     82  F   UNL A   1      47.939  26.454  28.033  1.00  0.00    -0.205 F 
ATOM     83  C   UNL A   1      49.236  26.446  24.610  1.00  0.00     0.022 A 
BRANCH  81  84
ATOM     84  S   UNL A   1      50.668  25.678  26.811  1.00  0.00     0.127 S 
ATOM     85  O   UNL A   1      51.576  25.509  25.679  1.00  0.00    -0.237 OA
ATOM     86  O   UNL A   1      50.998  26.788  27.705  1.00  0.00    -0.237 OA
ATOM     87  O   UNL A   1      50.273  24.452  27.490  1.00  0.00    -0.744 OA
ENDBRANCH  81  84
ENDBRANCH  53  77
BRANCH  65  88
ATOM     88  C   UNL A   1      45.109  33.046  29.419  1.00  0.00     0.023 A 
ATOM     89  C   UNL A   1      45.804  33.196  30.636  1.00  0.00     0.012 A 
ATOM     90  C   UNL A   1      45.159  34.084  28.465  1.00  0.00     0.148 A 
ATOM     91  C   UNL A   1      46.498  34.374  30.916  1.00  0.00     0.002 A 
ATOM     92  C   UNL A   1      45.898  35.231  28.728  1.00  0.00     0.091 A 
ATOM     93  F   UNL A   1      44.481  33.932  27.319  1.00  0.00    -0.205 F 
ATOM     94  C   UNL A   1      46.554  35.385  29.959  1.00  0.00     0.022 A 
BRANCH  92  95
ATOM     95  S   UNL A   1      46.110  36.539  27.515  1.00  0.00     0.127 S 
ATOM     96  O   UNL A   1      46.145  35.783  26.264  1.00  0.00    -0.237 OA
ATOM     97  O   UNL A   1      44.901  37.341  27.710  1.00  0.00    -0.237 OA
ATOM     98  O   UNL A   1      47.349  37.219  27.869  1.00  0.00    -0.744 OA
ENDBRANCH  92  95
ENDBRANCH  65  88
ENDBRANCH  39  40
ENDBRANCH  32  34
ENDBRANCH  31  32
ENDBRANCH  30  31
ENDBRANCH  29  30
ENDBRANCH  28  29
ENDBRANCH   1  28
TORSDOF 22
ENDMDL
MODEL 2
REMARK VINA RESULT:     -11.3      0.861      7.549
REMARK SMILES Cc1cc2cc(-c3ccc([C@@H](C)C(=O)OCCOCCOCCOC(=O)c4ccc(-c5c6nc(c(-c7cccc(S(=O)(=O)[O-])c7F)c7ccc([nH]7)c(-c7cccc(S(=O)(=O)[O-])c7F)c7nc(c(-c8cccc(S(=O)(=O)[O-])c8F)c8ccc5[nH]8)C=C7)C=C6)cc4)cc3)ccc2[nH]1
REMARK SMILES IDX 20 1 19 2 18 3 17 4 16 5 15 6 13 7 14 8 11 9 12 10 10 11
REMARK SMILES IDX 7 12 8 13 91 14 9 15 90 16 6 17 1 18 2 19 3 20 95 21 4 22
REMARK SMILES IDX 94 23 5 25 93 26 92 27 21 28 22 29 23 30 24 31 25 32 26 33
REMARK SMILES IDX 27 34 28 35 89 36 29 37 88 38 30 39 31 40 32 41 82 42 33 43
REMARK SMILES IDX 87 44 81 45 83 46 34 47 86 48 80 49 79 50 35 52 67 53 47 54
REMARK SMILES IDX 66 55 48 56 51 57 65 58 84 59 49 60 50 61 64 63 85 64 52 65
REMARK SMILES IDX 36 66 37 67 45 68 38 69 40 70 46 71 39 72 41 73 42 74 43 75
REMARK SMILES IDX 44 76 68 77 69 78 77 79 70 80 72 81 78 82 71 83 73 84 74 85
REMARK SMILES IDX 75 86 76 87 53 88 54 89 62 90 55 91 57 92 63 93 56 94 58 95
REMARK SMILES IDX 59 96 60 97 61 98
REMARK H PARENT 95 24 83 51 51 62
REMARK Flexibility Score: inf
ROOT
ATOM      1  C   UNL A   1      35.290  23.533  24.545  1.00  0.00     0.188 C 
ENDROOT
BRANCH   1   2
ATOM      2  C   UNL A   1      34.491  23.901  25.803  1.00  0.00     0.188 C 
BRANCH   2   3
ATOM      3  O   UNL A   1      33.530  24.949  25.724  1.00  0.00    -0.376 OA
BRANCH   3   4
ATOM      4  C   UNL A   1      33.972  26.300  25.769  1.00  0.00     0.202 C 
BRANCH   4   5
ATOM      5  C   UNL A   1      32.971  27.391  26.186  1.00  0.00     0.261 C 
BRANCH   5   6
ATOM      6  O   UNL A   1      31.887  27.632  25.261  1.00  0.00    -0.463 OA
BRANCH   6   7
ATOM      7  C   UNL A   1      32.232  28.072  24.024  1.00  0.00     0.313 C 
ATOM      8  O   UNL A   1      32.923  29.073  23.840  1.00  0.00    -0.252 OA
BRANCH   7   9
ATOM      9  C   UNL A   1      31.731  27.243  22.835  1.00  0.00     0.126 C 
ATOM     10  C   UNL A   1      30.293  27.663  22.531  1.00  0.00     0.025 C 
BRANCH   9  11
ATOM     11  C   UNL A   1      31.834  25.717  22.822  1.00  0.00    -0.034 A 
ATOM     12  C   UNL A   1      31.954  22.859  22.890  1.00  0.00    -0.018 A 
ATOM     13  C   UNL A   1      32.908  23.622  22.194  1.00  0.00     0.009 A 
ATOM     14  C   UNL A   1      30.928  23.549  23.544  1.00  0.00     0.009 A 
ATOM     15  C   UNL A   1      32.860  25.027  22.168  1.00  0.00     0.005 A 
ATOM     16  C   UNL A   1      30.875  24.953  23.520  1.00  0.00     0.005 A 
BRANCH  12  17
ATOM     17  C   UNL A   1      32.087  21.391  22.982  1.00  0.00    -0.018 A 
ATOM     18  C   UNL A   1      33.088  15.978  25.696  1.00  0.00     0.064 C 
ATOM     19  C   UNL A   1      32.826  17.254  24.987  1.00  0.00     0.013 A 
ATOM     20  C   UNL A   1      32.753  18.545  25.465  1.00  0.00     0.031 A 
ATOM     21  N   UNL A   1      32.599  17.310  23.630  1.00  0.00    -0.359 N 
ATOM     22  C   UNL A   1      32.492  19.408  24.367  1.00  0.00     0.000 A 
ATOM     23  C   UNL A   1      32.397  18.614  23.229  1.00  0.00     0.046 A 
ATOM     24  H   UNL A   1      32.583  16.530  23.030  1.00  0.00     0.166 HD
ATOM     25  C   UNL A   1      32.330  20.801  24.239  1.00  0.00     0.019 A 
ATOM     26  C   UNL A   1      32.139  19.154  21.962  1.00  0.00     0.027 A 
ATOM     27  C   UNL A   1      31.987  20.551  21.862  1.00  0.00     0.011 A 
ENDBRANCH  12  17
ENDBRANCH   9  11
ENDBRANCH   7   9
ENDBRANCH   6   7
ENDBRANCH   5   6
ENDBRANCH   4   5
ENDBRANCH   3   4
ENDBRANCH   2   3
ENDBRANCH   1   2
BRANCH   1  28
ATOM     28  O   UNL A   1      36.439  22.749  24.787  1.00  0.00    -0.376 OA
BRANCH  28  29
ATOM     29  C   UNL A   1      36.241  21.359  24.943  1.00  0.00     0.202 C 
BRANCH  29  30
ATOM     30  C   UNL A   1      37.498  20.524  25.229  1.00  0.00     0.261 C 
BRANCH  30  31
ATOM     31  O   UNL A   1      38.748  21.238  25.238  1.00  0.00    -0.460 OA
BRANCH  31  32
ATOM     32  C   UNL A   1      39.555  21.066  26.309  1.00  0.00     0.338 C 
ATOM     33  O   UNL A   1      40.079  20.019  26.668  1.00  0.00    -0.246 OA
BRANCH  32  34
ATOM     34  C   UNL A   1      39.887  22.401  26.856  1.00  0.00     0.060 A 
ATOM     35  C   UNL A   1      39.079  23.498  26.521  1.00  0.00     0.016 A 
ATOM     36  C   UNL A   1      40.990  22.573  27.694  1.00  0.00     0.016 A 
ATOM     37  C   UNL A   1      39.402  24.777  26.983  1.00  0.00     0.010 A 
ATOM     38  C   UNL A   1      41.322  23.856  28.140  1.00  0.00     0.010 A 
ATOM     39  C   UNL A   1      40.556  24.971  27.753  1.00  0.00    -0.014 A 
BRANCH  39  40
ATOM     40  C   UNL A   1      41.078  26.344  27.978  1.00  0.00     0.031 A 
ATOM     41  C   UNL A   1      42.428  26.695  27.408  1.00  0.00     0.074 A 
ATOM     42  C   UNL A   1      40.385  27.263  28.674  1.00  0.00     0.049 A 
ATOM     43  N   UNL A   1      43.113  27.804  27.514  1.00  0.00    -0.248 NA
ATOM     44  C   UNL A   1      43.097  25.650  26.615  1.00  0.00     0.031 C 
ATOM     45  C   UNL A   1      39.069  27.059  29.273  1.00  0.00     0.029 A 
ATOM     46  N   UNL A   1      40.717  28.551  29.019  1.00  0.00    -0.354 N 
ATOM     47  C   UNL A   1      44.306  27.578  26.836  1.00  0.00     0.074 A 
ATOM     48  C   UNL A   1      44.257  26.224  26.332  1.00  0.00     0.031 C 
ATOM     49  C   UNL A   1      38.715  28.173  29.939  1.00  0.00     0.029 A 
ATOM     50  C   UNL A   1      39.791  29.158  29.837  1.00  0.00     0.049 A 
ATOM     51  H   UNL A   1      41.538  28.999  28.709  1.00  0.00     0.167 HD
ATOM     52  C   UNL A   1      45.346  28.423  26.639  1.00  0.00     0.034 A 
ATOM     53  C   UNL A   1      39.824  30.357  30.454  1.00  0.00     0.034 A 
ATOM     54  C   UNL A   1      45.393  29.774  27.127  1.00  0.00     0.049 A 
ATOM     55  C   UNL A   1      41.005  31.271  30.240  1.00  0.00     0.074 A 
ATOM     56  C   UNL A   1      46.384  30.721  26.940  1.00  0.00     0.029 A 
ATOM     57  N   UNL A   1      44.418  30.366  27.915  1.00  0.00    -0.354 N 
ATOM     58  N   UNL A   1      42.075  31.085  29.506  1.00  0.00    -0.248 NA
ATOM     59  C   UNL A   1      40.963  32.580  30.911  1.00  0.00     0.031 C 
ATOM     60  C   UNL A   1      46.026  31.874  27.647  1.00  0.00     0.029 A 
ATOM     61  C   UNL A   1      44.789  31.661  28.232  1.00  0.00     0.049 A 
ATOM     62  H   UNL A   1      43.586  29.929  28.206  1.00  0.00     0.167 HD
ATOM     63  C   UNL A   1      42.810  32.265  29.591  1.00  0.00     0.074 A 
ATOM     64  C   UNL A   1      42.053  33.165  30.434  1.00  0.00     0.031 C 
ATOM     65  C   UNL A   1      44.005  32.571  29.028  1.00  0.00     0.034 A 
BRANCH  52  66
ATOM     66  C   UNL A   1      46.523  27.908  25.851  1.00  0.00     0.023 A 
ATOM     67  C   UNL A   1      46.548  28.053  24.448  1.00  0.00     0.012 A 
ATOM     68  C   UNL A   1      47.626  27.327  26.505  1.00  0.00     0.148 A 
ATOM     69  C   UNL A   1      47.636  27.594  23.707  1.00  0.00     0.002 A 
ATOM     70  C   UNL A   1      48.728  26.917  25.764  1.00  0.00     0.091 A 
ATOM     71  F   UNL A   1      47.575  27.179  27.836  1.00  0.00    -0.205 F 
ATOM     72  C   UNL A   1      48.729  27.036  24.365  1.00  0.00     0.022 A 
BRANCH  70  73
ATOM     73  S   UNL A   1      50.218  26.265  26.524  1.00  0.00     0.127 S 
ATOM     74  O   UNL A   1      51.108  26.141  25.371  1.00  0.00    -0.237 OA
ATOM     75  O   UNL A   1      50.577  27.332  27.459  1.00  0.00    -0.237 OA
ATOM     76  O   UNL A   1      49.835  25.009  27.153  1.00  0.00    -0.744 OA
ENDBRANCH  70  73
ENDBRANCH  52  66
BRANCH  53  77
ATOM     77  C   UNL A   1      38.688  30.784  31.322  1.00  0.00     0.023 A 
ATOM     78  C   UNL A   1      38.740  30.542  32.709  1.00  0.00     0.012 A 
ATOM     79  C   UNL A   1      37.556  31.422  30.779  1.00  0.00     0.148 A 
ATOM     80  C   UNL A   1      37.669  30.892  33.534  1.00  0.00     0.002 A 
ATOM     81  C   UNL A   1      36.518  31.820  31.613  1.00  0.00     0.091 A 
ATOM     82  F   UNL A   1      37.518  31.628  29.455  1.00  0.00    -0.205 F 
ATOM     83  C   UNL A   1      36.564  31.539  32.988  1.00  0.00     0.022 A 
BRANCH  81  84
ATOM     84  S   UNL A   1      35.109  32.762  31.021  1.00  0.00     0.127 S 
ATOM     85  O   UNL A   1      34.718  32.002  29.836  1.00  0.00    -0.237 OA
ATOM     86  O   UNL A   1      34.185  32.658  32.151  1.00  0.00    -0.237 OA
ATOM     87  O   UNL A   1      35.609  34.106  30.771  1.00  0.00    -0.744 OA
ENDBRANCH  81  84
ENDBRANCH  53  77
BRANCH  65  88
ATOM     88  C   UNL A   1      44.551  33.961  29.245  1.00  0.00     0.023 A 
ATOM     89  C   UNL A   1      45.478  34.210  30.277  1.00  0.00     0.012 A 
ATOM     90  C   UNL A   1      44.188  35.012  28.377  1.00  0.00     0.148 A 
ATOM     91  C   UNL A   1      45.999  35.490  30.469  1.00  0.00     0.002 A 
ATOM     92  C   UNL A   1      44.755  36.270  28.539  1.00  0.00     0.091 A 
ATOM     93  F   UNL A   1      43.295  34.762  27.409  1.00  0.00    -0.205 F 
ATOM     94  C   UNL A   1      45.647  36.516  29.594  1.00  0.00     0.022 A 
BRANCH  92  95
ATOM     95  S   UNL A   1      44.437  37.623  27.400  1.00  0.00     0.127 S 
ATOM     96  O   UNL A   1      44.354  38.765  28.309  1.00  0.00    -0.237 OA
ATOM     97  O   UNL A   1      45.631  37.602  26.554  1.00  0.00    -0.237 OA
ATOM     98  O   UNL A   1      43.201  37.284  26.707  1.00  0.00    -0.744 OA
ENDBRANCH  92  95
ENDBRANCH  65  88
ENDBRANCH  39  40
ENDBRANCH  32  34
ENDBRANCH  31  32
ENDBRANCH  30  31
ENDBRANCH  29  30
ENDBRANCH  28  29
ENDBRANCH   1  28
TORSDOF 22
ENDMDL
MODEL 3
REMARK VINA RESULT:     -10.6      1.983      7.800
REMARK SMILES Cc1cc2cc(-c3ccc([C@@H](C)C(=O)OCCOCCOCCOC(=O)c4ccc(-c5c6nc(c(-c7cccc(S(=O)(=O)[O-])c7F)c7ccc([nH]7)c(-c7cccc(S(=O)(=O)[O-])c7F)c7nc(c(-c8cccc(S(=O)(=O)[O-])c8F)c8ccc5[nH]8)C=C7)C=C6)cc4)cc3)ccc2[nH]1
REMARK SMILES IDX 20 1 19 2 18 3 17 4 16 5 15 6 13 7 14 8 11 9 12 10 10 11
REMARK SMILES IDX 7 12 8 13 91 14 9 15 90 16 6 17 1 18 2 19 3 20 95 21 4 22
REMARK SMILES IDX 94 23 5 25 93 26 92 27 21 28 22 29 23 30 24 31 25 32 26 33
REMARK SMILES IDX 27 34 28 35 89 36 29 37 88 38 30 39 31 40 32 41 82 42 33 43
REMARK SMILES IDX 87 44 81 45 83 46 34 47 86 48 80 49 79 50 35 52 67 53 47 54
REMARK SMILES IDX 66 55 48 56 51 57 65 58 84 59 49 60 50 61 64 63 85 64 52 65
REMARK SMILES IDX 36 66 37 67 45 68 38 69 40 70 46 71 39 72 41 73 42 74 43 75
REMARK SMILES IDX 44 76 68 77 69 78 77 79 70 80 72 81 78 82 71 83 73 84 74 85
REMARK SMILES IDX 75 86 76 87 53 88 54 89 62 90 55 91 57 92 63 93 56 94 58 95
REMARK SMILES IDX 59 96 60 97 61 98
REMARK H PARENT 95 24 83 51 51 62
REMARK Flexibility Score: inf
ROOT
ATOM      1  C   UNL A   1      36.860  24.152  25.758  1.00  0.00     0.188 C 
ENDROOT
BRANCH   1   2
ATOM      2  C   UNL A   1      35.698  23.827  24.808  1.00  0.00     0.188 C 
BRANCH   2   3
ATOM      3  O   UNL A   1      34.676  24.798  24.617  1.00  0.00    -0.376 OA
BRANCH   3   4
ATOM      4  C   UNL A   1      34.241  25.576  25.726  1.00  0.00     0.202 C 
BRANCH   4   5
ATOM      5  C   UNL A   1      33.644  26.968  25.463  1.00  0.00     0.261 C 
BRANCH   5   6
ATOM      6  O   UNL A   1      33.731  27.438  24.098  1.00  0.00    -0.463 OA
BRANCH   6   7
ATOM      7  C   UNL A   1      32.588  27.922  23.549  1.00  0.00     0.313 C 
ATOM      8  O   UNL A   1      32.195  29.074  23.731  1.00  0.00    -0.252 OA
BRANCH   7   9
ATOM      9  C   UNL A   1      31.794  26.961  22.655  1.00  0.00     0.126 C 
ATOM     10  C   UNL A   1      30.323  27.376  22.695  1.00  0.00     0.025 C 
BRANCH   9  11
ATOM     11  C   UNL A   1      31.905  25.445  22.812  1.00  0.00    -0.034 A 
ATOM     12  C   UNL A   1      32.165  22.601  23.000  1.00  0.00    -0.018 A 
ATOM     13  C   UNL A   1      31.285  23.319  23.829  1.00  0.00     0.009 A 
ATOM     14  C   UNL A   1      32.925  23.330  22.080  1.00  0.00     0.009 A 
ATOM     15  C   UNL A   1      31.145  24.714  23.731  1.00  0.00     0.005 A 
ATOM     16  C   UNL A   1      32.790  24.725  21.980  1.00  0.00     0.005 A 
BRANCH  12  17
ATOM     17  C   UNL A   1      32.217  21.126  23.058  1.00  0.00    -0.018 A 
ATOM     18  C   UNL A   1      32.931  15.605  25.641  1.00  0.00     0.064 C 
ATOM     19  C   UNL A   1      32.736  16.909  24.963  1.00  0.00     0.013 A 
ATOM     20  C   UNL A   1      32.739  18.191  25.470  1.00  0.00     0.031 A 
ATOM     21  N   UNL A   1      32.505  17.009  23.609  1.00  0.00    -0.359 N 
ATOM     22  C   UNL A   1      32.519  19.092  24.395  1.00  0.00     0.000 A 
ATOM     23  C   UNL A   1      32.373  18.332  23.239  1.00  0.00     0.046 A 
ATOM     24  H   UNL A   1      32.441  16.245  22.992  1.00  0.00     0.166 HD
ATOM     25  C   UNL A   1      32.434  20.495  24.300  1.00  0.00     0.019 A 
ATOM     26  C   UNL A   1      32.138  18.914  21.987  1.00  0.00     0.027 A 
ATOM     27  C   UNL A   1      32.064  20.319  21.920  1.00  0.00     0.011 A 
ENDBRANCH  12  17
ENDBRANCH   9  11
ENDBRANCH   7   9
ENDBRANCH   6   7
ENDBRANCH   5   6
ENDBRANCH   4   5
ENDBRANCH   3   4
ENDBRANCH   2   3
ENDBRANCH   1   2
BRANCH   1  28
ATOM     28  O   UNL A   1      37.516  23.022  26.293  1.00  0.00    -0.376 OA
BRANCH  28  29
ATOM     29  C   UNL A   1      37.792  21.962  25.401  1.00  0.00     0.202 C 
BRANCH  29  30
ATOM     30  C   UNL A   1      39.060  21.146  25.691  1.00  0.00     0.261 C 
BRANCH  30  31
ATOM     31  O   UNL A   1      39.931  21.664  26.714  1.00  0.00    -0.460 OA
BRANCH  31  32
ATOM     32  C   UNL A   1      41.040  22.323  26.310  1.00  0.00     0.338 C 
ATOM     33  O   UNL A   1      41.869  21.929  25.498  1.00  0.00    -0.246 OA
BRANCH  32  34
ATOM     34  C   UNL A   1      40.976  23.704  26.841  1.00  0.00     0.060 A 
ATOM     35  C   UNL A   1      40.768  24.769  25.952  1.00  0.00     0.016 A 
ATOM     36  C   UNL A   1      41.121  23.948  28.208  1.00  0.00     0.016 A 
ATOM     37  C   UNL A   1      40.754  26.085  26.423  1.00  0.00     0.010 A 
ATOM     38  C   UNL A   1      41.126  25.267  28.674  1.00  0.00     0.010 A 
ATOM     39  C   UNL A   1      40.986  26.344  27.780  1.00  0.00    -0.014 A 
BRANCH  39  40
ATOM     40  C   UNL A   1      41.289  27.728  28.232  1.00  0.00     0.031 A 
ATOM     41  C   UNL A   1      42.729  28.172  28.249  1.00  0.00     0.074 A 
ATOM     42  C   UNL A   1      40.322  28.575  28.626  1.00  0.00     0.049 A 
ATOM     43  N   UNL A   1      43.245  29.305  28.649  1.00  0.00    -0.248 NA
ATOM     44  C   UNL A   1      43.720  27.203  27.753  1.00  0.00     0.031 C 
ATOM     45  C   UNL A   1      38.892  28.277  28.652  1.00  0.00     0.029 A 
ATOM     46  N   UNL A   1      40.408  29.857  29.111  1.00  0.00    -0.354 N 
ATOM     47  C   UNL A   1      44.620  29.172  28.489  1.00  0.00     0.074 A 
ATOM     48  C   UNL A   1      44.859  27.845  27.966  1.00  0.00     0.031 C 
ATOM     49  C   UNL A   1      38.235  29.337  29.158  1.00  0.00     0.029 A 
ATOM     50  C   UNL A   1      39.199  30.375  29.517  1.00  0.00     0.049 A 
ATOM     51  H   UNL A   1      41.254  30.359  29.163  1.00  0.00     0.167 HD
ATOM     52  C   UNL A   1      45.597  30.074  28.742  1.00  0.00     0.034 A 
ATOM     53  C   UNL A   1      38.911  31.541  30.132  1.00  0.00     0.034 A 
ATOM     54  C   UNL A   1      45.362  31.399  29.248  1.00  0.00     0.049 A 
ATOM     55  C   UNL A   1      40.020  32.521  30.427  1.00  0.00     0.074 A 
ATOM     56  C   UNL A   1      46.284  32.401  29.494  1.00  0.00     0.029 A 
ATOM     57  N   UNL A   1      44.121  31.902  29.606  1.00  0.00    -0.354 N 
ATOM     58  N   UNL A   1      41.302  32.424  30.168  1.00  0.00    -0.248 NA
ATOM     59  C   UNL A   1      39.635  33.789  31.065  1.00  0.00     0.031 C 
ATOM     60  C   UNL A   1      45.605  33.496  30.037  1.00  0.00     0.029 A 
ATOM     61  C   UNL A   1      44.254  33.195  30.082  1.00  0.00     0.049 A 
ATOM     62  H   UNL A   1      43.271  31.412  29.533  1.00  0.00     0.167 HD
ATOM     63  C   UNL A   1      41.867  33.631  30.570  1.00  0.00     0.074 A 
ATOM     64  C   UNL A   1      40.784  34.450  31.073  1.00  0.00     0.031 C 
ATOM     65  C   UNL A   1      43.165  34.024  30.531  1.00  0.00     0.034 A 
BRANCH  52  66
ATOM     66  C   UNL A   1      47.019  29.658  28.465  1.00  0.00     0.023 A 
ATOM     67  C   UNL A   1      47.613  29.964  27.223  1.00  0.00     0.012 A 
ATOM     68  C   UNL A   1      47.783  29.010  29.454  1.00  0.00     0.148 A 
ATOM     69  C   UNL A   1      48.932  29.598  26.958  1.00  0.00     0.002 A 
ATOM     70  C   UNL A   1      49.111  28.692  29.200  1.00  0.00     0.091 A 
ATOM     71  F   UNL A   1      47.194  28.708  30.620  1.00  0.00    -0.205 F 
ATOM     72  C   UNL A   1      49.683  28.972  27.949  1.00  0.00     0.022 A 
BRANCH  70  73
ATOM     73  S   UNL A   1      50.187  27.962  30.439  1.00  0.00     0.127 S 
ATOM     74  O   UNL A   1      49.516  26.689  30.699  1.00  0.00    -0.237 OA
ATOM     75  O   UNL A   1      51.453  27.847  29.716  1.00  0.00    -0.237 OA
ATOM     76  O   UNL A   1      50.207  28.894  31.557  1.00  0.00    -0.744 OA
ENDBRANCH  70  73
ENDBRANCH  52  66
BRANCH  53  77
ATOM     77  C   UNL A   1      37.502  31.867  30.495  1.00  0.00     0.023 A 
ATOM     78  C   UNL A   1      36.997  31.482  31.753  1.00  0.00     0.012 A 
ATOM     79  C   UNL A   1      36.657  32.551  29.599  1.00  0.00     0.148 A 
ATOM     80  C   UNL A   1      35.669  31.736  32.097  1.00  0.00     0.002 A 
ATOM     81  C   UNL A   1      35.352  32.853  29.969  1.00  0.00     0.091 A 
ATOM     82  F   UNL A   1      37.150  32.894  28.401  1.00  0.00    -0.205 F 
ATOM     83  C   UNL A   1      34.850  32.429  31.210  1.00  0.00     0.022 A 
BRANCH  81  84
ATOM     84  S   UNL A   1      34.260  33.842  28.942  1.00  0.00     0.127 S 
ATOM     85  O   UNL A   1      33.295  34.336  29.921  1.00  0.00    -0.237 OA
ATOM     86  O   UNL A   1      35.179  34.853  28.419  1.00  0.00    -0.237 OA
ATOM     87  O   UNL A   1      33.730  32.931  27.938  1.00  0.00    -0.744 OA
ENDBRANCH  81  84
ENDBRANCH  53  77
BRANCH  65  88
ATOM     88  C   UNL A   1      43.492  35.424  30.986  1.00  0.00     0.023 A 
ATOM     89  C   UNL A   1      43.868  35.671  32.322  1.00  0.00     0.012 A 
ATOM     90  C   UNL A   1      43.486  36.492  30.064  1.00  0.00     0.148 A 
ATOM     91  C   UNL A   1      44.189  36.963  32.742  1.00  0.00     0.002 A 
ATOM     92  C   UNL A   1      43.862  37.764  30.477  1.00  0.00     0.091 A 
ATOM     93  F   UNL A   1      43.113  36.243  28.801  1.00  0.00    -0.205 F 
ATOM     94  C   UNL A   1      44.197  38.006  31.818  1.00  0.00     0.022 A 
BRANCH  92  95
ATOM     95  S   UNL A   1      43.999  39.145  29.335  1.00  0.00     0.127 S 
ATOM     96  O   UNL A   1      45.287  38.876  28.696  1.00  0.00    -0.237 OA
ATOM     97  O   UNL A   1      42.836  38.948  28.469  1.00  0.00    -0.237 OA
ATOM     98  O   UNL A   1      43.946  40.350  30.152  1.00  0.00    -0.744 OA
ENDBRANCH  92  95
ENDBRANCH  65  88
ENDBRANCH  39  40
ENDBRANCH  32  34
ENDBRANCH  31  32
ENDBRANCH  30  31
ENDBRANCH  29  30
ENDBRANCH  28  29
ENDBRANCH   1  28
TORSDOF 22
ENDMDL
