MODEL 1
REMARK VINA RESULT:      -9.5      0.000      0.000
REMARK SMILES C#Cc1ccc2c(c1)C=C(C(=O)OCCOCCOCCOC(=O)c1ccc(-c3c4nc(c(-c5cccc(S(=O)(=O)[O-])c5F)c5ccc([nH]5)c(-c5cccc(S(=O)(=O)[O-])c5F)c5nc(c(-c6cccc(S(=O)(=O)[O-])c6F)c6ccc3[nH]6)C=C5)C=C4)cc1)[C@@H](C(F)(F)F)O2
REMARK SMILES IDX 18 1 17 2 16 3 15 4 14 5 13 6 11 7 12 8 10 9 3 10 4 11 8 12
REMARK SMILES IDX 5 13 7 14 6 15 9 16 93 17 88 18 2 19 1 20 89 21 90 22 91 23
REMARK SMILES IDX 92 24 19 25 20 26 21 27 22 28 23 29 24 30 25 31 26 32 87 33
REMARK SMILES IDX 27 34 86 35 28 36 29 37 30 38 80 39 31 40 85 41 79 42 81 43
REMARK SMILES IDX 32 44 84 45 78 46 77 47 33 49 65 50 45 51 64 52 46 53 49 54
REMARK SMILES IDX 63 55 82 56 47 57 48 58 62 60 83 61 50 62 34 63 35 64 43 65
REMARK SMILES IDX 36 66 38 67 44 68 37 69 39 70 40 71 41 72 42 73 66 74 67 75
REMARK SMILES IDX 75 76 68 77 70 78 76 79 69 80 71 81 72 82 73 83 74 84 51 85
REMARK SMILES IDX 52 86 60 87 53 88 55 89 61 90 54 91 56 92 57 93 58 94 59 95
REMARK H PARENT 81 48 49 59
REMARK Flexibility Score: inf
ROOT
ATOM      1  C   UNL A   1      33.281  35.338  29.888  1.00  0.00     0.188 C 
ENDROOT
BRANCH   1   2
ATOM      2  C   UNL A   1      32.526  36.467  30.621  1.00  0.00     0.188 C 
BRANCH   2   3
ATOM      3  O   UNL A   1      33.278  37.614  30.937  1.00  0.00    -0.376 OA
BRANCH   3   4
ATOM      4  C   UNL A   1      33.690  37.866  32.268  1.00  0.00     0.202 C 
BRANCH   4   5
ATOM      5  C   UNL A   1      33.892  36.811  33.376  1.00  0.00     0.261 C 
BRANCH   5   6
ATOM      6  O   UNL A   1      34.843  35.768  33.149  1.00  0.00    -0.460 OA
BRANCH   6   7
ATOM      7  C   UNL A   1      34.380  34.502  33.302  1.00  0.00     0.338 C 
ATOM      8  O   UNL A   1      33.309  34.071  32.914  1.00  0.00    -0.246 OA
BRANCH   7   9
ATOM      9  C   UNL A   1      35.449  33.662  33.885  1.00  0.00     0.087 C 
ATOM     10  C   UNL A   1      38.803  32.985  37.267  1.00  0.00     0.025 A 
ATOM     11  C   UNL A   1      39.319  31.916  36.532  1.00  0.00     0.021 A 
ATOM     12  C   UNL A   1      37.653  33.646  36.824  1.00  0.00     0.029 A 
ATOM     13  C   UNL A   1      38.674  31.494  35.368  1.00  0.00     0.048 A 
ATOM     14  C   UNL A   1      37.036  33.257  35.628  1.00  0.00     0.018 A 
ATOM     15  C   UNL A   1      37.535  32.164  34.917  1.00  0.00     0.128 A 
ATOM     16  C   UNL A   1      35.934  34.030  35.078  1.00  0.00     0.027 C 
ATOM     17  O   UNL A   1      36.981  31.688  33.764  1.00  0.00    -0.475 OA
ATOM     18  C   UNL A   1      35.912  32.444  33.133  1.00  0.00     0.316 C 
BRANCH  10  19
ATOM     19  C   UNL A   1      39.476  33.432  38.445  1.00  0.00    -0.070 C 
ATOM     20  C   UNL A   1      40.046  33.784  39.444  1.00  0.00     0.010 C 
ENDBRANCH  10  19
BRANCH  18  21
ATOM     21  C   UNL A   1      36.343  32.781  31.700  1.00  0.00     0.430 C 
ATOM     22  F   UNL A   1      37.313  31.939  31.265  1.00  0.00    -0.167 F 
ATOM     23  F   UNL A   1      35.315  32.663  30.825  1.00  0.00    -0.167 F 
ATOM     24  F   UNL A   1      36.822  34.040  31.594  1.00  0.00    -0.167 F 
ENDBRANCH  18  21
ENDBRANCH   7   9
ENDBRANCH   6   7
ENDBRANCH   5   6
ENDBRANCH   4   5
ENDBRANCH   3   4
ENDBRANCH   2   3
ENDBRANCH   1   2
BRANCH   1  25
ATOM     25  O   UNL A   1      34.006  35.652  28.718  1.00  0.00    -0.376 OA
BRANCH  25  26
ATOM     26  C   UNL A   1      34.679  34.618  28.015  1.00  0.00     0.202 C 
BRANCH  26  27
ATOM     27  C   UNL A   1      34.168  33.166  27.860  1.00  0.00     0.261 C 
BRANCH  27  28
ATOM     28  O   UNL A   1      35.093  32.159  27.433  1.00  0.00    -0.460 OA
BRANCH  28  29
ATOM     29  C   UNL A   1      34.865  30.898  27.889  1.00  0.00     0.338 C 
ATOM     30  O   UNL A   1      33.858  30.233  27.730  1.00  0.00    -0.246 OA
BRANCH  29  31
ATOM     31  C   UNL A   1      36.138  30.376  28.435  1.00  0.00     0.060 A 
ATOM     32  C   UNL A   1      36.120  29.407  29.436  1.00  0.00     0.016 A 
ATOM     33  C   UNL A   1      37.359  30.897  27.976  1.00  0.00     0.016 A 
ATOM     34  C   UNL A   1      37.327  28.953  29.972  1.00  0.00     0.010 A 
ATOM     35  C   UNL A   1      38.565  30.455  28.531  1.00  0.00     0.010 A 
ATOM     36  C   UNL A   1      38.560  29.465  29.521  1.00  0.00    -0.014 A 
BRANCH  36  37
ATOM     37  C   UNL A   1      39.823  28.828  29.971  1.00  0.00     0.031 A 
ATOM     38  C   UNL A   1      40.460  27.685  29.237  1.00  0.00     0.074 A 
ATOM     39  C   UNL A   1      40.410  29.317  31.082  1.00  0.00     0.049 A 
ATOM     40  N   UNL A   1      41.619  27.118  29.462  1.00  0.00    -0.248 NA
ATOM     41  C   UNL A   1      39.712  27.097  28.116  1.00  0.00     0.031 C 
ATOM     42  C   UNL A   1      39.859  30.389  31.914  1.00  0.00     0.029 A 
ATOM     43  N   UNL A   1      41.591  28.990  31.698  1.00  0.00    -0.354 N 
ATOM     44  C   UNL A   1      41.745  26.109  28.517  1.00  0.00     0.074 A 
ATOM     45  C   UNL A   1      40.531  26.126  27.726  1.00  0.00     0.031 C 
ATOM     46  C   UNL A   1      40.713  30.651  32.913  1.00  0.00     0.029 A 
ATOM     47  C   UNL A   1      41.858  29.751  32.810  1.00  0.00     0.049 A 
ATOM     48  H   UNL A   1      42.190  28.278  31.375  1.00  0.00     0.167 HD
ATOM     49  C   UNL A   1      42.786  25.264  28.318  1.00  0.00     0.034 A 
ATOM     50  C   UNL A   1      42.906  29.737  33.657  1.00  0.00     0.034 A 
ATOM     51  C   UNL A   1      43.994  25.256  29.102  1.00  0.00     0.049 A 
ATOM     52  C   UNL A   1      44.042  28.790  33.416  1.00  0.00     0.074 A 
ATOM     53  C   UNL A   1      45.123  24.474  28.924  1.00  0.00     0.029 A 
ATOM     54  N   UNL A   1      44.227  26.043  30.218  1.00  0.00    -0.354 N 
ATOM     55  N   UNL A   1      44.198  27.932  32.439  1.00  0.00    -0.248 NA
ATOM     56  C   UNL A   1      45.157  28.821  34.375  1.00  0.00     0.031 C 
ATOM     57  C   UNL A   1      46.023  24.761  29.953  1.00  0.00     0.029 A 
ATOM     58  C   UNL A   1      45.472  25.750  30.750  1.00  0.00     0.049 A 
ATOM     59  H   UNL A   1      43.601  26.710  30.581  1.00  0.00     0.167 HD
ATOM     60  C   UNL A   1      45.435  27.335  32.651  1.00  0.00     0.074 A 
ATOM     61  C   UNL A   1      45.993  27.938  33.844  1.00  0.00     0.031 C 
ATOM     62  C   UNL A   1      46.043  26.371  31.919  1.00  0.00     0.034 A 
BRANCH  49  63
ATOM     63  C   UNL A   1      42.708  24.289  27.174  1.00  0.00     0.023 A 
ATOM     64  C   UNL A   1      43.326  24.612  25.949  1.00  0.00     0.012 A 
ATOM     65  C   UNL A   1      42.152  23.007  27.353  1.00  0.00     0.148 A 
ATOM     66  C   UNL A   1      43.387  23.677  24.917  1.00  0.00     0.002 A 
ATOM     67  C   UNL A   1      42.237  22.071  26.329  1.00  0.00     0.091 A 
ATOM     68  F   UNL A   1      41.571  22.723  28.528  1.00  0.00    -0.205 F 
ATOM     69  C   UNL A   1      42.853  22.405  25.111  1.00  0.00     0.022 A 
BRANCH  67  70
ATOM     70  S   UNL A   1      41.616  20.393  26.486  1.00  0.00     0.127 S 
ATOM     71  O   UNL A   1      40.173  20.602  26.355  1.00  0.00    -0.237 OA
ATOM     72  O   UNL A   1      42.241  19.725  25.346  1.00  0.00    -0.237 OA
ATOM     73  O   UNL A   1      42.053  19.920  27.792  1.00  0.00    -0.744 OA
ENDBRANCH  67  70
ENDBRANCH  49  63
BRANCH  50  74
ATOM     74  C   UNL A   1      42.930  30.709  34.782  1.00  0.00     0.023 A 
ATOM     75  C   UNL A   1      42.571  30.284  36.074  1.00  0.00     0.012 A 
ATOM     76  C   UNL A   1      43.400  32.022  34.588  1.00  0.00     0.148 A 
ATOM     77  C   UNL A   1      42.679  31.155  37.159  1.00  0.00     0.002 A 
ATOM     78  C   UNL A   1      43.537  32.873  35.676  1.00  0.00     0.091 A 
ATOM     79  F   UNL A   1      43.742  32.393  33.346  1.00  0.00    -0.205 F 
ATOM     80  C   UNL A   1      43.172  32.443  36.962  1.00  0.00     0.022 A 
BRANCH  78  81
ATOM     81  S   UNL A   1      44.231  34.523  35.535  1.00  0.00     0.127 S 
ATOM     82  O   UNL A   1      44.272  34.948  36.933  1.00  0.00    -0.237 OA
ATOM     83  O   UNL A   1      45.536  34.246  34.936  1.00  0.00    -0.237 OA
ATOM     84  O   UNL A   1      43.315  35.270  34.685  1.00  0.00    -0.744 OA
ENDBRANCH  78  81
ENDBRANCH  50  74
BRANCH  62  85
ATOM     85  C   UNL A   1      47.399  25.889  32.358  1.00  0.00     0.023 A 
ATOM     86  C   UNL A   1      48.554  26.551  31.902  1.00  0.00     0.012 A 
ATOM     87  C   UNL A   1      47.516  24.870  33.325  1.00  0.00     0.148 A 
ATOM     88  C   UNL A   1      49.810  26.207  32.404  1.00  0.00     0.002 A 
ATOM     89  C   UNL A   1      48.766  24.553  33.841  1.00  0.00     0.091 A 
ATOM     90  F   UNL A   1      46.399  24.254  33.739  1.00  0.00    -0.205 F 
ATOM     91  C   UNL A   1      49.914  25.219  33.382  1.00  0.00     0.022 A 
BRANCH  89  92
ATOM     92  S   UNL A   1      48.999  23.332  35.139  1.00  0.00     0.127 S 
ATOM     93  O   UNL A   1      50.449  23.374  35.328  1.00  0.00    -0.237 OA
ATOM     94  O   UNL A   1      48.223  23.900  36.241  1.00  0.00    -0.237 OA
ATOM     95  O   UNL A   1      48.485  22.075  34.612  1.00  0.00    -0.744 OA
ENDBRANCH  89  92
ENDBRANCH  62  85
ENDBRANCH  36  37
ENDBRANCH  29  31
ENDBRANCH  28  29
ENDBRANCH  27  28
ENDBRANCH  26  27
ENDBRANCH  25  26
ENDBRANCH   1  25
TORSDOF 22
ENDMDL
MODEL 2
REMARK VINA RESULT:      -9.3      4.707     11.103
REMARK SMILES C#Cc1ccc2c(c1)C=C(C(=O)OCCOCCOCCOC(=O)c1ccc(-c3c4nc(c(-c5cccc(S(=O)(=O)[O-])c5F)c5ccc([nH]5)c(-c5cccc(S(=O)(=O)[O-])c5F)c5nc(c(-c6cccc(S(=O)(=O)[O-])c6F)c6ccc3[nH]6)C=C5)C=C4)cc1)[C@@H](C(F)(F)F)O2
REMARK SMILES IDX 18 1 17 2 16 3 15 4 14 5 13 6 11 7 12 8 10 9 3 10 4 11 8 12
REMARK SMILES IDX 5 13 7 14 6 15 9 16 93 17 88 18 2 19 1 20 89 21 90 22 91 23
REMARK SMILES IDX 92 24 19 25 20 26 21 27 22 28 23 29 24 30 25 31 26 32 87 33
REMARK SMILES IDX 27 34 86 35 28 36 29 37 30 38 80 39 31 40 85 41 79 42 81 43
REMARK SMILES IDX 32 44 84 45 78 46 77 47 33 49 65 50 45 51 64 52 46 53 49 54
REMARK SMILES IDX 63 55 82 56 47 57 48 58 62 60 83 61 50 62 34 63 35 64 43 65
REMARK SMILES IDX 36 66 38 67 44 68 37 69 39 70 40 71 41 72 42 73 66 74 67 75
REMARK SMILES IDX 75 76 68 77 70 78 76 79 69 80 71 81 72 82 73 83 74 84 51 85
REMARK SMILES IDX 52 86 60 87 53 88 55 89 61 90 54 91 56 92 57 93 58 94 59 95
REMARK H PARENT 81 48 49 59
REMARK Flexibility Score: inf
ROOT
ATOM      1  C   UNL A   1      30.711  29.296  23.192  1.00  0.00     0.188 C 
ENDROOT
BRANCH   1   2
ATOM      2  C   UNL A   1      30.171  27.902  22.808  1.00  0.00     0.188 C 
BRANCH   2   3
ATOM      3  O   UNL A   1      30.074  26.964  23.854  1.00  0.00    -0.376 OA
BRANCH   3   4
ATOM      4  C   UNL A   1      30.370  25.598  23.631  1.00  0.00     0.202 C 
BRANCH   4   5
ATOM      5  C   UNL A   1      30.613  24.529  24.718  1.00  0.00     0.261 C 
BRANCH   5   6
ATOM      6  O   UNL A   1      31.923  23.969  24.834  1.00  0.00    -0.460 OA
BRANCH   6   7
ATOM      7  C   UNL A   1      32.127  23.158  25.901  1.00  0.00     0.338 C 
ATOM      8  O   UNL A   1      31.621  23.271  27.004  1.00  0.00    -0.246 OA
BRANCH   7   9
ATOM      9  C   UNL A   1      32.949  22.002  25.482  1.00  0.00     0.087 C 
ATOM     10  C   UNL A   1      33.494  17.240  25.071  1.00  0.00     0.025 A 
ATOM     11  C   UNL A   1      34.843  17.427  24.765  1.00  0.00     0.021 A 
ATOM     12  C   UNL A   1      32.660  18.347  25.254  1.00  0.00     0.029 A 
ATOM     13  C   UNL A   1      35.352  18.718  24.621  1.00  0.00     0.048 A 
ATOM     14  C   UNL A   1      33.182  19.643  25.162  1.00  0.00     0.018 A 
ATOM     15  C   UNL A   1      34.523  19.824  24.819  1.00  0.00     0.128 A 
ATOM     16  C   UNL A   1      32.364  20.797  25.499  1.00  0.00     0.027 C 
ATOM     17  O   UNL A   1      35.113  21.046  24.669  1.00  0.00    -0.475 OA
ATOM     18  C   UNL A   1      34.368  22.237  25.041  1.00  0.00     0.316 C 
BRANCH  10  19
ATOM     19  C   UNL A   1      32.978  15.918  25.243  1.00  0.00    -0.070 C 
ATOM     20  C   UNL A   1      32.521  14.814  25.377  1.00  0.00     0.010 C 
ENDBRANCH  10  19
BRANCH  18  21
ATOM     21  C   UNL A   1      35.179  23.001  26.095  1.00  0.00     0.430 C 
ATOM     22  F   UNL A   1      36.509  22.768  25.960  1.00  0.00    -0.167 F 
ATOM     23  F   UNL A   1      35.013  24.341  25.983  1.00  0.00    -0.167 F 
ATOM     24  F   UNL A   1      34.834  22.655  27.355  1.00  0.00    -0.167 F 
ENDBRANCH  18  21
ENDBRANCH   7   9
ENDBRANCH   6   7
ENDBRANCH   5   6
ENDBRANCH   4   5
ENDBRANCH   3   4
ENDBRANCH   2   3
ENDBRANCH   1   2
BRANCH   1  25
ATOM     25  O   UNL A   1      30.638  29.706  24.541  1.00  0.00    -0.376 OA
BRANCH  25  26
ATOM     26  C   UNL A   1      31.723  29.429  25.414  1.00  0.00     0.202 C 
BRANCH  26  27
ATOM     27  C   UNL A   1      32.780  30.458  25.880  1.00  0.00     0.261 C 
BRANCH  27  28
ATOM     28  O   UNL A   1      32.757  30.891  27.244  1.00  0.00    -0.460 OA
BRANCH  28  29
ATOM     29  C   UNL A   1      33.527  31.970  27.549  1.00  0.00     0.338 C 
ATOM     30  O   UNL A   1      33.189  33.139  27.528  1.00  0.00    -0.246 OA
BRANCH  29  31
ATOM     31  C   UNL A   1      34.798  31.473  28.123  1.00  0.00     0.060 A 
ATOM     32  C   UNL A   1      35.902  32.319  28.204  1.00  0.00     0.016 A 
ATOM     33  C   UNL A   1      34.899  30.135  28.538  1.00  0.00     0.016 A 
ATOM     34  C   UNL A   1      37.107  31.826  28.709  1.00  0.00     0.010 A 
ATOM     35  C   UNL A   1      36.113  29.639  29.023  1.00  0.00     0.010 A 
ATOM     36  C   UNL A   1      37.223  30.486  29.131  1.00  0.00    -0.014 A 
BRANCH  36  37
ATOM     37  C   UNL A   1      38.454  30.048  29.837  1.00  0.00     0.031 A 
ATOM     38  C   UNL A   1      38.811  30.525  31.214  1.00  0.00     0.074 A 
ATOM     39  C   UNL A   1      39.265  29.178  29.202  1.00  0.00     0.049 A 
ATOM     40  N   UNL A   1      39.794  30.130  31.982  1.00  0.00    -0.248 NA
ATOM     41  C   UNL A   1      37.971  31.577  31.806  1.00  0.00     0.031 C 
ATOM     42  C   UNL A   1      39.054  28.684  27.839  1.00  0.00     0.029 A 
ATOM     43  N   UNL A   1      40.415  28.553  29.609  1.00  0.00    -0.354 N 
ATOM     44  C   UNL A   1      39.697  30.878  33.148  1.00  0.00     0.074 A 
ATOM     45  C   UNL A   1      38.569  31.770  32.978  1.00  0.00     0.031 C 
ATOM     46  C   UNL A   1      40.024  27.811  27.535  1.00  0.00     0.029 A 
ATOM     47  C   UNL A   1      40.939  27.702  28.667  1.00  0.00     0.049 A 
ATOM     48  H   UNL A   1      40.825  28.700  30.493  1.00  0.00     0.167 HD
ATOM     49  C   UNL A   1      40.468  30.809  34.261  1.00  0.00     0.034 A 
ATOM     50  C   UNL A   1      42.032  26.914  28.702  1.00  0.00     0.034 A 
ATOM     51  C   UNL A   1      41.585  29.915  34.429  1.00  0.00     0.049 A 
ATOM     52  C   UNL A   1      42.869  26.860  29.945  1.00  0.00     0.074 A 
ATOM     53  C   UNL A   1      42.376  29.739  35.551  1.00  0.00     0.029 A 
ATOM     54  N   UNL A   1      42.083  29.068  33.453  1.00  0.00    -0.354 N 
ATOM     55  N   UNL A   1      42.683  27.480  31.083  1.00  0.00    -0.248 NA
ATOM     56  C   UNL A   1      44.048  25.982  29.922  1.00  0.00     0.031 C 
ATOM     57  C   UNL A   1      43.376  28.813  35.243  1.00  0.00     0.029 A 
ATOM     58  C   UNL A   1      43.184  28.382  33.941  1.00  0.00     0.049 A 
ATOM     59  H   UNL A   1      41.712  28.968  32.547  1.00  0.00     0.167 HD
ATOM     60  C   UNL A   1      43.708  27.055  31.919  1.00  0.00     0.074 A 
ATOM     61  C   UNL A   1      44.506  26.115  31.161  1.00  0.00     0.031 C 
ATOM     62  C   UNL A   1      43.960  27.422  33.198  1.00  0.00     0.034 A 
BRANCH  49  63
ATOM     63  C   UNL A   1      40.118  31.691  35.430  1.00  0.00     0.023 A 
ATOM     64  C   UNL A   1      40.698  32.972  35.525  1.00  0.00     0.012 A 
ATOM     65  C   UNL A   1      39.117  31.312  36.347  1.00  0.00     0.148 A 
ATOM     66  C   UNL A   1      40.293  33.861  36.520  1.00  0.00     0.002 A 
ATOM     67  C   UNL A   1      38.701  32.212  37.321  1.00  0.00     0.091 A 
ATOM     68  F   UNL A   1      38.579  30.090  36.234  1.00  0.00    -0.205 F 
ATOM     69  C   UNL A   1      39.288  33.486  37.410  1.00  0.00     0.022 A 
BRANCH  67  70
ATOM     70  S   UNL A   1      37.390  31.845  38.493  1.00  0.00     0.127 S 
ATOM     71  O   UNL A   1      36.379  32.834  38.120  1.00  0.00    -0.237 OA
ATOM     72  O   UNL A   1      37.049  30.465  38.149  1.00  0.00    -0.237 OA
ATOM     73  O   UNL A   1      37.968  32.024  39.817  1.00  0.00    -0.744 OA
ENDBRANCH  67  70
ENDBRANCH  49  63
BRANCH  50  74
ATOM     74  C   UNL A   1      42.346  26.072  27.517  1.00  0.00     0.023 A 
ATOM     75  C   UNL A   1      43.155  26.593  26.491  1.00  0.00     0.012 A 
ATOM     76  C   UNL A   1      41.924  24.731  27.456  1.00  0.00     0.148 A 
ATOM     77  C   UNL A   1      43.540  25.788  25.418  1.00  0.00     0.002 A 
ATOM     78  C   UNL A   1      42.336  23.926  26.403  1.00  0.00     0.091 A 
ATOM     79  F   UNL A   1      41.161  24.263  28.454  1.00  0.00    -0.205 F 
ATOM     80  C   UNL A   1      43.141  24.454  25.380  1.00  0.00     0.022 A 
BRANCH  78  81
ATOM     81  S   UNL A   1      41.937  22.178  26.305  1.00  0.00     0.127 S 
ATOM     82  O   UNL A   1      42.400  21.694  27.604  1.00  0.00    -0.237 OA
ATOM     83  O   UNL A   1      40.484  22.214  26.143  1.00  0.00    -0.237 OA
ATOM     84  O   UNL A   1      42.667  21.666  25.154  1.00  0.00    -0.744 OA
ENDBRANCH  78  81
ENDBRANCH  50  74
BRANCH  62  85
ATOM     85  C   UNL A   1      45.143  26.810  33.898  1.00  0.00     0.023 A 
ATOM     86  C   UNL A   1      46.400  27.439  33.822  1.00  0.00     0.012 A 
ATOM     87  C   UNL A   1      44.975  25.690  34.738  1.00  0.00     0.148 A 
ATOM     88  C   UNL A   1      47.474  26.964  34.573  1.00  0.00     0.002 A 
ATOM     89  C   UNL A   1      46.042  25.241  35.506  1.00  0.00     0.091 A 
ATOM     90  F   UNL A   1      43.768  25.109  34.789  1.00  0.00    -0.205 F 
ATOM     91  C   UNL A   1      47.292  25.875  35.424  1.00  0.00     0.022 A 
BRANCH  89  92
ATOM     92  S   UNL A   1      45.894  23.879  36.669  1.00  0.00     0.127 S 
ATOM     93  O   UNL A   1      47.298  23.581  36.955  1.00  0.00    -0.237 OA
ATOM     94  O   UNL A   1      45.165  24.496  37.776  1.00  0.00    -0.237 OA
ATOM     95  O   UNL A   1      45.172  22.824  35.971  1.00  0.00    -0.744 OA
ENDBRANCH  89  92
ENDBRANCH  62  85
ENDBRANCH  36  37
ENDBRANCH  29  31
ENDBRANCH  28  29
ENDBRANCH  27  28
ENDBRANCH  26  27
ENDBRANCH  25  26
ENDBRANCH   1  25
TORSDOF 22
ENDMDL
MODEL 3
REMARK VINA RESULT:      -9.2      4.555      8.110
REMARK SMILES C#Cc1ccc2c(c1)C=C(C(=O)OCCOCCOCCOC(=O)c1ccc(-c3c4nc(c(-c5cccc(S(=O)(=O)[O-])c5F)c5ccc([nH]5)c(-c5cccc(S(=O)(=O)[O-])c5F)c5nc(c(-c6cccc(S(=O)(=O)[O-])c6F)c6ccc3[nH]6)C=C5)C=C4)cc1)[C@@H](C(F)(F)F)O2
REMARK SMILES IDX 18 1 17 2 16 3 15 4 14 5 13 6 11 7 12 8 10 9 3 10 4 11 8 12
REMARK SMILES IDX 5 13 7 14 6 15 9 16 93 17 88 18 2 19 1 20 89 21 90 22 91 23
REMARK SMILES IDX 92 24 19 25 20 26 21 27 22 28 23 29 24 30 25 31 26 32 87 33
REMARK SMILES IDX 27 34 86 35 28 36 29 37 30 38 80 39 31 40 85 41 79 42 81 43
REMARK SMILES IDX 32 44 84 45 78 46 77 47 33 49 65 50 45 51 64 52 46 53 49 54
REMARK SMILES IDX 63 55 82 56 47 57 48 58 62 60 83 61 50 62 34 63 35 64 43 65
REMARK SMILES IDX 36 66 38 67 44 68 37 69 39 70 40 71 41 72 42 73 66 74 67 75
REMARK SMILES IDX 75 76 68 77 70 78 76 79 69 80 71 81 72 82 73 83 74 84 51 85
REMARK SMILES IDX 52 86 60 87 53 88 55 89 61 90 54 91 56 92 57 93 58 94 59 95
REMARK H PARENT 81 48 49 59
REMARK Flexibility Score: inf
ROOT
ATOM      1  C   UNL A   1      32.908  30.190  26.204  1.00  0.00     0.188 C 
ENDROOT
BRANCH   1   2
ATOM      2  C   UNL A   1      32.556  29.085  25.186  1.00  0.00     0.188 C 
BRANCH   2   3
ATOM      3  O   UNL A   1      31.195  28.734  25.097  1.00  0.00    -0.376 OA
BRANCH   3   4
ATOM      4  C   UNL A   1      30.604  28.439  23.845  1.00  0.00     0.202 C 
BRANCH   4   5
ATOM      5  C   UNL A   1      30.030  27.075  23.406  1.00  0.00     0.261 C 
BRANCH   5   6
ATOM      6  O   UNL A   1      30.901  25.941  23.419  1.00  0.00    -0.460 OA
BRANCH   6   7
ATOM      7  C   UNL A   1      30.918  25.221  24.568  1.00  0.00     0.338 C 
ATOM      8  O   UNL A   1      30.144  25.332  25.503  1.00  0.00    -0.246 OA
BRANCH   7   9
ATOM      9  C   UNL A   1      31.937  24.155  24.458  1.00  0.00     0.087 C 
ATOM     10  C   UNL A   1      33.180  19.542  25.018  1.00  0.00     0.025 A 
ATOM     11  C   UNL A   1      34.518  19.884  24.812  1.00  0.00     0.021 A 
ATOM     12  C   UNL A   1      32.185  20.517  24.906  1.00  0.00     0.029 A 
ATOM     13  C   UNL A   1      34.858  21.194  24.473  1.00  0.00     0.048 A 
ATOM     14  C   UNL A   1      32.530  21.844  24.617  1.00  0.00     0.018 A 
ATOM     15  C   UNL A   1      33.866  22.172  24.376  1.00  0.00     0.128 A 
ATOM     16  C   UNL A   1      31.526  22.894  24.649  1.00  0.00     0.027 C 
ATOM     17  O   UNL A   1      34.296  23.427  24.052  1.00  0.00    -0.475 OA
ATOM     18  C   UNL A   1      33.354  24.531  24.117  1.00  0.00     0.316 C 
BRANCH  10  19
ATOM     19  C   UNL A   1      32.834  18.206  25.389  1.00  0.00    -0.070 C 
ATOM     20  C   UNL A   1      32.566  17.073  25.693  1.00  0.00     0.010 C 
ENDBRANCH  10  19
BRANCH  18  21
ATOM     21  C   UNL A   1      33.915  25.586  25.078  1.00  0.00     0.430 C 
ATOM     22  F   UNL A   1      34.117  26.771  24.449  1.00  0.00    -0.167 F 
ATOM     23  F   UNL A   1      33.063  25.838  26.101  1.00  0.00    -0.167 F 
ATOM     24  F   UNL A   1      35.095  25.209  25.619  1.00  0.00    -0.167 F 
ENDBRANCH  18  21
ENDBRANCH   7   9
ENDBRANCH   6   7
ENDBRANCH   5   6
ENDBRANCH   4   5
ENDBRANCH   3   4
ENDBRANCH   2   3
ENDBRANCH   1   2
BRANCH   1  25
ATOM     25  O   UNL A   1      31.877  30.736  27.000  1.00  0.00    -0.376 OA
BRANCH  25  26
ATOM     26  C   UNL A   1      31.319  31.995  26.651  1.00  0.00     0.202 C 
BRANCH  26  27
ATOM     27  C   UNL A   1      31.971  33.369  26.928  1.00  0.00     0.261 C 
BRANCH  27  28
ATOM     28  O   UNL A   1      32.802  33.509  28.086  1.00  0.00    -0.460 OA
BRANCH  28  29
ATOM     29  C   UNL A   1      33.974  34.176  27.910  1.00  0.00     0.338 C 
ATOM     30  O   UNL A   1      34.114  35.321  27.522  1.00  0.00    -0.246 OA
BRANCH  29  31
ATOM     31  C   UNL A   1      35.059  33.344  28.478  1.00  0.00     0.060 A 
ATOM     32  C   UNL A   1      36.381  33.780  28.405  1.00  0.00     0.016 A 
ATOM     33  C   UNL A   1      34.755  32.096  29.045  1.00  0.00     0.016 A 
ATOM     34  C   UNL A   1      37.399  32.966  28.908  1.00  0.00     0.010 A 
ATOM     35  C   UNL A   1      35.780  31.274  29.528  1.00  0.00     0.010 A 
ATOM     36  C   UNL A   1      37.109  31.712  29.480  1.00  0.00    -0.014 A 
BRANCH  36  37
ATOM     37  C   UNL A   1      38.186  30.961  30.175  1.00  0.00     0.031 A 
ATOM     38  C   UNL A   1      38.985  29.882  29.503  1.00  0.00     0.074 A 
ATOM     39  C   UNL A   1      38.448  31.283  31.457  1.00  0.00     0.049 A 
ATOM     40  N   UNL A   1      40.025  29.234  29.963  1.00  0.00    -0.248 NA
ATOM     41  C   UNL A   1      38.569  29.472  28.154  1.00  0.00     0.031 C 
ATOM     42  C   UNL A   1      37.703  32.276  32.236  1.00  0.00     0.029 A 
ATOM     43  N   UNL A   1      39.404  30.825  32.327  1.00  0.00    -0.354 N 
ATOM     44  C   UNL A   1      40.393  28.340  28.967  1.00  0.00     0.074 A 
ATOM     45  C   UNL A   1      39.449  28.513  27.881  1.00  0.00     0.031 C 
ATOM     46  C   UNL A   1      38.249  32.373  33.457  1.00  0.00     0.029 A 
ATOM     47  C   UNL A   1      39.362  31.434  33.557  1.00  0.00     0.049 A 
ATOM     48  H   UNL A   1      40.058  30.127  32.091  1.00  0.00     0.167 HD
ATOM     49  C   UNL A   1      41.434  27.472  28.955  1.00  0.00     0.034 A 
ATOM     50  C   UNL A   1      40.131  31.265  34.651  1.00  0.00     0.034 A 
ATOM     51  C   UNL A   1      42.376  27.309  30.033  1.00  0.00     0.049 A 
ATOM     52  C   UNL A   1      41.275  30.296  34.611  1.00  0.00     0.074 A 
ATOM     53  C   UNL A   1      43.496  26.497  30.073  1.00  0.00     0.029 A 
ATOM     54  N   UNL A   1      42.300  27.944  31.262  1.00  0.00    -0.354 N 
ATOM     55  N   UNL A   1      41.683  29.554  33.613  1.00  0.00    -0.248 NA
ATOM     56  C   UNL A   1      42.078  30.155  35.835  1.00  0.00     0.031 C 
ATOM     57  C   UNL A   1      44.078  26.612  31.338  1.00  0.00     0.029 A 
ATOM     58  C   UNL A   1      43.343  27.527  32.073  1.00  0.00     0.049 A 
ATOM     59  H   UNL A   1      41.609  28.595  31.521  1.00  0.00     0.167 HD
ATOM     60  C   UNL A   1      42.802  28.874  34.078  1.00  0.00     0.074 A 
ATOM     61  C   UNL A   1      43.014  29.300  35.446  1.00  0.00     0.031 C 
ATOM     62  C   UNL A   1      43.574  27.973  33.424  1.00  0.00     0.034 A 
BRANCH  49  63
ATOM     63  C   UNL A   1      41.664  26.646  27.718  1.00  0.00     0.023 A 
ATOM     64  C   UNL A   1      42.340  27.219  26.622  1.00  0.00     0.012 A 
ATOM     65  C   UNL A   1      41.339  25.275  27.693  1.00  0.00     0.148 A 
ATOM     66  C   UNL A   1      42.685  26.441  25.517  1.00  0.00     0.002 A 
ATOM     67  C   UNL A   1      41.707  24.501  26.599  1.00  0.00     0.091 A 
ATOM     68  F   UNL A   1      40.697  24.754  28.749  1.00  0.00    -0.205 F 
ATOM     69  C   UNL A   1      42.379  25.082  25.511  1.00  0.00     0.022 A 
BRANCH  67  70
ATOM     70  S   UNL A   1      41.394  22.734  26.505  1.00  0.00     0.127 S 
ATOM     71  O   UNL A   1      41.942  22.272  27.781  1.00  0.00    -0.237 OA
ATOM     72  O   UNL A   1      39.936  22.684  26.414  1.00  0.00    -0.237 OA
ATOM     73  O   UNL A   1      42.101  22.260  25.324  1.00  0.00    -0.744 OA
ENDBRANCH  67  70
ENDBRANCH  49  63
BRANCH  50  74
ATOM     74  C   UNL A   1      39.857  32.093  35.855  1.00  0.00     0.023 A 
ATOM     75  C   UNL A   1      40.548  33.304  36.037  1.00  0.00     0.012 A 
ATOM     76  C   UNL A   1      38.846  31.727  36.764  1.00  0.00     0.148 A 
ATOM     77  C   UNL A   1      40.237  34.141  37.109  1.00  0.00     0.002 A 
ATOM     78  C   UNL A   1      38.518  32.579  37.809  1.00  0.00     0.091 A 
ATOM     79  F   UNL A   1      38.200  30.571  36.558  1.00  0.00    -0.205 F 
ATOM     80  C   UNL A   1      39.215  33.784  37.987  1.00  0.00     0.022 A 
BRANCH  78  81
ATOM     81  S   UNL A   1      37.170  32.243  38.947  1.00  0.00     0.127 S 
ATOM     82  O   UNL A   1      36.024  32.778  38.215  1.00  0.00    -0.237 OA
ATOM     83  O   UNL A   1      37.216  30.784  39.039  1.00  0.00    -0.237 OA
ATOM     84  O   UNL A   1      37.503  32.943  40.179  1.00  0.00    -0.744 OA
ENDBRANCH  78  81
ENDBRANCH  50  74
BRANCH  62  85
ATOM     85  C   UNL A   1      44.746  27.373  34.152  1.00  0.00     0.023 A 
ATOM     86  C   UNL A   1      45.988  28.035  34.138  1.00  0.00     0.012 A 
ATOM     87  C   UNL A   1      44.576  26.230  34.959  1.00  0.00     0.148 A 
ATOM     88  C   UNL A   1      47.046  27.568  34.918  1.00  0.00     0.002 A 
ATOM     89  C   UNL A   1      45.625  25.788  35.755  1.00  0.00     0.091 A 
ATOM     90  F   UNL A   1      43.383  25.617  34.951  1.00  0.00    -0.205 F 
ATOM     91  C   UNL A   1      46.861  26.455  35.735  1.00  0.00     0.022 A 
BRANCH  89  92
ATOM     92  S   UNL A   1      45.470  24.394  36.879  1.00  0.00     0.127 S 
ATOM     93  O   UNL A   1      46.828  24.294  37.414  1.00  0.00    -0.237 OA
ATOM     94  O   UNL A   1      44.472  24.877  37.833  1.00  0.00    -0.237 OA
ATOM     95  O   UNL A   1      45.044  23.262  36.068  1.00  0.00    -0.744 OA
ENDBRANCH  89  92
ENDBRANCH  62  85
ENDBRANCH  36  37
ENDBRANCH  29  31
ENDBRANCH  28  29
ENDBRANCH  27  28
ENDBRANCH  26  27
ENDBRANCH  25  26
ENDBRANCH   1  25
TORSDOF 22
ENDMDL
