MODEL 1
REMARK VINA RESULT:     -11.3      0.000      0.000
REMARK SMILES C[C@@H]1CCC[C@@]1(C(=O)OCCOCCOCCOC(=O)c1ccc(-c2c3nc(c(-c4cccc(S(=O)(=O)[O-])c4F)c4ccc([nH]4)c(-c4cccc(S(=O)(=O)[O-])c4F)c4nc(c(-c5cccc(S(=O)(=O)[O-])c5F)c5ccc2[nH]5)C=C4)C=C3)cc1)c1ccc(Cl)cc1Cl
REMARK SMILES IDX 14 1 13 2 12 3 11 4 10 5 9 6 7 7 8 8 6 9 1 10 2 11 3 12 4 13
REMARK SMILES IDX 5 14 84 15 85 16 90 17 86 18 89 19 91 20 87 21 88 22 15 23
REMARK SMILES IDX 16 24 17 25 18 26 19 27 20 28 21 29 22 30 83 31 23 32 82 33
REMARK SMILES IDX 24 34 25 35 26 36 76 37 27 38 81 39 75 40 77 41 28 42 80 43
REMARK SMILES IDX 74 44 73 45 29 47 61 48 41 49 60 50 42 51 45 52 59 53 78 54
REMARK SMILES IDX 43 55 44 56 58 58 79 59 46 60 30 61 31 62 39 63 32 64 34 65
REMARK SMILES IDX 40 66 33 67 35 68 36 69 37 70 38 71 62 72 63 73 71 74 64 75
REMARK SMILES IDX 66 76 72 77 65 78 67 79 68 80 69 81 70 82 47 83 48 84 56 85
REMARK SMILES IDX 49 86 51 87 57 88 50 89 52 90 53 91 54 92 55 93
REMARK H PARENT 77 46 45 57
REMARK Flexibility Score: inf
ROOT
ATOM      1  C   UNL A   1      33.202  27.714  24.367  1.00  0.00     0.188 C 
ENDROOT
BRANCH   1   2
ATOM      2  C   UNL A   1      33.575  28.068  22.925  1.00  0.00     0.188 C 
BRANCH   2   3
ATOM      3  O   UNL A   1      33.809  26.958  22.073  1.00  0.00    -0.376 OA
BRANCH   3   4
ATOM      4  C   UNL A   1      32.656  26.319  21.519  1.00  0.00     0.202 C 
BRANCH   4   5
ATOM      5  C   UNL A   1      32.306  24.891  21.982  1.00  0.00     0.261 C 
BRANCH   5   6
ATOM      6  O   UNL A   1      33.122  24.274  23.044  1.00  0.00    -0.463 OA
BRANCH   6   7
ATOM      7  C   UNL A   1      33.003  22.918  23.169  1.00  0.00     0.316 C 
ATOM      8  O   UNL A   1      32.773  22.193  22.198  1.00  0.00    -0.251 OA
BRANCH   7   9
ATOM      9  C   UNL A   1      33.008  22.309  24.614  1.00  0.00     0.097 C 
ATOM     10  C   UNL A   1      30.871  23.725  25.403  1.00  0.00     0.009 C 
ATOM     11  C   UNL A   1      31.808  22.554  25.625  1.00  0.00     0.008 C 
ATOM     12  C   UNL A   1      32.427  22.801  27.022  1.00  0.00     0.005 C 
ATOM     13  C   UNL A   1      33.790  23.406  26.775  1.00  0.00     0.002 C 
ATOM     14  C   UNL A   1      34.152  23.133  25.321  1.00  0.00     0.024 C 
BRANCH   9  15
ATOM     15  C   UNL A   1      33.389  20.767  24.593  1.00  0.00    -0.012 A 
ATOM     16  C   UNL A   1      32.353  19.830  24.345  1.00  0.00     0.008 A 
ATOM     17  C   UNL A   1      34.669  20.185  24.772  1.00  0.00     0.046 A 
ATOM     18  C   UNL A   1      32.567  18.458  24.176  1.00  0.00     0.021 A 
ATOM     19  C   UNL A   1      34.880  18.798  24.630  1.00  0.00     0.041 A 
ATOM     20  Cl  UNL A   1      36.124  20.984  25.225  1.00  0.00    -0.084 Cl
ATOM     21  C   UNL A   1      33.840  17.946  24.310  1.00  0.00     0.042 A 
ATOM     22  Cl  UNL A   1      34.127  16.265  24.115  1.00  0.00    -0.084 Cl
ENDBRANCH   9  15
ENDBRANCH   7   9
ENDBRANCH   6   7
ENDBRANCH   5   6
ENDBRANCH   4   5
ENDBRANCH   3   4
ENDBRANCH   2   3
ENDBRANCH   1   2
BRANCH   1  23
ATOM     23  O   UNL A   1      31.879  28.088  24.680  1.00  0.00    -0.376 OA
BRANCH  23  24
ATOM     24  C   UNL A   1      31.381  29.409  24.640  1.00  0.00     0.202 C 
BRANCH  24  25
ATOM     25  C   UNL A   1      31.607  30.412  25.774  1.00  0.00     0.261 C 
BRANCH  25  26
ATOM     26  O   UNL A   1      32.893  30.409  26.396  1.00  0.00    -0.460 OA
BRANCH  26  27
ATOM     27  C   UNL A   1      33.256  31.513  27.098  1.00  0.00     0.338 C 
ATOM     28  O   UNL A   1      32.555  32.457  27.380  1.00  0.00    -0.246 OA
BRANCH  27  29
ATOM     29  C   UNL A   1      34.595  31.225  27.687  1.00  0.00     0.060 A 
ATOM     30  C   UNL A   1      34.954  29.887  27.902  1.00  0.00     0.016 A 
ATOM     31  C   UNL A   1      35.526  32.245  27.917  1.00  0.00     0.016 A 
ATOM     32  C   UNL A   1      36.222  29.569  28.399  1.00  0.00     0.010 A 
ATOM     33  C   UNL A   1      36.788  31.927  28.421  1.00  0.00     0.010 A 
ATOM     34  C   UNL A   1      37.126  30.591  28.705  1.00  0.00    -0.014 A 
BRANCH  34  35
ATOM     35  C   UNL A   1      38.321  30.322  29.542  1.00  0.00     0.031 A 
ATOM     36  C   UNL A   1      39.347  29.364  28.995  1.00  0.00     0.074 A 
ATOM     37  C   UNL A   1      38.480  30.861  30.764  1.00  0.00     0.049 A 
ATOM     38  N   UNL A   1      40.382  28.826  29.582  1.00  0.00    -0.248 NA
ATOM     39  C   UNL A   1      39.164  28.947  27.594  1.00  0.00     0.031 C 
ATOM     40  C   UNL A   1      37.581  31.824  31.393  1.00  0.00     0.029 A 
ATOM     41  N   UNL A   1      39.448  30.631  31.713  1.00  0.00    -0.354 N 
ATOM     42  C   UNL A   1      40.940  27.969  28.643  1.00  0.00     0.074 A 
ATOM     43  C   UNL A   1      40.131  28.055  27.448  1.00  0.00     0.031 C 
ATOM     44  C   UNL A   1      38.015  32.074  32.641  1.00  0.00     0.029 A 
ATOM     45  C   UNL A   1      39.195  31.255  32.913  1.00  0.00     0.049 A 
ATOM     46  H   UNL A   1      40.244  30.076  31.549  1.00  0.00     0.167 HD
ATOM     47  C   UNL A   1      42.032  27.179  28.761  1.00  0.00     0.034 A 
ATOM     48  C   UNL A   1      39.821  31.141  34.102  1.00  0.00     0.034 A 
ATOM     49  C   UNL A   1      42.844  27.108  29.944  1.00  0.00     0.049 A 
ATOM     50  C   UNL A   1      41.014  30.224  34.225  1.00  0.00     0.074 A 
ATOM     51  C   UNL A   1      43.994  26.369  30.155  1.00  0.00     0.029 A 
ATOM     52  N   UNL A   1      42.583  27.792  31.122  1.00  0.00    -0.354 N 
ATOM     53  N   UNL A   1      41.581  29.476  33.308  1.00  0.00    -0.248 NA
ATOM     54  C   UNL A   1      41.671  30.155  35.539  1.00  0.00     0.031 C 
ATOM     55  C   UNL A   1      44.406  26.575  31.475  1.00  0.00     0.029 A 
ATOM     56  C   UNL A   1      43.543  27.483  32.068  1.00  0.00     0.049 A 
ATOM     57  H   UNL A   1      41.827  28.405  31.263  1.00  0.00     0.167 HD
ATOM     58  C   UNL A   1      42.685  28.889  33.920  1.00  0.00     0.074 A 
ATOM     59  C   UNL A   1      42.712  29.374  35.284  1.00  0.00     0.031 C 
ATOM     60  C   UNL A   1      43.591  28.023  33.403  1.00  0.00     0.034 A 
BRANCH  47  61
ATOM     61  C   UNL A   1      42.409  26.324  27.580  1.00  0.00     0.023 A 
ATOM     62  C   UNL A   1      43.231  26.849  26.561  1.00  0.00     0.012 A 
ATOM     63  C   UNL A   1      41.976  24.986  27.498  1.00  0.00     0.148 A 
ATOM     64  C   UNL A   1      43.585  26.066  25.463  1.00  0.00     0.002 A 
ATOM     65  C   UNL A   1      42.376  24.197  26.428  1.00  0.00     0.091 A 
ATOM     66  F   UNL A   1      41.175  24.514  28.464  1.00  0.00    -0.205 F 
ATOM     67  C   UNL A   1      43.168  24.740  25.402  1.00  0.00     0.022 A 
BRANCH  65  68
ATOM     68  S   UNL A   1      41.960  22.455  26.299  1.00  0.00     0.127 S 
ATOM     69  O   UNL A   1      42.637  22.082  25.058  1.00  0.00    -0.237 OA
ATOM     70  O   UNL A   1      42.565  21.907  27.513  1.00  0.00    -0.237 OA
ATOM     71  O   UNL A   1      40.506  22.389  26.259  1.00  0.00    -0.744 OA
ENDBRANCH  65  68
ENDBRANCH  47  61
BRANCH  48  72
ATOM     72  C   UNL A   1      39.341  31.917  35.283  1.00  0.00     0.023 A 
ATOM     73  C   UNL A   1      38.413  31.334  36.169  1.00  0.00     0.012 A 
ATOM     74  C   UNL A   1      39.794  33.227  35.531  1.00  0.00     0.148 A 
ATOM     75  C   UNL A   1      37.919  32.053  37.258  1.00  0.00     0.002 A 
ATOM     76  C   UNL A   1      39.339  33.918  36.648  1.00  0.00     0.091 A 
ATOM     77  F   UNL A   1      40.663  33.771  34.668  1.00  0.00    -0.205 F 
ATOM     78  C   UNL A   1      38.389  33.340  37.503  1.00  0.00     0.022 A 
BRANCH  76  79
ATOM     79  S   UNL A   1      39.972  35.535  37.110  1.00  0.00     0.127 S 
ATOM     80  O   UNL A   1      39.551  36.354  35.976  1.00  0.00    -0.237 OA
ATOM     81  O   UNL A   1      39.251  35.793  38.357  1.00  0.00    -0.237 OA
ATOM     82  O   UNL A   1      41.410  35.368  37.266  1.00  0.00    -0.744 OA
ENDBRANCH  76  79
ENDBRANCH  48  72
BRANCH  60  83
ATOM     83  C   UNL A   1      44.741  27.592  34.278  1.00  0.00     0.023 A 
ATOM     84  C   UNL A   1      45.920  28.359  34.338  1.00  0.00     0.012 A 
ATOM     85  C   UNL A   1      44.606  26.465  35.114  1.00  0.00     0.148 A 
ATOM     86  C   UNL A   1      46.960  27.993  35.193  1.00  0.00     0.002 A 
ATOM     87  C   UNL A   1      45.623  26.139  36.004  1.00  0.00     0.091 A 
ATOM     88  F   UNL A   1      43.481  25.738  35.033  1.00  0.00    -0.205 F 
ATOM     89  C   UNL A   1      46.806  26.892  36.034  1.00  0.00     0.022 A 
BRANCH  87  90
ATOM     90  S   UNL A   1      45.470  24.803  37.195  1.00  0.00     0.127 S 
ATOM     91  O   UNL A   1      44.302  25.226  37.968  1.00  0.00    -0.237 OA
ATOM     92  O   UNL A   1      45.244  23.644  36.332  1.00  0.00    -0.237 OA
ATOM     93  O   UNL A   1      46.726  24.774  37.933  1.00  0.00    -0.744 OA
ENDBRANCH  87  90
ENDBRANCH  60  83
ENDBRANCH  34  35
ENDBRANCH  27  29
ENDBRANCH  26  27
ENDBRANCH  25  26
ENDBRANCH  24  25
ENDBRANCH  23  24
ENDBRANCH   1  23
TORSDOF 21
ENDMDL
MODEL 2
REMARK VINA RESULT:     -10.8      5.305     10.429
REMARK SMILES C[C@@H]1CCC[C@@]1(C(=O)OCCOCCOCCOC(=O)c1ccc(-c2c3nc(c(-c4cccc(S(=O)(=O)[O-])c4F)c4ccc([nH]4)c(-c4cccc(S(=O)(=O)[O-])c4F)c4nc(c(-c5cccc(S(=O)(=O)[O-])c5F)c5ccc2[nH]5)C=C4)C=C3)cc1)c1ccc(Cl)cc1Cl
REMARK SMILES IDX 14 1 13 2 12 3 11 4 10 5 9 6 7 7 8 8 6 9 1 10 2 11 3 12 4 13
REMARK SMILES IDX 5 14 84 15 85 16 90 17 86 18 89 19 91 20 87 21 88 22 15 23
REMARK SMILES IDX 16 24 17 25 18 26 19 27 20 28 21 29 22 30 83 31 23 32 82 33
REMARK SMILES IDX 24 34 25 35 26 36 76 37 27 38 81 39 75 40 77 41 28 42 80 43
REMARK SMILES IDX 74 44 73 45 29 47 61 48 41 49 60 50 42 51 45 52 59 53 78 54
REMARK SMILES IDX 43 55 44 56 58 58 79 59 46 60 30 61 31 62 39 63 32 64 34 65
REMARK SMILES IDX 40 66 33 67 35 68 36 69 37 70 38 71 62 72 63 73 71 74 64 75
REMARK SMILES IDX 66 76 72 77 65 78 67 79 68 80 69 81 70 82 47 83 48 84 56 85
REMARK SMILES IDX 49 86 51 87 57 88 50 89 52 90 53 91 54 92 55 93
REMARK H PARENT 77 46 45 57
REMARK Flexibility Score: inf
ROOT
ATOM      1  C   UNL A   1      33.238  21.250  26.130  1.00  0.00     0.188 C 
ENDROOT
BRANCH   1   2
ATOM      2  C   UNL A   1      31.962  21.475  25.314  1.00  0.00     0.188 C 
BRANCH   2   3
ATOM      3  O   UNL A   1      31.861  22.746  24.692  1.00  0.00    -0.376 OA
BRANCH   3   4
ATOM      4  C   UNL A   1      31.742  23.878  25.557  1.00  0.00     0.202 C 
BRANCH   4   5
ATOM      5  C   UNL A   1      30.367  24.557  25.704  1.00  0.00     0.261 C 
BRANCH   5   6
ATOM      6  O   UNL A   1      30.228  25.966  25.294  1.00  0.00    -0.463 OA
BRANCH   6   7
ATOM      7  C   UNL A   1      30.941  26.870  26.029  1.00  0.00     0.316 C 
ATOM      8  O   UNL A   1      30.859  26.919  27.259  1.00  0.00    -0.251 OA
BRANCH   7   9
ATOM      9  C   UNL A   1      31.758  27.964  25.258  1.00  0.00     0.097 C 
ATOM     10  C   UNL A   1      33.987  26.474  25.160  1.00  0.00     0.009 C 
ATOM     11  C   UNL A   1      33.189  27.654  24.641  1.00  0.00     0.008 C 
ATOM     12  C   UNL A   1      34.084  28.887  24.913  1.00  0.00     0.005 C 
ATOM     13  C   UNL A   1      33.553  29.520  26.179  1.00  0.00     0.002 C 
ATOM     14  C   UNL A   1      32.155  28.963  26.413  1.00  0.00     0.024 C 
BRANCH   9  15
ATOM     15  C   UNL A   1      30.859  28.713  24.184  1.00  0.00    -0.012 A 
ATOM     16  C   UNL A   1      30.278  29.953  24.552  1.00  0.00     0.008 A 
ATOM     17  C   UNL A   1      30.569  28.304  22.857  1.00  0.00     0.046 A 
ATOM     18  C   UNL A   1      29.570  30.775  23.668  1.00  0.00     0.021 A 
ATOM     19  C   UNL A   1      29.831  29.120  21.975  1.00  0.00     0.041 A 
ATOM     20  Cl  UNL A   1      30.978  26.809  22.113  1.00  0.00    -0.084 Cl
ATOM     21  C   UNL A   1      29.357  30.356  22.372  1.00  0.00     0.042 A 
ATOM     22  Cl  UNL A   1      28.485  31.343  21.271  1.00  0.00    -0.084 Cl
ENDBRANCH   9  15
ENDBRANCH   7   9
ENDBRANCH   6   7
ENDBRANCH   5   6
ENDBRANCH   4   5
ENDBRANCH   3   4
ENDBRANCH   2   3
ENDBRANCH   1   2
BRANCH   1  23
ATOM     23  O   UNL A   1      33.973  20.139  25.669  1.00  0.00    -0.376 OA
BRANCH  23  24
ATOM     24  C   UNL A   1      35.221  20.212  25.011  1.00  0.00     0.202 C 
BRANCH  24  25
ATOM     25  C   UNL A   1      36.019  21.512  24.891  1.00  0.00     0.261 C 
BRANCH  25  26
ATOM     26  O   UNL A   1      36.924  21.818  25.954  1.00  0.00    -0.460 OA
BRANCH  26  27
ATOM     27  C   UNL A   1      38.240  21.554  25.756  1.00  0.00     0.338 C 
ATOM     28  O   UNL A   1      38.709  20.690  25.053  1.00  0.00    -0.246 OA
BRANCH  27  29
ATOM     29  C   UNL A   1      39.000  22.692  26.350  1.00  0.00     0.060 A 
ATOM     30  C   UNL A   1      38.515  23.992  26.149  1.00  0.00     0.016 A 
ATOM     31  C   UNL A   1      40.103  22.477  27.183  1.00  0.00     0.016 A 
ATOM     32  C   UNL A   1      39.163  25.083  26.736  1.00  0.00     0.010 A 
ATOM     33  C   UNL A   1      40.755  23.568  27.761  1.00  0.00     0.010 A 
ATOM     34  C   UNL A   1      40.314  24.878  27.505  1.00  0.00    -0.014 A 
BRANCH  34  35
ATOM     35  C   UNL A   1      41.211  26.010  27.845  1.00  0.00     0.031 A 
ATOM     36  C   UNL A   1      40.620  27.144  28.642  1.00  0.00     0.074 A 
ATOM     37  C   UNL A   1      42.488  26.068  27.428  1.00  0.00     0.049 A 
ATOM     38  N   UNL A   1      41.123  28.316  28.922  1.00  0.00    -0.248 NA
ATOM     39  C   UNL A   1      39.267  26.923  29.181  1.00  0.00     0.031 C 
ATOM     40  C   UNL A   1      43.187  25.025  26.682  1.00  0.00     0.029 A 
ATOM     41  N   UNL A   1      43.412  27.079  27.544  1.00  0.00    -0.354 N 
ATOM     42  C   UNL A   1      40.131  28.991  29.622  1.00  0.00     0.074 A 
ATOM     43  C   UNL A   1      38.997  28.100  29.724  1.00  0.00     0.031 C 
ATOM     44  C   UNL A   1      44.419  25.466  26.369  1.00  0.00     0.029 A 
ATOM     45  C   UNL A   1      44.578  26.836  26.854  1.00  0.00     0.049 A 
ATOM     46  H   UNL A   1      43.256  27.896  28.070  1.00  0.00     0.167 HD
ATOM     47  C   UNL A   1      40.159  30.242  30.138  1.00  0.00     0.034 A 
ATOM     48  C   UNL A   1      45.628  27.644  26.608  1.00  0.00     0.034 A 
ATOM     49  C   UNL A   1      41.294  31.117  30.050  1.00  0.00     0.049 A 
ATOM     50  C   UNL A   1      45.624  29.050  27.159  1.00  0.00     0.074 A 
ATOM     51  C   UNL A   1      41.441  32.390  30.572  1.00  0.00     0.029 A 
ATOM     52  N   UNL A   1      42.473  30.816  29.385  1.00  0.00    -0.354 N 
ATOM     53  N   UNL A   1      44.713  29.651  27.886  1.00  0.00    -0.248 NA
ATOM     54  C   UNL A   1      46.806  29.880  26.879  1.00  0.00     0.031 C 
ATOM     55  C   UNL A   1      42.695  32.875  30.188  1.00  0.00     0.029 A 
ATOM     56  C   UNL A   1      43.349  31.883  29.473  1.00  0.00     0.049 A 
ATOM     57  H   UNL A   1      42.659  29.970  28.920  1.00  0.00     0.167 HD
ATOM     58  C   UNL A   1      45.231  30.907  28.189  1.00  0.00     0.074 A 
ATOM     59  C   UNL A   1      46.540  30.977  27.575  1.00  0.00     0.031 C 
ATOM     60  C   UNL A   1      44.673  31.914  28.907  1.00  0.00     0.034 A 
BRANCH  47  61
ATOM     61  C   UNL A   1      38.923  30.737  30.840  1.00  0.00     0.023 A 
ATOM     62  C   UNL A   1      38.785  30.568  32.233  1.00  0.00     0.012 A 
ATOM     63  C   UNL A   1      37.911  31.404  30.121  1.00  0.00     0.148 A 
ATOM     64  C   UNL A   1      37.644  31.022  32.893  1.00  0.00     0.002 A 
ATOM     65  C   UNL A   1      36.802  31.900  30.794  1.00  0.00     0.091 A 
ATOM     66  F   UNL A   1      38.049  31.533  28.794  1.00  0.00    -0.205 F 
ATOM     67  C   UNL A   1      36.660  31.697  32.176  1.00  0.00     0.022 A 
BRANCH  65  68
ATOM     68  S   UNL A   1      35.520  32.854  29.976  1.00  0.00     0.127 S 
ATOM     69  O   UNL A   1      36.063  34.209  30.058  1.00  0.00    -0.237 OA
ATOM     70  O   UNL A   1      35.520  32.276  28.632  1.00  0.00    -0.237 OA
ATOM     71  O   UNL A   1      34.299  32.626  30.737  1.00  0.00    -0.744 OA
ENDBRANCH  65  68
ENDBRANCH  47  61
BRANCH  48  72
ATOM     72  C   UNL A   1      46.785  27.152  25.804  1.00  0.00     0.023 A 
ATOM     73  C   UNL A   1      47.670  26.210  26.363  1.00  0.00     0.012 A 
ATOM     74  C   UNL A   1      47.017  27.616  24.494  1.00  0.00     0.148 A 
ATOM     75  C   UNL A   1      48.782  25.764  25.648  1.00  0.00     0.002 A 
ATOM     76  C   UNL A   1      48.095  27.127  23.767  1.00  0.00     0.091 A 
ATOM     77  F   UNL A   1      46.175  28.526  23.986  1.00  0.00    -0.205 F 
ATOM     78  C   UNL A   1      48.989  26.215  24.347  1.00  0.00     0.022 A 
BRANCH  76  79
ATOM     79  S   UNL A   1      48.379  27.561  22.047  1.00  0.00     0.127 S 
ATOM     80  O   UNL A   1      49.542  28.440  22.149  1.00  0.00    -0.237 OA
ATOM     81  O   UNL A   1      48.645  26.253  21.448  1.00  0.00    -0.237 OA
ATOM     82  O   UNL A   1      47.149  28.196  21.591  1.00  0.00    -0.744 OA
ENDBRANCH  76  79
ENDBRANCH  48  72
BRANCH  60  83
ATOM     83  C   UNL A   1      45.492  33.158  29.141  1.00  0.00     0.023 A 
ATOM     84  C   UNL A   1      46.372  33.237  30.238  1.00  0.00     0.012 A 
ATOM     85  C   UNL A   1      45.451  34.215  28.210  1.00  0.00     0.148 A 
ATOM     86  C   UNL A   1      47.175  34.363  30.421  1.00  0.00     0.002 A 
ATOM     87  C   UNL A   1      46.293  35.309  28.368  1.00  0.00     0.091 A 
ATOM     88  F   UNL A   1      44.596  34.127  27.180  1.00  0.00    -0.205 F 
ATOM     89  C   UNL A   1      47.145  35.392  29.480  1.00  0.00     0.022 A 
BRANCH  87  90
ATOM     90  S   UNL A   1      46.398  36.628  27.154  1.00  0.00     0.127 S 
ATOM     91  O   UNL A   1      47.466  37.459  27.708  1.00  0.00    -0.237 OA
ATOM     92  O   UNL A   1      46.760  35.901  25.937  1.00  0.00    -0.237 OA
ATOM     93  O   UNL A   1      45.082  37.251  27.118  1.00  0.00    -0.744 OA
ENDBRANCH  87  90
ENDBRANCH  60  83
ENDBRANCH  34  35
ENDBRANCH  27  29
ENDBRANCH  26  27
ENDBRANCH  25  26
ENDBRANCH  24  25
ENDBRANCH  23  24
ENDBRANCH   1  23
TORSDOF 21
ENDMDL
MODEL 3
REMARK VINA RESULT:     -10.7      5.285      8.701
REMARK SMILES C[C@@H]1CCC[C@@]1(C(=O)OCCOCCOCCOC(=O)c1ccc(-c2c3nc(c(-c4cccc(S(=O)(=O)[O-])c4F)c4ccc([nH]4)c(-c4cccc(S(=O)(=O)[O-])c4F)c4nc(c(-c5cccc(S(=O)(=O)[O-])c5F)c5ccc2[nH]5)C=C4)C=C3)cc1)c1ccc(Cl)cc1Cl
REMARK SMILES IDX 14 1 13 2 12 3 11 4 10 5 9 6 7 7 8 8 6 9 1 10 2 11 3 12 4 13
REMARK SMILES IDX 5 14 84 15 85 16 90 17 86 18 89 19 91 20 87 21 88 22 15 23
REMARK SMILES IDX 16 24 17 25 18 26 19 27 20 28 21 29 22 30 83 31 23 32 82 33
REMARK SMILES IDX 24 34 25 35 26 36 76 37 27 38 81 39 75 40 77 41 28 42 80 43
REMARK SMILES IDX 74 44 73 45 29 47 61 48 41 49 60 50 42 51 45 52 59 53 78 54
REMARK SMILES IDX 43 55 44 56 58 58 79 59 46 60 30 61 31 62 39 63 32 64 34 65
REMARK SMILES IDX 40 66 33 67 35 68 36 69 37 70 38 71 62 72 63 73 71 74 64 75
REMARK SMILES IDX 66 76 72 77 65 78 67 79 68 80 69 81 70 82 47 83 48 84 56 85
REMARK SMILES IDX 49 86 51 87 57 88 50 89 52 90 53 91 54 92 55 93
REMARK H PARENT 77 46 45 57
REMARK Flexibility Score: inf
ROOT
ATOM      1  C   UNL A   1      36.535  22.020  25.698  1.00  0.00     0.188 C 
ENDROOT
BRANCH   1   2
ATOM      2  C   UNL A   1      35.375  21.505  24.843  1.00  0.00     0.188 C 
BRANCH   2   3
ATOM      3  O   UNL A   1      34.391  20.763  25.546  1.00  0.00    -0.376 OA
BRANCH   3   4
ATOM      4  C   UNL A   1      33.863  21.359  26.734  1.00  0.00     0.202 C 
BRANCH   4   5
ATOM      5  C   UNL A   1      32.621  22.264  26.620  1.00  0.00     0.261 C 
BRANCH   5   6
ATOM      6  O   UNL A   1      32.733  23.673  27.039  1.00  0.00    -0.463 OA
BRANCH   6   7
ATOM      7  C   UNL A   1      31.826  24.530  26.484  1.00  0.00     0.316 C 
ATOM      8  O   UNL A   1      30.632  24.504  26.795  1.00  0.00    -0.251 OA
BRANCH   7   9
ATOM      9  C   UNL A   1      32.307  25.455  25.313  1.00  0.00     0.097 C 
ATOM     10  C   UNL A   1      31.309  23.850  23.408  1.00  0.00     0.009 C 
ATOM     11  C   UNL A   1      31.839  25.211  23.814  1.00  0.00     0.008 C 
ATOM     12  C   UNL A   1      33.070  25.444  22.906  1.00  0.00     0.005 C 
ATOM     13  C   UNL A   1      34.281  25.100  23.743  1.00  0.00     0.002 C 
ATOM     14  C   UNL A   1      33.836  25.086  25.200  1.00  0.00     0.024 C 
BRANCH   9  15
ATOM     15  C   UNL A   1      32.149  26.991  25.684  1.00  0.00    -0.012 A 
ATOM     16  C   UNL A   1      32.874  27.484  26.799  1.00  0.00     0.008 A 
ATOM     17  C   UNL A   1      31.373  27.972  25.015  1.00  0.00     0.046 A 
ATOM     18  C   UNL A   1      32.925  28.834  27.161  1.00  0.00     0.021 A 
ATOM     19  C   UNL A   1      31.402  29.329  25.398  1.00  0.00     0.041 A 
ATOM     20  Cl  UNL A   1      30.266  27.723  23.722  1.00  0.00    -0.084 Cl
ATOM     21  C   UNL A   1      32.192  29.758  26.448  1.00  0.00     0.042 A 
ATOM     22  Cl  UNL A   1      32.232  31.420  26.876  1.00  0.00    -0.084 Cl
ENDBRANCH   9  15
ENDBRANCH   7   9
ENDBRANCH   6   7
ENDBRANCH   5   6
ENDBRANCH   4   5
ENDBRANCH   3   4
ENDBRANCH   2   3
ENDBRANCH   1   2
BRANCH   1  23
ATOM     23  O   UNL A   1      37.767  21.447  25.322  1.00  0.00    -0.376 OA
BRANCH  23  24
ATOM     24  C   UNL A   1      37.961  20.085  25.000  1.00  0.00     0.202 C 
BRANCH  24  25
ATOM     25  C   UNL A   1      39.028  19.219  25.675  1.00  0.00     0.261 C 
BRANCH  25  26
ATOM     26  O   UNL A   1      40.325  19.796  25.835  1.00  0.00    -0.460 OA
BRANCH  26  27
ATOM     27  C   UNL A   1      40.761  20.024  27.100  1.00  0.00     0.338 C 
ATOM     28  O   UNL A   1      40.928  19.203  27.970  1.00  0.00    -0.246 OA
BRANCH  27  29
ATOM     29  C   UNL A   1      41.252  21.432  27.136  1.00  0.00     0.060 A 
ATOM     30  C   UNL A   1      41.971  21.857  28.262  1.00  0.00     0.016 A 
ATOM     31  C   UNL A   1      41.108  22.284  26.035  1.00  0.00     0.016 A 
ATOM     32  C   UNL A   1      42.500  23.151  28.313  1.00  0.00     0.010 A 
ATOM     33  C   UNL A   1      41.629  23.578  26.091  1.00  0.00     0.010 A 
ATOM     34  C   UNL A   1      42.289  24.032  27.247  1.00  0.00    -0.014 A 
BRANCH  34  35
ATOM     35  C   UNL A   1      42.525  25.488  27.407  1.00  0.00     0.031 A 
ATOM     36  C   UNL A   1      43.864  26.023  26.972  1.00  0.00     0.074 A 
ATOM     37  C   UNL A   1      41.615  26.308  27.962  1.00  0.00     0.049 A 
ATOM     38  N   UNL A   1      44.389  27.204  27.156  1.00  0.00    -0.248 NA
ATOM     39  C   UNL A   1      44.731  25.084  26.239  1.00  0.00     0.031 C 
ATOM     40  C   UNL A   1      40.273  25.923  28.393  1.00  0.00     0.029 A 
ATOM     41  N   UNL A   1      41.709  27.638  28.294  1.00  0.00    -0.354 N 
ATOM     42  C   UNL A   1      45.666  27.134  26.613  1.00  0.00     0.074 A 
ATOM     43  C   UNL A   1      45.838  25.796  26.093  1.00  0.00     0.031 C 
ATOM     44  C   UNL A   1      39.682  26.983  28.972  1.00  0.00     0.029 A 
ATOM     45  C   UNL A   1      40.619  28.106  28.992  1.00  0.00     0.049 A 
ATOM     46  H   UNL A   1      42.480  28.201  28.056  1.00  0.00     0.167 HD
ATOM     47  C   UNL A   1      46.614  28.097  26.550  1.00  0.00     0.034 A 
ATOM     48  C   UNL A   1      40.422  29.287  29.611  1.00  0.00     0.034 A 
ATOM     49  C   UNL A   1      46.433  29.431  27.053  1.00  0.00     0.049 A 
ATOM     50  C   UNL A   1      41.507  30.336  29.562  1.00  0.00     0.074 A 
ATOM     51  C   UNL A   1      47.316  30.494  27.005  1.00  0.00     0.029 A 
ATOM     52  N   UNL A   1      45.297  29.879  27.709  1.00  0.00    -0.354 N 
ATOM     53  N   UNL A   1      42.681  30.287  28.979  1.00  0.00    -0.248 NA
ATOM     54  C   UNL A   1      41.231  31.614  30.235  1.00  0.00     0.031 C 
ATOM     55  C   UNL A   1      46.728  31.576  27.668  1.00  0.00     0.029 A 
ATOM     56  C   UNL A   1      45.460  31.201  28.082  1.00  0.00     0.049 A 
ATOM     57  H   UNL A   1      44.495  29.337  27.884  1.00  0.00     0.167 HD
ATOM     58  C   UNL A   1      43.259  31.538  29.172  1.00  0.00     0.074 A 
ATOM     59  C   UNL A   1      42.303  32.327  29.919  1.00  0.00     0.031 C 
ATOM     60  C   UNL A   1      44.473  31.992  28.772  1.00  0.00     0.034 A 
BRANCH  47  61
ATOM     61  C   UNL A   1      47.933  27.741  25.917  1.00  0.00     0.023 A 
ATOM     62  C   UNL A   1      49.020  27.344  26.724  1.00  0.00     0.012 A 
ATOM     63  C   UNL A   1      48.083  27.764  24.517  1.00  0.00     0.148 A 
ATOM     64  C   UNL A   1      50.246  27.013  26.148  1.00  0.00     0.002 A 
ATOM     65  C   UNL A   1      49.291  27.382  23.948  1.00  0.00     0.091 A 
ATOM     66  F   UNL A   1      47.046  28.167  23.770  1.00  0.00    -0.205 F 
ATOM     67  C   UNL A   1      50.377  27.020  24.762  1.00  0.00     0.022 A 
BRANCH  65  68
ATOM     68  S   UNL A   1      49.536  27.279  22.172  1.00  0.00     0.127 S 
ATOM     69  O   UNL A   1      49.207  28.639  21.750  1.00  0.00    -0.237 OA
ATOM     70  O   UNL A   1      50.956  26.939  22.080  1.00  0.00    -0.237 OA
ATOM     71  O   UNL A   1      48.629  26.243  21.698  1.00  0.00    -0.744 OA
ENDBRANCH  65  68
ENDBRANCH  47  61
BRANCH  48  72
ATOM     72  C   UNL A   1      39.144  29.558  30.331  1.00  0.00     0.023 A 
ATOM     73  C   UNL A   1      38.898  28.933  31.570  1.00  0.00     0.012 A 
ATOM     74  C   UNL A   1      38.170  30.423  29.795  1.00  0.00     0.148 A 
ATOM     75  C   UNL A   1      37.693  29.137  32.244  1.00  0.00     0.002 A 
ATOM     76  C   UNL A   1      36.996  30.665  30.498  1.00  0.00     0.091 A 
ATOM     77  F   UNL A   1      38.414  30.994  28.608  1.00  0.00    -0.205 F 
ATOM     78  C   UNL A   1      36.747  30.010  31.714  1.00  0.00     0.022 A 
BRANCH  76  79
ATOM     79  S   UNL A   1      35.770  31.859  29.952  1.00  0.00     0.127 S 
ATOM     80  O   UNL A   1      35.170  31.169  28.812  1.00  0.00    -0.237 OA
ATOM     81  O   UNL A   1      34.909  31.964  31.131  1.00  0.00    -0.237 OA
ATOM     82  O   UNL A   1      36.512  33.071  29.635  1.00  0.00    -0.744 OA
ENDBRANCH  76  79
ENDBRANCH  48  72
BRANCH  60  83
ATOM     83  C   UNL A   1      44.823  33.430  29.060  1.00  0.00     0.023 A 
ATOM     84  C   UNL A   1      45.543  33.771  30.222  1.00  0.00     0.012 A 
ATOM     85  C   UNL A   1      44.512  34.434  28.120  1.00  0.00     0.148 A 
ATOM     86  C   UNL A   1      45.920  35.093  30.458  1.00  0.00     0.002 A 
ATOM     87  C   UNL A   1      44.940  35.738  28.335  1.00  0.00     0.091 A 
ATOM     88  F   UNL A   1      43.814  34.092  27.027  1.00  0.00    -0.205 F 
ATOM     89  C   UNL A   1      45.630  36.073  29.510  1.00  0.00     0.022 A 
BRANCH  87  90
ATOM     90  S   UNL A   1      44.703  37.042  27.123  1.00  0.00     0.127 S 
ATOM     91  O   UNL A   1      44.933  38.242  27.927  1.00  0.00    -0.237 OA
ATOM     92  O   UNL A   1      45.754  36.751  26.148  1.00  0.00    -0.237 OA
ATOM     93  O   UNL A   1      43.347  36.883  26.617  1.00  0.00    -0.744 OA
ENDBRANCH  87  90
ENDBRANCH  60  83
ENDBRANCH  34  35
ENDBRANCH  27  29
ENDBRANCH  26  27
ENDBRANCH  25  26
ENDBRANCH  24  25
ENDBRANCH  23  24
ENDBRANCH   1  23
TORSDOF 21
ENDMDL
