MODEL 1
REMARK VINA RESULT:     -10.1      0.000      0.000
REMARK SMILES CNC(=O)CCNC(=O)NC[C@@H]1CC[C@@H](C(=O)OCCOCCOCCOC(=O)c2ccc(-c3c4nc(c(-c5cccc(S(=O)(=O)[O-])c5F)c5ccc([nH]5)c(-c5cccc(S(=O)(=O)[O-])c5F)c5nc(c(-c6cccc(S(=O)(=O)[O-])c6F)c6ccc3[nH]6)C=C5)C=C4)cc2)O1
REMARK SMILES IDX 22 1 21 2 20 3 19 4 18 5 16 6 17 7 15 8 12 9 13 10 93 11
REMARK SMILES IDX 14 12 11 13 10 14 7 15 8 16 9 18 6 20 5 21 3 22 1 23 2 24
REMARK SMILES IDX 4 26 23 27 24 28 25 29 26 30 27 31 28 32 29 33 30 34 31 35
REMARK SMILES IDX 92 36 32 37 91 38 33 39 34 40 35 41 85 42 36 43 90 44 84 45
REMARK SMILES IDX 86 46 37 47 89 48 83 49 82 50 38 52 70 53 50 54 69 55 51 56
REMARK SMILES IDX 54 57 68 58 87 59 52 60 53 61 67 63 88 64 55 65 39 66 40 67
REMARK SMILES IDX 48 68 41 69 43 70 49 71 42 72 44 73 45 74 46 75 47 76 71 77
REMARK SMILES IDX 72 78 80 79 73 80 75 81 81 82 74 83 76 84 77 85 78 86 79 87
REMARK SMILES IDX 56 88 57 89 65 90 58 91 60 92 66 93 59 94 61 95 62 96 63 97
REMARK SMILES IDX 64 98
REMARK H PARENT 7 17 10 19 2 25 86 51 54 62
REMARK Flexibility Score: inf
ROOT
ATOM      1  C   UNL A   1      34.702  32.433  29.251  1.00  0.00     0.188 C 
ENDROOT
BRANCH   1   2
ATOM      2  O   UNL A   1      35.424  32.140  28.069  1.00  0.00    -0.376 OA
BRANCH   2   3
ATOM      3  C   UNL A   1      35.676  30.783  27.739  1.00  0.00     0.202 C 
BRANCH   3   4
ATOM      4  C   UNL A   1      34.662  30.011  26.892  1.00  0.00     0.261 C 
BRANCH   4   5
ATOM      5  O   UNL A   1      33.437  29.740  27.598  1.00  0.00    -0.461 OA
BRANCH   5   6
ATOM      6  C   UNL A   1      32.302  29.822  26.849  1.00  0.00     0.335 C 
ATOM      7  O   UNL A   1      31.531  30.776  26.872  1.00  0.00    -0.249 OA
BRANCH   6   8
ATOM      8  C   UNL A   1      32.093  28.608  25.930  1.00  0.00     0.228 C 
ATOM      9  C   UNL A   1      32.486  27.864  23.729  1.00  0.00     0.138 C 
ATOM     10  C   UNL A   1      32.927  26.777  24.704  1.00  0.00     0.037 C 
ATOM     11  O   UNL A   1      31.947  28.933  24.542  1.00  0.00    -0.361 OA
ATOM     12  C   UNL A   1      33.164  27.533  25.994  1.00  0.00     0.047 C 
BRANCH   9  13
ATOM     13  C   UNL A   1      31.445  27.357  22.711  1.00  0.00     0.149 C 
BRANCH  13  14
ATOM     14  N   UNL A   1      32.060  26.776  21.536  1.00  0.00    -0.336 N 
ATOM     15  N   UNL A   1      32.428  24.459  21.826  1.00  0.00    -0.338 N 
ATOM     16  C   UNL A   1      32.520  25.596  21.147  1.00  0.00     0.314 C 
ATOM     17  H   UNL A   1      32.949  23.747  21.390  1.00  0.00     0.165 HD
ATOM     18  O   UNL A   1      33.104  25.555  20.063  1.00  0.00    -0.249 OA
ATOM     19  H   UNL A   1      32.167  27.448  20.826  1.00  0.00     0.165 HD
BRANCH  15  20
ATOM     20  C   UNL A   1      31.781  23.967  23.024  1.00  0.00     0.127 C 
BRANCH  20  21
ATOM     21  C   UNL A   1      32.483  22.718  23.540  1.00  0.00     0.121 C 
BRANCH  21  22
ATOM     22  C   UNL A   1      33.791  23.079  24.216  1.00  0.00     0.221 C 
ATOM     23  C   UNL A   1      33.028  22.407  26.558  1.00  0.00     0.142 C 
ATOM     24  N   UNL A   1      33.957  22.880  25.551  1.00  0.00    -0.359 N 
ATOM     25  H   UNL A   1      34.856  23.093  25.890  1.00  0.00     0.163 HD
ATOM     26  O   UNL A   1      34.729  23.515  23.545  1.00  0.00    -0.275 OA
ENDBRANCH  21  22
ENDBRANCH  20  21
ENDBRANCH  15  20
ENDBRANCH  13  14
ENDBRANCH   9  13
ENDBRANCH   6   8
ENDBRANCH   5   6
ENDBRANCH   4   5
ENDBRANCH   3   4
ENDBRANCH   2   3
ENDBRANCH   1   2
BRANCH   1  27
ATOM     27  C   UNL A   1      34.198  33.872  29.495  1.00  0.00     0.188 C 
BRANCH  27  28
ATOM     28  O   UNL A   1      33.509  34.223  30.680  1.00  0.00    -0.376 OA
BRANCH  28  29
ATOM     29  C   UNL A   1      34.244  34.754  31.773  1.00  0.00     0.202 C 
BRANCH  29  30
ATOM     30  C   UNL A   1      34.607  33.902  32.996  1.00  0.00     0.261 C 
BRANCH  30  31
ATOM     31  O   UNL A   1      35.094  32.587  32.701  1.00  0.00    -0.460 OA
BRANCH  31  32
ATOM     32  C   UNL A   1      36.250  32.248  33.306  1.00  0.00     0.338 C 
ATOM     33  O   UNL A   1      36.539  32.394  34.502  1.00  0.00    -0.246 OA
BRANCH  32  34
ATOM     34  C   UNL A   1      37.119  31.538  32.369  1.00  0.00     0.060 A 
ATOM     35  C   UNL A   1      37.753  30.369  32.791  1.00  0.00     0.016 A 
ATOM     36  C   UNL A   1      37.378  32.059  31.100  1.00  0.00     0.016 A 
ATOM     37  C   UNL A   1      38.636  29.720  31.941  1.00  0.00     0.010 A 
ATOM     38  C   UNL A   1      38.314  31.424  30.273  1.00  0.00     0.010 A 
ATOM     39  C   UNL A   1      38.987  30.270  30.708  1.00  0.00    -0.014 A 
BRANCH  39  40
ATOM     40  C   UNL A   1      40.185  29.740  29.999  1.00  0.00     0.031 A 
ATOM     41  C   UNL A   1      41.418  30.604  29.909  1.00  0.00     0.074 A 
ATOM     42  C   UNL A   1      40.240  28.478  29.534  1.00  0.00     0.049 A 
ATOM     43  N   UNL A   1      42.541  30.387  29.274  1.00  0.00    -0.248 NA
ATOM     44  C   UNL A   1      41.386  31.875  30.651  1.00  0.00     0.031 C 
ATOM     45  C   UNL A   1      39.184  27.477  29.670  1.00  0.00     0.029 A 
ATOM     46  N   UNL A   1      41.241  27.819  28.860  1.00  0.00    -0.354 N 
ATOM     47  C   UNL A   1      43.309  31.530  29.461  1.00  0.00     0.074 A 
ATOM     48  C   UNL A   1      42.542  32.421  30.304  1.00  0.00     0.031 C 
ATOM     49  C   UNL A   1      39.595  26.328  29.107  1.00  0.00     0.029 A 
ATOM     50  C   UNL A   1      40.911  26.531  28.507  1.00  0.00     0.049 A 
ATOM     51  H   UNL A   1      42.112  28.229  28.651  1.00  0.00     0.167 HD
ATOM     52  C   UNL A   1      44.543  31.814  28.981  1.00  0.00     0.034 A 
ATOM     53  C   UNL A   1      41.573  25.629  27.754  1.00  0.00     0.034 A 
ATOM     54  C   UNL A   1      45.335  30.911  28.191  1.00  0.00     0.049 A 
ATOM     55  C   UNL A   1      42.916  25.993  27.175  1.00  0.00     0.074 A 
ATOM     56  C   UNL A   1      46.600  31.112  27.668  1.00  0.00     0.029 A 
ATOM     57  N   UNL A   1      44.942  29.639  27.807  1.00  0.00    -0.354 N 
ATOM     58  N   UNL A   1      43.639  27.070  27.370  1.00  0.00    -0.248 NA
ATOM     59  C   UNL A   1      43.540  25.009  26.277  1.00  0.00     0.031 C 
ATOM     60  C   UNL A   1      46.965  29.968  26.950  1.00  0.00     0.029 A 
ATOM     61  C   UNL A   1      45.939  29.043  27.052  1.00  0.00     0.049 A 
ATOM     62  H   UNL A   1      44.080  29.221  28.035  1.00  0.00     0.167 HD
ATOM     63  C   UNL A   1      44.810  26.881  26.642  1.00  0.00     0.074 A 
ATOM     64  C   UNL A   1      44.712  25.574  26.026  1.00  0.00     0.031 C 
ATOM     65  C   UNL A   1      45.862  27.722  26.484  1.00  0.00     0.034 A 
BRANCH  52  66
ATOM     66  C   UNL A   1      45.108  33.175  29.286  1.00  0.00     0.023 A 
ATOM     67  C   UNL A   1      45.905  33.374  30.431  1.00  0.00     0.012 A 
ATOM     68  C   UNL A   1      44.870  34.255  28.411  1.00  0.00     0.148 A 
ATOM     69  C   UNL A   1      46.430  34.634  30.716  1.00  0.00     0.002 A 
ATOM     70  C   UNL A   1      45.435  35.496  28.679  1.00  0.00     0.091 A 
ATOM     71  F   UNL A   1      44.085  34.053  27.343  1.00  0.00    -0.205 F 
ATOM     72  C   UNL A   1      46.206  35.690  29.836  1.00  0.00     0.022 A 
BRANCH  70  73
ATOM     73  S   UNL A   1      45.261  36.893  27.563  1.00  0.00     0.127 S 
ATOM     74  O   UNL A   1      45.711  38.002  28.402  1.00  0.00    -0.237 OA
ATOM     75  O   UNL A   1      46.177  36.538  26.477  1.00  0.00    -0.237 OA
ATOM     76  O   UNL A   1      43.857  36.926  27.180  1.00  0.00    -0.744 OA
ENDBRANCH  70  73
ENDBRANCH  52  66
BRANCH  53  77
ATOM     77  C   UNL A   1      40.978  24.286  27.492  1.00  0.00     0.023 A 
ATOM     78  C   UNL A   1      41.572  23.142  28.060  1.00  0.00     0.012 A 
ATOM     79  C   UNL A   1      39.836  24.136  26.681  1.00  0.00     0.148 A 
ATOM     80  C   UNL A   1      41.054  21.871  27.803  1.00  0.00     0.002 A 
ATOM     81  C   UNL A   1      39.292  22.873  26.479  1.00  0.00     0.091 A 
ATOM     82  F   UNL A   1      39.305  25.231  26.121  1.00  0.00    -0.205 F 
ATOM     83  C   UNL A   1      39.908  21.737  27.023  1.00  0.00     0.022 A 
BRANCH  81  84
ATOM     84  S   UNL A   1      37.752  22.622  25.587  1.00  0.00     0.127 S 
ATOM     85  O   UNL A   1      36.759  22.872  26.628  1.00  0.00    -0.237 OA
ATOM     86  O   UNL A   1      37.831  23.655  24.551  1.00  0.00    -0.237 OA
ATOM     87  O   UNL A   1      37.807  21.258  25.080  1.00  0.00    -0.744 OA
ENDBRANCH  81  84
ENDBRANCH  53  77
BRANCH  65  88
ATOM     88  C   UNL A   1      47.022  27.251  25.644  1.00  0.00     0.023 A 
ATOM     89  C   UNL A   1      47.901  26.271  26.145  1.00  0.00     0.012 A 
ATOM     90  C   UNL A   1      47.196  27.725  24.328  1.00  0.00     0.148 A 
ATOM     91  C   UNL A   1      48.954  25.794  25.363  1.00  0.00     0.002 A 
ATOM     92  C   UNL A   1      48.218  27.210  23.537  1.00  0.00     0.091 A 
ATOM     93  F   UNL A   1      46.361  28.671  23.873  1.00  0.00    -0.205 F 
ATOM     94  C   UNL A   1      49.105  26.254  24.058  1.00  0.00     0.022 A 
BRANCH  92  95
ATOM     95  S   UNL A   1      48.430  27.672  21.814  1.00  0.00     0.127 S 
ATOM     96  O   UNL A   1      48.720  26.382  21.192  1.00  0.00    -0.237 OA
ATOM     97  O   UNL A   1      47.120  28.230  21.478  1.00  0.00    -0.237 OA
ATOM     98  O   UNL A   1      49.521  28.637  21.789  1.00  0.00    -0.744 OA
ENDBRANCH  92  95
ENDBRANCH  65  88
ENDBRANCH  39  40
ENDBRANCH  32  34
ENDBRANCH  31  32
ENDBRANCH  30  31
ENDBRANCH  29  30
ENDBRANCH  28  29
ENDBRANCH  27  28
ENDBRANCH   1  27
TORSDOF 25
ENDMDL
MODEL 2
REMARK VINA RESULT:      -9.2      3.825      9.525
REMARK SMILES CNC(=O)CCNC(=O)NC[C@@H]1CC[C@@H](C(=O)OCCOCCOCCOC(=O)c2ccc(-c3c4nc(c(-c5cccc(S(=O)(=O)[O-])c5F)c5ccc([nH]5)c(-c5cccc(S(=O)(=O)[O-])c5F)c5nc(c(-c6cccc(S(=O)(=O)[O-])c6F)c6ccc3[nH]6)C=C5)C=C4)cc2)O1
REMARK SMILES IDX 22 1 21 2 20 3 19 4 18 5 16 6 17 7 15 8 12 9 13 10 93 11
REMARK SMILES IDX 14 12 11 13 10 14 7 15 8 16 9 18 6 20 5 21 3 22 1 23 2 24
REMARK SMILES IDX 4 26 23 27 24 28 25 29 26 30 27 31 28 32 29 33 30 34 31 35
REMARK SMILES IDX 92 36 32 37 91 38 33 39 34 40 35 41 85 42 36 43 90 44 84 45
REMARK SMILES IDX 86 46 37 47 89 48 83 49 82 50 38 52 70 53 50 54 69 55 51 56
REMARK SMILES IDX 54 57 68 58 87 59 52 60 53 61 67 63 88 64 55 65 39 66 40 67
REMARK SMILES IDX 48 68 41 69 43 70 49 71 42 72 44 73 45 74 46 75 47 76 71 77
REMARK SMILES IDX 72 78 80 79 73 80 75 81 81 82 74 83 76 84 77 85 78 86 79 87
REMARK SMILES IDX 56 88 57 89 65 90 58 91 60 92 66 93 59 94 61 95 62 96 63 97
REMARK SMILES IDX 64 98
REMARK H PARENT 7 17 10 19 2 25 86 51 54 62
REMARK Flexibility Score: inf
ROOT
ATOM      1  C   UNL A   1      35.411  21.155  26.197  1.00  0.00     0.188 C 
ENDROOT
BRANCH   1   2
ATOM      2  O   UNL A   1      34.387  22.133  26.153  1.00  0.00    -0.376 OA
BRANCH   2   3
ATOM      3  C   UNL A   1      33.122  21.826  26.718  1.00  0.00     0.202 C 
BRANCH   3   4
ATOM      4  C   UNL A   1      32.135  22.957  27.017  1.00  0.00     0.261 C 
BRANCH   4   5
ATOM      5  O   UNL A   1      31.557  23.523  25.827  1.00  0.00    -0.461 OA
BRANCH   5   6
ATOM      6  C   UNL A   1      31.454  24.881  25.818  1.00  0.00     0.335 C 
ATOM      7  O   UNL A   1      31.297  25.566  26.824  1.00  0.00    -0.249 OA
BRANCH   6   8
ATOM      8  C   UNL A   1      31.592  25.490  24.413  1.00  0.00     0.228 C 
ATOM      9  C   UNL A   1      33.199  25.992  22.765  1.00  0.00     0.138 C 
ATOM     10  C   UNL A   1      32.020  25.284  22.106  1.00  0.00     0.037 C 
ATOM     11  O   UNL A   1      32.853  26.124  24.164  1.00  0.00    -0.361 OA
ATOM     12  C   UNL A   1      31.369  24.538  23.251  1.00  0.00     0.047 C 
BRANCH   9  13
ATOM     13  C   UNL A   1      33.493  27.366  22.130  1.00  0.00     0.149 C 
BRANCH  13  14
ATOM     14  N   UNL A   1      32.316  28.209  22.069  1.00  0.00    -0.336 N 
ATOM     15  N   UNL A   1      32.037  29.426  24.075  1.00  0.00    -0.338 N 
ATOM     16  C   UNL A   1      31.658  29.039  22.864  1.00  0.00     0.314 C 
ATOM     17  H   UNL A   1      31.328  29.946  24.516  1.00  0.00     0.165 HD
ATOM     18  O   UNL A   1      30.585  29.478  22.446  1.00  0.00    -0.249 OA
ATOM     19  H   UNL A   1      31.883  28.146  21.188  1.00  0.00     0.165 HD
BRANCH  15  20
ATOM     20  C   UNL A   1      33.196  29.301  24.934  1.00  0.00     0.127 C 
BRANCH  20  21
ATOM     21  C   UNL A   1      32.784  29.331  26.401  1.00  0.00     0.121 C 
BRANCH  21  22
ATOM     22  C   UNL A   1      33.327  30.571  27.084  1.00  0.00     0.221 C 
ATOM     23  C   UNL A   1      31.285  32.019  26.582  1.00  0.00     0.142 C 
ATOM     24  N   UNL A   1      32.583  31.708  27.145  1.00  0.00    -0.359 N 
ATOM     25  H   UNL A   1      32.996  32.442  27.656  1.00  0.00     0.163 HD
ATOM     26  O   UNL A   1      34.432  30.537  27.631  1.00  0.00    -0.275 OA
ENDBRANCH  21  22
ENDBRANCH  20  21
ENDBRANCH  15  20
ENDBRANCH  13  14
ENDBRANCH   9  13
ENDBRANCH   6   8
ENDBRANCH   5   6
ENDBRANCH   4   5
ENDBRANCH   3   4
ENDBRANCH   2   3
ENDBRANCH   1   2
BRANCH   1  27
ATOM     27  C   UNL A   1      36.179  20.802  24.906  1.00  0.00     0.188 C 
BRANCH  27  28
ATOM     28  O   UNL A   1      37.442  21.370  24.618  1.00  0.00    -0.376 OA
BRANCH  28  29
ATOM     29  C   UNL A   1      38.587  20.891  25.309  1.00  0.00     0.202 C 
BRANCH  29  30
ATOM     30  C   UNL A   1      39.287  21.722  26.392  1.00  0.00     0.261 C 
BRANCH  30  31
ATOM     31  O   UNL A   1      39.712  23.027  25.980  1.00  0.00    -0.460 OA
BRANCH  31  32
ATOM     32  C   UNL A   1      38.842  24.026  26.232  1.00  0.00     0.338 C 
ATOM     33  O   UNL A   1      37.630  24.043  25.978  1.00  0.00    -0.246 OA
BRANCH  32  34
ATOM     34  C   UNL A   1      39.502  25.088  26.989  1.00  0.00     0.060 A 
ATOM     35  C   UNL A   1      39.311  25.149  28.370  1.00  0.00     0.016 A 
ATOM     36  C   UNL A   1      40.244  26.075  26.338  1.00  0.00     0.016 A 
ATOM     37  C   UNL A   1      39.871  26.190  29.096  1.00  0.00     0.010 A 
ATOM     38  C   UNL A   1      40.756  27.151  27.075  1.00  0.00     0.010 A 
ATOM     39  C   UNL A   1      40.533  27.240  28.459  1.00  0.00    -0.014 A 
BRANCH  39  40
ATOM     40  C   UNL A   1      40.796  28.492  29.222  1.00  0.00     0.031 A 
ATOM     41  C   UNL A   1      42.217  28.831  29.596  1.00  0.00     0.074 A 
ATOM     42  C   UNL A   1      39.823  29.382  29.493  1.00  0.00     0.049 A 
ATOM     43  N   UNL A   1      42.673  29.817  30.326  1.00  0.00    -0.248 NA
ATOM     44  C   UNL A   1      43.267  27.950  29.059  1.00  0.00     0.031 C 
ATOM     45  C   UNL A   1      38.427  29.266  29.075  1.00  0.00     0.029 A 
ATOM     46  N   UNL A   1      39.869  30.573  30.178  1.00  0.00    -0.354 N 
ATOM     47  C   UNL A   1      44.046  29.621  30.412  1.00  0.00     0.074 A 
ATOM     48  C   UNL A   1      44.356  28.447  29.626  1.00  0.00     0.031 C 
ATOM     49  C   UNL A   1      37.751  30.344  29.504  1.00  0.00     0.029 A 
ATOM     50  C   UNL A   1      38.645  31.193  30.286  1.00  0.00     0.049 A 
ATOM     51  H   UNL A   1      40.699  30.948  30.554  1.00  0.00     0.167 HD
ATOM     52  C   UNL A   1      44.969  30.352  31.080  1.00  0.00     0.034 A 
ATOM     53  C   UNL A   1      38.276  32.295  30.969  1.00  0.00     0.034 A 
ATOM     54  C   UNL A   1      44.678  31.553  31.816  1.00  0.00     0.049 A 
ATOM     55  C   UNL A   1      39.310  33.055  31.760  1.00  0.00     0.074 A 
ATOM     56  C   UNL A   1      45.553  32.364  32.517  1.00  0.00     0.029 A 
ATOM     57  N   UNL A   1      43.418  32.116  31.949  1.00  0.00    -0.354 N 
ATOM     58  N   UNL A   1      40.607  32.871  31.823  1.00  0.00    -0.248 NA
ATOM     59  C   UNL A   1      38.828  34.186  32.568  1.00  0.00     0.031 C 
ATOM     60  C   UNL A   1      44.819  33.407  33.092  1.00  0.00     0.029 A 
ATOM     61  C   UNL A   1      43.492  33.262  32.722  1.00  0.00     0.049 A 
ATOM     62  H   UNL A   1      42.593  31.753  31.554  1.00  0.00     0.167 HD
ATOM     63  C   UNL A   1      41.096  33.874  32.654  1.00  0.00     0.074 A 
ATOM     64  C   UNL A   1      39.960  34.682  33.047  1.00  0.00     0.031 C 
ATOM     65  C   UNL A   1      42.368  34.095  33.068  1.00  0.00     0.034 A 
BRANCH  52  66
ATOM     66  C   UNL A   1      46.391  29.859  31.059  1.00  0.00     0.023 A 
ATOM     67  C   UNL A   1      46.884  29.066  32.115  1.00  0.00     0.012 A 
ATOM     68  C   UNL A   1      47.232  30.161  29.969  1.00  0.00     0.148 A 
ATOM     69  C   UNL A   1      48.200  28.607  32.099  1.00  0.00     0.002 A 
ATOM     70  C   UNL A   1      48.528  29.662  29.939  1.00  0.00     0.091 A 
ATOM     71  F   UNL A   1      46.754  30.942  28.989  1.00  0.00    -0.205 F 
ATOM     72  C   UNL A   1      49.018  28.894  31.008  1.00  0.00     0.022 A 
BRANCH  70  73
ATOM     73  S   UNL A   1      49.625  29.919  28.541  1.00  0.00     0.127 S 
ATOM     74  O   UNL A   1      48.775  29.523  27.419  1.00  0.00    -0.237 OA
ATOM     75  O   UNL A   1      49.898  31.355  28.621  1.00  0.00    -0.237 OA
ATOM     76  O   UNL A   1      50.784  29.071  28.780  1.00  0.00    -0.744 OA
ENDBRANCH  70  73
ENDBRANCH  52  66
BRANCH  53  77
ATOM     77  C   UNL A   1      36.857  32.754  30.947  1.00  0.00     0.023 A 
ATOM     78  C   UNL A   1      36.058  32.595  32.096  1.00  0.00     0.012 A 
ATOM     79  C   UNL A   1      36.294  33.340  29.796  1.00  0.00     0.148 A 
ATOM     80  C   UNL A   1      34.718  32.987  32.090  1.00  0.00     0.002 A 
ATOM     81  C   UNL A   1      34.976  33.782  29.818  1.00  0.00     0.091 A 
ATOM     82  F   UNL A   1      37.058  33.452  28.701  1.00  0.00    -0.205 F 
ATOM     83  C   UNL A   1      34.181  33.590  30.957  1.00  0.00     0.022 A 
BRANCH  81  84
ATOM     84  S   UNL A   1      34.240  34.676  28.443  1.00  0.00     0.127 S 
ATOM     85  O   UNL A   1      34.681  33.882  27.300  1.00  0.00    -0.237 OA
ATOM     86  O   UNL A   1      32.812  34.575  28.748  1.00  0.00    -0.237 OA
ATOM     87  O   UNL A   1      34.777  36.027  28.520  1.00  0.00    -0.744 OA
ENDBRANCH  81  84
ENDBRANCH  53  77
BRANCH  65  88
ATOM     88  C   UNL A   1      42.623  35.280  33.965  1.00  0.00     0.023 A 
ATOM     89  C   UNL A   1      42.489  35.147  35.361  1.00  0.00     0.012 A 
ATOM     90  C   UNL A   1      43.068  36.505  33.428  1.00  0.00     0.148 A 
ATOM     91  C   UNL A   1      42.762  36.223  36.206  1.00  0.00     0.002 A 
ATOM     92  C   UNL A   1      43.385  37.558  34.280  1.00  0.00     0.091 A 
ATOM     93  F   UNL A   1      43.172  36.621  32.096  1.00  0.00    -0.205 F 
ATOM     94  C   UNL A   1      43.221  37.422  35.668  1.00  0.00     0.022 A 
BRANCH  92  95
ATOM     95  S   UNL A   1      44.073  39.107  33.684  1.00  0.00     0.127 S 
ATOM     96  O   UNL A   1      42.943  39.671  32.946  1.00  0.00    -0.237 OA
ATOM     97  O   UNL A   1      44.396  39.804  34.929  1.00  0.00    -0.237 OA
ATOM     98  O   UNL A   1      45.229  38.748  32.875  1.00  0.00    -0.744 OA
ENDBRANCH  92  95
ENDBRANCH  65  88
ENDBRANCH  39  40
ENDBRANCH  32  34
ENDBRANCH  31  32
ENDBRANCH  30  31
ENDBRANCH  29  30
ENDBRANCH  28  29
ENDBRANCH  27  28
ENDBRANCH   1  27
TORSDOF 25
ENDMDL
MODEL 3
REMARK VINA RESULT:      -8.9      6.329     10.173
REMARK SMILES CNC(=O)CCNC(=O)NC[C@@H]1CC[C@@H](C(=O)OCCOCCOCCOC(=O)c2ccc(-c3c4nc(c(-c5cccc(S(=O)(=O)[O-])c5F)c5ccc([nH]5)c(-c5cccc(S(=O)(=O)[O-])c5F)c5nc(c(-c6cccc(S(=O)(=O)[O-])c6F)c6ccc3[nH]6)C=C5)C=C4)cc2)O1
REMARK SMILES IDX 22 1 21 2 20 3 19 4 18 5 16 6 17 7 15 8 12 9 13 10 93 11
REMARK SMILES IDX 14 12 11 13 10 14 7 15 8 16 9 18 6 20 5 21 3 22 1 23 2 24
REMARK SMILES IDX 4 26 23 27 24 28 25 29 26 30 27 31 28 32 29 33 30 34 31 35
REMARK SMILES IDX 92 36 32 37 91 38 33 39 34 40 35 41 85 42 36 43 90 44 84 45
REMARK SMILES IDX 86 46 37 47 89 48 83 49 82 50 38 52 70 53 50 54 69 55 51 56
REMARK SMILES IDX 54 57 68 58 87 59 52 60 53 61 67 63 88 64 55 65 39 66 40 67
REMARK SMILES IDX 48 68 41 69 43 70 49 71 42 72 44 73 45 74 46 75 47 76 71 77
REMARK SMILES IDX 72 78 80 79 73 80 75 81 81 82 74 83 76 84 77 85 78 86 79 87
REMARK SMILES IDX 56 88 57 89 65 90 58 91 60 92 66 93 59 94 61 95 62 96 63 97
REMARK SMILES IDX 64 98
REMARK H PARENT 7 17 10 19 2 25 86 51 54 62
REMARK Flexibility Score: inf
ROOT
ATOM      1  C   UNL A   1      35.327  32.802  29.791  1.00  0.00     0.188 C 
ENDROOT
BRANCH   1   2
ATOM      2  O   UNL A   1      36.416  32.073  29.254  1.00  0.00    -0.376 OA
BRANCH   2   3
ATOM      3  C   UNL A   1      36.291  30.668  29.099  1.00  0.00     0.202 C 
BRANCH   3   4
ATOM      4  C   UNL A   1      36.127  30.075  27.698  1.00  0.00     0.261 C 
BRANCH   4   5
ATOM      5  O   UNL A   1      34.976  29.219  27.585  1.00  0.00    -0.461 OA
BRANCH   5   6
ATOM      6  C   UNL A   1      33.895  29.773  26.968  1.00  0.00     0.335 C 
ATOM      7  O   UNL A   1      33.588  30.958  27.052  1.00  0.00    -0.249 OA
BRANCH   6   8
ATOM      8  C   UNL A   1      33.106  28.769  26.112  1.00  0.00     0.228 C 
ATOM      9  C   UNL A   1      31.474  27.079  26.277  1.00  0.00     0.138 C 
ATOM     10  C   UNL A   1      31.098  28.018  25.136  1.00  0.00     0.037 C 
ATOM     11  O   UNL A   1      32.730  27.570  26.799  1.00  0.00    -0.361 OA
ATOM     12  C   UNL A   1      31.833  29.298  25.473  1.00  0.00     0.047 C 
BRANCH   9  13
ATOM     13  C   UNL A   1      31.594  25.612  25.818  1.00  0.00     0.149 C 
BRANCH  13  14
ATOM     14  N   UNL A   1      30.884  24.700  26.692  1.00  0.00    -0.336 N 
ATOM     15  N   UNL A   1      30.560  22.604  25.652  1.00  0.00    -0.338 N 
ATOM     16  C   UNL A   1      30.401  23.468  26.646  1.00  0.00     0.314 C 
ATOM     17  H   UNL A   1      30.009  21.801  25.793  1.00  0.00     0.165 HD
ATOM     18  O   UNL A   1      29.727  23.097  27.608  1.00  0.00    -0.249 OA
ATOM     19  H   UNL A   1      30.713  25.114  27.567  1.00  0.00     0.165 HD
BRANCH  15  20
ATOM     20  C   UNL A   1      31.311  22.504  24.418  1.00  0.00     0.127 C 
BRANCH  20  21
ATOM     21  C   UNL A   1      32.499  21.565  24.586  1.00  0.00     0.121 C 
BRANCH  21  22
ATOM     22  C   UNL A   1      33.799  22.290  24.298  1.00  0.00     0.221 C 
ATOM     23  C   UNL A   1      34.931  21.598  26.479  1.00  0.00     0.142 C 
ATOM     24  N   UNL A   1      34.835  22.225  25.177  1.00  0.00    -0.359 N 
ATOM     25  H   UNL A   1      35.655  22.681  24.879  1.00  0.00     0.163 HD
ATOM     26  O   UNL A   1      33.938  22.905  23.239  1.00  0.00    -0.275 OA
ENDBRANCH  21  22
ENDBRANCH  20  21
ENDBRANCH  15  20
ENDBRANCH  13  14
ENDBRANCH   9  13
ENDBRANCH   6   8
ENDBRANCH   5   6
ENDBRANCH   4   5
ENDBRANCH   3   4
ENDBRANCH   2   3
ENDBRANCH   1   2
BRANCH   1  27
ATOM     27  C   UNL A   1      34.649  33.893  28.935  1.00  0.00     0.188 C 
BRANCH  27  28
ATOM     28  O   UNL A   1      33.312  34.291  29.169  1.00  0.00    -0.376 OA
BRANCH  28  29
ATOM     29  C   UNL A   1      33.008  35.677  29.241  1.00  0.00     0.202 C 
BRANCH  29  30
ATOM     30  C   UNL A   1      32.894  36.413  30.582  1.00  0.00     0.261 C 
BRANCH  30  31
ATOM     31  O   UNL A   1      33.940  36.136  31.521  1.00  0.00    -0.460 OA
BRANCH  31  32
ATOM     32  C   UNL A   1      33.664  35.178  32.430  1.00  0.00     0.338 C 
ATOM     33  O   UNL A   1      32.566  34.648  32.648  1.00  0.00    -0.246 OA
BRANCH  32  34
ATOM     34  C   UNL A   1      34.897  34.726  33.073  1.00  0.00     0.060 A 
ATOM     35  C   UNL A   1      36.121  35.055  32.490  1.00  0.00     0.016 A 
ATOM     36  C   UNL A   1      34.854  33.910  34.205  1.00  0.00     0.016 A 
ATOM     37  C   UNL A   1      37.298  34.576  33.045  1.00  0.00     0.010 A 
ATOM     38  C   UNL A   1      36.047  33.388  34.722  1.00  0.00     0.010 A 
ATOM     39  C   UNL A   1      37.280  33.682  34.115  1.00  0.00    -0.014 A 
BRANCH  39  40
ATOM     40  C   UNL A   1      38.521  32.925  34.441  1.00  0.00     0.031 A 
ATOM     41  C   UNL A   1      38.960  31.817  33.518  1.00  0.00     0.074 A 
ATOM     42  C   UNL A   1      39.318  33.270  35.469  1.00  0.00     0.049 A 
ATOM     43  N   UNL A   1      39.954  30.975  33.644  1.00  0.00    -0.248 NA
ATOM     44  C   UNL A   1      38.187  31.649  32.277  1.00  0.00     0.031 C 
ATOM     45  C   UNL A   1      39.105  34.404  36.366  1.00  0.00     0.029 A 
ATOM     46  N   UNL A   1      40.485  32.700  35.923  1.00  0.00    -0.354 N 
ATOM     47  C   UNL A   1      39.866  30.121  32.550  1.00  0.00     0.074 A 
ATOM     48  C   UNL A   1      38.751  30.573  31.749  1.00  0.00     0.031 C 
ATOM     49  C   UNL A   1      40.109  34.453  37.257  1.00  0.00     0.029 A 
ATOM     50  C   UNL A   1      40.999  33.316  37.041  1.00  0.00     0.049 A 
ATOM     51  H   UNL A   1      40.912  31.926  35.489  1.00  0.00     0.167 HD
ATOM     52  C   UNL A   1      40.647  29.060  32.236  1.00  0.00     0.034 A 
ATOM     53  C   UNL A   1      42.043  32.981  37.826  1.00  0.00     0.034 A 
ATOM     54  C   UNL A   1      41.792  28.640  32.996  1.00  0.00     0.049 A 
ATOM     55  C   UNL A   1      42.856  31.757  37.493  1.00  0.00     0.074 A 
ATOM     56  C   UNL A   1      42.646  27.580  32.746  1.00  0.00     0.029 A 
ATOM     57  N   UNL A   1      42.246  29.254  34.152  1.00  0.00    -0.354 N 
ATOM     58  N   UNL A   1      42.775  30.966  36.450  1.00  0.00    -0.248 NA
ATOM     59  C   UNL A   1      43.915  31.384  38.444  1.00  0.00     0.031 C 
ATOM     60  C   UNL A   1      43.605  27.540  33.764  1.00  0.00     0.029 A 
ATOM     61  C   UNL A   1      43.367  28.595  34.630  1.00  0.00     0.049 A 
ATOM     62  H   UNL A   1      41.832  30.041  34.573  1.00  0.00     0.167 HD
ATOM     63  C   UNL A   1      43.785  30.021  36.607  1.00  0.00     0.074 A 
ATOM     64  C   UNL A   1      44.483  30.356  37.831  1.00  0.00     0.031 C 
ATOM     65  C   UNL A   1      44.093  28.962  35.818  1.00  0.00     0.034 A 
BRANCH  52  66
ATOM     66  C   UNL A   1      40.271  28.261  31.016  1.00  0.00     0.023 A 
ATOM     67  C   UNL A   1      39.177  27.375  31.056  1.00  0.00     0.012 A 
ATOM     68  C   UNL A   1      40.992  28.418  29.815  1.00  0.00     0.148 A 
ATOM     69  C   UNL A   1      38.826  26.634  29.928  1.00  0.00     0.002 A 
ATOM     70  C   UNL A   1      40.608  27.710  28.683  1.00  0.00     0.091 A 
ATOM     71  F   UNL A   1      42.048  29.244  29.806  1.00  0.00    -0.205 F 
ATOM     72  C   UNL A   1      39.533  26.810  28.740  1.00  0.00     0.022 A 
BRANCH  70  73
ATOM     73  S   UNL A   1      41.414  27.930  27.093  1.00  0.00     0.127 S 
ATOM     74  O   UNL A   1      40.879  26.802  26.331  1.00  0.00    -0.237 OA
ATOM     75  O   UNL A   1      40.915  29.240  26.671  1.00  0.00    -0.237 OA
ATOM     76  O   UNL A   1      42.844  27.885  27.359  1.00  0.00    -0.744 OA
ENDBRANCH  70  73
ENDBRANCH  52  66
BRANCH  53  77
ATOM     77  C   UNL A   1      42.386  33.813  39.016  1.00  0.00     0.023 A 
ATOM     78  C   UNL A   1      43.260  34.908  38.870  1.00  0.00     0.012 A 
ATOM     79  C   UNL A   1      41.859  33.522  40.290  1.00  0.00     0.148 A 
ATOM     80  C   UNL A   1      43.622  35.681  39.974  1.00  0.00     0.002 A 
ATOM     81  C   UNL A   1      42.178  34.332  41.374  1.00  0.00     0.091 A 
ATOM     82  F   UNL A   1      41.057  32.456  40.418  1.00  0.00    -0.205 F 
ATOM     83  C   UNL A   1      43.073  35.401  41.222  1.00  0.00     0.022 A 
BRANCH  81  84
ATOM     84  S   UNL A   1      41.424  34.116  42.990  1.00  0.00     0.127 S 
ATOM     85  O   UNL A   1      41.669  35.414  43.611  1.00  0.00    -0.237 OA
ATOM     86  O   UNL A   1      40.026  33.856  42.639  1.00  0.00    -0.237 OA
ATOM     87  O   UNL A   1      42.110  32.984  43.597  1.00  0.00    -0.744 OA
ENDBRANCH  81  84
ENDBRANCH  53  77
BRANCH  65  88
ATOM     88  C   UNL A   1      45.262  28.100  36.221  1.00  0.00     0.023 A 
ATOM     89  C   UNL A   1      46.552  28.393  35.736  1.00  0.00     0.012 A 
ATOM     90  C   UNL A   1      45.095  27.043  37.139  1.00  0.00     0.148 A 
ATOM     91  C   UNL A   1      47.651  27.630  36.133  1.00  0.00     0.002 A 
ATOM     92  C   UNL A   1      46.201  26.318  37.568  1.00  0.00     0.091 A 
ATOM     93  F   UNL A   1      43.857  26.766  37.577  1.00  0.00    -0.205 F 
ATOM     94  C   UNL A   1      47.477  26.602  37.056  1.00  0.00     0.022 A 
BRANCH  92  95
ATOM     95  S   UNL A   1      46.088  25.040  38.826  1.00  0.00     0.127 S 
ATOM     96  O   UNL A   1      45.793  23.855  38.022  1.00  0.00    -0.237 OA
ATOM     97  O   UNL A   1      47.429  25.060  39.412  1.00  0.00    -0.237 OA
ATOM     98  O   UNL A   1      45.027  25.460  39.731  1.00  0.00    -0.744 OA
ENDBRANCH  92  95
ENDBRANCH  65  88
ENDBRANCH  39  40
ENDBRANCH  32  34
ENDBRANCH  31  32
ENDBRANCH  30  31
ENDBRANCH  29  30
ENDBRANCH  28  29
ENDBRANCH  27  28
ENDBRANCH   1  27
TORSDOF 25
ENDMDL
