MODEL 1
REMARK VINA RESULT:      -9.9      0.000      0.000
REMARK SMILES CCOc1cc(N2CCOCC2)ccc1[C@H]([NH3+])C(=O)OCCOCCOCCOC(=O)c1ccc(-c2c3nc(c(-c4cccc(S(=O)(=O)[O-])c4F)c4ccc([nH]4)c(-c4cccc(S(=O)(=O)[O-])c4F)c4nc(c(-c5cccc(S(=O)(=O)[O-])c5F)c5ccc2[nH]5)C=C4)C=C3)cc1
REMARK SMILES IDX 24 1 23 2 22 3 21 4 20 5 18 6 19 7 16 8 15 9 4 10 5 11 6 12
REMARK SMILES IDX 14 13 13 14 3 15 2 16 1 17 7 18 8 19 12 20 9 21 11 22 10 23
REMARK SMILES IDX 17 24 25 28 26 29 27 30 28 31 29 32 30 33 31 34 32 35 33 36
REMARK SMILES IDX 94 37 34 38 93 39 35 40 36 41 37 42 87 43 38 44 92 45 86 46
REMARK SMILES IDX 88 47 39 48 91 49 85 50 84 51 40 53 72 54 52 55 71 56 53 57
REMARK SMILES IDX 56 58 70 59 89 60 54 61 55 62 69 64 90 65 57 66 41 67 42 68
REMARK SMILES IDX 50 69 43 70 45 71 51 72 44 73 46 74 47 75 48 76 49 77 73 78
REMARK SMILES IDX 74 79 82 80 75 81 77 82 83 83 76 84 78 85 79 86 80 87 81 88
REMARK SMILES IDX 58 89 59 90 67 91 60 92 62 93 68 94 61 95 63 96 64 97 65 98
REMARK SMILES IDX 66 99
REMARK H PARENT 17 25 17 26 17 27 88 52 56 63
REMARK Flexibility Score: inf
ROOT
ATOM      1  C   UNL A   1      32.565  29.540  26.768  1.00  0.00     0.188 C 
ENDROOT
BRANCH   1   2
ATOM      2  O   UNL A   1      32.422  28.219  26.268  1.00  0.00    -0.376 OA
BRANCH   2   3
ATOM      3  C   UNL A   1      33.523  27.349  26.500  1.00  0.00     0.202 C 
BRANCH   3   4
ATOM      4  C   UNL A   1      33.604  26.161  25.525  1.00  0.00     0.261 C 
BRANCH   4   5
ATOM      5  O   UNL A   1      32.522  25.215  25.565  1.00  0.00    -0.459 OA
BRANCH   5   6
ATOM      6  C   UNL A   1      32.623  24.229  26.509  1.00  0.00     0.369 C 
ATOM      7  O   UNL A   1      31.699  23.982  27.269  1.00  0.00    -0.245 OA
BRANCH   6   8
ATOM      8  C   UNL A   1      33.922  23.378  26.317  1.00  0.00     0.326 C 
BRANCH   8   9
ATOM      9  C   UNL A   1      33.815  22.152  25.430  1.00  0.00     0.063 A 
ATOM     10  C   UNL A   1      32.709  21.814  24.648  1.00  0.00     0.131 A 
ATOM     11  C   UNL A   1      32.507  20.489  24.259  1.00  0.00     0.072 A 
ATOM     12  C   UNL A   1      33.461  19.504  24.520  1.00  0.00     0.040 A 
ATOM     13  C   UNL A   1      34.886  21.248  25.419  1.00  0.00     0.016 A 
ATOM     14  C   UNL A   1      34.706  19.947  24.968  1.00  0.00     0.027 A 
BRANCH  10  15
ATOM     15  O   UNL A   1      31.696  22.686  24.400  1.00  0.00    -0.493 OA
BRANCH  15  16
ATOM     16  C   UNL A   1      31.607  23.158  23.043  1.00  0.00     0.226 C 
ATOM     17  C   UNL A   1      32.899  23.671  22.411  1.00  0.00     0.049 C 
ENDBRANCH  15  16
ENDBRANCH  10  15
BRANCH  12  18
ATOM     18  N   UNL A   1      33.205  18.163  24.385  1.00  0.00    -0.367 N 
ATOM     19  C   UNL A   1      32.524  17.402  25.442  1.00  0.00     0.145 C 
ATOM     20  C   UNL A   1      33.418  17.398  23.159  1.00  0.00     0.145 C 
ATOM     21  C   UNL A   1      33.364  16.159  25.748  1.00  0.00     0.181 C 
ATOM     22  C   UNL A   1      34.205  16.128  23.531  1.00  0.00     0.181 C 
ATOM     23  O   UNL A   1      33.552  15.360  24.562  1.00  0.00    -0.378 OA
ENDBRANCH  12  18
ENDBRANCH   8   9
BRANCH   8  24
ATOM     24  N   UNL A   1      34.456  22.974  27.665  1.00  0.00    -0.342 N 
ATOM     25  H   UNL A   1      33.681  22.725  28.278  1.00  0.00     0.345 HD
ATOM     26  H   UNL A   1      34.977  23.751  28.072  1.00  0.00     0.345 HD
ATOM     27  H   UNL A   1      35.076  22.170  27.558  1.00  0.00     0.345 HD
ENDBRANCH   8  24
ENDBRANCH   6   8
ENDBRANCH   5   6
ENDBRANCH   4   5
ENDBRANCH   3   4
ENDBRANCH   2   3
ENDBRANCH   1   2
BRANCH   1  28
ATOM     28  C   UNL A   1      32.074  30.648  25.822  1.00  0.00     0.188 C 
BRANCH  28  29
ATOM     29  O   UNL A   1      31.050  31.554  26.200  1.00  0.00    -0.376 OA
BRANCH  29  30
ATOM     30  C   UNL A   1      31.401  32.905  26.456  1.00  0.00     0.202 C 
BRANCH  30  31
ATOM     31  C   UNL A   1      32.401  33.231  27.578  1.00  0.00     0.261 C 
BRANCH  31  32
ATOM     32  O   UNL A   1      33.738  33.547  27.160  1.00  0.00    -0.460 OA
BRANCH  32  33
ATOM     33  C   UNL A   1      34.523  34.105  28.112  1.00  0.00     0.338 C 
ATOM     34  O   UNL A   1      34.267  35.100  28.782  1.00  0.00    -0.246 OA
BRANCH  33  35
ATOM     35  C   UNL A   1      35.677  33.227  28.397  1.00  0.00     0.060 A 
ATOM     36  C   UNL A   1      35.433  31.856  28.586  1.00  0.00     0.016 A 
ATOM     37  C   UNL A   1      36.970  33.735  28.530  1.00  0.00     0.016 A 
ATOM     38  C   UNL A   1      36.470  30.998  28.947  1.00  0.00     0.010 A 
ATOM     39  C   UNL A   1      38.003  32.878  28.927  1.00  0.00     0.010 A 
ATOM     40  C   UNL A   1      37.749  31.516  29.176  1.00  0.00    -0.014 A 
BRANCH  40  41
ATOM     41  C   UNL A   1      38.748  30.694  29.900  1.00  0.00     0.031 A 
ATOM     42  C   UNL A   1      38.937  30.945  31.372  1.00  0.00     0.074 A 
ATOM     43  C   UNL A   1      39.475  29.747  29.278  1.00  0.00     0.049 A 
ATOM     44  N   UNL A   1      39.791  30.410  32.204  1.00  0.00    -0.248 NA
ATOM     45  C   UNL A   1      38.039  31.939  31.988  1.00  0.00     0.031 C 
ATOM     46  C   UNL A   1      39.366  29.388  27.866  1.00  0.00     0.029 A 
ATOM     47  N   UNL A   1      40.472  28.935  29.760  1.00  0.00    -0.354 N 
ATOM     48  C   UNL A   1      39.559  31.023  33.429  1.00  0.00     0.074 A 
ATOM     49  C   UNL A   1      38.484  31.972  33.235  1.00  0.00     0.031 C 
ATOM     50  C   UNL A   1      40.293  28.453  27.584  1.00  0.00     0.029 A 
ATOM     51  C   UNL A   1      41.074  28.170  28.788  1.00  0.00     0.049 A 
ATOM     52  H   UNL A   1      40.732  28.904  30.709  1.00  0.00     0.167 HD
ATOM     53  C   UNL A   1      40.175  30.811  34.615  1.00  0.00     0.034 A 
ATOM     54  C   UNL A   1      42.148  27.359  28.861  1.00  0.00     0.034 A 
ATOM     55  C   UNL A   1      41.230  29.856  34.816  1.00  0.00     0.049 A 
ATOM     56  C   UNL A   1      42.843  27.167  30.187  1.00  0.00     0.074 A 
ATOM     57  C   UNL A   1      41.894  29.544  35.988  1.00  0.00     0.029 A 
ATOM     58  N   UNL A   1      41.783  29.070  33.819  1.00  0.00    -0.354 N 
ATOM     59  N   UNL A   1      42.543  27.672  31.359  1.00  0.00    -0.248 NA
ATOM     60  C   UNL A   1      44.009  26.269  30.204  1.00  0.00     0.031 C 
ATOM     61  C   UNL A   1      42.866  28.582  35.695  1.00  0.00     0.029 A 
ATOM     62  C   UNL A   1      42.789  28.278  34.345  1.00  0.00     0.049 A 
ATOM     63  H   UNL A   1      41.502  29.074  32.874  1.00  0.00     0.167 HD
ATOM     64  C   UNL A   1      43.456  27.126  32.257  1.00  0.00     0.074 A 
ATOM     65  C   UNL A   1      44.308  26.236  31.496  1.00  0.00     0.031 C 
ATOM     66  C   UNL A   1      43.587  27.349  33.588  1.00  0.00     0.034 A 
BRANCH  53  67
ATOM     67  C   UNL A   1      39.711  31.618  35.796  1.00  0.00     0.023 A 
ATOM     68  C   UNL A   1      38.568  31.210  36.514  1.00  0.00     0.012 A 
ATOM     69  C   UNL A   1      40.433  32.748  36.226  1.00  0.00     0.148 A 
ATOM     70  C   UNL A   1      38.135  31.930  37.626  1.00  0.00     0.002 A 
ATOM     71  C   UNL A   1      40.020  33.435  37.361  1.00  0.00     0.091 A 
ATOM     72  F   UNL A   1      41.500  33.134  35.513  1.00  0.00    -0.205 F 
ATOM     73  C   UNL A   1      38.867  33.033  38.056  1.00  0.00     0.022 A 
BRANCH  71  74
ATOM     74  S   UNL A   1      40.935  34.825  38.036  1.00  0.00     0.127 S 
ATOM     75  O   UNL A   1      40.193  35.099  39.265  1.00  0.00    -0.237 OA
ATOM     76  O   UNL A   1      42.264  34.248  38.241  1.00  0.00    -0.237 OA
ATOM     77  O   UNL A   1      40.878  35.872  37.026  1.00  0.00    -0.744 OA
ENDBRANCH  71  74
ENDBRANCH  53  67
BRANCH  54  78
ATOM     78  C   UNL A   1      42.632  26.644  27.644  1.00  0.00     0.023 A 
ATOM     79  C   UNL A   1      43.424  27.330  26.703  1.00  0.00     0.012 A 
ATOM     80  C   UNL A   1      42.309  25.292  27.414  1.00  0.00     0.148 A 
ATOM     81  C   UNL A   1      43.856  26.693  25.538  1.00  0.00     0.002 A 
ATOM     82  C   UNL A   1      42.790  24.648  26.280  1.00  0.00     0.091 A 
ATOM     83  F   UNL A   1      41.535  24.663  28.309  1.00  0.00    -0.205 F 
ATOM     84  C   UNL A   1      43.550  25.352  25.332  1.00  0.00     0.022 A 
BRANCH  82  85
ATOM     85  S   UNL A   1      42.549  22.891  25.997  1.00  0.00     0.127 S 
ATOM     86  O   UNL A   1      41.104  22.756  26.164  1.00  0.00    -0.237 OA
ATOM     87  O   UNL A   1      43.029  22.738  24.623  1.00  0.00    -0.237 OA
ATOM     88  O   UNL A   1      43.369  22.219  26.996  1.00  0.00    -0.744 OA
ENDBRANCH  82  85
ENDBRANCH  54  78
BRANCH  66  89
ATOM     89  C   UNL A   1      44.659  26.594  34.330  1.00  0.00     0.023 A 
ATOM     90  C   UNL A   1      45.783  27.282  34.830  1.00  0.00     0.012 A 
ATOM     91  C   UNL A   1      44.510  25.221  34.607  1.00  0.00     0.148 A 
ATOM     92  C   UNL A   1      46.756  26.607  35.569  1.00  0.00     0.002 A 
ATOM     93  C   UNL A   1      45.458  24.566  35.385  1.00  0.00     0.091 A 
ATOM     94  F   UNL A   1      43.443  24.580  34.109  1.00  0.00    -0.205 F 
ATOM     95  C   UNL A   1      46.587  25.255  35.857  1.00  0.00     0.022 A 
BRANCH  93  96
ATOM     96  S   UNL A   1      45.272  22.850  35.887  1.00  0.00     0.127 S 
ATOM     97  O   UNL A   1      43.885  22.581  35.513  1.00  0.00    -0.237 OA
ATOM     98  O   UNL A   1      46.268  22.172  35.057  1.00  0.00    -0.237 OA
ATOM     99  O   UNL A   1      45.554  22.818  37.314  1.00  0.00    -0.744 OA
ENDBRANCH  93  96
ENDBRANCH  66  89
ENDBRANCH  40  41
ENDBRANCH  33  35
ENDBRANCH  32  33
ENDBRANCH  31  32
ENDBRANCH  30  31
ENDBRANCH  29  30
ENDBRANCH  28  29
ENDBRANCH   1  28
TORSDOF 25
ENDMDL
MODEL 2
REMARK VINA RESULT:      -9.4      2.946      8.447
REMARK SMILES CCOc1cc(N2CCOCC2)ccc1[C@H]([NH3+])C(=O)OCCOCCOCCOC(=O)c1ccc(-c2c3nc(c(-c4cccc(S(=O)(=O)[O-])c4F)c4ccc([nH]4)c(-c4cccc(S(=O)(=O)[O-])c4F)c4nc(c(-c5cccc(S(=O)(=O)[O-])c5F)c5ccc2[nH]5)C=C4)C=C3)cc1
REMARK SMILES IDX 24 1 23 2 22 3 21 4 20 5 18 6 19 7 16 8 15 9 4 10 5 11 6 12
REMARK SMILES IDX 14 13 13 14 3 15 2 16 1 17 7 18 8 19 12 20 9 21 11 22 10 23
REMARK SMILES IDX 17 24 25 28 26 29 27 30 28 31 29 32 30 33 31 34 32 35 33 36
REMARK SMILES IDX 94 37 34 38 93 39 35 40 36 41 37 42 87 43 38 44 92 45 86 46
REMARK SMILES IDX 88 47 39 48 91 49 85 50 84 51 40 53 72 54 52 55 71 56 53 57
REMARK SMILES IDX 56 58 70 59 89 60 54 61 55 62 69 64 90 65 57 66 41 67 42 68
REMARK SMILES IDX 50 69 43 70 45 71 51 72 44 73 46 74 47 75 48 76 49 77 73 78
REMARK SMILES IDX 74 79 82 80 75 81 77 82 83 83 76 84 78 85 79 86 80 87 81 88
REMARK SMILES IDX 58 89 59 90 67 91 60 92 62 93 68 94 61 95 63 96 64 97 65 98
REMARK SMILES IDX 66 99
REMARK H PARENT 17 25 17 26 17 27 88 52 56 63
REMARK Flexibility Score: inf
ROOT
ATOM      1  C   UNL A   1      35.264  33.228  28.178  1.00  0.00     0.188 C 
ENDROOT
BRANCH   1   2
ATOM      2  O   UNL A   1      34.818  32.154  28.994  1.00  0.00    -0.376 OA
BRANCH   2   3
ATOM      3  C   UNL A   1      35.012  30.851  28.458  1.00  0.00     0.202 C 
BRANCH   3   4
ATOM      4  C   UNL A   1      34.203  30.569  27.179  1.00  0.00     0.261 C 
BRANCH   4   5
ATOM      5  O   UNL A   1      32.949  29.885  27.344  1.00  0.00    -0.459 OA
BRANCH   5   6
ATOM      6  C   UNL A   1      32.647  28.950  26.391  1.00  0.00     0.369 C 
ATOM      7  O   UNL A   1      32.813  29.180  25.202  1.00  0.00    -0.245 OA
BRANCH   6   8
ATOM      8  C   UNL A   1      32.307  27.563  27.031  1.00  0.00     0.326 C 
BRANCH   8   9
ATOM      9  C   UNL A   1      32.855  26.332  26.333  1.00  0.00     0.063 A 
ATOM     10  C   UNL A   1      32.399  25.026  26.522  1.00  0.00     0.131 A 
ATOM     11  C   UNL A   1      33.232  23.945  26.228  1.00  0.00     0.072 A 
ATOM     12  C   UNL A   1      34.473  24.133  25.618  1.00  0.00     0.040 A 
ATOM     13  C   UNL A   1      33.939  26.493  25.460  1.00  0.00     0.016 A 
ATOM     14  C   UNL A   1      34.730  25.408  25.110  1.00  0.00     0.027 A 
BRANCH  10  15
ATOM     15  O   UNL A   1      31.236  24.745  27.169  1.00  0.00    -0.493 OA
BRANCH  15  16
ATOM     16  C   UNL A   1      30.262  24.020  26.397  1.00  0.00     0.226 C 
ATOM     17  C   UNL A   1      29.919  22.611  26.877  1.00  0.00     0.049 C 
ENDBRANCH  15  16
ENDBRANCH  10  15
BRANCH  12  18
ATOM     18  N   UNL A   1      35.422  23.146  25.538  1.00  0.00    -0.367 N 
ATOM     19  C   UNL A   1      36.749  23.402  24.958  1.00  0.00     0.145 C 
ATOM     20  C   UNL A   1      35.295  21.823  26.146  1.00  0.00     0.145 C 
ATOM     21  C   UNL A   1      37.023  22.322  23.908  1.00  0.00     0.181 C 
ATOM     22  C   UNL A   1      35.648  20.779  25.071  1.00  0.00     0.181 C 
ATOM     23  O   UNL A   1      36.950  21.006  24.492  1.00  0.00    -0.378 OA
ENDBRANCH  12  18
ENDBRANCH   8   9
BRANCH   8  24
ATOM     24  N   UNL A   1      30.815  27.432  27.175  1.00  0.00    -0.342 N 
ATOM     25  H   UNL A   1      30.596  26.575  27.682  1.00  0.00     0.345 HD
ATOM     26  H   UNL A   1      30.385  27.400  26.250  1.00  0.00     0.345 HD
ATOM     27  H   UNL A   1      30.452  28.235  27.691  1.00  0.00     0.345 HD
ENDBRANCH   8  24
ENDBRANCH   6   8
ENDBRANCH   5   6
ENDBRANCH   4   5
ENDBRANCH   3   4
ENDBRANCH   2   3
ENDBRANCH   1   2
BRANCH   1  28
ATOM     28  C   UNL A   1      34.253  34.375  28.008  1.00  0.00     0.188 C 
BRANCH  28  29
ATOM     29  O   UNL A   1      33.224  34.609  28.954  1.00  0.00    -0.376 OA
BRANCH  29  30
ATOM     30  C   UNL A   1      33.192  35.858  29.626  1.00  0.00     0.202 C 
BRANCH  30  31
ATOM     31  C   UNL A   1      32.148  36.102  30.729  1.00  0.00     0.261 C 
BRANCH  31  32
ATOM     32  O   UNL A   1      32.349  35.385  31.958  1.00  0.00    -0.460 OA
BRANCH  32  33
ATOM     33  C   UNL A   1      33.281  35.911  32.786  1.00  0.00     0.338 C 
ATOM     34  O   UNL A   1      33.138  36.873  33.534  1.00  0.00    -0.246 OA
BRANCH  33  35
ATOM     35  C   UNL A   1      34.473  35.038  32.830  1.00  0.00     0.060 A 
ATOM     36  C   UNL A   1      34.406  33.870  33.609  1.00  0.00     0.016 A 
ATOM     37  C   UNL A   1      35.654  35.374  32.168  1.00  0.00     0.016 A 
ATOM     38  C   UNL A   1      35.528  33.058  33.760  1.00  0.00     0.010 A 
ATOM     39  C   UNL A   1      36.790  34.577  32.350  1.00  0.00     0.010 A 
ATOM     40  C   UNL A   1      36.742  33.439  33.178  1.00  0.00    -0.014 A 
BRANCH  40  41
ATOM     41  C   UNL A   1      37.999  32.793  33.627  1.00  0.00     0.031 A 
ATOM     42  C   UNL A   1      38.539  31.651  32.808  1.00  0.00     0.074 A 
ATOM     43  C   UNL A   1      38.652  33.200  34.730  1.00  0.00     0.049 A 
ATOM     44  N   UNL A   1      39.574  30.885  33.030  1.00  0.00    -0.248 NA
ATOM     45  C   UNL A   1      37.807  31.330  31.569  1.00  0.00     0.031 C 
ATOM     46  C   UNL A   1      38.250  34.310  35.591  1.00  0.00     0.029 A 
ATOM     47  N   UNL A   1      39.782  32.698  35.328  1.00  0.00    -0.354 N 
ATOM     48  C   UNL A   1      39.599  29.972  31.983  1.00  0.00     0.074 A 
ATOM     49  C   UNL A   1      38.476  30.277  31.124  1.00  0.00     0.031 C 
ATOM     50  C   UNL A   1      39.099  34.380  36.633  1.00  0.00     0.029 A 
ATOM     51  C   UNL A   1      40.086  33.305  36.524  1.00  0.00     0.049 A 
ATOM     52  H   UNL A   1      40.322  31.974  34.938  1.00  0.00     0.167 HD
ATOM     53  C   UNL A   1      40.481  28.973  31.748  1.00  0.00     0.034 A 
ATOM     54  C   UNL A   1      41.032  33.006  37.436  1.00  0.00     0.034 A 
ATOM     55  C   UNL A   1      41.609  28.680  32.589  1.00  0.00     0.049 A 
ATOM     56  C   UNL A   1      41.982  31.864  37.170  1.00  0.00     0.074 A 
ATOM     57  C   UNL A   1      42.580  27.710  32.416  1.00  0.00     0.029 A 
ATOM     58  N   UNL A   1      41.908  29.342  33.768  1.00  0.00    -0.354 N 
ATOM     59  N   UNL A   1      42.060  31.079  36.123  1.00  0.00    -0.248 NA
ATOM     60  C   UNL A   1      42.995  31.585  38.201  1.00  0.00     0.031 C 
ATOM     61  C   UNL A   1      43.457  27.773  33.505  1.00  0.00     0.029 A 
ATOM     62  C   UNL A   1      43.044  28.798  34.340  1.00  0.00     0.049 A 
ATOM     63  H   UNL A   1      41.389  30.091  34.144  1.00  0.00     0.167 HD
ATOM     64  C   UNL A   1      43.149  30.242  36.350  1.00  0.00     0.074 A 
ATOM     65  C   UNL A   1      43.712  30.628  37.628  1.00  0.00     0.031 C 
ATOM     66  C   UNL A   1      43.632  29.235  35.581  1.00  0.00     0.034 A 
BRANCH  53  67
ATOM     67  C   UNL A   1      40.273  28.133  30.518  1.00  0.00     0.023 A 
ATOM     68  C   UNL A   1      39.276  27.136  30.515  1.00  0.00     0.012 A 
ATOM     69  C   UNL A   1      41.028  28.364  29.351  1.00  0.00     0.148 A 
ATOM     70  C   UNL A   1      39.050  26.364  29.377  1.00  0.00     0.002 A 
ATOM     71  C   UNL A   1      40.768  27.618  28.208  1.00  0.00     0.091 A 
ATOM     72  F   UNL A   1      41.989  29.297  29.386  1.00  0.00    -0.205 F 
ATOM     73  C   UNL A   1      39.788  26.613  28.222  1.00  0.00     0.022 A 
BRANCH  71  74
ATOM     74  S   UNL A   1      41.613  27.912  26.651  1.00  0.00     0.127 S 
ATOM     75  O   UNL A   1      40.782  28.957  26.056  1.00  0.00    -0.237 OA
ATOM     76  O   UNL A   1      42.932  28.361  27.097  1.00  0.00    -0.237 OA
ATOM     77  O   UNL A   1      41.612  26.637  25.947  1.00  0.00    -0.744 OA
ENDBRANCH  71  74
ENDBRANCH  53  67
BRANCH  54  78
ATOM     78  C   UNL A   1      41.150  33.810  38.688  1.00  0.00     0.023 A 
ATOM     79  C   UNL A   1      42.118  34.828  38.771  1.00  0.00     0.012 A 
ATOM     80  C   UNL A   1      40.311  33.567  39.793  1.00  0.00     0.148 A 
ATOM     81  C   UNL A   1      42.272  35.568  39.945  1.00  0.00     0.002 A 
ATOM     82  C   UNL A   1      40.432  34.345  40.939  1.00  0.00     0.091 A 
ATOM     83  F   UNL A   1      39.412  32.577  39.704  1.00  0.00    -0.205 F 
ATOM     84  C   UNL A   1      41.424  35.335  41.023  1.00  0.00     0.022 A 
BRANCH  82  85
ATOM     85  S   UNL A   1      39.301  34.197  42.326  1.00  0.00     0.127 S 
ATOM     86  O   UNL A   1      38.003  34.211  41.657  1.00  0.00    -0.237 OA
ATOM     87  O   UNL A   1      39.688  32.905  42.895  1.00  0.00    -0.237 OA
ATOM     88  O   UNL A   1      39.585  35.339  43.184  1.00  0.00    -0.744 OA
ENDBRANCH  82  85
ENDBRANCH  54  78
BRANCH  66  89
ATOM     89  C   UNL A   1      44.855  28.500  36.063  1.00  0.00     0.023 A 
ATOM     90  C   UNL A   1      46.135  28.917  35.646  1.00  0.00     0.012 A 
ATOM     91  C   UNL A   1      44.740  27.452  36.999  1.00  0.00     0.148 A 
ATOM     92  C   UNL A   1      47.279  28.283  36.130  1.00  0.00     0.002 A 
ATOM     93  C   UNL A   1      45.887  26.858  37.513  1.00  0.00     0.091 A 
ATOM     94  F   UNL A   1      43.514  27.058  37.371  1.00  0.00    -0.205 F 
ATOM     95  C   UNL A   1      47.157  27.264  37.072  1.00  0.00     0.022 A 
BRANCH  93  96
ATOM     96  S   UNL A   1      45.826  25.606  38.802  1.00  0.00     0.127 S 
ATOM     97  O   UNL A   1      45.076  24.538  38.143  1.00  0.00    -0.237 OA
ATOM     98  O   UNL A   1      47.242  25.311  39.019  1.00  0.00    -0.237 OA
ATOM     99  O   UNL A   1      45.160  26.231  39.936  1.00  0.00    -0.744 OA
ENDBRANCH  93  96
ENDBRANCH  66  89
ENDBRANCH  40  41
ENDBRANCH  33  35
ENDBRANCH  32  33
ENDBRANCH  31  32
ENDBRANCH  30  31
ENDBRANCH  29  30
ENDBRANCH  28  29
ENDBRANCH   1  28
TORSDOF 25
ENDMDL
MODEL 3
REMARK VINA RESULT:      -9.4      6.725      9.154
REMARK SMILES CCOc1cc(N2CCOCC2)ccc1[C@H]([NH3+])C(=O)OCCOCCOCCOC(=O)c1ccc(-c2c3nc(c(-c4cccc(S(=O)(=O)[O-])c4F)c4ccc([nH]4)c(-c4cccc(S(=O)(=O)[O-])c4F)c4nc(c(-c5cccc(S(=O)(=O)[O-])c5F)c5ccc2[nH]5)C=C4)C=C3)cc1
REMARK SMILES IDX 24 1 23 2 22 3 21 4 20 5 18 6 19 7 16 8 15 9 4 10 5 11 6 12
REMARK SMILES IDX 14 13 13 14 3 15 2 16 1 17 7 18 8 19 12 20 9 21 11 22 10 23
REMARK SMILES IDX 17 24 25 28 26 29 27 30 28 31 29 32 30 33 31 34 32 35 33 36
REMARK SMILES IDX 94 37 34 38 93 39 35 40 36 41 37 42 87 43 38 44 92 45 86 46
REMARK SMILES IDX 88 47 39 48 91 49 85 50 84 51 40 53 72 54 52 55 71 56 53 57
REMARK SMILES IDX 56 58 70 59 89 60 54 61 55 62 69 64 90 65 57 66 41 67 42 68
REMARK SMILES IDX 50 69 43 70 45 71 51 72 44 73 46 74 47 75 48 76 49 77 73 78
REMARK SMILES IDX 74 79 82 80 75 81 77 82 83 83 76 84 78 85 79 86 80 87 81 88
REMARK SMILES IDX 58 89 59 90 67 91 60 92 62 93 68 94 61 95 63 96 64 97 65 98
REMARK SMILES IDX 66 99
REMARK H PARENT 17 25 17 26 17 27 88 52 56 63
REMARK Flexibility Score: inf
ROOT
ATOM      1  C   UNL A   1      33.990  30.196  27.179  1.00  0.00     0.188 C 
ENDROOT
BRANCH   1   2
ATOM      2  O   UNL A   1      33.299  29.541  26.124  1.00  0.00    -0.376 OA
BRANCH   2   3
ATOM      3  C   UNL A   1      31.996  29.068  26.441  1.00  0.00     0.202 C 
BRANCH   3   4
ATOM      4  C   UNL A   1      31.891  27.536  26.550  1.00  0.00     0.261 C 
BRANCH   4   5
ATOM      5  O   UNL A   1      30.578  26.965  26.417  1.00  0.00    -0.459 OA
BRANCH   5   6
ATOM      6  C   UNL A   1      30.529  25.677  25.957  1.00  0.00     0.369 C 
ATOM      7  O   UNL A   1      30.188  24.757  26.686  1.00  0.00    -0.245 OA
BRANCH   6   8
ATOM      8  C   UNL A   1      30.735  25.609  24.408  1.00  0.00     0.326 C 
BRANCH   8   9
ATOM      9  C   UNL A   1      30.108  26.716  23.582  1.00  0.00     0.063 A 
ATOM     10  C   UNL A   1      30.802  27.588  22.742  1.00  0.00     0.131 A 
ATOM     11  C   UNL A   1      30.250  28.827  22.410  1.00  0.00     0.072 A 
ATOM     12  C   UNL A   1      28.951  29.165  22.790  1.00  0.00     0.040 A 
ATOM     13  C   UNL A   1      28.728  26.927  23.695  1.00  0.00     0.016 A 
ATOM     14  C   UNL A   1      28.164  28.133  23.303  1.00  0.00     0.027 A 
BRANCH  10  15
ATOM     15  O   UNL A   1      32.094  27.377  22.375  1.00  0.00    -0.493 OA
BRANCH  15  16
ATOM     16  C   UNL A   1      33.071  28.171  23.072  1.00  0.00     0.226 C 
ATOM     17  C   UNL A   1      34.359  28.491  22.316  1.00  0.00     0.049 C 
ENDBRANCH  15  16
ENDBRANCH  10  15
BRANCH  12  18
ATOM     18  N   UNL A   1      28.458  30.443  22.710  1.00  0.00    -0.367 N 
ATOM     19  C   UNL A   1      27.604  30.868  21.591  1.00  0.00     0.145 C 
ATOM     20  C   UNL A   1      28.578  31.446  23.766  1.00  0.00     0.145 C 
ATOM     21  C   UNL A   1      28.187  32.160  21.014  1.00  0.00     0.181 C 
ATOM     22  C   UNL A   1      29.100  32.742  23.123  1.00  0.00     0.181 C 
ATOM     23  O   UNL A   1      28.274  33.183  22.026  1.00  0.00    -0.378 OA
ENDBRANCH  12  18
ENDBRANCH   8   9
BRANCH   8  24
ATOM     24  N   UNL A   1      30.256  24.276  23.900  1.00  0.00    -0.342 N 
ATOM     25  H   UNL A   1      30.128  24.323  22.890  1.00  0.00     0.345 HD
ATOM     26  H   UNL A   1      29.368  24.041  24.345  1.00  0.00     0.345 HD
ATOM     27  H   UNL A   1      30.947  23.558  24.122  1.00  0.00     0.345 HD
ENDBRANCH   8  24
ENDBRANCH   6   8
ENDBRANCH   5   6
ENDBRANCH   4   5
ENDBRANCH   3   4
ENDBRANCH   2   3
ENDBRANCH   1   2
BRANCH   1  28
ATOM     28  C   UNL A   1      33.396  31.551  27.598  1.00  0.00     0.188 C 
BRANCH  28  29
ATOM     29  O   UNL A   1      33.753  32.176  28.819  1.00  0.00    -0.376 OA
BRANCH  29  30
ATOM     30  C   UNL A   1      34.974  32.897  28.882  1.00  0.00     0.202 C 
BRANCH  30  31
ATOM     31  C   UNL A   1      35.952  32.636  30.039  1.00  0.00     0.261 C 
BRANCH  31  32
ATOM     32  O   UNL A   1      36.158  31.260  30.394  1.00  0.00    -0.460 OA
BRANCH  32  33
ATOM     33  C   UNL A   1      36.936  31.056  31.483  1.00  0.00     0.338 C 
ATOM     34  O   UNL A   1      36.556  30.761  32.612  1.00  0.00    -0.246 OA
BRANCH  33  35
ATOM     35  C   UNL A   1      38.362  31.036  31.092  1.00  0.00     0.060 A 
ATOM     36  C   UNL A   1      39.303  31.543  32.004  1.00  0.00     0.016 A 
ATOM     37  C   UNL A   1      38.773  30.580  29.839  1.00  0.00     0.016 A 
ATOM     38  C   UNL A   1      40.648  31.633  31.653  1.00  0.00     0.010 A 
ATOM     39  C   UNL A   1      40.119  30.704  29.474  1.00  0.00     0.010 A 
ATOM     40  C   UNL A   1      41.053  31.267  30.364  1.00  0.00    -0.014 A 
BRANCH  40  41
ATOM     41  C   UNL A   1      42.384  31.695  29.871  1.00  0.00     0.031 A 
ATOM     42  C   UNL A   1      42.609  33.164  29.626  1.00  0.00     0.074 A 
ATOM     43  C   UNL A   1      43.374  30.814  29.642  1.00  0.00     0.049 A 
ATOM     44  N   UNL A   1      43.654  33.774  29.134  1.00  0.00    -0.248 NA
ATOM     45  C   UNL A   1      41.499  34.065  29.987  1.00  0.00     0.031 C 
ATOM     46  C   UNL A   1      43.294  29.372  29.866  1.00  0.00     0.029 A 
ATOM     47  N   UNL A   1      44.637  31.009  29.139  1.00  0.00    -0.354 N 
ATOM     48  C   UNL A   1      43.318  35.122  29.092  1.00  0.00     0.074 A 
ATOM     49  C   UNL A   1      41.972  35.243  29.608  1.00  0.00     0.031 C 
ATOM     50  C   UNL A   1      44.445  28.805  29.462  1.00  0.00     0.029 A 
ATOM     51  C   UNL A   1      45.331  29.840  28.929  1.00  0.00     0.049 A 
ATOM     52  H   UNL A   1      45.010  31.899  28.947  1.00  0.00     0.167 HD
ATOM     53  C   UNL A   1      44.064  36.170  28.671  1.00  0.00     0.034 A 
ATOM     54  C   UNL A   1      46.529  29.632  28.346  1.00  0.00     0.034 A 
ATOM     55  C   UNL A   1      45.408  36.055  28.176  1.00  0.00     0.049 A 
ATOM     56  C   UNL A   1      47.327  30.814  27.851  1.00  0.00     0.074 A 
ATOM     57  C   UNL A   1      46.258  37.063  27.759  1.00  0.00     0.029 A 
ATOM     58  N   UNL A   1      46.092  34.861  28.017  1.00  0.00    -0.354 N 
ATOM     59  N   UNL A   1      47.042  32.092  27.917  1.00  0.00    -0.248 NA
ATOM     60  C   UNL A   1      48.627  30.524  27.225  1.00  0.00     0.031 C 
ATOM     61  C   UNL A   1      47.452  36.475  27.326  1.00  0.00     0.029 A 
ATOM     62  C   UNL A   1      47.352  35.104  27.499  1.00  0.00     0.049 A 
ATOM     63  H   UNL A   1      45.734  33.971  28.241  1.00  0.00     0.167 HD
ATOM     64  C   UNL A   1      48.138  32.759  27.379  1.00  0.00     0.074 A 
ATOM     65  C   UNL A   1      49.102  31.743  27.008  1.00  0.00     0.031 C 
ATOM     66  C   UNL A   1      48.327  34.089  27.195  1.00  0.00     0.034 A 
BRANCH  53  67
ATOM     67  C   UNL A   1      43.447  37.540  28.746  1.00  0.00     0.023 A 
ATOM     68  C   UNL A   1      42.545  37.954  27.745  1.00  0.00     0.012 A 
ATOM     69  C   UNL A   1      43.720  38.394  29.831  1.00  0.00     0.148 A 
ATOM     70  C   UNL A   1      41.944  39.210  27.809  1.00  0.00     0.002 A 
ATOM     71  C   UNL A   1      43.084  39.627  29.911  1.00  0.00     0.091 A 
ATOM     72  F   UNL A   1      44.602  37.990  30.757  1.00  0.00    -0.205 F 
ATOM     73  C   UNL A   1      42.205  40.040  28.896  1.00  0.00     0.022 A 
BRANCH  71  74
ATOM     74  S   UNL A   1      43.298  40.737  31.306  1.00  0.00     0.127 S 
ATOM     75  O   UNL A   1      42.378  41.821  30.965  1.00  0.00    -0.237 OA
ATOM     76  O   UNL A   1      42.870  39.904  32.430  1.00  0.00    -0.237 OA
ATOM     77  O   UNL A   1      44.709  41.096  31.321  1.00  0.00    -0.744 OA
ENDBRANCH  71  74
ENDBRANCH  53  67
BRANCH  54  78
ATOM     78  C   UNL A   1      47.067  28.247  28.211  1.00  0.00     0.023 A 
ATOM     79  C   UNL A   1      47.726  27.648  29.301  1.00  0.00     0.012 A 
ATOM     80  C   UNL A   1      46.933  27.526  27.008  1.00  0.00     0.148 A 
ATOM     81  C   UNL A   1      48.272  26.368  29.186  1.00  0.00     0.002 A 
ATOM     82  C   UNL A   1      47.429  26.230  26.919  1.00  0.00     0.091 A 
ATOM     83  F   UNL A   1      46.323  28.121  25.974  1.00  0.00    -0.205 F 
ATOM     84  C   UNL A   1      48.114  25.656  28.001  1.00  0.00     0.022 A 
BRANCH  82  85
ATOM     85  S   UNL A   1      47.161  25.195  25.476  1.00  0.00     0.127 S 
ATOM     86  O   UNL A   1      45.984  25.818  24.875  1.00  0.00    -0.237 OA
ATOM     87  O   UNL A   1      48.407  25.385  24.733  1.00  0.00    -0.237 OA
ATOM     88  O   UNL A   1      46.971  23.847  25.993  1.00  0.00    -0.744 OA
ENDBRANCH  82  85
ENDBRANCH  54  78
BRANCH  66  89
ATOM     89  C   UNL A   1      49.637  34.543  26.606  1.00  0.00     0.023 A 
ATOM     90  C   UNL A   1      49.742  34.770  25.219  1.00  0.00     0.012 A 
ATOM     91  C   UNL A   1      50.738  34.827  27.438  1.00  0.00     0.148 A 
ATOM     92  C   UNL A   1      50.931  35.247  24.667  1.00  0.00     0.002 A 
ATOM     93  C   UNL A   1      51.904  35.347  26.887  1.00  0.00     0.091 A 
ATOM     94  F   UNL A   1      50.626  34.588  28.753  1.00  0.00    -0.205 F 
ATOM     95  C   UNL A   1      52.006  35.547  25.500  1.00  0.00     0.022 A 
BRANCH  93  96
ATOM     96  S   UNL A   1      53.302  35.854  27.897  1.00  0.00     0.127 S 
ATOM     97  O   UNL A   1      53.766  34.573  28.426  1.00  0.00    -0.237 OA
ATOM     98  O   UNL A   1      54.194  36.465  26.911  1.00  0.00    -0.237 OA
ATOM     99  O   UNL A   1      52.768  36.783  28.882  1.00  0.00    -0.744 OA
ENDBRANCH  93  96
ENDBRANCH  66  89
ENDBRANCH  40  41
ENDBRANCH  33  35
ENDBRANCH  32  33
ENDBRANCH  31  32
ENDBRANCH  30  31
ENDBRANCH  29  30
ENDBRANCH  28  29
ENDBRANCH   1  28
TORSDOF 25
ENDMDL
