MODEL 1
REMARK VINA RESULT:     -10.7      0.000      0.000
REMARK SMILES Cc1ccc(N2C(=O)N=C(OCCOCCOCCOC(=O)c3ccc(-c4c5nc(c(-c6cccc(S(=O)(=O)[O-])c6F)c6ccc([nH]6)c(-c6cccc(S(=O)(=O)[O-])c6F)c6nc(c(-c7cccc(S(=O)(=O)[O-])c7F)c7ccc4[nH]7)C=C6)C=C5)cc3)/C(=C/c3ccccc3OCc3cccc(C(=O)[O-])c3)C2=O)cc1
REMARK SMILES IDX 15 1 14 2 13 3 12 4 11 5 10 6 6 7 7 8 105 9 8 10 9 11 86 12
REMARK SMILES IDX 106 13 87 14 5 15 1 16 2 17 3 18 108 19 4 20 107 21 88 22
REMARK SMILES IDX 89 23 93 24 90 25 92 26 91 27 94 28 95 29 96 30 97 31 104 32
REMARK SMILES IDX 98 33 100 34 99 35 101 36 102 37 103 38 16 39 17 40 18 41
REMARK SMILES IDX 19 42 20 43 21 44 22 45 23 46 24 47 85 48 25 49 84 50 26 51
REMARK SMILES IDX 27 52 28 53 78 54 29 55 83 56 77 57 79 58 30 59 82 60 76 61
REMARK SMILES IDX 75 62 31 64 63 65 43 66 62 67 44 68 47 69 61 70 80 71 45 72
REMARK SMILES IDX 46 73 60 75 81 76 48 77 32 78 33 79 41 80 34 81 36 82 42 83
REMARK SMILES IDX 35 84 37 85 38 86 39 87 40 88 64 89 65 90 73 91 66 92 68 93
REMARK SMILES IDX 74 94 67 95 69 96 70 97 71 98 72 99 49 100 50 101 58 102
REMARK SMILES IDX 51 103 53 104 59 105 52 106 54 107 55 108 56 109 57 110
REMARK H PARENT 79 63 47 74
REMARK Flexibility Score: inf
ROOT
ATOM      1  C   UNL A   1      47.039  34.141  26.106  1.00  0.00     0.188 C 
ENDROOT
BRANCH   1   2
ATOM      2  O   UNL A   1      47.375  35.191  25.199  1.00  0.00    -0.376 OA
BRANCH   2   3
ATOM      3  C   UNL A   1      48.167  36.210  25.796  1.00  0.00     0.201 C 
BRANCH   3   4
ATOM      4  C   UNL A   1      48.063  37.664  25.299  1.00  0.00     0.260 C 
BRANCH   4   5
ATOM      5  O   UNL A   1      47.075  38.616  25.927  1.00  0.00    -0.475 OA
BRANCH   5   6
ATOM      6  C   UNL A   1      46.970  39.925  26.277  1.00  0.00     0.231 C 
ATOM      7  N   UNL A   1      46.808  42.713  26.776  1.00  0.00    -0.226 N 
ATOM      8  C   UNL A   1      47.206  42.186  25.588  1.00  0.00     0.358 C 
ATOM      9  C   UNL A   1      45.951  41.922  27.471  1.00  0.00     0.272 C 
ATOM     10  O   UNL A   1      47.138  42.893  24.576  1.00  0.00    -0.245 OA
ATOM     11  N   UNL A   1      47.491  40.823  25.496  1.00  0.00    -0.156 NA
ATOM     12  C   UNL A   1      46.108  40.202  27.416  1.00  0.00     0.103 C 
ATOM     13  O   UNL A   1      45.173  42.506  28.233  1.00  0.00    -0.268 OA
ATOM     14  C   UNL A   1      45.458  38.978  27.827  1.00  0.00     0.031 C 
BRANCH   7  15
ATOM     15  C   UNL A   1      47.003  44.143  27.091  1.00  0.00     0.054 A 
ATOM     16  C   UNL A   1      46.897  48.357  28.371  1.00  0.00     0.044 C 
ATOM     17  C   UNL A   1      46.994  46.936  27.887  1.00  0.00    -0.051 A 
ATOM     18  C   UNL A   1      48.175  46.174  27.875  1.00  0.00     0.005 A 
ATOM     19  C   UNL A   1      45.851  46.325  27.407  1.00  0.00     0.005 A 
ATOM     20  C   UNL A   1      48.186  44.793  27.474  1.00  0.00     0.027 A 
ATOM     21  C   UNL A   1      45.875  44.974  27.042  1.00  0.00     0.027 A 
ENDBRANCH   7  15
BRANCH  14  22
ATOM     22  C   UNL A   1      43.917  38.071  28.092  1.00  0.00     0.018 A 
ATOM     23  C   UNL A   1      43.980  37.261  29.242  1.00  0.00     0.012 A 
ATOM     24  C   UNL A   1      42.519  37.934  27.295  1.00  0.00     0.127 A 
ATOM     25  C   UNL A   1      43.023  36.258  29.489  1.00  0.00     0.001 A 
ATOM     26  C   UNL A   1      41.631  36.886  27.584  1.00  0.00     0.047 A 
ATOM     27  C   UNL A   1      41.926  36.027  28.640  1.00  0.00     0.004 A 
BRANCH  24  28
ATOM     28  O   UNL A   1      41.548  39.118  26.463  1.00  0.00    -0.488 OA
BRANCH  28  29
ATOM     29  C   UNL A   1      41.692  40.743  25.792  1.00  0.00     0.265 C 
BRANCH  29  30
ATOM     30  C   UNL A   1      42.355  41.626  24.686  1.00  0.00    -0.010 A 
ATOM     31  C   UNL A   1      43.353  42.527  25.170  1.00  0.00     0.007 A 
ATOM     32  C   UNL A   1      42.086  41.696  23.337  1.00  0.00     0.017 A 
ATOM     33  C   UNL A   1      44.011  43.441  24.346  1.00  0.00     0.001 A 
ATOM     34  C   UNL A   1      42.683  42.653  22.506  1.00  0.00    -0.002 A 
ATOM     35  C   UNL A   1      43.659  43.516  23.006  1.00  0.00     0.010 A 
BRANCH  34  36
ATOM     36  C   UNL A   1      42.206  42.825  21.108  1.00  0.00     0.071 C 
ATOM     37  O   UNL A   1      42.877  42.716  20.114  1.00  0.00    -0.545 OA
ATOM     38  O   UNL A   1      40.901  43.168  21.090  1.00  0.00    -0.545 OA
ENDBRANCH  34  36
ENDBRANCH  29  30
ENDBRANCH  28  29
ENDBRANCH  24  28
ENDBRANCH  14  22
ENDBRANCH   5   6
ENDBRANCH   4   5
ENDBRANCH   3   4
ENDBRANCH   2   3
ENDBRANCH   1   2
BRANCH   1  39
ATOM     39  C   UNL A   1      48.258  33.781  26.963  1.00  0.00     0.188 C 
BRANCH  39  40
ATOM     40  O   UNL A   1      48.059  34.013  28.344  1.00  0.00    -0.376 OA
BRANCH  40  41
ATOM     41  C   UNL A   1      46.852  34.542  28.837  1.00  0.00     0.202 C 
BRANCH  41  42
ATOM     42  C   UNL A   1      46.935  34.154  30.302  1.00  0.00     0.261 C 
BRANCH  42  43
ATOM     43  O   UNL A   1      47.034  35.410  31.068  1.00  0.00    -0.460 OA
BRANCH  43  44
ATOM     44  C   UNL A   1      47.257  35.322  32.425  1.00  0.00     0.338 C 
ATOM     45  O   UNL A   1      48.346  35.522  32.945  1.00  0.00    -0.246 OA
BRANCH  44  46
ATOM     46  C   UNL A   1      46.020  34.816  33.180  1.00  0.00     0.060 A 
ATOM     47  C   UNL A   1      45.954  33.537  33.749  1.00  0.00     0.016 A 
ATOM     48  C   UNL A   1      44.806  35.479  33.132  1.00  0.00     0.016 A 
ATOM     49  C   UNL A   1      44.698  32.815  33.881  1.00  0.00     0.010 A 
ATOM     50  C   UNL A   1      43.587  34.727  33.200  1.00  0.00     0.010 A 
ATOM     51  C   UNL A   1      43.519  33.296  33.308  1.00  0.00    -0.014 A 
BRANCH  51  52
ATOM     52  C   UNL A   1      42.042  32.549  33.144  1.00  0.00     0.031 A 
ATOM     53  C   UNL A   1      42.684  31.720  31.656  1.00  0.00     0.074 A 
ATOM     54  C   UNL A   1      40.544  32.296  33.927  1.00  0.00     0.049 A 
ATOM     55  N   UNL A   1      42.736  30.432  31.376  1.00  0.00    -0.248 NA
ATOM     56  C   UNL A   1      43.253  32.471  30.524  1.00  0.00     0.031 C 
ATOM     57  C   UNL A   1      39.414  30.956  33.898  1.00  0.00     0.029 A 
ATOM     58  N   UNL A   1      39.750  32.726  35.051  1.00  0.00    -0.354 N 
ATOM     59  C   UNL A   1      42.611  30.291  30.016  1.00  0.00     0.074 A 
ATOM     60  C   UNL A   1      43.292  31.517  29.578  1.00  0.00     0.031 C 
ATOM     61  C   UNL A   1      38.471  30.913  34.831  1.00  0.00     0.029 A 
ATOM     62  C   UNL A   1      38.558  32.158  35.455  1.00  0.00     0.049 A 
ATOM     63  H   UNL A   1      40.086  33.490  35.575  1.00  0.00     0.167 HD
ATOM     64  C   UNL A   1      41.505  29.739  29.351  1.00  0.00     0.034 A 
ATOM     65  C   UNL A   1      37.525  32.994  35.691  1.00  0.00     0.034 A 
ATOM     66  C   UNL A   1      40.127  29.562  30.028  1.00  0.00     0.049 A 
ATOM     67  C   UNL A   1      36.823  32.988  34.259  1.00  0.00     0.074 A 
ATOM     68  C   UNL A   1      39.567  28.637  30.906  1.00  0.00     0.029 A 
ATOM     69  N   UNL A   1      38.997  30.415  29.786  1.00  0.00    -0.354 N 
ATOM     70  N   UNL A   1      37.399  32.488  33.161  1.00  0.00    -0.248 NA
ATOM     71  C   UNL A   1      35.396  33.142  33.995  1.00  0.00     0.031 C 
ATOM     72  C   UNL A   1      38.278  29.114  31.381  1.00  0.00     0.029 A 
ATOM     73  C   UNL A   1      37.991  30.360  30.823  1.00  0.00     0.049 A 
ATOM     74  H   UNL A   1      38.915  30.985  28.988  1.00  0.00     0.167 HD
ATOM     75  C   UNL A   1      36.518  32.075  32.183  1.00  0.00     0.074 A 
ATOM     76  C   UNL A   1      35.259  32.590  32.761  1.00  0.00     0.031 C 
ATOM     77  C   UNL A   1      36.810  31.363  30.993  1.00  0.00     0.034 A 
BRANCH  64  78
ATOM     78  C   UNL A   1      41.970  28.807  28.220  1.00  0.00     0.023 A 
ATOM     79  C   UNL A   1      41.959  29.307  26.902  1.00  0.00     0.012 A 
ATOM     80  C   UNL A   1      42.264  27.425  28.359  1.00  0.00     0.148 A 
ATOM     81  C   UNL A   1      42.132  28.474  25.789  1.00  0.00     0.002 A 
ATOM     82  C   UNL A   1      42.355  26.581  27.251  1.00  0.00     0.091 A 
ATOM     83  F   UNL A   1      42.525  26.918  29.566  1.00  0.00    -0.205 F 
ATOM     84  C   UNL A   1      42.287  27.104  25.960  1.00  0.00     0.022 A 
BRANCH  82  85
ATOM     85  S   UNL A   1      42.416  24.786  27.420  1.00  0.00     0.127 S 
ATOM     86  O   UNL A   1      41.222  24.506  28.222  1.00  0.00    -0.237 OA
ATOM     87  O   UNL A   1      42.334  24.336  26.033  1.00  0.00    -0.237 OA
ATOM     88  O   UNL A   1      43.669  24.491  28.106  1.00  0.00    -0.744 OA
ENDBRANCH  82  85
ENDBRANCH  64  78
BRANCH  65  89
ATOM     89  C   UNL A   1      37.937  33.756  37.017  1.00  0.00     0.023 A 
ATOM     90  C   UNL A   1      37.551  32.972  38.161  1.00  0.00     0.012 A 
ATOM     91  C   UNL A   1      38.981  34.698  37.329  1.00  0.00     0.148 A 
ATOM     92  C   UNL A   1      38.213  32.974  39.403  1.00  0.00     0.002 A 
ATOM     93  C   UNL A   1      39.669  34.684  38.608  1.00  0.00     0.091 A 
ATOM     94  F   UNL A   1      39.318  35.601  36.402  1.00  0.00    -0.205 F 
ATOM     95  C   UNL A   1      39.288  33.801  39.613  1.00  0.00     0.022 A 
BRANCH  93  96
ATOM     96  S   UNL A   1      41.219  35.575  39.043  1.00  0.00     0.127 S 
ATOM     97  O   UNL A   1      40.824  36.976  39.033  1.00  0.00    -0.237 OA
ATOM     98  O   UNL A   1      41.604  35.061  40.358  1.00  0.00    -0.237 OA
ATOM     99  O   UNL A   1      42.126  35.121  38.007  1.00  0.00    -0.744 OA
ENDBRANCH  93  96
ENDBRANCH  65  89
BRANCH  77 100
ATOM    100  C   UNL A   1      35.934  31.615  29.761  1.00  0.00     0.023 A 
ATOM    101  C   UNL A   1      35.489  30.558  28.935  1.00  0.00     0.012 A 
ATOM    102  C   UNL A   1      35.351  32.879  29.513  1.00  0.00     0.148 A 
ATOM    103  C   UNL A   1      34.592  30.751  27.881  1.00  0.00     0.002 A 
ATOM    104  C   UNL A   1      34.343  33.033  28.565  1.00  0.00     0.091 A 
ATOM    105  F   UNL A   1      35.763  33.962  30.186  1.00  0.00    -0.205 F 
ATOM    106  C   UNL A   1      33.991  31.986  27.715  1.00  0.00     0.022 A 
BRANCH 104 107
ATOM    107  S   UNL A   1      33.333  34.520  28.563  1.00  0.00     0.127 S 
ATOM    108  O   UNL A   1      33.027  34.679  29.982  1.00  0.00    -0.237 OA
ATOM    109  O   UNL A   1      34.249  35.523  28.018  1.00  0.00    -0.237 OA
ATOM    110  O   UNL A   1      32.217  34.191  27.684  1.00  0.00    -0.744 OA
ENDBRANCH 104 107
ENDBRANCH  77 100
ENDBRANCH  51  52
ENDBRANCH  44  46
ENDBRANCH  43  44
ENDBRANCH  42  43
ENDBRANCH  41  42
ENDBRANCH  40  41
ENDBRANCH  39  40
ENDBRANCH   1  39
TORSDOF 25
ENDMDL
MODEL 2
REMARK VINA RESULT:     -10.5      2.381      5.315
REMARK SMILES Cc1ccc(N2C(=O)N=C(OCCOCCOCCOC(=O)c3ccc(-c4c5nc(c(-c6cccc(S(=O)(=O)[O-])c6F)c6ccc([nH]6)c(-c6cccc(S(=O)(=O)[O-])c6F)c6nc(c(-c7cccc(S(=O)(=O)[O-])c7F)c7ccc4[nH]7)C=C6)C=C5)cc3)/C(=C/c3ccccc3OCc3cccc(C(=O)[O-])c3)C2=O)cc1
REMARK SMILES IDX 15 1 14 2 13 3 12 4 11 5 10 6 6 7 7 8 105 9 8 10 9 11 86 12
REMARK SMILES IDX 106 13 87 14 5 15 1 16 2 17 3 18 108 19 4 20 107 21 88 22
REMARK SMILES IDX 89 23 93 24 90 25 92 26 91 27 94 28 95 29 96 30 97 31 104 32
REMARK SMILES IDX 98 33 100 34 99 35 101 36 102 37 103 38 16 39 17 40 18 41
REMARK SMILES IDX 19 42 20 43 21 44 22 45 23 46 24 47 85 48 25 49 84 50 26 51
REMARK SMILES IDX 27 52 28 53 78 54 29 55 83 56 77 57 79 58 30 59 82 60 76 61
REMARK SMILES IDX 75 62 31 64 63 65 43 66 62 67 44 68 47 69 61 70 80 71 45 72
REMARK SMILES IDX 46 73 60 75 81 76 48 77 32 78 33 79 41 80 34 81 36 82 42 83
REMARK SMILES IDX 35 84 37 85 38 86 39 87 40 88 64 89 65 90 73 91 66 92 68 93
REMARK SMILES IDX 74 94 67 95 69 96 70 97 71 98 72 99 49 100 50 101 58 102
REMARK SMILES IDX 51 103 53 104 59 105 52 106 54 107 55 108 56 109 57 110
REMARK H PARENT 79 63 47 74
REMARK Flexibility Score: inf
ROOT
ATOM      1  C   UNL A   1      50.651  39.845  30.106  1.00  0.00     0.188 C 
ENDROOT
BRANCH   1   2
ATOM      2  O   UNL A   1      50.113  41.155  29.923  1.00  0.00    -0.376 OA
BRANCH   2   3
ATOM      3  C   UNL A   1      48.700  41.160  29.766  1.00  0.00     0.201 C 
BRANCH   3   4
ATOM      4  C   UNL A   1      48.068  41.669  28.458  1.00  0.00     0.260 C 
BRANCH   4   5
ATOM      5  O   UNL A   1      48.015  40.780  27.239  1.00  0.00    -0.475 OA
BRANCH   5   6
ATOM      6  C   UNL A   1      48.376  39.530  26.846  1.00  0.00     0.231 C 
ATOM      7  N   UNL A   1      49.314  36.935  26.190  1.00  0.00    -0.226 N 
ATOM      8  C   UNL A   1      49.941  37.758  27.071  1.00  0.00     0.358 C 
ATOM      9  C   UNL A   1      47.974  37.134  26.108  1.00  0.00     0.272 C 
ATOM     10  O   UNL A   1      50.715  37.259  27.897  1.00  0.00    -0.245 OA
ATOM     11  N   UNL A   1      49.561  39.097  27.159  1.00  0.00    -0.156 NA
ATOM     12  C   UNL A   1      47.314  38.724  26.266  1.00  0.00     0.103 C 
ATOM     13  O   UNL A   1      47.299  36.152  25.777  1.00  0.00    -0.268 OA
ATOM     14  C   UNL A   1      46.063  39.440  26.372  1.00  0.00     0.031 C 
BRANCH   7  15
ATOM     15  C   UNL A   1      49.971  35.720  25.665  1.00  0.00     0.054 A 
ATOM     16  C   UNL A   1      52.563  32.533  24.076  1.00  0.00     0.044 C 
ATOM     17  C   UNL A   1      51.615  33.576  24.601  1.00  0.00    -0.051 A 
ATOM     18  C   UNL A   1      50.591  33.331  25.532  1.00  0.00     0.005 A 
ATOM     19  C   UNL A   1      51.741  34.871  24.137  1.00  0.00     0.005 A 
ATOM     20  C   UNL A   1      49.769  34.388  26.055  1.00  0.00     0.027 A 
ATOM     21  C   UNL A   1      50.947  35.892  24.674  1.00  0.00     0.027 A 
ENDBRANCH   7  15
BRANCH  14  22
ATOM     22  C   UNL A   1      44.374  39.495  27.013  1.00  0.00     0.018 A 
ATOM     23  C   UNL A   1      43.540  40.303  26.217  1.00  0.00     0.012 A 
ATOM     24  C   UNL A   1      43.619  38.883  28.303  1.00  0.00     0.127 A 
ATOM     25  C   UNL A   1      42.275  40.726  26.669  1.00  0.00     0.001 A 
ATOM     26  C   UNL A   1      42.369  39.382  28.704  1.00  0.00     0.047 A 
ATOM     27  C   UNL A   1      41.743  40.340  27.911  1.00  0.00     0.004 A 
BRANCH  24  28
ATOM     28  O   UNL A   1      43.742  37.327  29.077  1.00  0.00    -0.488 OA
BRANCH  28  29
ATOM     29  C   UNL A   1      43.989  35.632  28.656  1.00  0.00     0.265 C 
BRANCH  29  30
ATOM     30  C   UNL A   1      44.401  34.631  27.528  1.00  0.00    -0.010 A 
ATOM     31  C   UNL A   1      43.544  34.646  26.384  1.00  0.00     0.007 A 
ATOM     32  C   UNL A   1      45.428  33.714  27.497  1.00  0.00     0.017 A 
ATOM     33  C   UNL A   1      43.709  33.780  25.303  1.00  0.00     0.001 A 
ATOM     34  C   UNL A   1      45.570  32.789  26.454  1.00  0.00    -0.002 A 
ATOM     35  C   UNL A   1      44.721  32.831  25.348  1.00  0.00     0.010 A 
BRANCH  34  36
ATOM     36  C   UNL A   1      46.563  31.688  26.569  1.00  0.00     0.071 C 
ATOM     37  O   UNL A   1      47.519  31.672  27.301  1.00  0.00    -0.545 OA
ATOM     38  O   UNL A   1      46.278  30.698  25.696  1.00  0.00    -0.545 OA
ENDBRANCH  34  36
ENDBRANCH  29  30
ENDBRANCH  28  29
ENDBRANCH  24  28
ENDBRANCH  14  22
ENDBRANCH   5   6
ENDBRANCH   4   5
ENDBRANCH   3   4
ENDBRANCH   2   3
ENDBRANCH   1   2
BRANCH   1  39
ATOM     39  C   UNL A   1      50.685  39.499  31.598  1.00  0.00     0.188 C 
BRANCH  39  40
ATOM     40  O   UNL A   1      50.581  38.110  31.853  1.00  0.00    -0.376 OA
BRANCH  40  41
ATOM     41  C   UNL A   1      49.602  37.318  31.227  1.00  0.00     0.202 C 
BRANCH  41  42
ATOM     42  C   UNL A   1      48.799  36.841  32.424  1.00  0.00     0.261 C 
BRANCH  42  43
ATOM     43  O   UNL A   1      47.475  36.442  31.913  1.00  0.00    -0.460 OA
BRANCH  43  44
ATOM     44  C   UNL A   1      47.219  35.096  31.766  1.00  0.00     0.338 C 
ATOM     45  O   UNL A   1      47.853  34.366  31.019  1.00  0.00    -0.246 OA
BRANCH  44  46
ATOM     46  C   UNL A   1      45.970  34.659  32.545  1.00  0.00     0.060 A 
ATOM     47  C   UNL A   1      45.898  33.441  33.233  1.00  0.00     0.016 A 
ATOM     48  C   UNL A   1      44.755  35.308  32.412  1.00  0.00     0.016 A 
ATOM     49  C   UNL A   1      44.643  32.728  33.413  1.00  0.00     0.010 A 
ATOM     50  C   UNL A   1      43.537  34.560  32.531  1.00  0.00     0.010 A 
ATOM     51  C   UNL A   1      43.473  33.146  32.776  1.00  0.00    -0.014 A 
BRANCH  51  52
ATOM     52  C   UNL A   1      42.001  32.379  32.659  1.00  0.00     0.031 A 
ATOM     53  C   UNL A   1      42.620  31.527  31.175  1.00  0.00     0.074 A 
ATOM     54  C   UNL A   1      40.523  32.125  33.479  1.00  0.00     0.049 A 
ATOM     55  N   UNL A   1      42.682  30.234  30.919  1.00  0.00    -0.248 NA
ATOM     56  C   UNL A   1      43.156  32.261  30.016  1.00  0.00     0.031 C 
ATOM     57  C   UNL A   1      39.409  30.772  33.502  1.00  0.00     0.029 A 
ATOM     58  N   UNL A   1      39.749  32.569  34.611  1.00  0.00    -0.354 N 
ATOM     59  C   UNL A   1      42.530  30.064  29.566  1.00  0.00     0.074 A 
ATOM     60  C   UNL A   1      43.186  31.289  29.088  1.00  0.00     0.031 C 
ATOM     61  C   UNL A   1      38.487  30.738  34.456  1.00  0.00     0.029 A 
ATOM     62  C   UNL A   1      38.573  31.995  35.053  1.00  0.00     0.049 A 
ATOM     63  H   UNL A   1      40.087  33.347  35.112  1.00  0.00     0.167 HD
ATOM     64  C   UNL A   1      41.415  29.486  28.936  1.00  0.00     0.034 A 
ATOM     65  C   UNL A   1      37.535  32.825  35.294  1.00  0.00     0.034 A 
ATOM     66  C   UNL A   1      40.055  29.307  29.646  1.00  0.00     0.049 A 
ATOM     67  C   UNL A   1      36.802  32.781  33.878  1.00  0.00     0.074 A 
ATOM     68  C   UNL A   1      39.525  28.393  30.555  1.00  0.00     0.029 A 
ATOM     69  N   UNL A   1      38.910  30.141  29.412  1.00  0.00    -0.354 N 
ATOM     70  N   UNL A   1      37.361  32.265  32.779  1.00  0.00    -0.248 NA
ATOM     71  C   UNL A   1      35.368  32.914  33.642  1.00  0.00     0.031 C 
ATOM     72  C   UNL A   1      38.241  28.866  31.049  1.00  0.00     0.029 A 
ATOM     73  C   UNL A   1      37.927  30.096  30.472  1.00  0.00     0.049 A 
ATOM     74  H   UNL A   1      38.804  30.694  28.604  1.00  0.00     0.167 HD
ATOM     75  C   UNL A   1      36.464  31.823  31.828  1.00  0.00     0.074 A 
ATOM     76  C   UNL A   1      35.212  32.334  32.423  1.00  0.00     0.031 C 
ATOM     77  C   UNL A   1      36.738  31.090  30.647  1.00  0.00     0.034 A 
BRANCH  64  78
ATOM     78  C   UNL A   1      41.868  28.536  27.814  1.00  0.00     0.023 A 
ATOM     79  C   UNL A   1      41.826  29.010  26.488  1.00  0.00     0.012 A 
ATOM     80  C   UNL A   1      42.178  27.160  27.975  1.00  0.00     0.148 A 
ATOM     81  C   UNL A   1      41.984  28.157  25.388  1.00  0.00     0.002 A 
ATOM     82  C   UNL A   1      42.254  26.295  26.882  1.00  0.00     0.091 A 
ATOM     83  F   UNL A   1      42.468  26.679  29.186  1.00  0.00    -0.205 F 
ATOM     84  C   UNL A   1      42.156  26.792  25.582  1.00  0.00     0.022 A 
BRANCH  82  85
ATOM     85  S   UNL A   1      42.336  24.504  27.084  1.00  0.00     0.127 S 
ATOM     86  O   UNL A   1      41.049  24.202  27.713  1.00  0.00    -0.237 OA
ATOM     87  O   UNL A   1      42.463  24.038  25.706  1.00  0.00    -0.237 OA
ATOM     88  O   UNL A   1      43.487  24.251  27.944  1.00  0.00    -0.744 OA
ENDBRANCH  82  85
ENDBRANCH  64  78
BRANCH  65  89
ATOM     89  C   UNL A   1      37.966  33.618  36.595  1.00  0.00     0.023 A 
ATOM     90  C   UNL A   1      37.653  32.835  37.762  1.00  0.00     0.012 A 
ATOM     91  C   UNL A   1      38.985  34.603  36.857  1.00  0.00     0.148 A 
ATOM     92  C   UNL A   1      38.361  32.877  38.978  1.00  0.00     0.002 A 
ATOM     93  C   UNL A   1      39.719  34.631  38.109  1.00  0.00     0.091 A 
ATOM     94  F   UNL A   1      39.252  35.506  35.908  1.00  0.00    -0.205 F 
ATOM     95  C   UNL A   1      39.410  33.747  39.138  1.00  0.00     0.022 A 
BRANCH  93  96
ATOM     96  S   UNL A   1      41.249  35.586  38.476  1.00  0.00     0.127 S 
ATOM     97  O   UNL A   1      41.552  35.234  39.855  1.00  0.00    -0.237 OA
ATOM     98  O   UNL A   1      42.236  35.124  37.499  1.00  0.00    -0.237 OA
ATOM     99  O   UNL A   1      40.826  36.945  38.202  1.00  0.00    -0.744 OA
ENDBRANCH  93  96
ENDBRANCH  65  89
BRANCH  77 100
ATOM    100  C   UNL A   1      35.833  31.306  29.429  1.00  0.00     0.023 A 
ATOM    101  C   UNL A   1      35.360  30.225  28.652  1.00  0.00     0.012 A 
ATOM    102  C   UNL A   1      35.253  32.565  29.153  1.00  0.00     0.148 A 
ATOM    103  C   UNL A   1      34.438  30.389  27.614  1.00  0.00     0.002 A 
ATOM    104  C   UNL A   1      34.222  32.695  28.226  1.00  0.00     0.091 A 
ATOM    105  F   UNL A   1      35.689  33.667  29.778  1.00  0.00    -0.205 F 
ATOM    106  C   UNL A   1      33.841  31.623  27.421  1.00  0.00     0.022 A 
BRANCH 104 107
ATOM    107  S   UNL A   1      33.223  34.188  28.199  1.00  0.00     0.127 S 
ATOM    108  O   UNL A   1      34.147  35.159  27.620  1.00  0.00    -0.237 OA
ATOM    109  O   UNL A   1      32.109  33.808  27.329  1.00  0.00    -0.237 OA
ATOM    110  O   UNL A   1      32.848  34.390  29.594  1.00  0.00    -0.744 OA
ENDBRANCH 104 107
ENDBRANCH  77 100
ENDBRANCH  51  52
ENDBRANCH  44  46
ENDBRANCH  43  44
ENDBRANCH  42  43
ENDBRANCH  41  42
ENDBRANCH  40  41
ENDBRANCH  39  40
ENDBRANCH   1  39
TORSDOF 25
ENDMDL
MODEL 3
REMARK VINA RESULT:     -10.1      5.090     11.939
REMARK SMILES Cc1ccc(N2C(=O)N=C(OCCOCCOCCOC(=O)c3ccc(-c4c5nc(c(-c6cccc(S(=O)(=O)[O-])c6F)c6ccc([nH]6)c(-c6cccc(S(=O)(=O)[O-])c6F)c6nc(c(-c7cccc(S(=O)(=O)[O-])c7F)c7ccc4[nH]7)C=C6)C=C5)cc3)/C(=C/c3ccccc3OCc3cccc(C(=O)[O-])c3)C2=O)cc1
REMARK SMILES IDX 15 1 14 2 13 3 12 4 11 5 10 6 6 7 7 8 105 9 8 10 9 11 86 12
REMARK SMILES IDX 106 13 87 14 5 15 1 16 2 17 3 18 108 19 4 20 107 21 88 22
REMARK SMILES IDX 89 23 93 24 90 25 92 26 91 27 94 28 95 29 96 30 97 31 104 32
REMARK SMILES IDX 98 33 100 34 99 35 101 36 102 37 103 38 16 39 17 40 18 41
REMARK SMILES IDX 19 42 20 43 21 44 22 45 23 46 24 47 85 48 25 49 84 50 26 51
REMARK SMILES IDX 27 52 28 53 78 54 29 55 83 56 77 57 79 58 30 59 82 60 76 61
REMARK SMILES IDX 75 62 31 64 63 65 43 66 62 67 44 68 47 69 61 70 80 71 45 72
REMARK SMILES IDX 46 73 60 75 81 76 48 77 32 78 33 79 41 80 34 81 36 82 42 83
REMARK SMILES IDX 35 84 37 85 38 86 39 87 40 88 64 89 65 90 73 91 66 92 68 93
REMARK SMILES IDX 74 94 67 95 69 96 70 97 71 98 72 99 49 100 50 101 58 102
REMARK SMILES IDX 51 103 53 104 59 105 52 106 54 107 55 108 56 109 57 110
REMARK H PARENT 79 63 47 74
REMARK Flexibility Score: inf
ROOT
ATOM      1  C   UNL A   1      41.619  28.568  35.109  1.00  0.00     0.188 C 
ENDROOT
BRANCH   1   2
ATOM      2  O   UNL A   1      40.508  28.207  34.289  1.00  0.00    -0.376 OA
BRANCH   2   3
ATOM      3  C   UNL A   1      40.486  28.897  33.046  1.00  0.00     0.201 C 
BRANCH   3   4
ATOM      4  C   UNL A   1      41.724  28.886  32.131  1.00  0.00     0.260 C 
BRANCH   4   5
ATOM      5  O   UNL A   1      41.564  28.858  30.630  1.00  0.00    -0.475 OA
BRANCH   5   6
ATOM      6  C   UNL A   1      41.799  28.036  29.573  1.00  0.00     0.231 C 
ATOM      7  N   UNL A   1      42.343  26.145  27.530  1.00  0.00    -0.226 N 
ATOM      8  C   UNL A   1      42.517  25.890  28.854  1.00  0.00     0.358 C 
ATOM      9  C   UNL A   1      41.375  27.059  27.268  1.00  0.00     0.272 C 
ATOM     10  O   UNL A   1      42.547  24.711  29.229  1.00  0.00    -0.245 OA
ATOM     11  N   UNL A   1      42.461  26.936  29.775  1.00  0.00    -0.156 NA
ATOM     12  C   UNL A   1      41.113  28.389  28.340  1.00  0.00     0.103 C 
ATOM     13  O   UNL A   1      40.815  26.955  26.171  1.00  0.00    -0.268 OA
ATOM     14  C   UNL A   1      40.221  29.498  28.594  1.00  0.00     0.031 C 
BRANCH   7  15
ATOM     15  C   UNL A   1      42.896  25.251  26.492  1.00  0.00     0.054 A 
ATOM     16  C   UNL A   1      45.217  22.710  23.742  1.00  0.00     0.044 C 
ATOM     17  C   UNL A   1      44.364  23.574  24.630  1.00  0.00    -0.051 A 
ATOM     18  C   UNL A   1      43.058  23.254  25.044  1.00  0.00     0.005 A 
ATOM     19  C   UNL A   1      44.882  24.776  25.072  1.00  0.00     0.005 A 
ATOM     20  C   UNL A   1      42.325  24.086  25.959  1.00  0.00     0.027 A 
ATOM     21  C   UNL A   1      44.162  25.562  25.980  1.00  0.00     0.027 A 
ENDBRANCH   7  15
BRANCH  14  22
ATOM     22  C   UNL A   1      38.532  30.141  28.600  1.00  0.00     0.018 A 
ATOM     23  C   UNL A   1      37.591  29.138  28.299  1.00  0.00     0.012 A 
ATOM     24  C   UNL A   1      37.862  31.595  28.816  1.00  0.00     0.127 A 
ATOM     25  C   UNL A   1      36.260  29.453  27.966  1.00  0.00     0.001 A 
ATOM     26  C   UNL A   1      36.534  31.834  28.429  1.00  0.00     0.047 A 
ATOM     27  C   UNL A   1      35.770  30.771  27.954  1.00  0.00     0.004 A 
BRANCH  24  28
ATOM     28  O   UNL A   1      38.235  32.880  29.932  1.00  0.00    -0.488 OA
BRANCH  28  29
ATOM     29  C   UNL A   1      39.446  34.140  30.174  1.00  0.00     0.265 C 
BRANCH  29  30
ATOM     30  C   UNL A   1      40.795  34.745  29.669  1.00  0.00    -0.010 A 
ATOM     31  C   UNL A   1      41.829  34.787  30.655  1.00  0.00     0.007 A 
ATOM     32  C   UNL A   1      41.115  35.279  28.440  1.00  0.00     0.017 A 
ATOM     33  C   UNL A   1      43.082  35.350  30.415  1.00  0.00     0.001 A 
ATOM     34  C   UNL A   1      42.342  35.912  28.200  1.00  0.00    -0.002 A 
ATOM     35  C   UNL A   1      43.334  35.933  29.181  1.00  0.00     0.010 A 
BRANCH  34  36
ATOM     36  C   UNL A   1      42.558  36.656  26.930  1.00  0.00     0.071 C 
ATOM     37  O   UNL A   1      42.382  37.836  26.764  1.00  0.00    -0.545 OA
ATOM     38  O   UNL A   1      42.945  35.816  25.947  1.00  0.00    -0.545 OA
ENDBRANCH  34  36
ENDBRANCH  29  30
ENDBRANCH  28  29
ENDBRANCH  24  28
ENDBRANCH  14  22
ENDBRANCH   5   6
ENDBRANCH   4   5
ENDBRANCH   3   4
ENDBRANCH   2   3
ENDBRANCH   1   2
BRANCH   1  39
ATOM     39  C   UNL A   1      41.921  27.444  36.105  1.00  0.00     0.188 C 
BRANCH  39  40
ATOM     40  O   UNL A   1      40.922  26.442  36.137  1.00  0.00    -0.376 OA
BRANCH  40  41
ATOM     41  C   UNL A   1      41.244  25.087  36.335  1.00  0.00     0.202 C 
BRANCH  41  42
ATOM     42  C   UNL A   1      42.661  25.036  35.791  1.00  0.00     0.261 C 
BRANCH  42  43
ATOM     43  O   UNL A   1      42.768  23.796  35.003  1.00  0.00    -0.460 OA
BRANCH  43  44
ATOM     44  C   UNL A   1      44.022  23.248  34.831  1.00  0.00     0.338 C 
ATOM     45  O   UNL A   1      44.429  22.283  35.462  1.00  0.00    -0.246 OA
BRANCH  44  46
ATOM     46  C   UNL A   1      44.880  24.069  33.859  1.00  0.00     0.060 A 
ATOM     47  C   UNL A   1      45.971  24.839  34.283  1.00  0.00     0.016 A 
ATOM     48  C   UNL A   1      44.489  24.310  32.554  1.00  0.00     0.016 A 
ATOM     49  C   UNL A   1      46.377  26.052  33.588  1.00  0.00     0.010 A 
ATOM     50  C   UNL A   1      44.852  25.545  31.922  1.00  0.00     0.010 A 
ATOM     51  C   UNL A   1      45.606  26.591  32.557  1.00  0.00    -0.014 A 
BRANCH  51  52
ATOM     52  C   UNL A   1      45.752  28.056  31.783  1.00  0.00     0.031 A 
ATOM     53  C   UNL A   1      46.873  27.258  30.592  1.00  0.00     0.074 A 
ATOM     54  C   UNL A   1      45.125  29.646  31.736  1.00  0.00     0.049 A 
ATOM     55  N   UNL A   1      46.793  27.206  29.276  1.00  0.00    -0.248 NA
ATOM     56  C   UNL A   1      48.082  26.534  31.018  1.00  0.00     0.031 C 
ATOM     57  C   UNL A   1      44.940  30.799  30.430  1.00  0.00     0.029 A 
ATOM     58  N   UNL A   1      44.265  30.560  32.445  1.00  0.00    -0.354 N 
ATOM     59  C   UNL A   1      48.071  27.166  28.777  1.00  0.00     0.074 A 
ATOM     60  C   UNL A   1      48.729  26.404  29.847  1.00  0.00     0.031 C 
ATOM     61  C   UNL A   1      44.155  31.851  30.630  1.00  0.00     0.029 A 
ATOM     62  C   UNL A   1      43.877  31.808  31.996  1.00  0.00     0.049 A 
ATOM     63  H   UNL A   1      43.924  30.271  33.323  1.00  0.00     0.167 HD
ATOM     64  C   UNL A   1      48.700  28.197  28.060  1.00  0.00     0.034 A 
ATOM     65  C   UNL A   1      44.004  32.839  32.858  1.00  0.00     0.034 A 
ATOM     66  C   UNL A   1      48.180  29.651  28.060  1.00  0.00     0.049 A 
ATOM     67  C   UNL A   1      45.460  33.359  32.466  1.00  0.00     0.074 A 
ATOM     68  C   UNL A   1      47.165  30.341  27.398  1.00  0.00     0.029 A 
ATOM     69  N   UNL A   1      48.779  30.719  28.809  1.00  0.00    -0.354 N 
ATOM     70  N   UNL A   1      46.304  32.666  31.695  1.00  0.00    -0.248 NA
ATOM     71  C   UNL A   1      45.933  34.738  32.534  1.00  0.00     0.031 C 
ATOM     72  C   UNL A   1      47.000  31.665  27.976  1.00  0.00     0.029 A 
ATOM     73  C   UNL A   1      47.900  31.847  29.026  1.00  0.00     0.049 A 
ATOM     74  H   UNL A   1      49.704  30.687  29.146  1.00  0.00     0.167 HD
ATOM     75  C   UNL A   1      47.241  33.430  31.031  1.00  0.00     0.074 A 
ATOM     76  C   UNL A   1      46.983  34.736  31.672  1.00  0.00     0.031 C 
ATOM     77  C   UNL A   1      48.153  33.013  30.030  1.00  0.00     0.034 A 
BRANCH  64  78
ATOM     78  C   UNL A   1      49.475  27.620  26.863  1.00  0.00     0.023 A 
ATOM     79  C   UNL A   1      50.882  27.576  26.944  1.00  0.00     0.012 A 
ATOM     80  C   UNL A   1      48.912  27.269  25.609  1.00  0.00     0.148 A 
ATOM     81  C   UNL A   1      51.683  27.298  25.829  1.00  0.00     0.002 A 
ATOM     82  C   UNL A   1      49.708  27.072  24.479  1.00  0.00     0.091 A 
ATOM     83  F   UNL A   1      47.598  27.057  25.503  1.00  0.00    -0.205 F 
ATOM     84  C   UNL A   1      51.099  27.088  24.586  1.00  0.00     0.022 A 
BRANCH  82  85
ATOM     85  S   UNL A   1      49.002  26.936  22.824  1.00  0.00     0.127 S 
ATOM     86  O   UNL A   1      48.174  28.140  22.737  1.00  0.00    -0.237 OA
ATOM     87  O   UNL A   1      50.189  26.952  21.973  1.00  0.00    -0.237 OA
ATOM     88  O   UNL A   1      48.238  25.693  22.817  1.00  0.00    -0.744 OA
ENDBRANCH  82  85
ENDBRANCH  64  78
BRANCH  65  89
ATOM     89  C   UNL A   1      42.887  32.574  33.949  1.00  0.00     0.023 A 
ATOM     90  C   UNL A   1      43.471  32.638  35.262  1.00  0.00     0.012 A 
ATOM     91  C   UNL A   1      41.463  32.794  33.974  1.00  0.00     0.148 A 
ATOM     92  C   UNL A   1      42.795  33.041  36.430  1.00  0.00     0.002 A 
ATOM     93  C   UNL A   1      40.776  33.222  35.180  1.00  0.00     0.091 A 
ATOM     94  F   UNL A   1      40.770  32.598  32.847  1.00  0.00    -0.205 F 
ATOM     95  C   UNL A   1      41.462  33.363  36.381  1.00  0.00     0.022 A 
BRANCH  93  96
ATOM     96  S   UNL A   1      39.054  33.859  35.307  1.00  0.00     0.127 S 
ATOM     97  O   UNL A   1      38.258  32.832  34.649  1.00  0.00    -0.237 OA
ATOM     98  O   UNL A   1      38.799  34.000  36.741  1.00  0.00    -0.237 OA
ATOM     99  O   UNL A   1      39.163  35.150  34.656  1.00  0.00    -0.744 OA
ENDBRANCH  93  96
ENDBRANCH  65  89
BRANCH  77 100
ATOM    100  C   UNL A   1      49.508  33.723  29.938  1.00  0.00     0.023 A 
ATOM    101  C   UNL A   1      50.519  33.528  30.905  1.00  0.00     0.012 A 
ATOM    102  C   UNL A   1      49.893  34.432  28.777  1.00  0.00     0.148 A 
ATOM    103  C   UNL A   1      51.801  34.069  30.775  1.00  0.00     0.002 A 
ATOM    104  C   UNL A   1      51.213  34.833  28.583  1.00  0.00     0.091 A 
ATOM    105  F   UNL A   1      48.990  34.741  27.837  1.00  0.00    -0.205 F 
ATOM    106  C   UNL A   1      52.160  34.696  29.595  1.00  0.00     0.022 A 
BRANCH 104 107
ATOM    107  S   UNL A   1      51.765  35.340  26.950  1.00  0.00     0.127 S 
ATOM    108  O   UNL A   1      51.333  34.218  26.123  1.00  0.00    -0.237 OA
ATOM    109  O   UNL A   1      51.020  36.582  26.736  1.00  0.00    -0.237 OA
ATOM    110  O   UNL A   1      53.204  35.527  27.103  1.00  0.00    -0.744 OA
ENDBRANCH 104 107
ENDBRANCH  77 100
ENDBRANCH  51  52
ENDBRANCH  44  46
ENDBRANCH  43  44
ENDBRANCH  42  43
ENDBRANCH  41  42
ENDBRANCH  40  41
ENDBRANCH  39  40
ENDBRANCH   1  39
TORSDOF 25
ENDMDL
