MODEL 1
REMARK VINA RESULT:     -10.8      0.000      0.000
REMARK SMILES C[C@@H]1[C@@H](C(=O)OCCOCCOCCOC(=O)c2ccc(-c3c4nc(c(-c5cccc(S(=O)(=O)[O-])c5F)c5ccc([nH]5)c(-c5cccc(S(=O)(=O)[O-])c5F)c5nc(c(-c6cccc(S(=O)(=O)[O-])c6F)c6ccc3[nH]6)C=C5)C=C4)cc2)CCN1C(=O)[C@]1([NH3+])CCOC1
REMARK SMILES IDX 10 1 9 2 8 3 7 4 6 5 4 6 5 7 3 8 1 9 2 10 83 11 81 12 82 13
REMARK SMILES IDX 84 14 85 15 86 16 88 17 91 18 89 19 90 20 87 21 11 25 12 26
REMARK SMILES IDX 13 27 14 28 15 29 16 30 17 31 18 32 19 33 80 34 20 35 79 36
REMARK SMILES IDX 21 37 22 38 23 39 73 40 24 41 78 42 72 43 74 44 25 45 77 46
REMARK SMILES IDX 71 47 70 48 26 50 58 51 38 52 57 53 39 54 42 55 56 56 75 57
REMARK SMILES IDX 40 58 41 59 55 61 76 62 43 63 27 64 28 65 36 66 29 67 31 68
REMARK SMILES IDX 37 69 30 70 32 71 33 72 34 73 35 74 59 75 60 76 68 77 61 78
REMARK SMILES IDX 63 79 69 80 62 81 64 82 65 83 66 84 67 85 44 86 45 87 53 88
REMARK SMILES IDX 46 89 48 90 54 91 47 92 49 93 50 94 51 95 52 96
REMARK H PARENT 87 22 87 23 87 24 74 49 42 60
REMARK Flexibility Score: inf
ROOT
ATOM      1  C   UNL A   1      30.204  26.728  23.011  1.00  0.00     0.188 C 
ENDROOT
BRANCH   1   2
ATOM      2  O   UNL A   1      31.340  25.999  23.453  1.00  0.00    -0.376 OA
BRANCH   2   3
ATOM      3  C   UNL A   1      32.373  25.704  22.529  1.00  0.00     0.202 C 
BRANCH   3   4
ATOM      4  C   UNL A   1      33.332  24.576  22.915  1.00  0.00     0.261 C 
BRANCH   4   5
ATOM      5  O   UNL A   1      34.376  24.937  23.852  1.00  0.00    -0.463 OA
BRANCH   5   6
ATOM      6  C   UNL A   1      34.070  24.719  25.154  1.00  0.00     0.311 C 
ATOM      7  O   UNL A   1      33.716  25.612  25.920  1.00  0.00    -0.252 OA
BRANCH   6   8
ATOM      8  C   UNL A   1      34.365  23.318  25.678  1.00  0.00     0.123 C 
ATOM      9  C   UNL A   1      35.618  21.181  25.492  1.00  0.00     0.032 C 
ATOM     10  C   UNL A   1      34.563  22.055  24.790  1.00  0.00     0.096 C 
ATOM     11  N   UNL A   1      33.267  21.340  24.807  1.00  0.00    -0.334 N 
ATOM     12  C   UNL A   1      33.219  22.890  26.606  1.00  0.00     0.039 C 
ATOM     13  C   UNL A   1      32.355  21.999  25.738  1.00  0.00     0.121 C 
BRANCH  11  14
ATOM     14  C   UNL A   1      32.856  20.139  24.259  1.00  0.00     0.286 C 
ATOM     15  O   UNL A   1      32.206  20.181  23.196  1.00  0.00    -0.267 OA
BRANCH  14  16
ATOM     16  C   UNL A   1      33.154  18.683  24.806  1.00  0.00     0.199 C 
ATOM     17  C   UNL A   1      34.553  18.176  24.500  1.00  0.00     0.110 C 
ATOM     18  C   UNL A   1      32.259  17.568  24.299  1.00  0.00     0.239 C 
ATOM     19  C   UNL A   1      34.363  17.060  23.487  1.00  0.00     0.167 C 
ATOM     20  O   UNL A   1      32.966  16.879  23.261  1.00  0.00    -0.374 OA
BRANCH  16  21
ATOM     21  N   UNL A   1      32.963  18.783  26.294  1.00  0.00    -0.343 N 
ATOM     22  H   UNL A   1      32.058  19.210  26.492  1.00  0.00     0.345 HD
ATOM     23  H   UNL A   1      33.705  19.357  26.693  1.00  0.00     0.345 HD
ATOM     24  H   UNL A   1      32.996  17.850  26.705  1.00  0.00     0.345 HD
ENDBRANCH  16  21
ENDBRANCH  14  16
ENDBRANCH  11  14
ENDBRANCH   6   8
ENDBRANCH   5   6
ENDBRANCH   4   5
ENDBRANCH   3   4
ENDBRANCH   2   3
ENDBRANCH   1   2
BRANCH   1  25
ATOM     25  C   UNL A   1      29.616  27.831  23.898  1.00  0.00     0.188 C 
BRANCH  25  26
ATOM     26  O   UNL A   1      29.965  29.150  23.504  1.00  0.00    -0.376 OA
BRANCH  26  27
ATOM     27  C   UNL A   1      31.329  29.487  23.740  1.00  0.00     0.202 C 
BRANCH  27  28
ATOM     28  C   UNL A   1      31.634  29.393  25.235  1.00  0.00     0.261 C 
BRANCH  28  29
ATOM     29  O   UNL A   1      32.880  30.028  25.584  1.00  0.00    -0.460 OA
BRANCH  29  30
ATOM     30  C   UNL A   1      32.800  30.974  26.549  1.00  0.00     0.338 C 
ATOM     31  O   UNL A   1      31.922  31.804  26.684  1.00  0.00    -0.246 OA
BRANCH  30  32
ATOM     32  C   UNL A   1      33.902  30.751  27.503  1.00  0.00     0.060 A 
ATOM     33  C   UNL A   1      34.536  31.855  28.076  1.00  0.00     0.016 A 
ATOM     34  C   UNL A   1      34.352  29.463  27.783  1.00  0.00     0.016 A 
ATOM     35  C   UNL A   1      35.643  31.689  28.905  1.00  0.00     0.010 A 
ATOM     36  C   UNL A   1      35.461  29.294  28.621  1.00  0.00     0.010 A 
ATOM     37  C   UNL A   1      36.130  30.407  29.167  1.00  0.00    -0.014 A 
BRANCH  37  38
ATOM     38  C   UNL A   1      37.420  30.234  29.882  1.00  0.00     0.031 A 
ATOM     39  C   UNL A   1      38.504  29.423  29.230  1.00  0.00     0.074 A 
ATOM     40  C   UNL A   1      37.642  30.804  31.081  1.00  0.00     0.049 A 
ATOM     41  N   UNL A   1      39.613  28.958  29.741  1.00  0.00    -0.248 NA
ATOM     42  C   UNL A   1      38.307  29.090  27.808  1.00  0.00     0.031 C 
ATOM     43  C   UNL A   1      36.720  31.696  31.784  1.00  0.00     0.029 A 
ATOM     44  N   UNL A   1      38.716  30.695  31.931  1.00  0.00    -0.354 N 
ATOM     45  C   UNL A   1      40.214  28.222  28.727  1.00  0.00     0.074 A 
ATOM     46  C   UNL A   1      39.357  28.318  27.566  1.00  0.00     0.031 C 
ATOM     47  C   UNL A   1      37.259  32.036  32.967  1.00  0.00     0.029 A 
ATOM     48  C   UNL A   1      38.530  31.336  33.134  1.00  0.00     0.049 A 
ATOM     49  H   UNL A   1      39.539  30.206  31.701  1.00  0.00     0.167 HD
ATOM     50  C   UNL A   1      41.377  27.532  28.763  1.00  0.00     0.034 A 
ATOM     51  C   UNL A   1      39.274  31.316  34.258  1.00  0.00     0.034 A 
ATOM     52  C   UNL A   1      42.255  27.484  29.899  1.00  0.00     0.049 A 
ATOM     53  C   UNL A   1      40.536  30.491  34.292  1.00  0.00     0.074 A 
ATOM     54  C   UNL A   1      43.451  26.804  30.035  1.00  0.00     0.029 A 
ATOM     55  N   UNL A   1      42.039  28.157  31.091  1.00  0.00    -0.354 N 
ATOM     56  N   UNL A   1      41.098  29.797  33.332  1.00  0.00    -0.248 NA
ATOM     57  C   UNL A   1      41.269  30.451  35.567  1.00  0.00     0.031 C 
ATOM     58  C   UNL A   1      43.955  27.058  31.316  1.00  0.00     0.029 A 
ATOM     59  C   UNL A   1      43.080  27.910  31.969  1.00  0.00     0.049 A 
ATOM     60  H   UNL A   1      41.260  28.726  31.286  1.00  0.00     0.167 HD
ATOM     61  C   UNL A   1      42.263  29.265  33.876  1.00  0.00     0.074 A 
ATOM     62  C   UNL A   1      42.339  29.735  35.243  1.00  0.00     0.031 C 
ATOM     63  C   UNL A   1      43.175  28.442  33.304  1.00  0.00     0.034 A 
BRANCH  50  64
ATOM     64  C   UNL A   1      41.772  26.772  27.526  1.00  0.00     0.023 A 
ATOM     65  C   UNL A   1      42.332  27.458  26.431  1.00  0.00     0.012 A 
ATOM     66  C   UNL A   1      41.633  25.372  27.471  1.00  0.00     0.148 A 
ATOM     67  C   UNL A   1      42.724  26.764  25.287  1.00  0.00     0.002 A 
ATOM     68  C   UNL A   1      42.063  24.682  26.343  1.00  0.00     0.091 A 
ATOM     69  F   UNL A   1      41.073  24.742  28.513  1.00  0.00    -0.205 F 
ATOM     70  C   UNL A   1      42.600  25.377  25.247  1.00  0.00     0.022 A 
BRANCH  68  71
ATOM     71  S   UNL A   1      42.010  22.890  26.230  1.00  0.00     0.127 S 
ATOM     72  O   UNL A   1      40.575  22.645  26.096  1.00  0.00    -0.237 OA
ATOM     73  O   UNL A   1      42.788  22.634  25.017  1.00  0.00    -0.237 OA
ATOM     74  O   UNL A   1      42.620  22.393  27.455  1.00  0.00    -0.744 OA
ENDBRANCH  68  71
ENDBRANCH  50  64
BRANCH  51  75
ATOM     75  C   UNL A   1      38.847  32.092  35.458  1.00  0.00     0.023 A 
ATOM     76  C   UNL A   1      39.055  33.485  35.491  1.00  0.00     0.012 A 
ATOM     77  C   UNL A   1      38.245  31.464  36.565  1.00  0.00     0.148 A 
ATOM     78  C   UNL A   1      38.696  34.232  36.614  1.00  0.00     0.002 A 
ATOM     79  C   UNL A   1      37.837  32.223  37.656  1.00  0.00     0.091 A 
ATOM     80  F   UNL A   1      38.084  30.133  36.533  1.00  0.00    -0.205 F 
ATOM     81  C   UNL A   1      38.077  33.604  37.691  1.00  0.00     0.022 A 
BRANCH  79  82
ATOM     82  S   UNL A   1      36.917  31.510  39.026  1.00  0.00     0.127 S 
ATOM     83  O   UNL A   1      36.649  30.161  38.536  1.00  0.00    -0.237 OA
ATOM     84  O   UNL A   1      37.887  31.588  40.119  1.00  0.00    -0.237 OA
ATOM     85  O   UNL A   1      35.753  32.368  39.197  1.00  0.00    -0.744 OA
ENDBRANCH  79  82
ENDBRANCH  51  75
BRANCH  63  86
ATOM     86  C   UNL A   1      44.362  28.024  34.134  1.00  0.00     0.023 A 
ATOM     87  C   UNL A   1      45.510  28.840  34.168  1.00  0.00     0.012 A 
ATOM     88  C   UNL A   1      44.306  26.871  34.942  1.00  0.00     0.148 A 
ATOM     89  C   UNL A   1      46.596  28.500  34.974  1.00  0.00     0.002 A 
ATOM     90  C   UNL A   1      45.376  26.563  35.775  1.00  0.00     0.091 A 
ATOM     91  F   UNL A   1      43.213  26.098  34.881  1.00  0.00    -0.205 F 
ATOM     92  C   UNL A   1      46.525  27.370  35.785  1.00  0.00     0.022 A 
BRANCH  90  93
ATOM     93  S   UNL A   1      45.333  25.179  36.920  1.00  0.00     0.127 S 
ATOM     94  O   UNL A   1      44.045  25.380  37.582  1.00  0.00    -0.237 OA
ATOM     95  O   UNL A   1      45.381  24.026  36.019  1.00  0.00    -0.237 OA
ATOM     96  O   UNL A   1      46.506  25.327  37.771  1.00  0.00    -0.744 OA
ENDBRANCH  90  93
ENDBRANCH  63  86
ENDBRANCH  37  38
ENDBRANCH  30  32
ENDBRANCH  29  30
ENDBRANCH  28  29
ENDBRANCH  27  28
ENDBRANCH  26  27
ENDBRANCH  25  26
ENDBRANCH   1  25
TORSDOF 23
ENDMDL
MODEL 2
REMARK VINA RESULT:     -10.3      1.445      7.643
REMARK SMILES C[C@@H]1[C@@H](C(=O)OCCOCCOCCOC(=O)c2ccc(-c3c4nc(c(-c5cccc(S(=O)(=O)[O-])c5F)c5ccc([nH]5)c(-c5cccc(S(=O)(=O)[O-])c5F)c5nc(c(-c6cccc(S(=O)(=O)[O-])c6F)c6ccc3[nH]6)C=C5)C=C4)cc2)CCN1C(=O)[C@]1([NH3+])CCOC1
REMARK SMILES IDX 10 1 9 2 8 3 7 4 6 5 4 6 5 7 3 8 1 9 2 10 83 11 81 12 82 13
REMARK SMILES IDX 84 14 85 15 86 16 88 17 91 18 89 19 90 20 87 21 11 25 12 26
REMARK SMILES IDX 13 27 14 28 15 29 16 30 17 31 18 32 19 33 80 34 20 35 79 36
REMARK SMILES IDX 21 37 22 38 23 39 73 40 24 41 78 42 72 43 74 44 25 45 77 46
REMARK SMILES IDX 71 47 70 48 26 50 58 51 38 52 57 53 39 54 42 55 56 56 75 57
REMARK SMILES IDX 40 58 41 59 55 61 76 62 43 63 27 64 28 65 36 66 29 67 31 68
REMARK SMILES IDX 37 69 30 70 32 71 33 72 34 73 35 74 59 75 60 76 68 77 61 78
REMARK SMILES IDX 63 79 69 80 62 81 64 82 65 83 66 84 67 85 44 86 45 87 53 88
REMARK SMILES IDX 46 89 48 90 54 91 47 92 49 93 50 94 51 95 52 96
REMARK H PARENT 87 22 87 23 87 24 74 49 42 60
REMARK Flexibility Score: inf
ROOT
ATOM      1  C   UNL A   1      31.081  27.505  26.268  1.00  0.00     0.188 C 
ENDROOT
BRANCH   1   2
ATOM      2  O   UNL A   1      31.153  26.228  26.889  1.00  0.00    -0.376 OA
BRANCH   2   3
ATOM      3  C   UNL A   1      30.875  25.071  26.121  1.00  0.00     0.202 C 
BRANCH   3   4
ATOM      4  C   UNL A   1      32.080  24.223  25.707  1.00  0.00     0.261 C 
BRANCH   4   5
ATOM      5  O   UNL A   1      33.361  24.665  26.219  1.00  0.00    -0.463 OA
BRANCH   5   6
ATOM      6  C   UNL A   1      34.226  25.109  25.276  1.00  0.00     0.311 C 
ATOM      7  O   UNL A   1      34.080  26.171  24.675  1.00  0.00    -0.252 OA
BRANCH   6   8
ATOM      8  C   UNL A   1      35.314  24.126  24.858  1.00  0.00     0.123 C 
ATOM      9  C   UNL A   1      36.301  22.627  23.141  1.00  0.00     0.032 C 
ATOM     10  C   UNL A   1      35.072  22.818  24.048  1.00  0.00     0.096 C 
ATOM     11  N   UNL A   1      35.042  21.723  25.044  1.00  0.00    -0.334 N 
ATOM     12  C   UNL A   1      36.016  23.604  26.121  1.00  0.00     0.039 C 
ATOM     13  C   UNL A   1      35.379  22.251  26.363  1.00  0.00     0.121 C 
BRANCH  11  14
ATOM     14  C   UNL A   1      34.925  20.351  24.920  1.00  0.00     0.286 C 
ATOM     15  O   UNL A   1      35.977  19.688  24.821  1.00  0.00    -0.267 OA
BRANCH  14  16
ATOM     16  C   UNL A   1      33.592  19.497  24.933  1.00  0.00     0.199 C 
ATOM     17  C   UNL A   1      33.763  18.066  24.450  1.00  0.00     0.110 C 
ATOM     18  C   UNL A   1      32.442  20.015  24.092  1.00  0.00     0.239 C 
ATOM     19  C   UNL A   1      33.030  18.001  23.121  1.00  0.00     0.167 C 
ATOM     20  O   UNL A   1      32.423  19.268  22.870  1.00  0.00    -0.374 OA
BRANCH  16  21
ATOM     21  N   UNL A   1      33.147  19.499  26.369  1.00  0.00    -0.343 N 
ATOM     22  H   UNL A   1      32.133  19.396  26.411  1.00  0.00     0.345 HD
ATOM     23  H   UNL A   1      33.418  20.379  26.807  1.00  0.00     0.345 HD
ATOM     24  H   UNL A   1      33.588  18.723  26.864  1.00  0.00     0.345 HD
ENDBRANCH  16  21
ENDBRANCH  14  16
ENDBRANCH  11  14
ENDBRANCH   6   8
ENDBRANCH   5   6
ENDBRANCH   4   5
ENDBRANCH   3   4
ENDBRANCH   2   3
ENDBRANCH   1   2
BRANCH   1  25
ATOM     25  C   UNL A   1      31.685  28.726  26.969  1.00  0.00     0.188 C 
BRANCH  25  26
ATOM     26  O   UNL A   1      32.283  29.670  26.092  1.00  0.00    -0.376 OA
BRANCH  26  27
ATOM     27  C   UNL A   1      31.963  31.026  26.391  1.00  0.00     0.202 C 
BRANCH  27  28
ATOM     28  C   UNL A   1      33.119  31.674  27.153  1.00  0.00     0.261 C 
BRANCH  28  29
ATOM     29  O   UNL A   1      32.742  32.922  27.768  1.00  0.00    -0.460 OA
BRANCH  29  30
ATOM     30  C   UNL A   1      33.728  33.844  27.865  1.00  0.00     0.338 C 
ATOM     31  O   UNL A   1      33.704  34.984  27.444  1.00  0.00    -0.246 OA
BRANCH  30  32
ATOM     32  C   UNL A   1      34.808  33.275  28.693  1.00  0.00     0.060 A 
ATOM     33  C   UNL A   1      36.127  33.366  28.242  1.00  0.00     0.016 A 
ATOM     34  C   UNL A   1      34.518  32.598  29.874  1.00  0.00     0.016 A 
ATOM     35  C   UNL A   1      37.162  32.756  28.945  1.00  0.00     0.010 A 
ATOM     36  C   UNL A   1      35.560  31.989  30.585  1.00  0.00     0.010 A 
ATOM     37  C   UNL A   1      36.886  32.041  30.112  1.00  0.00    -0.014 A 
BRANCH  37  38
ATOM     38  C   UNL A   1      37.947  31.226  30.754  1.00  0.00     0.031 A 
ATOM     39  C   UNL A   1      38.302  31.503  32.188  1.00  0.00     0.074 A 
ATOM     40  C   UNL A   1      38.577  30.239  30.089  1.00  0.00     0.049 A 
ATOM     41  N   UNL A   1      39.322  31.081  32.886  1.00  0.00    -0.248 NA
ATOM     42  C   UNL A   1      37.378  32.376  32.934  1.00  0.00     0.031 C 
ATOM     43  C   UNL A   1      38.267  29.796  28.731  1.00  0.00     0.029 A 
ATOM     44  N   UNL A   1      39.628  29.441  30.471  1.00  0.00    -0.354 N 
ATOM     45  C   UNL A   1      39.203  31.689  34.130  1.00  0.00     0.074 A 
ATOM     46  C   UNL A   1      38.001  32.493  34.098  1.00  0.00     0.031 C 
ATOM     47  C   UNL A   1      39.124  28.821  28.383  1.00  0.00     0.029 A 
ATOM     48  C   UNL A   1      40.082  28.617  29.467  1.00  0.00     0.049 A 
ATOM     49  H   UNL A   1      40.019  29.458  31.374  1.00  0.00     0.167 HD
ATOM     50  C   UNL A   1      40.022  31.582  35.202  1.00  0.00     0.034 A 
ATOM     51  C   UNL A   1      41.175  27.828  29.412  1.00  0.00     0.034 A 
ATOM     52  C   UNL A   1      41.184  30.739  35.252  1.00  0.00     0.049 A 
ATOM     53  C   UNL A   1      42.104  27.773  30.599  1.00  0.00     0.074 A 
ATOM     54  C   UNL A   1      42.083  30.571  36.289  1.00  0.00     0.029 A 
ATOM     55  N   UNL A   1      41.601  29.909  34.222  1.00  0.00    -0.354 N 
ATOM     56  N   UNL A   1      41.987  28.349  31.770  1.00  0.00    -0.248 NA
ATOM     57  C   UNL A   1      43.315  26.951  30.455  1.00  0.00     0.031 C 
ATOM     58  C   UNL A   1      43.050  29.645  35.884  1.00  0.00     0.029 A 
ATOM     59  C   UNL A   1      42.743  29.225  34.600  1.00  0.00     0.049 A 
ATOM     60  H   UNL A   1      41.152  29.820  33.351  1.00  0.00     0.167 HD
ATOM     61  C   UNL A   1      43.089  27.937  32.511  1.00  0.00     0.074 A 
ATOM     62  C   UNL A   1      43.852  27.044  31.666  1.00  0.00     0.031 C 
ATOM     63  C   UNL A   1      43.452  28.286  33.770  1.00  0.00     0.034 A 
BRANCH  50  64
ATOM     64  C   UNL A   1      39.683  32.398  36.419  1.00  0.00     0.023 A 
ATOM     65  C   UNL A   1      40.353  33.614  36.656  1.00  0.00     0.012 A 
ATOM     66  C   UNL A   1      38.667  31.982  37.301  1.00  0.00     0.148 A 
ATOM     67  C   UNL A   1      40.035  34.392  37.768  1.00  0.00     0.002 A 
ATOM     68  C   UNL A   1      38.326  32.783  38.385  1.00  0.00     0.091 A 
ATOM     69  F   UNL A   1      38.061  30.809  37.072  1.00  0.00    -0.205 F 
ATOM     70  C   UNL A   1      39.015  33.983  38.625  1.00  0.00     0.022 A 
BRANCH  68  71
ATOM     71  S   UNL A   1      36.980  32.375  39.501  1.00  0.00     0.127 S 
ATOM     72  O   UNL A   1      37.304  30.996  39.863  1.00  0.00    -0.237 OA
ATOM     73  O   UNL A   1      37.166  33.347  40.579  1.00  0.00    -0.237 OA
ATOM     74  O   UNL A   1      35.755  32.551  38.733  1.00  0.00    -0.744 OA
ENDBRANCH  68  71
ENDBRANCH  50  64
BRANCH  51  75
ATOM     75  C   UNL A   1      41.466  27.029  28.187  1.00  0.00     0.023 A 
ATOM     76  C   UNL A   1      42.143  27.635  27.110  1.00  0.00     0.012 A 
ATOM     77  C   UNL A   1      41.073  25.682  28.076  1.00  0.00     0.148 A 
ATOM     78  C   UNL A   1      42.398  26.923  25.938  1.00  0.00     0.002 A 
ATOM     79  C   UNL A   1      41.382  24.961  26.929  1.00  0.00     0.091 A 
ATOM     80  F   UNL A   1      40.399  25.128  29.095  1.00  0.00    -0.205 F 
ATOM     81  C   UNL A   1      42.029  25.584  25.851  1.00  0.00     0.022 A 
BRANCH  79  82
ATOM     82  S   UNL A   1      41.057  23.199  26.789  1.00  0.00     0.127 S 
ATOM     83  O   UNL A   1      41.773  22.859  25.563  1.00  0.00    -0.237 OA
ATOM     84  O   UNL A   1      41.657  22.679  28.018  1.00  0.00    -0.237 OA
ATOM     85  O   UNL A   1      39.606  23.077  26.734  1.00  0.00    -0.744 OA
ENDBRANCH  79  82
ENDBRANCH  51  75
BRANCH  63  86
ATOM     86  C   UNL A   1      44.707  27.671  34.335  1.00  0.00     0.023 A 
ATOM     87  C   UNL A   1      45.931  28.361  34.224  1.00  0.00     0.012 A 
ATOM     88  C   UNL A   1      44.658  26.456  35.045  1.00  0.00     0.148 A 
ATOM     89  C   UNL A   1      47.093  27.836  34.789  1.00  0.00     0.002 A 
ATOM     90  C   UNL A   1      45.812  25.960  35.643  1.00  0.00     0.091 A 
ATOM     91  F   UNL A   1      43.488  25.806  35.123  1.00  0.00    -0.205 F 
ATOM     92  C   UNL A   1      47.031  26.643  35.507  1.00  0.00     0.022 A 
BRANCH  90  93
ATOM     93  S   UNL A   1      45.806  24.481  36.663  1.00  0.00     0.127 S 
ATOM     94  O   UNL A   1      47.235  24.277  36.900  1.00  0.00    -0.237 OA
ATOM     95  O   UNL A   1      45.050  24.915  37.838  1.00  0.00    -0.237 OA
ATOM     96  O   UNL A   1      45.148  23.452  35.869  1.00  0.00    -0.744 OA
ENDBRANCH  90  93
ENDBRANCH  63  86
ENDBRANCH  37  38
ENDBRANCH  30  32
ENDBRANCH  29  30
ENDBRANCH  28  29
ENDBRANCH  27  28
ENDBRANCH  26  27
ENDBRANCH  25  26
ENDBRANCH   1  25
TORSDOF 23
ENDMDL
MODEL 3
REMARK VINA RESULT:     -10.0      5.565      9.102
REMARK SMILES C[C@@H]1[C@@H](C(=O)OCCOCCOCCOC(=O)c2ccc(-c3c4nc(c(-c5cccc(S(=O)(=O)[O-])c5F)c5ccc([nH]5)c(-c5cccc(S(=O)(=O)[O-])c5F)c5nc(c(-c6cccc(S(=O)(=O)[O-])c6F)c6ccc3[nH]6)C=C5)C=C4)cc2)CCN1C(=O)[C@]1([NH3+])CCOC1
REMARK SMILES IDX 10 1 9 2 8 3 7 4 6 5 4 6 5 7 3 8 1 9 2 10 83 11 81 12 82 13
REMARK SMILES IDX 84 14 85 15 86 16 88 17 91 18 89 19 90 20 87 21 11 25 12 26
REMARK SMILES IDX 13 27 14 28 15 29 16 30 17 31 18 32 19 33 80 34 20 35 79 36
REMARK SMILES IDX 21 37 22 38 23 39 73 40 24 41 78 42 72 43 74 44 25 45 77 46
REMARK SMILES IDX 71 47 70 48 26 50 58 51 38 52 57 53 39 54 42 55 56 56 75 57
REMARK SMILES IDX 40 58 41 59 55 61 76 62 43 63 27 64 28 65 36 66 29 67 31 68
REMARK SMILES IDX 37 69 30 70 32 71 33 72 34 73 35 74 59 75 60 76 68 77 61 78
REMARK SMILES IDX 63 79 69 80 62 81 64 82 65 83 66 84 67 85 44 86 45 87 53 88
REMARK SMILES IDX 46 89 48 90 54 91 47 92 49 93 50 94 51 95 52 96
REMARK H PARENT 87 22 87 23 87 24 74 49 42 60
REMARK Flexibility Score: inf
ROOT
ATOM      1  C   UNL A   1      35.670  21.826  24.422  1.00  0.00     0.188 C 
ENDROOT
BRANCH   1   2
ATOM      2  O   UNL A   1      34.781  21.202  25.339  1.00  0.00    -0.376 OA
BRANCH   2   3
ATOM      3  C   UNL A   1      33.874  20.225  24.863  1.00  0.00     0.202 C 
BRANCH   3   4
ATOM      4  C   UNL A   1      32.515  20.734  24.378  1.00  0.00     0.261 C 
BRANCH   4   5
ATOM      5  O   UNL A   1      32.300  22.162  24.510  1.00  0.00    -0.463 OA
BRANCH   5   6
ATOM      6  C   UNL A   1      31.407  22.514  25.465  1.00  0.00     0.311 C 
ATOM      7  O   UNL A   1      30.430  21.829  25.758  1.00  0.00    -0.252 OA
BRANCH   6   8
ATOM      8  C   UNL A   1      31.574  23.914  26.046  1.00  0.00     0.123 C 
ATOM      9  C   UNL A   1      30.718  26.228  26.337  1.00  0.00     0.032 C 
ATOM     10  C   UNL A   1      31.259  25.238  25.289  1.00  0.00     0.096 C 
ATOM     11  N   UNL A   1      32.559  25.739  24.789  1.00  0.00    -0.334 N 
ATOM     12  C   UNL A   1      33.044  24.108  26.446  1.00  0.00     0.039 C 
ATOM     13  C   UNL A   1      33.638  24.896  25.297  1.00  0.00     0.121 C 
BRANCH  11  14
ATOM     14  C   UNL A   1      32.917  26.888  24.108  1.00  0.00     0.286 C 
ATOM     15  O   UNL A   1      33.864  27.558  24.565  1.00  0.00    -0.267 OA
BRANCH  14  16
ATOM     16  C   UNL A   1      32.287  27.445  22.767  1.00  0.00     0.199 C 
ATOM     17  C   UNL A   1      32.071  28.949  22.756  1.00  0.00     0.110 C 
ATOM     18  C   UNL A   1      30.931  26.894  22.371  1.00  0.00     0.239 C 
ATOM     19  C   UNL A   1      30.565  29.139  22.786  1.00  0.00     0.167 C 
ATOM     20  O   UNL A   1      29.941  27.856  22.753  1.00  0.00    -0.374 OA
BRANCH  16  21
ATOM     21  N   UNL A   1      33.268  27.064  21.693  1.00  0.00    -0.343 N 
ATOM     22  H   UNL A   1      32.786  27.020  20.794  1.00  0.00     0.345 HD
ATOM     23  H   UNL A   1      33.669  26.151  21.909  1.00  0.00     0.345 HD
ATOM     24  H   UNL A   1      34.010  27.761  21.647  1.00  0.00     0.345 HD
ENDBRANCH  16  21
ENDBRANCH  14  16
ENDBRANCH  11  14
ENDBRANCH   6   8
ENDBRANCH   5   6
ENDBRANCH   4   5
ENDBRANCH   3   4
ENDBRANCH   2   3
ENDBRANCH   1   2
BRANCH   1  25
ATOM     25  C   UNL A   1      37.163  21.919  24.755  1.00  0.00     0.188 C 
BRANCH  25  26
ATOM     26  O   UNL A   1      37.929  20.798  24.335  1.00  0.00    -0.376 OA
BRANCH  26  27
ATOM     27  C   UNL A   1      38.183  19.848  25.365  1.00  0.00     0.202 C 
BRANCH  27  28
ATOM     28  C   UNL A   1      39.491  20.193  26.078  1.00  0.00     0.261 C 
BRANCH  28  29
ATOM     29  O   UNL A   1      40.611  19.445  25.565  1.00  0.00    -0.460 OA
BRANCH  29  30
ATOM     30  C   UNL A   1      41.705  19.417  26.363  1.00  0.00     0.338 C 
ATOM     31  O   UNL A   1      42.256  18.430  26.810  1.00  0.00    -0.246 OA
BRANCH  30  32
ATOM     32  C   UNL A   1      42.208  20.797  26.499  1.00  0.00     0.060 A 
ATOM     33  C   UNL A   1      42.366  21.338  27.777  1.00  0.00     0.016 A 
ATOM     34  C   UNL A   1      42.461  21.577  25.374  1.00  0.00     0.016 A 
ATOM     35  C   UNL A   1      42.744  22.667  27.945  1.00  0.00     0.010 A 
ATOM     36  C   UNL A   1      42.848  22.912  25.541  1.00  0.00     0.010 A 
ATOM     37  C   UNL A   1      42.966  23.474  26.828  1.00  0.00    -0.014 A 
BRANCH  37  38
ATOM     38  C   UNL A   1      43.173  24.935  26.996  1.00  0.00     0.031 A 
ATOM     39  C   UNL A   1      44.484  25.532  26.568  1.00  0.00     0.074 A 
ATOM     40  C   UNL A   1      42.210  25.730  27.498  1.00  0.00     0.049 A 
ATOM     41  N   UNL A   1      44.974  26.719  26.809  1.00  0.00    -0.248 NA
ATOM     42  C   UNL A   1      45.363  24.669  25.757  1.00  0.00     0.031 C 
ATOM     43  C   UNL A   1      40.859  25.305  27.861  1.00  0.00     0.029 A 
ATOM     44  N   UNL A   1      42.235  27.068  27.808  1.00  0.00    -0.354 N 
ATOM     45  C   UNL A   1      46.241  26.725  26.242  1.00  0.00     0.074 A 
ATOM     46  C   UNL A   1      46.440  25.431  25.627  1.00  0.00     0.031 C 
ATOM     47  C   UNL A   1      40.191  26.356  28.364  1.00  0.00     0.029 A 
ATOM     48  C   UNL A   1      41.086  27.510  28.421  1.00  0.00     0.049 A 
ATOM     49  H   UNL A   1      43.001  27.654  27.611  1.00  0.00     0.167 HD
ATOM     50  C   UNL A   1      47.156  27.722  26.233  1.00  0.00     0.034 A 
ATOM     51  C   UNL A   1      40.807  28.692  29.006  1.00  0.00     0.034 A 
ATOM     52  C   UNL A   1      46.936  29.027  26.795  1.00  0.00     0.049 A 
ATOM     53  C   UNL A   1      41.865  29.767  29.036  1.00  0.00     0.074 A 
ATOM     54  C   UNL A   1      47.806  30.101  26.844  1.00  0.00     0.029 A 
ATOM     55  N   UNL A   1      45.756  29.439  27.392  1.00  0.00    -0.354 N 
ATOM     56  N   UNL A   1      43.061  29.767  28.499  1.00  0.00    -0.248 NA
ATOM     57  C   UNL A   1      41.529  31.009  29.749  1.00  0.00     0.031 C 
ATOM     58  C   UNL A   1      47.153  31.162  27.481  1.00  0.00     0.029 A 
ATOM     59  C   UNL A   1      45.872  30.752  27.812  1.00  0.00     0.049 A 
ATOM     60  H   UNL A   1      44.953  28.880  27.502  1.00  0.00     0.167 HD
ATOM     61  C   UNL A   1      43.607  31.014  28.783  1.00  0.00     0.074 A 
ATOM     62  C   UNL A   1      42.604  31.753  29.519  1.00  0.00     0.031 C 
ATOM     63  C   UNL A   1      44.838  31.497  28.483  1.00  0.00     0.034 A 
BRANCH  50  64
ATOM     64  C   UNL A   1      48.485  27.442  25.586  1.00  0.00     0.023 A 
ATOM     65  C   UNL A   1      49.556  26.965  26.365  1.00  0.00     0.012 A 
ATOM     66  C   UNL A   1      48.655  27.605  24.197  1.00  0.00     0.148 A 
ATOM     67  C   UNL A   1      50.787  26.679  25.776  1.00  0.00     0.002 A 
ATOM     68  C   UNL A   1      49.872  27.279  23.610  1.00  0.00     0.091 A 
ATOM     69  F   UNL A   1      47.630  28.085  23.479  1.00  0.00    -0.205 F 
ATOM     70  C   UNL A   1      50.942  26.826  24.399  1.00  0.00     0.022 A 
BRANCH  68  71
ATOM     71  S   UNL A   1      50.142  27.366  21.837  1.00  0.00     0.127 S 
ATOM     72  O   UNL A   1      49.850  28.771  21.562  1.00  0.00    -0.237 OA
ATOM     73  O   UNL A   1      51.555  27.003  21.721  1.00  0.00    -0.237 OA
ATOM     74  O   UNL A   1      49.221  26.406  21.244  1.00  0.00    -0.744 OA
ENDBRANCH  68  71
ENDBRANCH  50  64
BRANCH  51  75
ATOM     75  C   UNL A   1      39.472  28.929  29.628  1.00  0.00     0.023 A 
ATOM     76  C   UNL A   1      39.218  28.447  30.927  1.00  0.00     0.012 A 
ATOM     77  C   UNL A   1      38.453  29.618  28.943  1.00  0.00     0.148 A 
ATOM     78  C   UNL A   1      37.967  28.623  31.520  1.00  0.00     0.002 A 
ATOM     79  C   UNL A   1      37.229  29.842  29.562  1.00  0.00     0.091 A 
ATOM     80  F   UNL A   1      38.698  30.042  27.694  1.00  0.00    -0.205 F 
ATOM     81  C   UNL A   1      36.977  29.330  30.844  1.00  0.00     0.022 A 
BRANCH  79  82
ATOM     82  S   UNL A   1      35.948  30.853  28.811  1.00  0.00     0.127 S 
ATOM     83  O   UNL A   1      35.286  29.893  27.932  1.00  0.00    -0.237 OA
ATOM     84  O   UNL A   1      35.163  31.267  29.974  1.00  0.00    -0.237 OA
ATOM     85  O   UNL A   1      36.654  31.942  28.148  1.00  0.00    -0.744 OA
ENDBRANCH  79  82
ENDBRANCH  51  75
BRANCH  63  86
ATOM     86  C   UNL A   1      45.163  32.905  28.909  1.00  0.00     0.023 A 
ATOM     87  C   UNL A   1      45.737  33.135  30.176  1.00  0.00     0.012 A 
ATOM     88  C   UNL A   1      44.978  33.987  28.026  1.00  0.00     0.148 A 
ATOM     89  C   UNL A   1      46.097  34.424  30.566  1.00  0.00     0.002 A 
ATOM     90  C   UNL A   1      45.380  35.263  28.406  1.00  0.00     0.091 A 
ATOM     91  F   UNL A   1      44.414  33.751  26.833  1.00  0.00    -0.205 F 
ATOM     92  C   UNL A   1      45.930  35.485  29.679  1.00  0.00     0.022 A 
BRANCH  90  93
ATOM     93  S   UNL A   1      45.287  36.670  27.293  1.00  0.00     0.127 S 
ATOM     94  O   UNL A   1      43.849  36.755  27.039  1.00  0.00    -0.237 OA
ATOM     95  O   UNL A   1      45.825  37.756  28.115  1.00  0.00    -0.237 OA
ATOM     96  O   UNL A   1      46.109  36.324  26.141  1.00  0.00    -0.744 OA
ENDBRANCH  90  93
ENDBRANCH  63  86
ENDBRANCH  37  38
ENDBRANCH  30  32
ENDBRANCH  29  30
ENDBRANCH  28  29
ENDBRANCH  27  28
ENDBRANCH  26  27
ENDBRANCH  25  26
ENDBRANCH   1  25
TORSDOF 23
ENDMDL
