MODEL 1
REMARK VINA RESULT:     -10.6      0.000      0.000
REMARK SMILES Cc1ccc(C)c(Oc2cccc(F)c2C(=O)OCCOCCOCCOC(=O)c2ccc(-c3c4nc(c(-c5cccc(S(=O)(=O)[O-])c5F)c5ccc([nH]5)c(-c5cccc(S(=O)(=O)[O-])c5F)c5nc(c(-c6cccc(S(=O)(=O)[O-])c6F)c6ccc3[nH]6)C=C5)C=C4)cc2)c1
REMARK SMILES IDX 23 1 22 2 21 3 20 4 19 5 18 6 16 7 17 8 15 9 9 10 10 11
REMARK SMILES IDX 11 12 13 13 12 14 14 15 8 16 7 17 1 18 2 19 3 20 93 21 4 22
REMARK SMILES IDX 5 23 6 24 24 25 25 26 26 27 27 28 28 29 29 30 30 31 31 32
REMARK SMILES IDX 92 33 32 34 91 35 33 36 34 37 35 38 85 39 36 40 90 41 84 42
REMARK SMILES IDX 86 43 37 44 89 45 83 46 82 47 38 49 70 50 50 51 69 52 51 53
REMARK SMILES IDX 54 54 68 55 87 56 52 57 53 58 67 60 88 61 55 62 39 63 40 64
REMARK SMILES IDX 48 65 41 66 43 67 49 68 42 69 44 70 45 71 46 72 47 73 71 74
REMARK SMILES IDX 72 75 80 76 73 77 75 78 81 79 74 80 76 81 77 82 78 83 79 84
REMARK SMILES IDX 56 85 57 86 65 87 58 88 60 89 66 90 59 91 61 92 62 93 63 94
REMARK SMILES IDX 64 95
REMARK H PARENT 86 48 54 59
REMARK Flexibility Score: inf
ROOT
ATOM      1  C   UNL A   1      46.168  19.647  25.212  1.00  0.00     0.188 C 
ENDROOT
BRANCH   1   2
ATOM      2  C   UNL A   1      45.175  19.173  24.143  1.00  0.00     0.188 C 
BRANCH   2   3
ATOM      3  O   UNL A   1      44.066  18.418  24.650  1.00  0.00    -0.376 OA
BRANCH   3   4
ATOM      4  C   UNL A   1      43.520  18.876  25.895  1.00  0.00     0.202 C 
BRANCH   4   5
ATOM      5  C   UNL A   1      42.044  19.307  25.853  1.00  0.00     0.261 C 
BRANCH   5   6
ATOM      6  O   UNL A   1      41.863  20.699  26.161  1.00  0.00    -0.459 OA
BRANCH   6   7
ATOM      7  C   UNL A   1      41.141  20.937  27.282  1.00  0.00     0.345 C 
ATOM      8  O   UNL A   1      40.751  20.108  28.098  1.00  0.00    -0.246 OA
BRANCH   7   9
ATOM      9  C   UNL A   1      40.786  22.360  27.320  1.00  0.00     0.138 A 
ATOM     10  C   UNL A   1      39.800  22.908  26.495  1.00  0.00     0.144 A 
ATOM     11  C   UNL A   1      39.423  24.251  26.626  1.00  0.00     0.048 A 
ATOM     12  C   UNL A   1      40.091  25.074  27.532  1.00  0.00     0.007 A 
ATOM     13  C   UNL A   1      41.464  23.202  28.197  1.00  0.00     0.141 A 
ATOM     14  C   UNL A   1      41.125  24.550  28.307  1.00  0.00     0.040 A 
ATOM     15  F   UNL A   1      42.450  22.737  28.969  1.00  0.00    -0.206 F 
BRANCH  10  16
ATOM     16  O   UNL A   1      39.233  22.197  25.464  1.00  0.00    -0.456 OA
BRANCH  16  17
ATOM     17  C   UNL A   1      37.845  22.193  25.424  1.00  0.00     0.130 A 
ATOM     18  C   UNL A   1      34.896  24.607  25.499  1.00  0.00     0.044 C 
ATOM     19  C   UNL A   1      35.687  23.334  25.452  1.00  0.00    -0.047 A 
ATOM     20  C   UNL A   1      35.054  22.105  25.267  1.00  0.00     0.004 A 
ATOM     21  C   UNL A   1      37.079  23.363  25.564  1.00  0.00     0.050 A 
ATOM     22  C   UNL A   1      35.806  20.930  25.167  1.00  0.00     0.007 A 
ATOM     23  C   UNL A   1      37.208  20.961  25.233  1.00  0.00    -0.008 A 
ATOM     24  C   UNL A   1      37.967  19.677  25.057  1.00  0.00     0.048 C 
ENDBRANCH  16  17
ENDBRANCH  10  16
ENDBRANCH   7   9
ENDBRANCH   6   7
ENDBRANCH   5   6
ENDBRANCH   4   5
ENDBRANCH   3   4
ENDBRANCH   2   3
ENDBRANCH   1   2
BRANCH   1  25
ATOM     25  O   UNL A   1      46.544  20.988  24.949  1.00  0.00    -0.376 OA
BRANCH  25  26
ATOM     26  C   UNL A   1      45.557  21.965  25.212  1.00  0.00     0.202 C 
BRANCH  26  27
ATOM     27  C   UNL A   1      45.457  23.097  24.181  1.00  0.00     0.261 C 
BRANCH  27  28
ATOM     28  O   UNL A   1      44.832  24.367  24.516  1.00  0.00    -0.460 OA
BRANCH  28  29
ATOM     29  C   UNL A   1      43.625  24.647  25.056  1.00  0.00     0.338 C 
ATOM     30  O   UNL A   1      42.667  23.892  24.922  1.00  0.00    -0.246 OA
BRANCH  29  31
ATOM     31  C   UNL A   1      43.447  25.953  25.689  1.00  0.00     0.060 A 
ATOM     32  C   UNL A   1      44.117  26.139  26.895  1.00  0.00     0.016 A 
ATOM     33  C   UNL A   1      42.557  26.913  25.191  1.00  0.00     0.016 A 
ATOM     34  C   UNL A   1      43.752  27.211  27.680  1.00  0.00     0.010 A 
ATOM     35  C   UNL A   1      42.184  27.984  26.006  1.00  0.00     0.010 A 
ATOM     36  C   UNL A   1      42.744  28.092  27.279  1.00  0.00    -0.014 A 
BRANCH  36  37
ATOM     37  C   UNL A   1      42.545  29.228  28.181  1.00  0.00     0.031 A 
ATOM     38  C   UNL A   1      43.692  30.168  28.170  1.00  0.00     0.074 A 
ATOM     39  C   UNL A   1      41.498  29.394  29.014  1.00  0.00     0.049 A 
ATOM     40  N   UNL A   1      44.361  30.602  29.190  1.00  0.00    -0.248 NA
ATOM     41  C   UNL A   1      44.244  30.546  26.856  1.00  0.00     0.031 C 
ATOM     42  C   UNL A   1      40.286  28.580  29.046  1.00  0.00     0.029 A 
ATOM     43  N   UNL A   1      41.252  30.378  29.947  1.00  0.00    -0.354 N 
ATOM     44  C   UNL A   1      45.289  31.475  28.644  1.00  0.00     0.074 A 
ATOM     45  C   UNL A   1      45.292  31.279  27.215  1.00  0.00     0.031 C 
ATOM     46  C   UNL A   1      39.354  29.216  29.786  1.00  0.00     0.029 A 
ATOM     47  C   UNL A   1      39.908  30.460  30.301  1.00  0.00     0.049 A 
ATOM     48  H   UNL A   1      41.951  30.960  30.323  1.00  0.00     0.167 HD
ATOM     49  C   UNL A   1      45.707  32.570  29.322  1.00  0.00     0.034 A 
ATOM     50  C   UNL A   1      39.258  31.517  30.851  1.00  0.00     0.034 A 
ATOM     51  C   UNL A   1      45.646  32.462  30.741  1.00  0.00     0.049 A 
ATOM     52  C   UNL A   1      40.232  32.378  31.564  1.00  0.00     0.074 A 
ATOM     53  C   UNL A   1      46.424  31.915  31.734  1.00  0.00     0.029 A 
ATOM     54  N   UNL A   1      44.431  32.756  31.287  1.00  0.00    -0.354 N 
ATOM     55  N   UNL A   1      40.766  32.100  32.722  1.00  0.00    -0.248 NA
ATOM     56  C   UNL A   1      40.773  33.556  30.888  1.00  0.00     0.031 C 
ATOM     57  C   UNL A   1      45.620  31.875  32.909  1.00  0.00     0.029 A 
ATOM     58  C   UNL A   1      44.360  32.381  32.602  1.00  0.00     0.049 A 
ATOM     59  H   UNL A   1      43.695  33.187  30.795  1.00  0.00     0.167 HD
ATOM     60  C   UNL A   1      41.948  32.819  32.727  1.00  0.00     0.074 A 
ATOM     61  C   UNL A   1      41.813  33.816  31.678  1.00  0.00     0.031 C 
ATOM     62  C   UNL A   1      43.082  32.316  33.285  1.00  0.00     0.034 A 
BRANCH  49  63
ATOM     63  C   UNL A   1      45.698  33.885  28.605  1.00  0.00     0.023 A 
ATOM     64  C   UNL A   1      46.894  34.555  28.327  1.00  0.00     0.012 A 
ATOM     65  C   UNL A   1      44.482  34.556  28.321  1.00  0.00     0.148 A 
ATOM     66  C   UNL A   1      46.872  35.806  27.697  1.00  0.00     0.002 A 
ATOM     67  C   UNL A   1      44.466  35.719  27.579  1.00  0.00     0.091 A 
ATOM     68  F   UNL A   1      43.336  34.101  28.853  1.00  0.00    -0.205 F 
ATOM     69  C   UNL A   1      45.664  36.364  27.276  1.00  0.00     0.022 A 
BRANCH  67  70
ATOM     70  S   UNL A   1      42.929  36.311  26.867  1.00  0.00     0.127 S 
ATOM     71  O   UNL A   1      43.262  37.690  26.530  1.00  0.00    -0.237 OA
ATOM     72  O   UNL A   1      42.756  35.415  25.723  1.00  0.00    -0.237 OA
ATOM     73  O   UNL A   1      41.935  36.118  27.918  1.00  0.00    -0.744 OA
ENDBRANCH  67  70
ENDBRANCH  49  63
BRANCH  50  74
ATOM     74  C   UNL A   1      37.853  31.983  30.641  1.00  0.00     0.023 A 
ATOM     75  C   UNL A   1      37.090  31.405  29.600  1.00  0.00     0.012 A 
ATOM     76  C   UNL A   1      37.155  32.762  31.590  1.00  0.00     0.148 A 
ATOM     77  C   UNL A   1      35.696  31.538  29.549  1.00  0.00     0.002 A 
ATOM     78  C   UNL A   1      35.774  32.916  31.521  1.00  0.00     0.091 A 
ATOM     79  F   UNL A   1      37.809  33.281  32.634  1.00  0.00    -0.205 F 
ATOM     80  C   UNL A   1      35.035  32.288  30.515  1.00  0.00     0.022 A 
BRANCH  78  81
ATOM     81  S   UNL A   1      34.886  33.873  32.760  1.00  0.00     0.127 S 
ATOM     82  O   UNL A   1      35.667  35.108  32.820  1.00  0.00    -0.237 OA
ATOM     83  O   UNL A   1      33.568  34.009  32.150  1.00  0.00    -0.237 OA
ATOM     84  O   UNL A   1      34.947  33.078  33.982  1.00  0.00    -0.744 OA
ENDBRANCH  78  81
ENDBRANCH  50  74
BRANCH  62  85
ATOM     85  C   UNL A   1      42.979  31.474  34.520  1.00  0.00     0.023 A 
ATOM     86  C   UNL A   1      43.047  32.006  35.818  1.00  0.00     0.012 A 
ATOM     87  C   UNL A   1      42.687  30.104  34.356  1.00  0.00     0.148 A 
ATOM     88  C   UNL A   1      42.833  31.188  36.931  1.00  0.00     0.002 A 
ATOM     89  C   UNL A   1      42.422  29.307  35.460  1.00  0.00     0.091 A 
ATOM     90  F   UNL A   1      42.663  29.603  33.110  1.00  0.00    -0.205 F 
ATOM     91  C   UNL A   1      42.502  29.844  36.752  1.00  0.00     0.022 A 
BRANCH  89  92
ATOM     92  S   UNL A   1      41.864  27.610  35.278  1.00  0.00     0.127 S 
ATOM     93  O   UNL A   1      41.031  27.686  34.079  1.00  0.00    -0.237 OA
ATOM     94  O   UNL A   1      43.120  26.878  35.102  1.00  0.00    -0.237 OA
ATOM     95  O   UNL A   1      41.159  27.287  36.513  1.00  0.00    -0.744 OA
ENDBRANCH  89  92
ENDBRANCH  62  85
ENDBRANCH  36  37
ENDBRANCH  29  31
ENDBRANCH  28  29
ENDBRANCH  27  28
ENDBRANCH  26  27
ENDBRANCH  25  26
ENDBRANCH   1  25
TORSDOF 22
ENDMDL
MODEL 2
REMARK VINA RESULT:     -10.3      4.085     10.253
REMARK SMILES Cc1ccc(C)c(Oc2cccc(F)c2C(=O)OCCOCCOCCOC(=O)c2ccc(-c3c4nc(c(-c5cccc(S(=O)(=O)[O-])c5F)c5ccc([nH]5)c(-c5cccc(S(=O)(=O)[O-])c5F)c5nc(c(-c6cccc(S(=O)(=O)[O-])c6F)c6ccc3[nH]6)C=C5)C=C4)cc2)c1
REMARK SMILES IDX 23 1 22 2 21 3 20 4 19 5 18 6 16 7 17 8 15 9 9 10 10 11
REMARK SMILES IDX 11 12 13 13 12 14 14 15 8 16 7 17 1 18 2 19 3 20 93 21 4 22
REMARK SMILES IDX 5 23 6 24 24 25 25 26 26 27 27 28 28 29 29 30 30 31 31 32
REMARK SMILES IDX 92 33 32 34 91 35 33 36 34 37 35 38 85 39 36 40 90 41 84 42
REMARK SMILES IDX 86 43 37 44 89 45 83 46 82 47 38 49 70 50 50 51 69 52 51 53
REMARK SMILES IDX 54 54 68 55 87 56 52 57 53 58 67 60 88 61 55 62 39 63 40 64
REMARK SMILES IDX 48 65 41 66 43 67 49 68 42 69 44 70 45 71 46 72 47 73 71 74
REMARK SMILES IDX 72 75 80 76 73 77 75 78 81 79 74 80 76 81 77 82 78 83 79 84
REMARK SMILES IDX 56 85 57 86 65 87 58 88 60 89 66 90 59 91 61 92 62 93 63 94
REMARK SMILES IDX 64 95
REMARK H PARENT 86 48 54 59
REMARK Flexibility Score: inf
ROOT
ATOM      1  C   UNL A   1      31.492  29.336  25.150  1.00  0.00     0.188 C 
ENDROOT
BRANCH   1   2
ATOM      2  C   UNL A   1      30.959  28.396  24.059  1.00  0.00     0.188 C 
BRANCH   2   3
ATOM      3  O   UNL A   1      31.536  27.083  24.070  1.00  0.00    -0.376 OA
BRANCH   3   4
ATOM      4  C   UNL A   1      30.635  26.010  24.378  1.00  0.00     0.202 C 
BRANCH   4   5
ATOM      5  C   UNL A   1      31.100  24.609  23.947  1.00  0.00     0.261 C 
BRANCH   5   6
ATOM      6  O   UNL A   1      30.693  23.582  24.866  1.00  0.00    -0.459 OA
BRANCH   6   7
ATOM      7  C   UNL A   1      31.393  23.556  26.026  1.00  0.00     0.345 C 
ATOM      8  O   UNL A   1      31.016  23.952  27.124  1.00  0.00    -0.246 OA
BRANCH   7   9
ATOM      9  C   UNL A   1      32.750  23.075  25.745  1.00  0.00     0.138 A 
ATOM     10  C   UNL A   1      33.004  21.783  25.278  1.00  0.00     0.144 A 
ATOM     11  C   UNL A   1      34.304  21.390  24.931  1.00  0.00     0.048 A 
ATOM     12  C   UNL A   1      35.370  22.268  25.128  1.00  0.00     0.007 A 
ATOM     13  C   UNL A   1      33.828  23.928  25.964  1.00  0.00     0.141 A 
ATOM     14  C   UNL A   1      35.131  23.534  25.661  1.00  0.00     0.040 A 
ATOM     15  F   UNL A   1      33.642  25.154  26.459  1.00  0.00    -0.206 F 
BRANCH  10  16
ATOM     16  O   UNL A   1      32.027  20.817  25.233  1.00  0.00    -0.456 OA
BRANCH  16  17
ATOM     17  C   UNL A   1      32.389  19.618  24.635  1.00  0.00     0.130 A 
ATOM     18  C   UNL A   1      33.376  16.054  25.558  1.00  0.00     0.044 C 
ATOM     19  C   UNL A   1      33.069  17.276  24.745  1.00  0.00    -0.047 A 
ATOM     20  C   UNL A   1      33.042  17.220  23.352  1.00  0.00     0.004 A 
ATOM     21  C   UNL A   1      32.775  18.487  25.375  1.00  0.00     0.050 A 
ATOM     22  C   UNL A   1      32.698  18.352  22.605  1.00  0.00     0.007 A 
ATOM     23  C   UNL A   1      32.357  19.559  23.236  1.00  0.00    -0.008 A 
ATOM     24  C   UNL A   1      31.936  20.723  22.386  1.00  0.00     0.048 C 
ENDBRANCH  16  17
ENDBRANCH  10  16
ENDBRANCH   7   9
ENDBRANCH   6   7
ENDBRANCH   5   6
ENDBRANCH   4   5
ENDBRANCH   3   4
ENDBRANCH   2   3
ENDBRANCH   1   2
BRANCH   1  25
ATOM     25  O   UNL A   1      32.875  29.563  24.945  1.00  0.00    -0.376 OA
BRANCH  25  26
ATOM     26  C   UNL A   1      33.699  29.399  26.083  1.00  0.00     0.202 C 
BRANCH  26  27
ATOM     27  C   UNL A   1      33.694  30.569  27.075  1.00  0.00     0.261 C 
BRANCH  27  28
ATOM     28  O   UNL A   1      34.517  30.541  28.275  1.00  0.00    -0.460 OA
BRANCH  28  29
ATOM     29  C   UNL A   1      35.513  31.356  28.686  1.00  0.00     0.338 C 
ATOM     30  O   UNL A   1      35.317  32.541  28.935  1.00  0.00    -0.246 OA
BRANCH  29  31
ATOM     31  C   UNL A   1      36.874  30.820  28.693  1.00  0.00     0.060 A 
ATOM     32  C   UNL A   1      36.999  29.476  28.353  1.00  0.00     0.016 A 
ATOM     33  C   UNL A   1      37.972  31.567  29.141  1.00  0.00     0.016 A 
ATOM     34  C   UNL A   1      38.191  28.845  28.635  1.00  0.00     0.010 A 
ATOM     35  C   UNL A   1      39.167  30.910  29.437  1.00  0.00     0.010 A 
ATOM     36  C   UNL A   1      39.248  29.531  29.237  1.00  0.00    -0.014 A 
BRANCH  36  37
ATOM     37  C   UNL A   1      40.474  28.742  29.381  1.00  0.00     0.031 A 
ATOM     38  C   UNL A   1      40.895  28.603  30.796  1.00  0.00     0.074 A 
ATOM     39  C   UNL A   1      41.217  28.257  28.366  1.00  0.00     0.049 A 
ATOM     40  N   UNL A   1      42.056  28.876  31.299  1.00  0.00    -0.248 NA
ATOM     41  C   UNL A   1      39.853  28.262  31.781  1.00  0.00     0.031 C 
ATOM     42  C   UNL A   1      40.855  28.265  26.952  1.00  0.00     0.029 A 
ATOM     43  N   UNL A   1      42.414  27.573  28.390  1.00  0.00    -0.354 N 
ATOM     44  C   UNL A   1      41.937  28.536  32.638  1.00  0.00     0.074 A 
ATOM     45  C   UNL A   1      40.537  28.329  32.918  1.00  0.00     0.031 C 
ATOM     46  C   UNL A   1      41.688  27.442  26.285  1.00  0.00     0.029 A 
ATOM     47  C   UNL A   1      42.657  26.873  27.211  1.00  0.00     0.049 A 
ATOM     48  H   UNL A   1      43.031  27.579  29.157  1.00  0.00     0.167 HD
ATOM     49  C   UNL A   1      42.992  28.055  33.337  1.00  0.00     0.034 A 
ATOM     50  C   UNL A   1      43.487  25.815  27.031  1.00  0.00     0.034 A 
ATOM     51  C   UNL A   1      44.270  28.472  32.866  1.00  0.00     0.049 A 
ATOM     52  C   UNL A   1      44.540  25.831  28.074  1.00  0.00     0.074 A 
ATOM     53  C   UNL A   1      45.068  29.583  32.997  1.00  0.00     0.029 A 
ATOM     54  N   UNL A   1      44.778  27.720  31.847  1.00  0.00    -0.354 N 
ATOM     55  N   UNL A   1      45.565  26.638  28.088  1.00  0.00    -0.248 NA
ATOM     56  C   UNL A   1      44.374  25.004  29.269  1.00  0.00     0.031 C 
ATOM     57  C   UNL A   1      46.079  29.482  31.998  1.00  0.00     0.029 A 
ATOM     58  C   UNL A   1      45.864  28.319  31.265  1.00  0.00     0.049 A 
ATOM     59  H   UNL A   1      44.408  26.852  31.564  1.00  0.00     0.167 HD
ATOM     60  C   UNL A   1      45.927  26.699  29.421  1.00  0.00     0.074 A 
ATOM     61  C   UNL A   1      45.292  25.559  30.060  1.00  0.00     0.031 C 
ATOM     62  C   UNL A   1      46.366  27.857  29.985  1.00  0.00     0.034 A 
BRANCH  49  63
ATOM     63  C   UNL A   1      42.790  26.812  34.147  1.00  0.00     0.023 A 
ATOM     64  C   UNL A   1      41.657  26.662  34.954  1.00  0.00     0.012 A 
ATOM     65  C   UNL A   1      43.800  25.823  34.235  1.00  0.00     0.148 A 
ATOM     66  C   UNL A   1      41.499  25.514  35.742  1.00  0.00     0.002 A 
ATOM     67  C   UNL A   1      43.579  24.635  34.902  1.00  0.00     0.091 A 
ATOM     68  F   UNL A   1      45.020  26.077  33.735  1.00  0.00    -0.205 F 
ATOM     69  C   UNL A   1      42.432  24.479  35.677  1.00  0.00     0.022 A 
BRANCH  67  70
ATOM     70  S   UNL A   1      44.678  23.239  34.643  1.00  0.00     0.127 S 
ATOM     71  O   UNL A   1      44.721  23.153  33.188  1.00  0.00    -0.237 OA
ATOM     72  O   UNL A   1      45.914  23.703  35.275  1.00  0.00    -0.237 OA
ATOM     73  O   UNL A   1      44.041  22.130  35.344  1.00  0.00    -0.744 OA
ENDBRANCH  67  70
ENDBRANCH  49  63
BRANCH  50  74
ATOM     74  C   UNL A   1      43.336  24.630  26.131  1.00  0.00     0.023 A 
ATOM     75  C   UNL A   1      44.220  24.486  25.037  1.00  0.00     0.012 A 
ATOM     76  C   UNL A   1      42.544  23.510  26.468  1.00  0.00     0.148 A 
ATOM     77  C   UNL A   1      44.359  23.267  24.360  1.00  0.00     0.002 A 
ATOM     78  C   UNL A   1      42.665  22.308  25.777  1.00  0.00     0.091 A 
ATOM     79  F   UNL A   1      41.737  23.562  27.532  1.00  0.00    -0.205 F 
ATOM     80  C   UNL A   1      43.586  22.174  24.735  1.00  0.00     0.022 A 
BRANCH  78  81
ATOM     81  S   UNL A   1      41.687  20.872  26.241  1.00  0.00     0.127 S 
ATOM     82  O   UNL A   1      42.134  19.864  25.280  1.00  0.00    -0.237 OA
ATOM     83  O   UNL A   1      42.119  20.643  27.616  1.00  0.00    -0.237 OA
ATOM     84  O   UNL A   1      40.296  21.275  26.067  1.00  0.00    -0.744 OA
ENDBRANCH  78  81
ENDBRANCH  50  74
BRANCH  62  85
ATOM     85  C   UNL A   1      47.209  28.792  29.173  1.00  0.00     0.023 A 
ATOM     86  C   UNL A   1      48.593  28.625  29.004  1.00  0.00     0.012 A 
ATOM     87  C   UNL A   1      46.551  29.816  28.462  1.00  0.00     0.148 A 
ATOM     88  C   UNL A   1      49.308  29.465  28.146  1.00  0.00     0.002 A 
ATOM     89  C   UNL A   1      47.254  30.612  27.569  1.00  0.00     0.091 A 
ATOM     90  F   UNL A   1      45.234  29.987  28.664  1.00  0.00    -0.205 F 
ATOM     91  C   UNL A   1      48.637  30.445  27.414  1.00  0.00     0.022 A 
BRANCH  89  92
ATOM     92  S   UNL A   1      46.416  31.797  26.510  1.00  0.00     0.127 S 
ATOM     93  O   UNL A   1      47.507  32.689  26.122  1.00  0.00    -0.237 OA
ATOM     94  O   UNL A   1      45.905  30.953  25.429  1.00  0.00    -0.237 OA
ATOM     95  O   UNL A   1      45.374  32.400  27.333  1.00  0.00    -0.744 OA
ENDBRANCH  89  92
ENDBRANCH  62  85
ENDBRANCH  36  37
ENDBRANCH  29  31
ENDBRANCH  28  29
ENDBRANCH  27  28
ENDBRANCH  26  27
ENDBRANCH  25  26
ENDBRANCH   1  25
TORSDOF 22
ENDMDL
MODEL 3
REMARK VINA RESULT:     -10.0      4.006     10.495
REMARK SMILES Cc1ccc(C)c(Oc2cccc(F)c2C(=O)OCCOCCOCCOC(=O)c2ccc(-c3c4nc(c(-c5cccc(S(=O)(=O)[O-])c5F)c5ccc([nH]5)c(-c5cccc(S(=O)(=O)[O-])c5F)c5nc(c(-c6cccc(S(=O)(=O)[O-])c6F)c6ccc3[nH]6)C=C5)C=C4)cc2)c1
REMARK SMILES IDX 23 1 22 2 21 3 20 4 19 5 18 6 16 7 17 8 15 9 9 10 10 11
REMARK SMILES IDX 11 12 13 13 12 14 14 15 8 16 7 17 1 18 2 19 3 20 93 21 4 22
REMARK SMILES IDX 5 23 6 24 24 25 25 26 26 27 27 28 28 29 29 30 30 31 31 32
REMARK SMILES IDX 92 33 32 34 91 35 33 36 34 37 35 38 85 39 36 40 90 41 84 42
REMARK SMILES IDX 86 43 37 44 89 45 83 46 82 47 38 49 70 50 50 51 69 52 51 53
REMARK SMILES IDX 54 54 68 55 87 56 52 57 53 58 67 60 88 61 55 62 39 63 40 64
REMARK SMILES IDX 48 65 41 66 43 67 49 68 42 69 44 70 45 71 46 72 47 73 71 74
REMARK SMILES IDX 72 75 80 76 73 77 75 78 81 79 74 80 76 81 77 82 78 83 79 84
REMARK SMILES IDX 56 85 57 86 65 87 58 88 60 89 66 90 59 91 61 92 62 93 63 94
REMARK SMILES IDX 64 95
REMARK H PARENT 86 48 54 59
REMARK Flexibility Score: inf
ROOT
ATOM      1  C   UNL A   1      35.070  34.476  28.559  1.00  0.00     0.188 C 
ENDROOT
BRANCH   1   2
ATOM      2  C   UNL A   1      34.059  33.339  28.761  1.00  0.00     0.188 C 
BRANCH   2   3
ATOM      3  O   UNL A   1      33.675  32.661  27.557  1.00  0.00    -0.376 OA
BRANCH   3   4
ATOM      4  C   UNL A   1      33.661  31.228  27.627  1.00  0.00     0.202 C 
BRANCH   4   5
ATOM      5  C   UNL A   1      32.426  30.546  27.015  1.00  0.00     0.261 C 
BRANCH   5   6
ATOM      6  O   UNL A   1      32.766  29.434  26.172  1.00  0.00    -0.459 OA
BRANCH   6   7
ATOM      7  C   UNL A   1      31.874  28.414  26.199  1.00  0.00     0.345 C 
ATOM      8  O   UNL A   1      31.319  27.945  27.188  1.00  0.00    -0.246 OA
BRANCH   7   9
ATOM      9  C   UNL A   1      31.751  27.861  24.846  1.00  0.00     0.138 A 
ATOM     10  C   UNL A   1      32.435  26.711  24.442  1.00  0.00     0.144 A 
ATOM     11  C   UNL A   1      32.219  26.159  23.172  1.00  0.00     0.048 A 
ATOM     12  C   UNL A   1      31.374  26.804  22.269  1.00  0.00     0.007 A 
ATOM     13  C   UNL A   1      30.936  28.509  23.923  1.00  0.00     0.141 A 
ATOM     14  C   UNL A   1      30.744  27.992  22.642  1.00  0.00     0.040 A 
ATOM     15  F   UNL A   1      30.302  29.640  24.244  1.00  0.00    -0.206 F 
BRANCH  10  16
ATOM     16  O   UNL A   1      33.412  26.133  25.217  1.00  0.00    -0.456 OA
BRANCH  16  17
ATOM     17  C   UNL A   1      33.087  24.910  25.787  1.00  0.00     0.130 A 
ATOM     18  C   UNL A   1      30.054  22.955  27.018  1.00  0.00     0.044 C 
ATOM     19  C   UNL A   1      31.472  23.320  26.697  1.00  0.00    -0.047 A 
ATOM     20  C   UNL A   1      32.505  22.398  26.871  1.00  0.00     0.004 A 
ATOM     21  C   UNL A   1      31.779  24.583  26.187  1.00  0.00     0.050 A 
ATOM     22  C   UNL A   1      33.816  22.729  26.514  1.00  0.00     0.007 A 
ATOM     23  C   UNL A   1      34.121  23.982  25.958  1.00  0.00    -0.008 A 
ATOM     24  C   UNL A   1      35.535  24.259  25.536  1.00  0.00     0.048 C 
ENDBRANCH  16  17
ENDBRANCH  10  16
ENDBRANCH   7   9
ENDBRANCH   6   7
ENDBRANCH   5   6
ENDBRANCH   4   5
ENDBRANCH   3   4
ENDBRANCH   2   3
ENDBRANCH   1   2
BRANCH   1  25
ATOM     25  O   UNL A   1      34.385  35.715  28.503  1.00  0.00    -0.376 OA
BRANCH  25  26
ATOM     26  C   UNL A   1      33.121  35.746  29.138  1.00  0.00     0.202 C 
BRANCH  26  27
ATOM     27  C   UNL A   1      32.922  36.875  30.156  1.00  0.00     0.261 C 
BRANCH  27  28
ATOM     28  O   UNL A   1      32.706  36.588  31.566  1.00  0.00    -0.460 OA
BRANCH  28  29
ATOM     29  C   UNL A   1      32.706  35.419  32.244  1.00  0.00     0.338 C 
ATOM     30  O   UNL A   1      31.710  35.016  32.837  1.00  0.00    -0.246 OA
BRANCH  29  31
ATOM     31  C   UNL A   1      33.976  34.705  32.374  1.00  0.00     0.060 A 
ATOM     32  C   UNL A   1      35.123  35.491  32.315  1.00  0.00     0.016 A 
ATOM     33  C   UNL A   1      34.049  33.306  32.420  1.00  0.00     0.016 A 
ATOM     34  C   UNL A   1      36.332  34.859  32.125  1.00  0.00     0.010 A 
ATOM     35  C   UNL A   1      35.279  32.681  32.208  1.00  0.00     0.010 A 
ATOM     36  C   UNL A   1      36.411  33.470  31.999  1.00  0.00    -0.014 A 
BRANCH  36  37
ATOM     37  C   UNL A   1      37.777  32.951  31.897  1.00  0.00     0.031 A 
ATOM     38  C   UNL A   1      38.657  33.456  32.979  1.00  0.00     0.074 A 
ATOM     39  C   UNL A   1      38.249  32.177  30.899  1.00  0.00     0.049 A 
ATOM     40  N   UNL A   1      39.805  34.040  32.849  1.00  0.00    -0.248 NA
ATOM     41  C   UNL A   1      38.119  33.438  34.352  1.00  0.00     0.031 C 
ATOM     42  C   UNL A   1      37.457  31.561  29.838  1.00  0.00     0.029 A 
ATOM     43  N   UNL A   1      39.523  31.701  30.670  1.00  0.00    -0.354 N 
ATOM     44  C   UNL A   1      40.221  34.271  34.150  1.00  0.00     0.074 A 
ATOM     45  C   UNL A   1      39.093  34.043  35.021  1.00  0.00     0.031 C 
ATOM     46  C   UNL A   1      38.212  30.634  29.214  1.00  0.00     0.029 A 
ATOM     47  C   UNL A   1      39.542  30.610  29.806  1.00  0.00     0.049 A 
ATOM     48  H   UNL A   1      40.331  32.092  31.073  1.00  0.00     0.167 HD
ATOM     49  C   UNL A   1      41.533  34.241  34.485  1.00  0.00     0.034 A 
ATOM     50  C   UNL A   1      40.514  29.671  29.678  1.00  0.00     0.034 A 
ATOM     51  C   UNL A   1      42.433  34.566  33.430  1.00  0.00     0.049 A 
ATOM     52  C   UNL A   1      41.806  30.233  30.138  1.00  0.00     0.074 A 
ATOM     53  C   UNL A   1      42.912  35.714  32.844  1.00  0.00     0.029 A 
ATOM     54  N   UNL A   1      42.758  33.523  32.613  1.00  0.00    -0.354 N 
ATOM     55  N   UNL A   1      42.533  31.082  29.464  1.00  0.00    -0.248 NA
ATOM     56  C   UNL A   1      42.259  29.959  31.501  1.00  0.00     0.031 C 
ATOM     57  C   UNL A   1      43.532  35.323  31.623  1.00  0.00     0.029 A 
ATOM     58  C   UNL A   1      43.400  33.945  31.479  1.00  0.00     0.049 A 
ATOM     59  H   UNL A   1      42.556  32.580  32.815  1.00  0.00     0.167 HD
ATOM     60  C   UNL A   1      43.280  31.728  30.433  1.00  0.00     0.074 A 
ATOM     61  C   UNL A   1      43.206  30.889  31.617  1.00  0.00     0.031 C 
ATOM     62  C   UNL A   1      43.561  33.056  30.345  1.00  0.00     0.034 A 
BRANCH  49  63
ATOM     63  C   UNL A   1      41.936  33.428  35.676  1.00  0.00     0.023 A 
ATOM     64  C   UNL A   1      41.953  32.030  35.614  1.00  0.00     0.012 A 
ATOM     65  C   UNL A   1      42.167  34.037  36.934  1.00  0.00     0.148 A 
ATOM     66  C   UNL A   1      42.288  31.277  36.747  1.00  0.00     0.002 A 
ATOM     67  C   UNL A   1      42.630  33.302  38.007  1.00  0.00     0.091 A 
ATOM     68  F   UNL A   1      41.852  35.330  37.111  1.00  0.00    -0.205 F 
ATOM     69  C   UNL A   1      42.676  31.912  37.927  1.00  0.00     0.022 A 
BRANCH  67  70
ATOM     70  S   UNL A   1      43.323  34.137  39.438  1.00  0.00     0.127 S 
ATOM     71  O   UNL A   1      43.896  33.027  40.189  1.00  0.00    -0.237 OA
ATOM     72  O   UNL A   1      44.295  35.041  38.823  1.00  0.00    -0.237 OA
ATOM     73  O   UNL A   1      42.190  34.824  40.050  1.00  0.00    -0.744 OA
ENDBRANCH  67  70
ENDBRANCH  49  63
BRANCH  50  74
ATOM     74  C   UNL A   1      40.391  28.212  29.374  1.00  0.00     0.023 A 
ATOM     75  C   UNL A   1      39.365  27.468  30.002  1.00  0.00     0.012 A 
ATOM     76  C   UNL A   1      41.061  27.597  28.294  1.00  0.00     0.148 A 
ATOM     77  C   UNL A   1      38.981  26.205  29.531  1.00  0.00     0.002 A 
ATOM     78  C   UNL A   1      40.695  26.331  27.845  1.00  0.00     0.091 A 
ATOM     79  F   UNL A   1      41.995  28.273  27.618  1.00  0.00    -0.205 F 
ATOM     80  C   UNL A   1      39.640  25.639  28.446  1.00  0.00     0.022 A 
BRANCH  78  81
ATOM     81  S   UNL A   1      41.522  25.573  26.439  1.00  0.00     0.127 S 
ATOM     82  O   UNL A   1      41.268  26.537  25.369  1.00  0.00    -0.237 OA
ATOM     83  O   UNL A   1      42.906  25.515  26.898  1.00  0.00    -0.237 OA
ATOM     84  O   UNL A   1      40.858  24.288  26.244  1.00  0.00    -0.744 OA
ENDBRANCH  78  81
ENDBRANCH  50  74
BRANCH  62  85
ATOM     85  C   UNL A   1      43.819  33.660  28.999  1.00  0.00     0.023 A 
ATOM     86  C   UNL A   1      42.958  34.594  28.401  1.00  0.00     0.012 A 
ATOM     87  C   UNL A   1      45.042  33.354  28.368  1.00  0.00     0.148 A 
ATOM     88  C   UNL A   1      43.306  35.208  27.194  1.00  0.00     0.002 A 
ATOM     89  C   UNL A   1      45.409  34.005  27.199  1.00  0.00     0.091 A 
ATOM     90  F   UNL A   1      45.837  32.430  28.933  1.00  0.00    -0.205 F 
ATOM     91  C   UNL A   1      44.540  34.928  26.603  1.00  0.00     0.022 A 
BRANCH  89  92
ATOM     92  S   UNL A   1      47.036  33.778  26.472  1.00  0.00     0.127 S 
ATOM     93  O   UNL A   1      47.052  32.343  26.193  1.00  0.00    -0.237 OA
ATOM     94  O   UNL A   1      46.977  34.630  25.283  1.00  0.00    -0.237 OA
ATOM     95  O   UNL A   1      47.989  34.232  27.478  1.00  0.00    -0.744 OA
ENDBRANCH  89  92
ENDBRANCH  62  85
ENDBRANCH  36  37
ENDBRANCH  29  31
ENDBRANCH  28  29
ENDBRANCH  27  28
ENDBRANCH  26  27
ENDBRANCH  25  26
ENDBRANCH   1  25
TORSDOF 22
ENDMDL
