MODEL 1
REMARK VINA RESULT:      -9.5      0.000      0.000
REMARK SMILES CC[C@H](C(=O)OCCOCCOCCOC(=O)c1ccc(-c2c3nc(c(-c4cccc(S(=O)(=O)[O-])c4F)c4ccc([nH]4)c(-c4cccc(S(=O)(=O)[O-])c4F)c4nc(c(-c5cccc(S(=O)(=O)[O-])c5F)c5ccc2[nH]5)C=C4)C=C3)cc1)N1C(=O)/C(=C\c2cccs2)SC1=S
REMARK SMILES IDX 11 1 10 2 9 3 8 4 7 5 6 6 4 7 5 8 3 9 2 10 1 11 81 12 82 13
REMARK SMILES IDX 92 14 83 15 84 16 91 17 93 18 85 19 86 20 87 21 90 22 88 23
REMARK SMILES IDX 89 24 12 25 13 26 14 27 15 28 16 29 17 30 18 31 19 32 80 33
REMARK SMILES IDX 20 34 79 35 21 36 22 37 23 38 73 39 24 40 78 41 72 42 74 43
REMARK SMILES IDX 25 44 77 45 71 46 70 47 26 49 58 50 38 51 57 52 39 53 42 54
REMARK SMILES IDX 56 55 75 56 40 57 41 58 55 60 76 61 43 62 27 63 28 64 36 65
REMARK SMILES IDX 29 66 31 67 37 68 30 69 32 70 33 71 34 72 35 73 59 74 60 75
REMARK SMILES IDX 68 76 61 77 63 78 69 79 62 80 64 81 65 82 66 83 67 84 44 85
REMARK SMILES IDX 45 86 53 87 46 88 48 89 54 90 47 91 49 92 50 93 51 94 52 95
REMARK H PARENT 74 48 42 59
REMARK Flexibility Score: inf
ROOT
ATOM      1  C   UNL A   1      35.400  32.219  28.103  1.00  0.00     0.188 C 
ENDROOT
BRANCH   1   2
ATOM      2  C   UNL A   1      34.379  31.185  27.595  1.00  0.00     0.188 C 
BRANCH   2   3
ATOM      3  O   UNL A   1      33.014  31.516  27.446  1.00  0.00    -0.376 OA
BRANCH   3   4
ATOM      4  C   UNL A   1      32.150  30.727  26.656  1.00  0.00     0.202 C 
BRANCH   4   5
ATOM      5  C   UNL A   1      32.438  29.242  26.430  1.00  0.00     0.261 C 
BRANCH   5   6
ATOM      6  O   UNL A   1      33.004  28.887  25.160  1.00  0.00    -0.462 OA
BRANCH   6   7
ATOM      7  C   UNL A   1      33.270  27.558  24.972  1.00  0.00     0.329 C 
ATOM      8  O   UNL A   1      33.960  26.871  25.712  1.00  0.00    -0.250 OA
BRANCH   7   9
ATOM      9  C   UNL A   1      32.653  27.069  23.655  1.00  0.00     0.201 C 
BRANCH   9  10
ATOM     10  C   UNL A   1      33.170  25.638  23.407  1.00  0.00     0.034 C 
ATOM     11  C   UNL A   1      32.692  24.978  22.107  1.00  0.00     0.007 C 
ENDBRANCH   9  10
BRANCH   9  12
ATOM     12  N   UNL A   1      31.179  27.282  23.689  1.00  0.00    -0.278 N 
ATOM     13  C   UNL A   1      30.519  28.237  22.942  1.00  0.00     0.267 C 
ATOM     14  C   UNL A   1      30.324  26.603  24.523  1.00  0.00     0.149 C 
ATOM     15  O   UNL A   1      31.045  29.188  22.387  1.00  0.00    -0.268 OA
ATOM     16  C   UNL A   1      29.034  28.045  23.029  1.00  0.00     0.081 C 
ATOM     17  S   UNL A   1      28.736  26.525  23.781  1.00  0.00    -0.054 SA
ATOM     18  S   UNL A   1      30.604  26.123  26.092  1.00  0.00    -0.052 S 
ATOM     19  C   UNL A   1      28.052  28.943  22.857  1.00  0.00     0.040 C 
BRANCH  19  20
ATOM     20  C   UNL A   1      28.343  30.326  22.738  1.00  0.00     0.028 A 
ATOM     21  C   UNL A   1      28.624  31.275  23.702  1.00  0.00     0.020 A 
ATOM     22  S   UNL A   1      28.258  31.050  21.176  1.00  0.00    -0.144 S 
ATOM     23  C   UNL A   1      28.580  32.602  23.187  1.00  0.00     0.012 A 
ATOM     24  C   UNL A   1      28.373  32.623  21.828  1.00  0.00     0.065 A 
ENDBRANCH  19  20
ENDBRANCH   9  12
ENDBRANCH   7   9
ENDBRANCH   6   7
ENDBRANCH   5   6
ENDBRANCH   4   5
ENDBRANCH   3   4
ENDBRANCH   2   3
ENDBRANCH   1   2
BRANCH   1  25
ATOM     25  O   UNL A   1      35.476  33.513  27.540  1.00  0.00    -0.376 OA
BRANCH  25  26
ATOM     26  C   UNL A   1      35.078  34.618  28.335  1.00  0.00     0.202 C 
BRANCH  26  27
ATOM     27  C   UNL A   1      33.593  34.787  28.673  1.00  0.00     0.261 C 
BRANCH  27  28
ATOM     28  O   UNL A   1      33.179  34.070  29.850  1.00  0.00    -0.460 OA
BRANCH  28  29
ATOM     29  C   UNL A   1      33.348  34.726  31.030  1.00  0.00     0.338 C 
ATOM     30  O   UNL A   1      32.565  35.495  31.550  1.00  0.00    -0.246 OA
BRANCH  29  31
ATOM     31  C   UNL A   1      34.568  34.236  31.718  1.00  0.00     0.060 A 
ATOM     32  C   UNL A   1      35.611  35.147  31.918  1.00  0.00     0.016 A 
ATOM     33  C   UNL A   1      34.716  32.909  32.128  1.00  0.00     0.016 A 
ATOM     34  C   UNL A   1      36.797  34.742  32.533  1.00  0.00     0.010 A 
ATOM     35  C   UNL A   1      35.921  32.497  32.719  1.00  0.00     0.010 A 
ATOM     36  C   UNL A   1      36.970  33.409  32.921  1.00  0.00    -0.014 A 
BRANCH  36  37
ATOM     37  C   UNL A   1      38.298  32.954  33.410  1.00  0.00     0.031 A 
ATOM     38  C   UNL A   1      39.164  32.129  32.501  1.00  0.00     0.074 A 
ATOM     39  C   UNL A   1      38.744  33.287  34.636  1.00  0.00     0.049 A 
ATOM     40  N   UNL A   1      40.319  31.565  32.742  1.00  0.00    -0.248 NA
ATOM     41  C   UNL A   1      38.671  31.933  31.129  1.00  0.00     0.031 C 
ATOM     42  C   UNL A   1      38.053  34.165  35.577  1.00  0.00     0.029 A 
ATOM     43  N   UNL A   1      39.887  32.910  35.303  1.00  0.00    -0.354 N 
ATOM     44  C   UNL A   1      40.682  30.928  31.561  1.00  0.00     0.074 A 
ATOM     45  C   UNL A   1      39.632  31.191  30.601  1.00  0.00     0.031 C 
ATOM     46  C   UNL A   1      38.767  34.230  36.716  1.00  0.00     0.029 A 
ATOM     47  C   UNL A   1      39.939  33.364  36.601  1.00  0.00     0.049 A 
ATOM     48  H   UNL A   1      40.597  32.367  34.891  1.00  0.00     0.167 HD
ATOM     49  C   UNL A   1      41.782  30.184  31.301  1.00  0.00     0.034 A 
ATOM     50  C   UNL A   1      40.809  33.074  37.592  1.00  0.00     0.034 A 
ATOM     51  C   UNL A   1      42.806  29.888  32.267  1.00  0.00     0.049 A 
ATOM     52  C   UNL A   1      41.955  32.130  37.318  1.00  0.00     0.074 A 
ATOM     53  C   UNL A   1      43.942  29.113  32.107  1.00  0.00     0.029 A 
ATOM     54  N   UNL A   1      42.804  30.328  33.581  1.00  0.00    -0.354 N 
ATOM     55  N   UNL A   1      42.316  31.572  36.187  1.00  0.00    -0.248 NA
ATOM     56  C   UNL A   1      42.823  31.784  38.454  1.00  0.00     0.031 C 
ATOM     57  C   UNL A   1      44.602  29.048  33.338  1.00  0.00     0.029 A 
ATOM     58  C   UNL A   1      43.904  29.821  34.252  1.00  0.00     0.049 A 
ATOM     59  H   UNL A   1      42.121  30.914  33.979  1.00  0.00     0.167 HD
ATOM     60  C   UNL A   1      43.466  30.839  36.467  1.00  0.00     0.074 A 
ATOM     61  C   UNL A   1      43.754  31.038  37.873  1.00  0.00     0.031 C 
ATOM     62  C   UNL A   1      44.210  30.064  35.640  1.00  0.00     0.034 A 
BRANCH  49  63
ATOM     63  C   UNL A   1      41.906  29.601  29.918  1.00  0.00     0.023 A 
ATOM     64  C   UNL A   1      42.659  30.273  28.935  1.00  0.00     0.012 A 
ATOM     65  C   UNL A   1      41.279  28.381  29.597  1.00  0.00     0.148 A 
ATOM     66  C   UNL A   1      42.750  29.762  27.640  1.00  0.00     0.002 A 
ATOM     67  C   UNL A   1      41.410  27.856  28.319  1.00  0.00     0.091 A 
ATOM     68  F   UNL A   1      40.549  27.769  30.541  1.00  0.00    -0.205 F 
ATOM     69  C   UNL A   1      42.132  28.552  27.335  1.00  0.00     0.022 A 
BRANCH  67  70
ATOM     70  S   UNL A   1      40.709  26.271  27.846  1.00  0.00     0.127 S 
ATOM     71  O   UNL A   1      39.299  26.460  28.187  1.00  0.00    -0.237 OA
ATOM     72  O   UNL A   1      40.989  26.228  26.412  1.00  0.00    -0.237 OA
ATOM     73  O   UNL A   1      41.412  25.270  28.634  1.00  0.00    -0.744 OA
ENDBRANCH  67  70
ENDBRANCH  49  63
BRANCH  50  74
ATOM     74  C   UNL A   1      40.631  33.665  38.952  1.00  0.00     0.023 A 
ATOM     75  C   UNL A   1      41.487  34.697  39.384  1.00  0.00     0.012 A 
ATOM     76  C   UNL A   1      39.633  33.195  39.829  1.00  0.00     0.148 A 
ATOM     77  C   UNL A   1      41.372  35.228  40.670  1.00  0.00     0.002 A 
ATOM     78  C   UNL A   1      39.488  33.766  41.088  1.00  0.00     0.091 A 
ATOM     79  F   UNL A   1      38.844  32.194  39.414  1.00  0.00    -0.205 F 
ATOM     80  C   UNL A   1      40.368  34.770  41.519  1.00  0.00     0.022 A 
BRANCH  78  81
ATOM     81  S   UNL A   1      38.157  33.316  42.209  1.00  0.00     0.127 S 
ATOM     82  O   UNL A   1      36.974  33.638  41.414  1.00  0.00    -0.237 OA
ATOM     83  O   UNL A   1      38.399  31.887  42.402  1.00  0.00    -0.237 OA
ATOM     84  O   UNL A   1      38.351  34.129  43.401  1.00  0.00    -0.744 OA
ENDBRANCH  78  81
ENDBRANCH  50  74
BRANCH  62  85
ATOM     85  C   UNL A   1      45.437  29.394  36.205  1.00  0.00     0.023 A 
ATOM     86  C   UNL A   1      46.675  30.067  36.200  1.00  0.00     0.012 A 
ATOM     87  C   UNL A   1      45.339  28.136  36.834  1.00  0.00     0.148 A 
ATOM     88  C   UNL A   1      47.800  29.489  36.790  1.00  0.00     0.002 A 
ATOM     89  C   UNL A   1      46.451  27.589  37.465  1.00  0.00     0.091 A 
ATOM     90  F   UNL A   1      44.156  27.504  36.817  1.00  0.00    -0.205 F 
ATOM     91  C   UNL A   1      47.685  28.258  37.433  1.00  0.00     0.022 A 
BRANCH  89  92
ATOM     92  S   UNL A   1      46.377  26.060  38.406  1.00  0.00     0.127 S 
ATOM     93  O   UNL A   1      46.099  25.079  37.358  1.00  0.00    -0.237 OA
ATOM     94  O   UNL A   1      47.723  25.983  38.975  1.00  0.00    -0.237 OA
ATOM     95  O   UNL A   1      45.313  26.238  39.385  1.00  0.00    -0.744 OA
ENDBRANCH  89  92
ENDBRANCH  62  85
ENDBRANCH  36  37
ENDBRANCH  29  31
ENDBRANCH  28  29
ENDBRANCH  27  28
ENDBRANCH  26  27
ENDBRANCH  25  26
ENDBRANCH   1  25
TORSDOF 23
ENDMDL
MODEL 2
REMARK VINA RESULT:      -9.5      3.160      4.938
REMARK SMILES CC[C@H](C(=O)OCCOCCOCCOC(=O)c1ccc(-c2c3nc(c(-c4cccc(S(=O)(=O)[O-])c4F)c4ccc([nH]4)c(-c4cccc(S(=O)(=O)[O-])c4F)c4nc(c(-c5cccc(S(=O)(=O)[O-])c5F)c5ccc2[nH]5)C=C4)C=C3)cc1)N1C(=O)/C(=C\c2cccs2)SC1=S
REMARK SMILES IDX 11 1 10 2 9 3 8 4 7 5 6 6 4 7 5 8 3 9 2 10 1 11 81 12 82 13
REMARK SMILES IDX 92 14 83 15 84 16 91 17 93 18 85 19 86 20 87 21 90 22 88 23
REMARK SMILES IDX 89 24 12 25 13 26 14 27 15 28 16 29 17 30 18 31 19 32 80 33
REMARK SMILES IDX 20 34 79 35 21 36 22 37 23 38 73 39 24 40 78 41 72 42 74 43
REMARK SMILES IDX 25 44 77 45 71 46 70 47 26 49 58 50 38 51 57 52 39 53 42 54
REMARK SMILES IDX 56 55 75 56 40 57 41 58 55 60 76 61 43 62 27 63 28 64 36 65
REMARK SMILES IDX 29 66 31 67 37 68 30 69 32 70 33 71 34 72 35 73 59 74 60 75
REMARK SMILES IDX 68 76 61 77 63 78 69 79 62 80 64 81 65 82 66 83 67 84 44 85
REMARK SMILES IDX 45 86 53 87 46 88 48 89 54 90 47 91 49 92 50 93 51 94 52 95
REMARK H PARENT 74 48 42 59
REMARK Flexibility Score: inf
ROOT
ATOM      1  C   UNL A   1      31.964  30.223  26.415  1.00  0.00     0.188 C 
ENDROOT
BRANCH   1   2
ATOM      2  C   UNL A   1      31.422  28.915  25.809  1.00  0.00     0.188 C 
BRANCH   2   3
ATOM      3  O   UNL A   1      31.368  28.723  24.411  1.00  0.00    -0.376 OA
BRANCH   3   4
ATOM      4  C   UNL A   1      30.206  28.224  23.783  1.00  0.00     0.202 C 
BRANCH   4   5
ATOM      5  C   UNL A   1      30.099  26.746  23.402  1.00  0.00     0.261 C 
BRANCH   5   6
ATOM      6  O   UNL A   1      30.963  25.841  24.104  1.00  0.00    -0.462 OA
BRANCH   6   7
ATOM      7  C   UNL A   1      31.309  24.701  23.433  1.00  0.00     0.329 C 
ATOM      8  O   UNL A   1      30.537  23.799  23.139  1.00  0.00    -0.250 OA
BRANCH   7   9
ATOM      9  C   UNL A   1      32.821  24.669  23.174  1.00  0.00     0.201 C 
BRANCH   9  10
ATOM     10  C   UNL A   1      33.296  26.129  23.035  1.00  0.00     0.034 C 
ATOM     11  C   UNL A   1      33.295  26.691  21.607  1.00  0.00     0.007 C 
ENDBRANCH   9  10
BRANCH   9  12
ATOM     12  N   UNL A   1      33.483  23.816  24.200  1.00  0.00    -0.278 N 
ATOM     13  C   UNL A   1      33.888  22.515  23.978  1.00  0.00     0.267 C 
ATOM     14  C   UNL A   1      33.694  24.203  25.501  1.00  0.00     0.149 C 
ATOM     15  O   UNL A   1      33.527  21.811  23.049  1.00  0.00    -0.268 OA
ATOM     16  C   UNL A   1      34.715  22.014  25.124  1.00  0.00     0.081 C 
ATOM     17  S   UNL A   1      35.093  23.356  26.134  1.00  0.00    -0.054 SA
ATOM     18  S   UNL A   1      32.693  25.123  26.462  1.00  0.00    -0.052 S 
ATOM     19  C   UNL A   1      34.922  20.753  25.532  1.00  0.00     0.040 C 
BRANCH  19  20
ATOM     20  C   UNL A   1      34.177  19.678  24.984  1.00  0.00     0.028 A 
ATOM     21  C   UNL A   1      34.583  18.580  24.251  1.00  0.00     0.020 A 
ATOM     22  S   UNL A   1      32.459  19.716  25.125  1.00  0.00    -0.144 S 
ATOM     23  C   UNL A   1      33.489  17.890  23.654  1.00  0.00     0.012 A 
ATOM     24  C   UNL A   1      32.277  18.416  24.035  1.00  0.00     0.065 A 
ENDBRANCH  19  20
ENDBRANCH   9  12
ENDBRANCH   7   9
ENDBRANCH   6   7
ENDBRANCH   5   6
ENDBRANCH   4   5
ENDBRANCH   3   4
ENDBRANCH   2   3
ENDBRANCH   1   2
BRANCH   1  25
ATOM     25  O   UNL A   1      33.246  30.280  27.007  1.00  0.00    -0.376 OA
BRANCH  25  26
ATOM     26  C   UNL A   1      33.720  31.536  27.464  1.00  0.00     0.202 C 
BRANCH  26  27
ATOM     27  C   UNL A   1      32.738  32.710  27.547  1.00  0.00     0.261 C 
BRANCH  27  28
ATOM     28  O   UNL A   1      33.374  34.001  27.548  1.00  0.00    -0.460 OA
BRANCH  28  29
ATOM     29  C   UNL A   1      33.413  34.638  28.750  1.00  0.00     0.338 C 
ATOM     30  O   UNL A   1      32.556  35.365  29.212  1.00  0.00    -0.246 OA
BRANCH  29  31
ATOM     31  C   UNL A   1      34.587  34.182  29.534  1.00  0.00     0.060 A 
ATOM     32  C   UNL A   1      35.857  34.541  29.070  1.00  0.00     0.016 A 
ATOM     33  C   UNL A   1      34.462  33.389  30.677  1.00  0.00     0.016 A 
ATOM     34  C   UNL A   1      37.003  34.118  29.746  1.00  0.00     0.010 A 
ATOM     35  C   UNL A   1      35.617  32.940  31.338  1.00  0.00     0.010 A 
ATOM     36  C   UNL A   1      36.894  33.299  30.874  1.00  0.00    -0.014 A 
BRANCH  36  37
ATOM     37  C   UNL A   1      38.120  32.713  31.477  1.00  0.00     0.031 A 
ATOM     38  C   UNL A   1      38.738  31.502  30.839  1.00  0.00     0.074 A 
ATOM     39  C   UNL A   1      38.696  33.262  32.564  1.00  0.00     0.049 A 
ATOM     40  N   UNL A   1      39.758  30.785  31.233  1.00  0.00    -0.248 NA
ATOM     41  C   UNL A   1      38.136  31.052  29.573  1.00  0.00     0.031 C 
ATOM     42  C   UNL A   1      38.263  34.492  33.220  1.00  0.00     0.029 A 
ATOM     43  N   UNL A   1      39.768  32.839  33.315  1.00  0.00    -0.354 N 
ATOM     44  C   UNL A   1      39.908  29.786  30.278  1.00  0.00     0.074 A 
ATOM     45  C   UNL A   1      38.886  30.001  29.277  1.00  0.00     0.031 C 
ATOM     46  C   UNL A   1      39.038  34.707  34.299  1.00  0.00     0.029 A 
ATOM     47  C   UNL A   1      39.990  33.606  34.435  1.00  0.00     0.049 A 
ATOM     48  H   UNL A   1      40.322  32.061  33.074  1.00  0.00     0.167 HD
ATOM     49  C   UNL A   1      40.808  28.775  30.241  1.00  0.00     0.034 A 
ATOM     50  C   UNL A   1      40.833  33.414  35.472  1.00  0.00     0.034 A 
ATOM     51  C   UNL A   1      41.799  28.536  31.256  1.00  0.00     0.049 A 
ATOM     52  C   UNL A   1      41.735  32.202  35.477  1.00  0.00     0.074 A 
ATOM     53  C   UNL A   1      42.733  27.517  31.324  1.00  0.00     0.029 A 
ATOM     54  N   UNL A   1      41.966  29.308  32.395  1.00  0.00    -0.354 N 
ATOM     55  N   UNL A   1      41.903  31.291  34.549  1.00  0.00    -0.248 NA
ATOM     56  C   UNL A   1      42.573  31.997  36.669  1.00  0.00     0.031 C 
ATOM     57  C   UNL A   1      43.433  27.646  32.527  1.00  0.00     0.029 A 
ATOM     58  C   UNL A   1      42.969  28.773  33.186  1.00  0.00     0.049 A 
ATOM     59  H   UNL A   1      41.447  30.116  32.611  1.00  0.00     0.167 HD
ATOM     60  C   UNL A   1      42.885  30.428  35.028  1.00  0.00     0.074 A 
ATOM     61  C   UNL A   1      43.288  30.935  36.323  1.00  0.00     0.031 C 
ATOM     62  C   UNL A   1      43.398  29.312  34.453  1.00  0.00     0.034 A 
BRANCH  49  63
ATOM     63  C   UNL A   1      40.726  27.825  29.076  1.00  0.00     0.023 A 
ATOM     64  C   UNL A   1      39.748  26.811  29.060  1.00  0.00     0.012 A 
ATOM     65  C   UNL A   1      41.619  27.943  27.993  1.00  0.00     0.148 A 
ATOM     66  C   UNL A   1      39.686  25.902  28.004  1.00  0.00     0.002 A 
ATOM     67  C   UNL A   1      41.523  27.062  26.924  1.00  0.00     0.091 A 
ATOM     68  F   UNL A   1      42.556  28.901  28.038  1.00  0.00    -0.205 F 
ATOM     69  C   UNL A   1      40.568  26.032  26.934  1.00  0.00     0.022 A 
BRANCH  67  70
ATOM     70  S   UNL A   1      42.569  27.188  25.469  1.00  0.00     0.127 S 
ATOM     71  O   UNL A   1      43.902  27.252  26.068  1.00  0.00    -0.237 OA
ATOM     72  O   UNL A   1      42.274  25.937  24.771  1.00  0.00    -0.237 OA
ATOM     73  O   UNL A   1      42.141  28.391  24.770  1.00  0.00    -0.744 OA
ENDBRANCH  67  70
ENDBRANCH  49  63
BRANCH  50  74
ATOM     74  C   UNL A   1      40.863  34.378  36.612  1.00  0.00     0.023 A 
ATOM     75  C   UNL A   1      39.793  34.412  37.528  1.00  0.00     0.012 A 
ATOM     76  C   UNL A   1      41.936  35.277  36.782  1.00  0.00     0.148 A 
ATOM     77  C   UNL A   1      39.777  35.340  38.572  1.00  0.00     0.002 A 
ATOM     78  C   UNL A   1      41.940  36.160  37.855  1.00  0.00     0.091 A 
ATOM     79  F   UNL A   1      42.933  35.250  35.887  1.00  0.00    -0.205 F 
ATOM     80  C   UNL A   1      40.852  36.207  38.741  1.00  0.00     0.022 A 
BRANCH  78  81
ATOM     81  S   UNL A   1      43.329  37.240  38.216  1.00  0.00     0.127 S 
ATOM     82  O   UNL A   1      42.849  37.965  39.390  1.00  0.00    -0.237 OA
ATOM     83  O   UNL A   1      44.396  36.276  38.481  1.00  0.00    -0.237 OA
ATOM     84  O   UNL A   1      43.527  38.046  37.020  1.00  0.00    -0.744 OA
ENDBRANCH  78  81
ENDBRANCH  50  74
BRANCH  62  85
ATOM     85  C   UNL A   1      44.485  28.569  35.188  1.00  0.00     0.023 A 
ATOM     86  C   UNL A   1      45.838  28.878  34.950  1.00  0.00     0.012 A 
ATOM     87  C   UNL A   1      44.158  27.633  36.192  1.00  0.00     0.148 A 
ATOM     88  C   UNL A   1      46.849  28.252  35.680  1.00  0.00     0.002 A 
ATOM     89  C   UNL A   1      45.167  27.052  36.951  1.00  0.00     0.091 A 
ATOM     90  F   UNL A   1      42.865  27.341  36.395  1.00  0.00    -0.205 F 
ATOM     91  C   UNL A   1      46.513  27.350  36.689  1.00  0.00     0.022 A 
BRANCH  89  92
ATOM     92  S   UNL A   1      44.829  25.959  38.336  1.00  0.00     0.127 S 
ATOM     93  O   UNL A   1      46.179  25.616  38.781  1.00  0.00    -0.237 OA
ATOM     94  O   UNL A   1      44.090  26.834  39.247  1.00  0.00    -0.237 OA
ATOM     95  O   UNL A   1      44.054  24.849  37.797  1.00  0.00    -0.744 OA
ENDBRANCH  89  92
ENDBRANCH  62  85
ENDBRANCH  36  37
ENDBRANCH  29  31
ENDBRANCH  28  29
ENDBRANCH  27  28
ENDBRANCH  26  27
ENDBRANCH  25  26
ENDBRANCH   1  25
TORSDOF 23
ENDMDL
MODEL 3
REMARK VINA RESULT:      -9.5      2.106      3.665
REMARK SMILES CC[C@H](C(=O)OCCOCCOCCOC(=O)c1ccc(-c2c3nc(c(-c4cccc(S(=O)(=O)[O-])c4F)c4ccc([nH]4)c(-c4cccc(S(=O)(=O)[O-])c4F)c4nc(c(-c5cccc(S(=O)(=O)[O-])c5F)c5ccc2[nH]5)C=C4)C=C3)cc1)N1C(=O)/C(=C\c2cccs2)SC1=S
REMARK SMILES IDX 11 1 10 2 9 3 8 4 7 5 6 6 4 7 5 8 3 9 2 10 1 11 81 12 82 13
REMARK SMILES IDX 92 14 83 15 84 16 91 17 93 18 85 19 86 20 87 21 90 22 88 23
REMARK SMILES IDX 89 24 12 25 13 26 14 27 15 28 16 29 17 30 18 31 19 32 80 33
REMARK SMILES IDX 20 34 79 35 21 36 22 37 23 38 73 39 24 40 78 41 72 42 74 43
REMARK SMILES IDX 25 44 77 45 71 46 70 47 26 49 58 50 38 51 57 52 39 53 42 54
REMARK SMILES IDX 56 55 75 56 40 57 41 58 55 60 76 61 43 62 27 63 28 64 36 65
REMARK SMILES IDX 29 66 31 67 37 68 30 69 32 70 33 71 34 72 35 73 59 74 60 75
REMARK SMILES IDX 68 76 61 77 63 78 69 79 62 80 64 81 65 82 66 83 67 84 44 85
REMARK SMILES IDX 45 86 53 87 46 88 48 89 54 90 47 91 49 92 50 93 51 94 52 95
REMARK H PARENT 74 48 42 59
REMARK Flexibility Score: inf
ROOT
ATOM      1  C   UNL A   1      35.582  32.760  28.300  1.00  0.00     0.188 C 
ENDROOT
BRANCH   1   2
ATOM      2  C   UNL A   1      35.146  31.309  28.574  1.00  0.00     0.188 C 
BRANCH   2   3
ATOM      3  O   UNL A   1      35.425  30.275  27.654  1.00  0.00    -0.376 OA
BRANCH   3   4
ATOM      4  C   UNL A   1      34.604  29.129  27.567  1.00  0.00     0.202 C 
BRANCH   4   5
ATOM      5  C   UNL A   1      34.060  28.659  26.217  1.00  0.00     0.261 C 
BRANCH   5   6
ATOM      6  O   UNL A   1      32.675  28.283  26.182  1.00  0.00    -0.462 OA
BRANCH   6   7
ATOM      7  C   UNL A   1      31.886  28.980  25.310  1.00  0.00     0.329 C 
ATOM      8  O   UNL A   1      31.830  30.200  25.237  1.00  0.00    -0.250 OA
BRANCH   7   9
ATOM      9  C   UNL A   1      31.014  28.019  24.491  1.00  0.00     0.201 C 
BRANCH   9  10
ATOM     10  C   UNL A   1      30.160  28.874  23.533  1.00  0.00     0.034 C 
ATOM     11  C   UNL A   1      28.883  28.204  23.009  1.00  0.00     0.007 C 
ENDBRANCH   9  10
BRANCH   9  12
ATOM     12  N   UNL A   1      31.870  26.954  23.898  1.00  0.00    -0.278 N 
ATOM     13  C   UNL A   1      31.924  25.657  24.367  1.00  0.00     0.267 C 
ATOM     14  C   UNL A   1      32.757  27.164  22.870  1.00  0.00     0.149 C 
ATOM     15  O   UNL A   1      31.517  25.280  25.454  1.00  0.00    -0.268 OA
ATOM     16  C   UNL A   1      32.699  24.784  23.425  1.00  0.00     0.081 C 
ATOM     17  S   UNL A   1      32.963  25.671  21.973  1.00  0.00    -0.054 SA
ATOM     18  S   UNL A   1      33.704  28.507  22.605  1.00  0.00    -0.052 S 
ATOM     19  C   UNL A   1      33.357  23.643  23.674  1.00  0.00     0.040 C 
BRANCH  19  20
ATOM     20  C   UNL A   1      33.556  23.192  25.005  1.00  0.00     0.028 A 
ATOM     21  C   UNL A   1      34.472  23.584  25.962  1.00  0.00     0.020 A 
ATOM     22  S   UNL A   1      32.604  21.873  25.575  1.00  0.00    -0.144 S 
ATOM     23  C   UNL A   1      34.517  22.688  27.068  1.00  0.00     0.012 A 
ATOM     24  C   UNL A   1      33.563  21.702  26.975  1.00  0.00     0.065 A 
ENDBRANCH  19  20
ENDBRANCH   9  12
ENDBRANCH   7   9
ENDBRANCH   6   7
ENDBRANCH   5   6
ENDBRANCH   4   5
ENDBRANCH   3   4
ENDBRANCH   2   3
ENDBRANCH   1   2
BRANCH   1  25
ATOM     25  O   UNL A   1      34.727  33.670  27.636  1.00  0.00    -0.376 OA
BRANCH  25  26
ATOM     26  C   UNL A   1      34.634  34.993  28.137  1.00  0.00     0.202 C 
BRANCH  26  27
ATOM     27  C   UNL A   1      33.366  35.408  28.892  1.00  0.00     0.261 C 
BRANCH  27  28
ATOM     28  O   UNL A   1      32.988  34.497  29.940  1.00  0.00    -0.460 OA
BRANCH  28  29
ATOM     29  C   UNL A   1      33.157  34.956  31.209  1.00  0.00     0.338 C 
ATOM     30  O   UNL A   1      32.377  35.640  31.843  1.00  0.00    -0.246 OA
BRANCH  29  31
ATOM     31  C   UNL A   1      34.369  34.351  31.816  1.00  0.00     0.060 A 
ATOM     32  C   UNL A   1      35.552  35.097  31.781  1.00  0.00     0.016 A 
ATOM     33  C   UNL A   1      34.369  33.071  32.373  1.00  0.00     0.016 A 
ATOM     34  C   UNL A   1      36.735  34.573  32.308  1.00  0.00     0.010 A 
ATOM     35  C   UNL A   1      35.566  32.534  32.875  1.00  0.00     0.010 A 
ATOM     36  C   UNL A   1      36.756  33.280  32.842  1.00  0.00    -0.014 A 
BRANCH  36  37
ATOM     37  C   UNL A   1      38.053  32.670  33.235  1.00  0.00     0.031 A 
ATOM     38  C   UNL A   1      38.609  31.546  32.409  1.00  0.00     0.074 A 
ATOM     39  C   UNL A   1      38.745  33.123  34.298  1.00  0.00     0.049 A 
ATOM     40  N   UNL A   1      39.679  30.821  32.606  1.00  0.00    -0.248 NA
ATOM     41  C   UNL A   1      37.869  31.209  31.182  1.00  0.00     0.031 C 
ATOM     42  C   UNL A   1      38.374  34.269  35.123  1.00  0.00     0.029 A 
ATOM     43  N   UNL A   1      39.905  32.656  34.872  1.00  0.00    -0.354 N 
ATOM     44  C   UNL A   1      39.731  29.927  31.543  1.00  0.00     0.074 A 
ATOM     45  C   UNL A   1      38.594  30.213  30.695  1.00  0.00     0.031 C 
ATOM     46  C   UNL A   1      39.267  34.395  36.121  1.00  0.00     0.029 A 
ATOM     47  C   UNL A   1      40.246  33.312  36.032  1.00  0.00     0.049 A 
ATOM     48  H   UNL A   1      40.438  31.921  34.491  1.00  0.00     0.167 HD
ATOM     49  C   UNL A   1      40.636  28.950  31.299  1.00  0.00     0.034 A 
ATOM     50  C   UNL A   1      41.208  33.041  36.939  1.00  0.00     0.034 A 
ATOM     51  C   UNL A   1      41.743  28.637  32.162  1.00  0.00     0.049 A 
ATOM     52  C   UNL A   1      42.122  31.859  36.716  1.00  0.00     0.074 A 
ATOM     53  C   UNL A   1      42.693  27.641  32.016  1.00  0.00     0.029 A 
ATOM     54  N   UNL A   1      42.031  29.295  33.347  1.00  0.00    -0.354 N 
ATOM     55  N   UNL A   1      42.193  31.051  35.686  1.00  0.00    -0.248 NA
ATOM     56  C   UNL A   1      43.098  31.558  37.776  1.00  0.00     0.031 C 
ATOM     57  C   UNL A   1      43.528  27.669  33.137  1.00  0.00     0.029 A 
ATOM     58  C   UNL A   1      43.129  28.711  33.957  1.00  0.00     0.049 A 
ATOM     59  H   UNL A   1      41.529  30.063  33.703  1.00  0.00     0.167 HD
ATOM     60  C   UNL A   1      43.237  30.171  35.956  1.00  0.00     0.074 A 
ATOM     61  C   UNL A   1      43.783  30.556  37.242  1.00  0.00     0.031 C 
ATOM     62  C   UNL A   1      43.696  29.132  35.215  1.00  0.00     0.034 A 
BRANCH  49  63
ATOM     63  C   UNL A   1      40.431  28.119  30.060  1.00  0.00     0.023 A 
ATOM     64  C   UNL A   1      39.462  27.096  30.049  1.00  0.00     0.012 A 
ATOM     65  C   UNL A   1      41.198  28.359  28.903  1.00  0.00     0.148 A 
ATOM     66  C   UNL A   1      39.290  26.296  28.919  1.00  0.00     0.002 A 
ATOM     67  C   UNL A   1      40.990  27.587  27.767  1.00  0.00     0.091 A 
ATOM     68  F   UNL A   1      42.129  29.323  28.942  1.00  0.00    -0.205 F 
ATOM     69  C   UNL A   1      40.048  26.546  27.778  1.00  0.00     0.022 A 
BRANCH  67  70
ATOM     70  S   UNL A   1      41.869  27.875  26.227  1.00  0.00     0.127 S 
ATOM     71  O   UNL A   1      41.372  29.197  25.847  1.00  0.00    -0.237 OA
ATOM     72  O   UNL A   1      43.265  27.850  26.662  1.00  0.00    -0.237 OA
ATOM     73  O   UNL A   1      41.488  26.787  25.338  1.00  0.00    -0.744 OA
ENDBRANCH  67  70
ENDBRANCH  49  63
BRANCH  50  74
ATOM     74  C   UNL A   1      41.358  33.886  38.161  1.00  0.00     0.023 A 
ATOM     75  C   UNL A   1      42.346  34.889  38.201  1.00  0.00     0.012 A 
ATOM     76  C   UNL A   1      40.541  33.686  39.293  1.00  0.00     0.148 A 
ATOM     77  C   UNL A   1      42.538  35.656  39.353  1.00  0.00     0.002 A 
ATOM     78  C   UNL A   1      40.701  34.490  40.416  1.00  0.00     0.091 A 
ATOM     79  F   UNL A   1      39.624  32.710  39.249  1.00  0.00    -0.205 F 
ATOM     80  C   UNL A   1      41.711  35.464  40.455  1.00  0.00     0.022 A 
BRANCH  78  81
ATOM     81  S   UNL A   1      39.613  34.389  41.842  1.00  0.00     0.127 S 
ATOM     82  O   UNL A   1      40.224  35.353  42.754  1.00  0.00    -0.237 OA
ATOM     83  O   UNL A   1      38.333  34.806  41.272  1.00  0.00    -0.237 OA
ATOM     84  O   UNL A   1      39.657  33.000  42.277  1.00  0.00    -0.744 OA
ENDBRANCH  78  81
ENDBRANCH  50  74
BRANCH  62  85
ATOM     85  C   UNL A   1      44.873  28.348  35.739  1.00  0.00     0.023 A 
ATOM     86  C   UNL A   1      44.662  27.197  36.524  1.00  0.00     0.012 A 
ATOM     87  C   UNL A   1      46.187  28.696  35.366  1.00  0.00     0.148 A 
ATOM     88  C   UNL A   1      45.740  26.420  36.949  1.00  0.00     0.002 A 
ATOM     89  C   UNL A   1      47.252  27.890  35.749  1.00  0.00     0.091 A 
ATOM     90  F   UNL A   1      46.369  29.803  34.631  1.00  0.00    -0.205 F 
ATOM     91  C   UNL A   1      47.033  26.758  36.551  1.00  0.00     0.022 A 
BRANCH  89  92
ATOM     92  S   UNL A   1      48.937  28.185  35.202  1.00  0.00     0.127 S 
ATOM     93  O   UNL A   1      48.797  28.111  33.749  1.00  0.00    -0.237 OA
ATOM     94  O   UNL A   1      49.200  29.527  35.723  1.00  0.00    -0.237 OA
ATOM     95  O   UNL A   1      49.748  27.133  35.800  1.00  0.00    -0.744 OA
ENDBRANCH  89  92
ENDBRANCH  62  85
ENDBRANCH  36  37
ENDBRANCH  29  31
ENDBRANCH  28  29
ENDBRANCH  27  28
ENDBRANCH  26  27
ENDBRANCH  25  26
ENDBRANCH   1  25
TORSDOF 23
ENDMDL
