MODEL 1
REMARK VINA RESULT:     -10.3      0.000      0.000
REMARK SMILES Cc1cs/c(=N\S(=O)(=O)c2ccc(/C=C/C(=O)OCCOCCOCCOC(=O)c3ccc(-c4c5nc(c(-c6cccc(S(=O)(=O)[O-])c6F)c6ccc([nH]6)c(-c6cccc(S(=O)(=O)[O-])c6F)c6nc(c(-c7cccc(S(=O)(=O)[O-])c7F)c7ccc4[nH]7)C=C6)C=C5)cc3)cc2)[nH]1
REMARK SMILES IDX 22 1 21 2 20 3 19 4 18 5 16 6 17 7 15 8 14 9 13 10 10 11
REMARK SMILES IDX 11 12 94 13 12 14 93 15 7 16 8 17 9 18 6 19 1 20 2 21 3 22
REMARK SMILES IDX 95 23 4 24 5 25 23 27 24 28 25 29 26 30 27 31 28 32 29 33
REMARK SMILES IDX 30 34 31 35 92 36 32 37 91 38 33 39 34 40 35 41 85 42 36 43
REMARK SMILES IDX 90 44 84 45 86 46 37 47 89 48 83 49 82 50 38 52 70 53 50 54
REMARK SMILES IDX 69 55 51 56 54 57 68 58 87 59 52 60 53 61 67 63 88 64 55 65
REMARK SMILES IDX 39 66 40 67 48 68 41 69 43 70 49 71 42 72 44 73 45 74 46 75
REMARK SMILES IDX 47 76 71 77 72 78 80 79 73 80 75 81 81 82 74 83 76 84 77 85
REMARK SMILES IDX 78 86 79 87 56 88 57 89 65 90 58 91 60 92 66 93 59 94 61 95
REMARK SMILES IDX 62 96 63 97 64 98
REMARK H PARENT 95 26 86 51 54 62
REMARK Flexibility Score: inf
ROOT
ATOM      1  C   UNL A   1      35.479  16.291  25.355  1.00  0.00     0.188 C 
ENDROOT
BRANCH   1   2
ATOM      2  O   UNL A   1      34.246  15.801  25.828  1.00  0.00    -0.376 OA
BRANCH   2   3
ATOM      3  C   UNL A   1      33.105  15.771  24.990  1.00  0.00     0.202 C 
BRANCH   3   4
ATOM      4  C   UNL A   1      31.926  16.764  25.028  1.00  0.00     0.261 C 
BRANCH   4   5
ATOM      5  O   UNL A   1      32.225  18.165  25.035  1.00  0.00    -0.460 OA
BRANCH   5   6
ATOM      6  C   UNL A   1      32.265  18.749  23.812  1.00  0.00     0.330 C 
ATOM      7  O   UNL A   1      32.213  18.174  22.736  1.00  0.00    -0.247 OA
BRANCH   6   8
ATOM      8  C   UNL A   1      32.277  20.224  23.884  1.00  0.00     0.094 C 
ATOM      9  C   UNL A   1      32.310  21.071  22.843  1.00  0.00     0.015 C 
BRANCH   9  10
ATOM     10  C   UNL A   1      32.252  22.535  23.012  1.00  0.00    -0.025 A 
ATOM     11  C   UNL A   1      32.159  25.289  23.552  1.00  0.00     0.089 A 
ATOM     12  C   UNL A   1      33.267  24.747  22.898  1.00  0.00     0.023 A 
ATOM     13  C   UNL A   1      31.065  24.484  23.874  1.00  0.00     0.023 A 
ATOM     14  C   UNL A   1      33.306  23.376  22.622  1.00  0.00     0.009 A 
ATOM     15  C   UNL A   1      31.114  23.112  23.596  1.00  0.00     0.009 A 
BRANCH  11  16
ATOM     16  S   UNL A   1      32.216  27.017  24.001  1.00  0.00     0.285 S 
ATOM     17  O   UNL A   1      30.981  27.279  24.701  1.00  0.00    -0.199 OA
ATOM     18  O   UNL A   1      32.557  27.708  22.766  1.00  0.00    -0.199 OA
BRANCH  16  19
ATOM     19  N   UNL A   1      33.453  27.150  25.035  1.00  0.00    -0.130 NA
ATOM     20  C   UNL A   1      35.694  29.939  28.306  1.00  0.00     0.065 C 
ATOM     21  C   UNL A   1      34.643  29.637  27.295  1.00  0.00     0.024 A 
ATOM     22  C   UNL A   1      33.637  30.454  26.937  1.00  0.00     0.089 A 
ATOM     23  N   UNL A   1      34.625  28.430  26.625  1.00  0.00    -0.334 N 
ATOM     24  S   UNL A   1      32.616  29.714  25.722  1.00  0.00    -0.104 S 
ATOM     25  C   UNL A   1      33.608  28.229  25.720  1.00  0.00     0.199 A 
ATOM     26  H   UNL A   1      35.311  27.741  26.789  1.00  0.00     0.169 HD
ENDBRANCH  16  19
ENDBRANCH  11  16
ENDBRANCH   9  10
ENDBRANCH   6   8
ENDBRANCH   5   6
ENDBRANCH   4   5
ENDBRANCH   3   4
ENDBRANCH   2   3
ENDBRANCH   1   2
BRANCH   1  27
ATOM     27  C   UNL A   1      35.464  17.648  24.628  1.00  0.00     0.188 C 
BRANCH  27  28
ATOM     28  O   UNL A   1      36.416  18.633  24.969  1.00  0.00    -0.376 OA
BRANCH  28  29
ATOM     29  C   UNL A   1      36.077  20.010  24.901  1.00  0.00     0.202 C 
BRANCH  29  30
ATOM     30  C   UNL A   1      37.072  21.171  24.687  1.00  0.00     0.261 C 
BRANCH  30  31
ATOM     31  O   UNL A   1      37.549  21.868  25.838  1.00  0.00    -0.460 OA
BRANCH  31  32
ATOM     32  C   UNL A   1      38.835  21.609  26.183  1.00  0.00     0.338 C 
ATOM     33  O   UNL A   1      39.458  20.580  25.986  1.00  0.00    -0.246 OA
BRANCH  32  34
ATOM     34  C   UNL A   1      39.449  22.849  26.688  1.00  0.00     0.060 A 
ATOM     35  C   UNL A   1      38.974  24.077  26.208  1.00  0.00     0.016 A 
ATOM     36  C   UNL A   1      40.510  22.799  27.592  1.00  0.00     0.016 A 
ATOM     37  C   UNL A   1      39.571  25.265  26.625  1.00  0.00     0.010 A 
ATOM     38  C   UNL A   1      41.122  23.991  27.990  1.00  0.00     0.010 A 
ATOM     39  C   UNL A   1      40.671  25.226  27.490  1.00  0.00    -0.014 A 
BRANCH  39  40
ATOM     40  C   UNL A   1      41.443  26.464  27.755  1.00  0.00     0.031 A 
ATOM     41  C   UNL A   1      40.806  27.553  28.572  1.00  0.00     0.074 A 
ATOM     42  C   UNL A   1      42.689  26.618  27.271  1.00  0.00     0.049 A 
ATOM     43  N   UNL A   1      41.275  28.733  28.887  1.00  0.00    -0.248 NA
ATOM     44  C   UNL A   1      39.461  27.278  29.102  1.00  0.00     0.031 C 
ATOM     45  C   UNL A   1      43.414  25.630  26.475  1.00  0.00     0.029 A 
ATOM     46  N   UNL A   1      43.550  27.683  27.358  1.00  0.00    -0.354 N 
ATOM     47  C   UNL A   1      40.272  29.354  29.622  1.00  0.00     0.074 A 
ATOM     48  C   UNL A   1      39.166  28.423  29.699  1.00  0.00     0.031 C 
ATOM     49  C   UNL A   1      44.602  26.149  26.118  1.00  0.00     0.029 A 
ATOM     50  C   UNL A   1      44.707  27.513  26.634  1.00  0.00     0.049 A 
ATOM     51  H   UNL A   1      43.359  28.491  27.888  1.00  0.00     0.167 HD
ATOM     52  C   UNL A   1      40.275  30.582  30.189  1.00  0.00     0.034 A 
ATOM     53  C   UNL A   1      45.718  28.371  26.393  1.00  0.00     0.034 A 
ATOM     54  C   UNL A   1      41.379  31.501  30.119  1.00  0.00     0.049 A 
ATOM     55  C   UNL A   1      45.682  29.746  27.008  1.00  0.00     0.074 A 
ATOM     56  C   UNL A   1      41.496  32.750  30.703  1.00  0.00     0.029 A 
ATOM     57  N   UNL A   1      42.549  31.280  29.409  1.00  0.00    -0.354 N 
ATOM     58  N   UNL A   1      44.778  30.278  27.796  1.00  0.00    -0.248 NA
ATOM     59  C   UNL A   1      46.823  30.630  26.727  1.00  0.00     0.031 C 
ATOM     60  C   UNL A   1      42.720  33.302  30.312  1.00  0.00     0.029 A 
ATOM     61  C   UNL A   1      43.387  32.377  29.524  1.00  0.00     0.049 A 
ATOM     62  H   UNL A   1      42.754  30.464  28.899  1.00  0.00     0.167 HD
ATOM     63  C   UNL A   1      45.259  31.538  28.135  1.00  0.00     0.074 A 
ATOM     64  C   UNL A   1      46.543  31.684  27.482  1.00  0.00     0.031 C 
ATOM     65  C   UNL A   1      44.685  32.493  28.910  1.00  0.00     0.034 A 
BRANCH  52  66
ATOM     66  C   UNL A   1      39.043  31.005  30.947  1.00  0.00     0.023 A 
ATOM     67  C   UNL A   1      38.899  30.655  32.305  1.00  0.00     0.012 A 
ATOM     68  C   UNL A   1      38.053  31.795  30.328  1.00  0.00     0.148 A 
ATOM     69  C   UNL A   1      37.774  31.056  33.026  1.00  0.00     0.002 A 
ATOM     70  C   UNL A   1      36.960  32.229  31.065  1.00  0.00     0.091 A 
ATOM     71  F   UNL A   1      38.198  32.098  29.030  1.00  0.00    -0.205 F 
ATOM     72  C   UNL A   1      36.812  31.850  32.410  1.00  0.00     0.022 A 
BRANCH  70  73
ATOM     73  S   UNL A   1      35.707  33.323  30.387  1.00  0.00     0.127 S 
ATOM     74  O   UNL A   1      35.506  34.262  31.490  1.00  0.00    -0.237 OA
ATOM     75  O   UNL A   1      36.390  33.887  29.223  1.00  0.00    -0.237 OA
ATOM     76  O   UNL A   1      34.563  32.479  30.072  1.00  0.00    -0.744 OA
ENDBRANCH  70  73
ENDBRANCH  52  66
BRANCH  53  77
ATOM     77  C   UNL A   1      46.866  27.950  25.540  1.00  0.00     0.023 A 
ATOM     78  C   UNL A   1      46.792  28.111  24.143  1.00  0.00     0.012 A 
ATOM     79  C   UNL A   1      48.029  27.394  26.106  1.00  0.00     0.148 A 
ATOM     80  C   UNL A   1      47.842  27.695  23.323  1.00  0.00     0.002 A 
ATOM     81  C   UNL A   1      49.094  27.034  25.289  1.00  0.00     0.091 A 
ATOM     82  F   UNL A   1      48.074  27.235  27.437  1.00  0.00    -0.205 F 
ATOM     83  C   UNL A   1      48.995  27.167  23.895  1.00  0.00     0.022 A 
BRANCH  81  84
ATOM     84  S   UNL A   1      50.663  26.455  25.944  1.00  0.00     0.127 S 
ATOM     85  O   UNL A   1      51.002  27.515  26.891  1.00  0.00    -0.237 OA
ATOM     86  O   UNL A   1      50.281  25.181  26.553  1.00  0.00    -0.237 OA
ATOM     87  O   UNL A   1      51.549  26.331  24.794  1.00  0.00    -0.744 OA
ENDBRANCH  81  84
ENDBRANCH  53  77
BRANCH  65  88
ATOM     88  C   UNL A   1      45.455  33.769  29.142  1.00  0.00     0.023 A 
ATOM     89  C   UNL A   1      46.330  33.878  30.240  1.00  0.00     0.012 A 
ATOM     90  C   UNL A   1      45.365  34.835  28.223  1.00  0.00     0.148 A 
ATOM     91  C   UNL A   1      47.075  35.040  30.441  1.00  0.00     0.002 A 
ATOM     92  C   UNL A   1      46.150  35.968  28.399  1.00  0.00     0.091 A 
ATOM     93  F   UNL A   1      44.517  34.720  27.191  1.00  0.00    -0.205 F 
ATOM     94  C   UNL A   1      46.994  36.079  29.516  1.00  0.00     0.022 A 
BRANCH  92  95
ATOM     95  S   UNL A   1      46.188  37.312  27.208  1.00  0.00     0.127 S 
ATOM     96  O   UNL A   1      47.156  38.224  27.819  1.00  0.00    -0.237 OA
ATOM     97  O   UNL A   1      46.663  36.640  25.998  1.00  0.00    -0.237 OA
ATOM     98  O   UNL A   1      44.824  37.817  27.125  1.00  0.00    -0.744 OA
ENDBRANCH  92  95
ENDBRANCH  65  88
ENDBRANCH  39  40
ENDBRANCH  32  34
ENDBRANCH  31  32
ENDBRANCH  30  31
ENDBRANCH  29  30
ENDBRANCH  28  29
ENDBRANCH  27  28
ENDBRANCH   1  27
TORSDOF 23
ENDMDL
MODEL 2
REMARK VINA RESULT:     -10.2      1.759      2.048
REMARK SMILES Cc1cs/c(=N\S(=O)(=O)c2ccc(/C=C/C(=O)OCCOCCOCCOC(=O)c3ccc(-c4c5nc(c(-c6cccc(S(=O)(=O)[O-])c6F)c6ccc([nH]6)c(-c6cccc(S(=O)(=O)[O-])c6F)c6nc(c(-c7cccc(S(=O)(=O)[O-])c7F)c7ccc4[nH]7)C=C6)C=C5)cc3)cc2)[nH]1
REMARK SMILES IDX 22 1 21 2 20 3 19 4 18 5 16 6 17 7 15 8 14 9 13 10 10 11
REMARK SMILES IDX 11 12 94 13 12 14 93 15 7 16 8 17 9 18 6 19 1 20 2 21 3 22
REMARK SMILES IDX 95 23 4 24 5 25 23 27 24 28 25 29 26 30 27 31 28 32 29 33
REMARK SMILES IDX 30 34 31 35 92 36 32 37 91 38 33 39 34 40 35 41 85 42 36 43
REMARK SMILES IDX 90 44 84 45 86 46 37 47 89 48 83 49 82 50 38 52 70 53 50 54
REMARK SMILES IDX 69 55 51 56 54 57 68 58 87 59 52 60 53 61 67 63 88 64 55 65
REMARK SMILES IDX 39 66 40 67 48 68 41 69 43 70 49 71 42 72 44 73 45 74 46 75
REMARK SMILES IDX 47 76 71 77 72 78 80 79 73 80 75 81 81 82 74 83 76 84 77 85
REMARK SMILES IDX 78 86 79 87 56 88 57 89 65 90 58 91 60 92 66 93 59 94 61 95
REMARK SMILES IDX 62 96 63 97 64 98
REMARK H PARENT 95 26 86 51 54 62
REMARK Flexibility Score: inf
ROOT
ATOM      1  C   UNL A   1      35.551  16.618  25.242  1.00  0.00     0.188 C 
ENDROOT
BRANCH   1   2
ATOM      2  O   UNL A   1      34.334  16.147  25.772  1.00  0.00    -0.376 OA
BRANCH   2   3
ATOM      3  C   UNL A   1      33.182  16.031  24.957  1.00  0.00     0.202 C 
BRANCH   3   4
ATOM      4  C   UNL A   1      31.985  17.002  24.935  1.00  0.00     0.261 C 
BRANCH   4   5
ATOM      5  O   UNL A   1      32.255  18.406  25.017  1.00  0.00    -0.460 OA
BRANCH   5   6
ATOM      6  C   UNL A   1      32.320  19.049  23.825  1.00  0.00     0.330 C 
ATOM      7  O   UNL A   1      32.352  18.523  22.723  1.00  0.00    -0.247 OA
BRANCH   6   8
ATOM      8  C   UNL A   1      32.243  20.517  23.963  1.00  0.00     0.094 C 
ATOM      9  C   UNL A   1      32.682  21.424  23.076  1.00  0.00     0.015 C 
BRANCH   9  10
ATOM     10  C   UNL A   1      32.503  22.874  23.271  1.00  0.00    -0.025 A 
ATOM     11  C   UNL A   1      32.104  25.592  23.854  1.00  0.00     0.089 A 
ATOM     12  C   UNL A   1      33.392  25.120  23.591  1.00  0.00     0.023 A 
ATOM     13  C   UNL A   1      31.005  24.738  23.758  1.00  0.00     0.023 A 
ATOM     14  C   UNL A   1      33.586  23.768  23.291  1.00  0.00     0.009 A 
ATOM     15  C   UNL A   1      31.209  23.384  23.460  1.00  0.00     0.009 A 
BRANCH  11  16
ATOM     16  S   UNL A   1      31.926  27.296  24.362  1.00  0.00     0.285 S 
ATOM     17  O   UNL A   1      30.865  27.301  25.341  1.00  0.00    -0.199 OA
ATOM     18  O   UNL A   1      31.824  28.043  23.118  1.00  0.00    -0.199 OA
BRANCH  16  19
ATOM     19  N   UNL A   1      33.322  27.674  25.087  1.00  0.00    -0.130 NA
ATOM     20  C   UNL A   1      35.655  30.801  27.964  1.00  0.00     0.065 C 
ATOM     21  C   UNL A   1      34.476  30.300  27.204  1.00  0.00     0.024 A 
ATOM     22  C   UNL A   1      33.264  30.879  27.157  1.00  0.00     0.089 A 
ATOM     23  N   UNL A   1      34.550  29.138  26.461  1.00  0.00    -0.334 N 
ATOM     24  S   UNL A   1      32.157  29.964  26.157  1.00  0.00    -0.104 S 
ATOM     25  C   UNL A   1      33.409  28.740  25.804  1.00  0.00     0.199 A 
ATOM     26  H   UNL A   1      35.384  28.617  26.404  1.00  0.00     0.169 HD
ENDBRANCH  16  19
ENDBRANCH  11  16
ENDBRANCH   9  10
ENDBRANCH   6   8
ENDBRANCH   5   6
ENDBRANCH   4   5
ENDBRANCH   3   4
ENDBRANCH   2   3
ENDBRANCH   1   2
BRANCH   1  27
ATOM     27  C   UNL A   1      35.540  18.009  24.583  1.00  0.00     0.188 C 
BRANCH  27  28
ATOM     28  O   UNL A   1      36.507  18.967  24.958  1.00  0.00    -0.376 OA
BRANCH  28  29
ATOM     29  C   UNL A   1      36.191  20.350  24.933  1.00  0.00     0.202 C 
BRANCH  29  30
ATOM     30  C   UNL A   1      37.201  21.500  24.733  1.00  0.00     0.261 C 
BRANCH  30  31
ATOM     31  O   UNL A   1      37.715  22.154  25.893  1.00  0.00    -0.460 OA
BRANCH  31  32
ATOM     32  C   UNL A   1      38.989  21.830  26.227  1.00  0.00     0.338 C 
ATOM     33  O   UNL A   1      39.552  20.766  26.040  1.00  0.00    -0.246 OA
BRANCH  32  34
ATOM     34  C   UNL A   1      39.677  23.043  26.703  1.00  0.00     0.060 A 
ATOM     35  C   UNL A   1      39.357  24.272  26.113  1.00  0.00     0.016 A 
ATOM     36  C   UNL A   1      40.658  22.961  27.692  1.00  0.00     0.016 A 
ATOM     37  C   UNL A   1      40.029  25.429  26.503  1.00  0.00     0.010 A 
ATOM     38  C   UNL A   1      41.346  24.118  28.065  1.00  0.00     0.010 A 
ATOM     39  C   UNL A   1      41.052  25.352  27.455  1.00  0.00    -0.014 A 
BRANCH  39  40
ATOM     40  C   UNL A   1      41.915  26.532  27.706  1.00  0.00     0.031 A 
ATOM     41  C   UNL A   1      41.350  27.690  28.481  1.00  0.00     0.074 A 
ATOM     42  C   UNL A   1      43.178  26.574  27.246  1.00  0.00     0.049 A 
ATOM     43  N   UNL A   1      41.904  28.836  28.776  1.00  0.00    -0.248 NA
ATOM     44  C   UNL A   1      39.976  27.535  28.987  1.00  0.00     0.031 C 
ATOM     45  C   UNL A   1      43.838  25.511  26.492  1.00  0.00     0.029 A 
ATOM     46  N   UNL A   1      44.119  27.569  27.325  1.00  0.00    -0.354 N 
ATOM     47  C   UNL A   1      40.939  29.554  29.472  1.00  0.00     0.074 A 
ATOM     48  C   UNL A   1      39.761  28.716  29.549  1.00  0.00     0.031 C 
ATOM     49  C   UNL A   1      45.070  25.925  26.147  1.00  0.00     0.029 A 
ATOM     50  C   UNL A   1      45.273  27.290  26.631  1.00  0.00     0.049 A 
ATOM     51  H   UNL A   1      43.982  28.404  27.830  1.00  0.00     0.167 HD
ATOM     52  C   UNL A   1      41.027  30.793  30.008  1.00  0.00     0.034 A 
ATOM     53  C   UNL A   1      46.354  28.058  26.391  1.00  0.00     0.034 A 
ATOM     54  C   UNL A   1      42.202  31.620  29.940  1.00  0.00     0.049 A 
ATOM     55  C   UNL A   1      46.414  29.449  26.970  1.00  0.00     0.074 A 
ATOM     56  C   UNL A   1      42.406  32.871  30.494  1.00  0.00     0.029 A 
ATOM     57  N   UNL A   1      43.365  31.289  29.262  1.00  0.00    -0.354 N 
ATOM     58  N   UNL A   1      45.540  30.071  27.724  1.00  0.00    -0.248 NA
ATOM     59  C   UNL A   1      47.628  30.233  26.692  1.00  0.00     0.031 C 
ATOM     60  C   UNL A   1      43.677  33.314  30.116  1.00  0.00     0.029 A 
ATOM     61  C   UNL A   1      44.284  32.319  29.367  1.00  0.00     0.049 A 
ATOM     62  H   UNL A   1      43.515  30.445  28.777  1.00  0.00     0.167 HD
ATOM     63  C   UNL A   1      46.112  31.299  28.042  1.00  0.00     0.074 A 
ATOM     64  C   UNL A   1      47.416  31.325  27.414  1.00  0.00     0.031 C 
ATOM     65  C   UNL A   1      45.600  32.316  28.779  1.00  0.00     0.034 A 
BRANCH  52  66
ATOM     66  C   UNL A   1      39.818  31.332  30.728  1.00  0.00     0.023 A 
ATOM     67  C   UNL A   1      38.766  31.917  29.994  1.00  0.00     0.012 A 
ATOM     68  C   UNL A   1      39.701  31.211  32.127  1.00  0.00     0.148 A 
ATOM     69  C   UNL A   1      37.632  32.402  30.644  1.00  0.00     0.002 A 
ATOM     70  C   UNL A   1      38.548  31.653  32.761  1.00  0.00     0.091 A 
ATOM     71  F   UNL A   1      40.721  30.672  32.809  1.00  0.00    -0.205 F 
ATOM     72  C   UNL A   1      37.518  32.261  32.024  1.00  0.00     0.022 A 
BRANCH  70  73
ATOM     73  S   UNL A   1      38.270  31.444  34.523  1.00  0.00     0.127 S 
ATOM     74  O   UNL A   1      36.913  31.971  34.673  1.00  0.00    -0.237 OA
ATOM     75  O   UNL A   1      38.380  29.994  34.681  1.00  0.00    -0.237 OA
ATOM     76  O   UNL A   1      39.313  32.210  35.190  1.00  0.00    -0.744 OA
ENDBRANCH  70  73
ENDBRANCH  52  66
BRANCH  53  77
ATOM     77  C   UNL A   1      47.482  27.526  25.575  1.00  0.00     0.023 A 
ATOM     78  C   UNL A   1      48.442  26.689  26.176  1.00  0.00     0.012 A 
ATOM     79  C   UNL A   1      47.607  27.843  24.209  1.00  0.00     0.148 A 
ATOM     80  C   UNL A   1      49.523  26.204  25.440  1.00  0.00     0.002 A 
ATOM     81  C   UNL A   1      48.654  27.311  23.468  1.00  0.00     0.091 A 
ATOM     82  F   UNL A   1      46.691  28.653  23.659  1.00  0.00    -0.205 F 
ATOM     83  C   UNL A   1      49.625  26.506  24.085  1.00  0.00     0.022 A 
BRANCH  81  84
ATOM     84  S   UNL A   1      48.802  27.549  21.693  1.00  0.00     0.127 S 
ATOM     85  O   UNL A   1      47.416  27.805  21.309  1.00  0.00    -0.237 OA
ATOM     86  O   UNL A   1      49.688  28.710  21.620  1.00  0.00    -0.237 OA
ATOM     87  O   UNL A   1      49.381  26.315  21.176  1.00  0.00    -0.744 OA
ENDBRANCH  81  84
ENDBRANCH  53  77
BRANCH  65  88
ATOM     88  C   UNL A   1      46.464  33.533  28.996  1.00  0.00     0.023 A 
ATOM     89  C   UNL A   1      47.380  33.570  30.066  1.00  0.00     0.012 A 
ATOM     90  C   UNL A   1      46.418  34.612  28.089  1.00  0.00     0.148 A 
ATOM     91  C   UNL A   1      48.209  34.676  30.251  1.00  0.00     0.002 A 
ATOM     92  C   UNL A   1      47.286  35.686  28.249  1.00  0.00     0.091 A 
ATOM     93  F   UNL A   1      45.531  34.567  27.085  1.00  0.00    -0.205 F 
ATOM     94  C   UNL A   1      48.171  35.727  29.338  1.00  0.00     0.022 A 
BRANCH  92  95
ATOM     95  S   UNL A   1      47.378  37.037  27.068  1.00  0.00     0.127 S 
ATOM     96  O   UNL A   1      48.239  37.988  27.771  1.00  0.00    -0.237 OA
ATOM     97  O   UNL A   1      48.000  36.393  25.910  1.00  0.00    -0.237 OA
ATOM     98  O   UNL A   1      46.007  37.479  26.852  1.00  0.00    -0.744 OA
ENDBRANCH  92  95
ENDBRANCH  65  88
ENDBRANCH  39  40
ENDBRANCH  32  34
ENDBRANCH  31  32
ENDBRANCH  30  31
ENDBRANCH  29  30
ENDBRANCH  28  29
ENDBRANCH  27  28
ENDBRANCH   1  27
TORSDOF 23
ENDMDL
MODEL 3
REMARK VINA RESULT:     -10.2      0.967      7.577
REMARK SMILES Cc1cs/c(=N\S(=O)(=O)c2ccc(/C=C/C(=O)OCCOCCOCCOC(=O)c3ccc(-c4c5nc(c(-c6cccc(S(=O)(=O)[O-])c6F)c6ccc([nH]6)c(-c6cccc(S(=O)(=O)[O-])c6F)c6nc(c(-c7cccc(S(=O)(=O)[O-])c7F)c7ccc4[nH]7)C=C6)C=C5)cc3)cc2)[nH]1
REMARK SMILES IDX 22 1 21 2 20 3 19 4 18 5 16 6 17 7 15 8 14 9 13 10 10 11
REMARK SMILES IDX 11 12 94 13 12 14 93 15 7 16 8 17 9 18 6 19 1 20 2 21 3 22
REMARK SMILES IDX 95 23 4 24 5 25 23 27 24 28 25 29 26 30 27 31 28 32 29 33
REMARK SMILES IDX 30 34 31 35 92 36 32 37 91 38 33 39 34 40 35 41 85 42 36 43
REMARK SMILES IDX 90 44 84 45 86 46 37 47 89 48 83 49 82 50 38 52 70 53 50 54
REMARK SMILES IDX 69 55 51 56 54 57 68 58 87 59 52 60 53 61 67 63 88 64 55 65
REMARK SMILES IDX 39 66 40 67 48 68 41 69 43 70 49 71 42 72 44 73 45 74 46 75
REMARK SMILES IDX 47 76 71 77 72 78 80 79 73 80 75 81 81 82 74 83 76 84 77 85
REMARK SMILES IDX 78 86 79 87 56 88 57 89 65 90 58 91 60 92 66 93 59 94 61 95
REMARK SMILES IDX 62 96 63 97 64 98
REMARK H PARENT 95 26 86 51 54 62
REMARK Flexibility Score: inf
ROOT
ATOM      1  C   UNL A   1      35.436  16.154  25.082  1.00  0.00     0.188 C 
ENDROOT
BRANCH   1   2
ATOM      2  O   UNL A   1      34.373  15.921  25.976  1.00  0.00    -0.376 OA
BRANCH   2   3
ATOM      3  C   UNL A   1      33.103  15.510  25.504  1.00  0.00     0.202 C 
BRANCH   3   4
ATOM      4  C   UNL A   1      31.982  16.437  24.994  1.00  0.00     0.261 C 
BRANCH   4   5
ATOM      5  O   UNL A   1      32.158  17.851  25.141  1.00  0.00    -0.460 OA
BRANCH   5   6
ATOM      6  C   UNL A   1      32.325  18.532  23.980  1.00  0.00     0.330 C 
ATOM      7  O   UNL A   1      32.486  18.041  22.873  1.00  0.00    -0.247 OA
BRANCH   6   8
ATOM      8  C   UNL A   1      32.188  19.992  24.151  1.00  0.00     0.094 C 
ATOM      9  C   UNL A   1      32.469  20.693  25.261  1.00  0.00     0.015 C 
BRANCH   9  10
ATOM     10  C   UNL A   1      32.364  22.162  25.318  1.00  0.00    -0.025 A 
ATOM     11  C   UNL A   1      32.018  24.936  25.594  1.00  0.00     0.089 A 
ATOM     12  C   UNL A   1      33.247  24.354  25.913  1.00  0.00     0.023 A 
ATOM     13  C   UNL A   1      30.983  24.159  25.071  1.00  0.00     0.023 A 
ATOM     14  C   UNL A   1      33.419  22.973  25.765  1.00  0.00     0.009 A 
ATOM     15  C   UNL A   1      31.164  22.777  24.927  1.00  0.00     0.009 A 
BRANCH  11  16
ATOM     16  S   UNL A   1      31.807  26.678  25.927  1.00  0.00     0.285 S 
ATOM     17  O   UNL A   1      30.972  26.752  27.103  1.00  0.00    -0.199 OA
ATOM     18  O   UNL A   1      31.391  27.249  24.656  1.00  0.00    -0.199 OA
BRANCH  16  19
ATOM     19  N   UNL A   1      33.286  27.226  26.289  1.00  0.00    -0.130 NA
ATOM     20  C   UNL A   1      35.930  30.991  27.818  1.00  0.00     0.065 C 
ATOM     21  C   UNL A   1      34.664  30.313  27.420  1.00  0.00     0.024 A 
ATOM     22  C   UNL A   1      33.440  30.868  27.421  1.00  0.00     0.089 A 
ATOM     23  N   UNL A   1      34.662  28.995  27.008  1.00  0.00    -0.334 N 
ATOM     24  S   UNL A   1      32.222  29.727  26.892  1.00  0.00    -0.104 S 
ATOM     25  C   UNL A   1      33.446  28.444  26.675  1.00  0.00     0.199 A 
ATOM     26  H   UNL A   1      35.495  28.472  26.955  1.00  0.00     0.169 HD
ENDBRANCH  16  19
ENDBRANCH  11  16
ENDBRANCH   9  10
ENDBRANCH   6   8
ENDBRANCH   5   6
ENDBRANCH   4   5
ENDBRANCH   3   4
ENDBRANCH   2   3
ENDBRANCH   1   2
BRANCH   1  27
ATOM     27  C   UNL A   1      35.509  17.543  24.421  1.00  0.00     0.188 C 
BRANCH  27  28
ATOM     28  O   UNL A   1      36.420  18.503  24.912  1.00  0.00    -0.376 OA
BRANCH  28  29
ATOM     29  C   UNL A   1      36.091  19.883  24.883  1.00  0.00     0.202 C 
BRANCH  29  30
ATOM     30  C   UNL A   1      37.091  21.042  24.685  1.00  0.00     0.261 C 
BRANCH  30  31
ATOM     31  O   UNL A   1      37.534  21.754  25.841  1.00  0.00    -0.460 OA
BRANCH  31  32
ATOM     32  C   UNL A   1      38.828  21.550  26.189  1.00  0.00     0.338 C 
ATOM     33  O   UNL A   1      39.510  20.569  25.952  1.00  0.00    -0.246 OA
BRANCH  32  34
ATOM     34  C   UNL A   1      39.367  22.797  26.759  1.00  0.00     0.060 A 
ATOM     35  C   UNL A   1      38.672  23.993  26.535  1.00  0.00     0.016 A 
ATOM     36  C   UNL A   1      40.568  22.793  27.469  1.00  0.00     0.016 A 
ATOM     37  C   UNL A   1      39.185  25.197  27.014  1.00  0.00     0.010 A 
ATOM     38  C   UNL A   1      41.091  24.005  27.928  1.00  0.00     0.010 A 
ATOM     39  C   UNL A   1      40.415  25.214  27.681  1.00  0.00    -0.014 A 
BRANCH  39  40
ATOM     40  C   UNL A   1      41.067  26.509  27.992  1.00  0.00     0.031 A 
ATOM     41  C   UNL A   1      42.465  26.753  27.496  1.00  0.00     0.074 A 
ATOM     42  C   UNL A   1      40.427  27.450  28.709  1.00  0.00     0.049 A 
ATOM     43  N   UNL A   1      43.242  27.786  27.689  1.00  0.00    -0.248 NA
ATOM     44  C   UNL A   1      43.069  25.688  26.678  1.00  0.00     0.031 C 
ATOM     45  C   UNL A   1      39.069  27.333  29.235  1.00  0.00     0.029 A 
ATOM     46  N   UNL A   1      40.853  28.681  29.141  1.00  0.00    -0.354 N 
ATOM     47  C   UNL A   1      44.437  27.485  27.046  1.00  0.00     0.074 A 
ATOM     48  C   UNL A   1      44.285  26.169  26.465  1.00  0.00     0.031 C 
ATOM     49  C   UNL A   1      38.784  28.436  29.950  1.00  0.00     0.029 A 
ATOM     50  C   UNL A   1      39.948  29.320  29.955  1.00  0.00     0.049 A 
ATOM     51  H   UNL A   1      41.724  29.068  28.893  1.00  0.00     0.167 HD
ATOM     52  C   UNL A   1      45.556  28.239  26.940  1.00  0.00     0.034 A 
ATOM     53  C   UNL A   1      40.059  30.472  30.646  1.00  0.00     0.034 A 
ATOM     54  C   UNL A   1      45.701  29.552  27.509  1.00  0.00     0.049 A 
ATOM     55  C   UNL A   1      41.329  31.278  30.539  1.00  0.00     0.074 A 
ATOM     56  C   UNL A   1      46.778  30.416  27.416  1.00  0.00     0.029 A 
ATOM     57  N   UNL A   1      44.749  30.184  28.295  1.00  0.00    -0.354 N 
ATOM     58  N   UNL A   1      42.407  31.034  29.834  1.00  0.00    -0.248 NA
ATOM     59  C   UNL A   1      41.383  32.536  31.299  1.00  0.00     0.031 C 
ATOM     60  C   UNL A   1      46.494  31.552  28.178  1.00  0.00     0.029 A 
ATOM     61  C   UNL A   1      45.221  31.419  28.709  1.00  0.00     0.049 A 
ATOM     62  H   UNL A   1      43.868  29.810  28.525  1.00  0.00     0.167 HD
ATOM     63  C   UNL A   1      43.250  32.123  30.033  1.00  0.00     0.074 A 
ATOM     64  C   UNL A   1      42.548  33.037  30.910  1.00  0.00     0.031 C 
ATOM     65  C   UNL A   1      44.495  32.343  29.542  1.00  0.00     0.034 A 
BRANCH  52  66
ATOM     66  C   UNL A   1      46.715  27.666  26.168  1.00  0.00     0.023 A 
ATOM     67  C   UNL A   1      46.816  27.890  24.780  1.00  0.00     0.012 A 
ATOM     68  C   UNL A   1      47.734  26.949  26.828  1.00  0.00     0.148 A 
ATOM     69  C   UNL A   1      47.893  27.382  24.055  1.00  0.00     0.002 A 
ATOM     70  C   UNL A   1      48.828  26.488  26.107  1.00  0.00     0.091 A 
ATOM     71  F   UNL A   1      47.609  26.727  28.144  1.00  0.00    -0.205 F 
ATOM     72  C   UNL A   1      48.902  26.691  24.719  1.00  0.00     0.022 A 
BRANCH  70  73
ATOM     73  S   UNL A   1      50.219  25.658  26.882  1.00  0.00     0.127 S 
ATOM     74  O   UNL A   1      51.165  25.566  25.771  1.00  0.00    -0.237 OA
ATOM     75  O   UNL A   1      50.599  26.609  27.928  1.00  0.00    -0.237 OA
ATOM     76  O   UNL A   1      49.708  24.386  27.373  1.00  0.00    -0.744 OA
ENDBRANCH  70  73
ENDBRANCH  52  66
BRANCH  53  77
ATOM     77  C   UNL A   1      38.927  30.947  31.491  1.00  0.00     0.023 A 
ATOM     78  C   UNL A   1      38.872  30.583  32.851  1.00  0.00     0.012 A 
ATOM     79  C   UNL A   1      37.907  31.758  30.956  1.00  0.00     0.148 A 
ATOM     80  C   UNL A   1      37.805  30.990  33.653  1.00  0.00     0.002 A 
ATOM     81  C   UNL A   1      36.878  32.206  31.774  1.00  0.00     0.091 A 
ATOM     82  F   UNL A   1      37.970  32.080  29.656  1.00  0.00    -0.205 F 
ATOM     83  C   UNL A   1      36.814  31.809  33.118  1.00  0.00     0.022 A 
BRANCH  81  84
ATOM     84  S   UNL A   1      35.623  33.359  31.204  1.00  0.00     0.127 S 
ATOM     85  O   UNL A   1      34.392  32.625  31.487  1.00  0.00    -0.237 OA
ATOM     86  O   UNL A   1      35.865  34.515  32.067  1.00  0.00    -0.237 OA
ATOM     87  O   UNL A   1      35.909  33.589  29.794  1.00  0.00    -0.744 OA
ENDBRANCH  81  84
ENDBRANCH  53  77
BRANCH  65  88
ATOM     88  C   UNL A   1      45.172  33.643  29.896  1.00  0.00     0.023 A 
ATOM     89  C   UNL A   1      45.982  33.730  31.046  1.00  0.00     0.012 A 
ATOM     90  C   UNL A   1      45.063  34.761  29.043  1.00  0.00     0.148 A 
ATOM     91  C   UNL A   1      46.642  34.918  31.360  1.00  0.00     0.002 A 
ATOM     92  C   UNL A   1      45.767  35.924  29.334  1.00  0.00     0.091 A 
ATOM     93  F   UNL A   1      44.277  34.666  27.961  1.00  0.00    -0.205 F 
ATOM     94  C   UNL A   1      46.544  36.010  30.500  1.00  0.00     0.022 A 
BRANCH  92  95
ATOM     95  S   UNL A   1      45.782  37.345  28.234  1.00  0.00     0.127 S 
ATOM     96  O   UNL A   1      44.390  37.789  28.304  1.00  0.00    -0.237 OA
ATOM     97  O   UNL A   1      46.740  38.234  28.892  1.00  0.00    -0.237 OA
ATOM     98  O   UNL A   1      46.212  36.845  26.935  1.00  0.00    -0.744 OA
ENDBRANCH  92  95
ENDBRANCH  65  88
ENDBRANCH  39  40
ENDBRANCH  32  34
ENDBRANCH  31  32
ENDBRANCH  30  31
ENDBRANCH  29  30
ENDBRANCH  28  29
ENDBRANCH  27  28
ENDBRANCH   1  27
TORSDOF 23
ENDMDL
