MODEL 1
REMARK VINA RESULT:     -10.8      0.000      0.000
REMARK SMILES O=C(COc1ccc(Br)cc1/C=C1\C(=O)Nc2ccc(Br)cc21)OCCOCCOCCOC(=O)c1ccc(-c2c3nc(c(-c4cccc(S(=O)(=O)[O-])c4F)c4ccc([nH]4)c(-c4cccc(S(=O)(=O)[O-])c4F)c4nc(c(-c5cccc(S(=O)(=O)[O-])c5F)c5ccc2[nH]5)C=C4)C=C3)cc1
REMARK SMILES IDX 28 1 27 2 26 3 25 4 24 5 2 6 1 7 3 8 4 9 5 10 6 11 11 12
REMARK SMILES IDX 7 13 10 14 8 15 9 16 12 17 13 18 14 19 23 20 15 21 16 22
REMARK SMILES IDX 17 23 22 24 18 26 20 27 19 28 21 29 29 30 30 31 31 32 32 33
REMARK SMILES IDX 33 34 34 35 35 36 36 37 37 38 98 39 38 40 97 41 39 42 40 43
REMARK SMILES IDX 41 44 91 45 42 46 96 47 90 48 92 49 43 50 95 51 89 52 88 53
REMARK SMILES IDX 44 55 76 56 56 57 75 58 57 59 60 60 74 61 93 62 58 63 59 64
REMARK SMILES IDX 73 66 94 67 61 68 45 69 46 70 54 71 47 72 49 73 55 74 48 75
REMARK SMILES IDX 50 76 51 77 52 78 53 79 77 80 78 81 86 82 79 83 81 84 87 85
REMARK SMILES IDX 80 86 82 87 83 88 84 89 85 90 62 91 63 92 71 93 64 94 66 95
REMARK SMILES IDX 72 96 65 97 67 98 68 99 69 100 70 101
REMARK H PARENT 16 25 92 54 60 65
REMARK Flexibility Score: inf
ROOT
ATOM      1  C   UNL A   1      41.226  20.328  27.417  1.00  0.00     0.188 C 
ENDROOT
BRANCH   1   2
ATOM      2  O   UNL A   1      40.061  21.143  27.421  1.00  0.00    -0.376 OA
BRANCH   2   3
ATOM      3  C   UNL A   1      39.553  21.539  26.161  1.00  0.00     0.202 C 
BRANCH   3   4
ATOM      4  C   UNL A   1      38.948  22.938  26.195  1.00  0.00     0.261 C 
BRANCH   4   5
ATOM      5  O   UNL A   1      37.837  23.136  25.295  1.00  0.00    -0.461 OA
BRANCH   5   6
ATOM      6  C   UNL A   1      36.558  23.401  25.647  1.00  0.00     0.344 C 
ATOM      7  O   UNL A   1      36.332  23.975  26.711  1.00  0.00    -0.248 OA
BRANCH   6   8
ATOM      8  C   UNL A   1      35.426  22.941  24.731  1.00  0.00     0.351 C 
BRANCH   8   9
ATOM      9  O   UNL A   1      34.087  23.071  25.234  1.00  0.00    -0.481 OA
BRANCH   9  10
ATOM     10  C   UNL A   1      33.413  21.912  24.902  1.00  0.00     0.127 A 
ATOM     11  C   UNL A   1      33.993  20.700  25.317  1.00  0.00     0.048 A 
ATOM     12  C   UNL A   1      32.341  21.961  23.994  1.00  0.00     0.018 A 
ATOM     13  C   UNL A   1      33.662  19.520  24.671  1.00  0.00     0.019 A 
ATOM     14  C   UNL A   1      32.120  20.771  23.288  1.00  0.00     0.027 A 
ATOM     15  C   UNL A   1      32.762  19.572  23.620  1.00  0.00     0.018 A 
ATOM     16  Br  UNL A   1      32.414  18.015  22.606  1.00  0.00    -0.051 Br
BRANCH  12  17
ATOM     17  C   UNL A   1      31.607  23.237  23.727  1.00  0.00     0.026 C 
ATOM     18  C   UNL A   1      31.927  24.251  22.896  1.00  0.00     0.050 C 
ATOM     19  C   UNL A   1      33.187  24.383  22.090  1.00  0.00     0.256 C 
ATOM     20  C   UNL A   1      31.401  25.622  23.005  1.00  0.00     0.012 A 
ATOM     21  O   UNL A   1      33.688  23.570  21.336  1.00  0.00    -0.269 OA
ATOM     22  N   UNL A   1      33.591  25.685  22.315  1.00  0.00    -0.321 N 
ATOM     23  C   UNL A   1      32.528  26.437  22.811  1.00  0.00     0.049 A 
ATOM     24  C   UNL A   1      30.151  26.197  23.136  1.00  0.00     0.026 A 
ATOM     25  H   UNL A   1      34.497  26.032  22.149  1.00  0.00     0.170 HD
ATOM     26  C   UNL A   1      32.501  27.806  22.936  1.00  0.00     0.028 A 
ATOM     27  C   UNL A   1      30.089  27.599  23.160  1.00  0.00     0.018 A 
ATOM     28  C   UNL A   1      31.251  28.395  23.121  1.00  0.00     0.018 A 
ATOM     29  Br  UNL A   1      28.401  28.461  23.160  1.00  0.00    -0.051 Br
ENDBRANCH  12  17
ENDBRANCH   9  10
ENDBRANCH   8   9
ENDBRANCH   6   8
ENDBRANCH   5   6
ENDBRANCH   4   5
ENDBRANCH   3   4
ENDBRANCH   2   3
ENDBRANCH   1   2
BRANCH   1  30
ATOM     30  C   UNL A   1      41.482  19.652  26.058  1.00  0.00     0.188 C 
BRANCH  30  31
ATOM     31  O   UNL A   1      42.541  20.103  25.213  1.00  0.00    -0.376 OA
BRANCH  31  32
ATOM     32  C   UNL A   1      43.875  20.145  25.694  1.00  0.00     0.202 C 
BRANCH  32  33
ATOM     33  C   UNL A   1      44.603  21.490  25.602  1.00  0.00     0.261 C 
BRANCH  33  34
ATOM     34  O   UNL A   1      43.965  22.551  26.329  1.00  0.00    -0.460 OA
BRANCH  34  35
ATOM     35  C   UNL A   1      43.316  23.474  25.574  1.00  0.00     0.338 C 
ATOM     36  O   UNL A   1      43.165  23.443  24.364  1.00  0.00    -0.246 OA
BRANCH  35  37
ATOM     37  C   UNL A   1      42.659  24.481  26.446  1.00  0.00     0.060 A 
ATOM     38  C   UNL A   1      41.886  24.116  27.552  1.00  0.00     0.016 A 
ATOM     39  C   UNL A   1      42.850  25.837  26.148  1.00  0.00     0.016 A 
ATOM     40  C   UNL A   1      41.352  25.112  28.383  1.00  0.00     0.010 A 
ATOM     41  C   UNL A   1      42.315  26.829  26.978  1.00  0.00     0.010 A 
ATOM     42  C   UNL A   1      41.586  26.476  28.121  1.00  0.00    -0.014 A 
BRANCH  42  43
ATOM     43  C   UNL A   1      41.258  27.494  29.154  1.00  0.00     0.031 A 
ATOM     44  C   UNL A   1      40.067  28.403  29.061  1.00  0.00     0.074 A 
ATOM     45  C   UNL A   1      42.094  27.617  30.205  1.00  0.00     0.049 A 
ATOM     46  N   UNL A   1      39.594  29.215  29.971  1.00  0.00    -0.248 NA
ATOM     47  C   UNL A   1      39.318  28.419  27.796  1.00  0.00     0.031 C 
ATOM     48  C   UNL A   1      43.342  26.870  30.373  1.00  0.00     0.029 A 
ATOM     49  N   UNL A   1      42.024  28.406  31.327  1.00  0.00    -0.354 N 
ATOM     50  C   UNL A   1      38.494  29.840  29.399  1.00  0.00     0.074 A 
ATOM     51  C   UNL A   1      38.378  29.325  28.050  1.00  0.00     0.031 C 
ATOM     52  C   UNL A   1      43.905  27.213  31.542  1.00  0.00     0.029 A 
ATOM     53  C   UNL A   1      43.059  28.202  32.207  1.00  0.00     0.049 A 
ATOM     54  H   UNL A   1      41.302  29.056  31.484  1.00  0.00     0.167 HD
ATOM     55  C   UNL A   1      37.648  30.733  29.961  1.00  0.00     0.034 A 
ATOM     56  C   UNL A   1      43.295  28.719  33.429  1.00  0.00     0.034 A 
ATOM     57  C   UNL A   1      37.740  31.220  31.314  1.00  0.00     0.049 A 
ATOM     58  C   UNL A   1      42.310  29.667  34.046  1.00  0.00     0.074 A 
ATOM     59  C   UNL A   1      36.846  32.037  31.989  1.00  0.00     0.029 A 
ATOM     60  N   UNL A   1      38.777  30.956  32.190  1.00  0.00    -0.354 N 
ATOM     61  N   UNL A   1      41.165  30.085  33.566  1.00  0.00    -0.248 NA
ATOM     62  C   UNL A   1      42.625  30.187  35.386  1.00  0.00     0.031 C 
ATOM     63  C   UNL A   1      37.344  32.269  33.272  1.00  0.00     0.029 A 
ATOM     64  C   UNL A   1      38.549  31.599  33.396  1.00  0.00     0.049 A 
ATOM     65  H   UNL A   1      39.560  30.395  31.987  1.00  0.00     0.167 HD
ATOM     66  C   UNL A   1      40.612  30.893  34.553  1.00  0.00     0.074 A 
ATOM     67  C   UNL A   1      41.542  30.902  35.662  1.00  0.00     0.031 C 
ATOM     68  C   UNL A   1      39.440  31.570  34.524  1.00  0.00     0.034 A 
BRANCH  55  69
ATOM     69  C   UNL A   1      36.449  31.185  29.176  1.00  0.00     0.023 A 
ATOM     70  C   UNL A   1      36.375  32.544  28.814  1.00  0.00     0.012 A 
ATOM     71  C   UNL A   1      35.536  30.265  28.626  1.00  0.00     0.148 A 
ATOM     72  C   UNL A   1      35.419  32.982  27.901  1.00  0.00     0.002 A 
ATOM     73  C   UNL A   1      34.591  30.708  27.708  1.00  0.00     0.091 A 
ATOM     74  F   UNL A   1      35.626  28.978  28.992  1.00  0.00    -0.205 F 
ATOM     75  C   UNL A   1      34.535  32.064  27.341  1.00  0.00     0.022 A 
BRANCH  73  76
ATOM     76  S   UNL A   1      33.447  29.597  26.880  1.00  0.00     0.127 S 
ATOM     77  O   UNL A   1      32.484  30.543  26.317  1.00  0.00    -0.237 OA
ATOM     78  O   UNL A   1      34.307  28.947  25.890  1.00  0.00    -0.237 OA
ATOM     79  O   UNL A   1      32.932  28.711  27.913  1.00  0.00    -0.744 OA
ENDBRANCH  73  76
ENDBRANCH  55  69
BRANCH  56  80
ATOM     80  C   UNL A   1      44.474  28.236  34.195  1.00  0.00     0.023 A 
ATOM     81  C   UNL A   1      45.675  28.966  34.124  1.00  0.00     0.012 A 
ATOM     82  C   UNL A   1      44.384  27.124  35.051  1.00  0.00     0.148 A 
ATOM     83  C   UNL A   1      46.776  28.590  34.892  1.00  0.00     0.002 A 
ATOM     84  C   UNL A   1      45.473  26.778  35.841  1.00  0.00     0.091 A 
ATOM     85  F   UNL A   1      43.225  26.453  35.097  1.00  0.00    -0.205 F 
ATOM     86  C   UNL A   1      46.672  27.504  35.756  1.00  0.00     0.022 A 
BRANCH  84  87
ATOM     87  S   UNL A   1      45.410  25.457  37.056  1.00  0.00     0.127 S 
ATOM     88  O   UNL A   1      44.229  25.824  37.834  1.00  0.00    -0.237 OA
ATOM     89  O   UNL A   1      45.246  24.279  36.205  1.00  0.00    -0.237 OA
ATOM     90  O   UNL A   1      46.675  25.518  37.776  1.00  0.00    -0.744 OA
ENDBRANCH  84  87
ENDBRANCH  56  80
BRANCH  68  91
ATOM     91  C   UNL A   1      39.052  32.391  35.723  1.00  0.00     0.023 A 
ATOM     92  C   UNL A   1      38.330  31.783  36.767  1.00  0.00     0.012 A 
ATOM     93  C   UNL A   1      39.538  33.704  35.884  1.00  0.00     0.148 A 
ATOM     94  C   UNL A   1      38.097  32.470  37.958  1.00  0.00     0.002 A 
ATOM     95  C   UNL A   1      39.330  34.371  37.086  1.00  0.00     0.091 A 
ATOM     96  F   UNL A   1      40.221  34.258  34.873  1.00  0.00    -0.205 F 
ATOM     97  C   UNL A   1      38.607  33.757  38.123  1.00  0.00     0.022 A 
BRANCH  95  98
ATOM     98  S   UNL A   1      40.014  35.997  37.427  1.00  0.00     0.127 S 
ATOM     99  O   UNL A   1      41.433  35.692  37.614  1.00  0.00    -0.237 OA
ATOM    100  O   UNL A   1      39.703  36.726  36.197  1.00  0.00    -0.237 OA
ATOM    101  O   UNL A   1      39.327  36.484  38.616  1.00  0.00    -0.744 OA
ENDBRANCH  95  98
ENDBRANCH  68  91
ENDBRANCH  42  43
ENDBRANCH  35  37
ENDBRANCH  34  35
ENDBRANCH  33  34
ENDBRANCH  32  33
ENDBRANCH  31  32
ENDBRANCH  30  31
ENDBRANCH   1  30
TORSDOF 23
ENDMDL
MODEL 2
REMARK VINA RESULT:     -10.6      5.103      6.004
REMARK SMILES O=C(COc1ccc(Br)cc1/C=C1\C(=O)Nc2ccc(Br)cc21)OCCOCCOCCOC(=O)c1ccc(-c2c3nc(c(-c4cccc(S(=O)(=O)[O-])c4F)c4ccc([nH]4)c(-c4cccc(S(=O)(=O)[O-])c4F)c4nc(c(-c5cccc(S(=O)(=O)[O-])c5F)c5ccc2[nH]5)C=C4)C=C3)cc1
REMARK SMILES IDX 28 1 27 2 26 3 25 4 24 5 2 6 1 7 3 8 4 9 5 10 6 11 11 12
REMARK SMILES IDX 7 13 10 14 8 15 9 16 12 17 13 18 14 19 23 20 15 21 16 22
REMARK SMILES IDX 17 23 22 24 18 26 20 27 19 28 21 29 29 30 30 31 31 32 32 33
REMARK SMILES IDX 33 34 34 35 35 36 36 37 37 38 98 39 38 40 97 41 39 42 40 43
REMARK SMILES IDX 41 44 91 45 42 46 96 47 90 48 92 49 43 50 95 51 89 52 88 53
REMARK SMILES IDX 44 55 76 56 56 57 75 58 57 59 60 60 74 61 93 62 58 63 59 64
REMARK SMILES IDX 73 66 94 67 61 68 45 69 46 70 54 71 47 72 49 73 55 74 48 75
REMARK SMILES IDX 50 76 51 77 52 78 53 79 77 80 78 81 86 82 79 83 81 84 87 85
REMARK SMILES IDX 80 86 82 87 83 88 84 89 85 90 62 91 63 92 71 93 64 94 66 95
REMARK SMILES IDX 72 96 65 97 67 98 68 99 69 100 70 101
REMARK H PARENT 16 25 92 54 60 65
REMARK Flexibility Score: inf
ROOT
ATOM      1  C   UNL A   1      44.036  18.630  25.407  1.00  0.00     0.188 C 
ENDROOT
BRANCH   1   2
ATOM      2  O   UNL A   1      42.624  18.791  25.396  1.00  0.00    -0.376 OA
BRANCH   2   3
ATOM      3  C   UNL A   1      42.067  19.626  26.393  1.00  0.00     0.202 C 
BRANCH   3   4
ATOM      4  C   UNL A   1      40.593  19.923  26.141  1.00  0.00     0.261 C 
BRANCH   4   5
ATOM      5  O   UNL A   1      40.112  21.143  26.746  1.00  0.00    -0.461 OA
BRANCH   5   6
ATOM      6  C   UNL A   1      39.202  21.993  26.219  1.00  0.00     0.344 C 
ATOM      7  O   UNL A   1      39.251  23.187  26.511  1.00  0.00    -0.248 OA
BRANCH   6   8
ATOM      8  C   UNL A   1      38.110  21.438  25.306  1.00  0.00     0.351 C 
BRANCH   8   9
ATOM      9  O   UNL A   1      36.960  22.271  25.086  1.00  0.00    -0.481 OA
BRANCH   9  10
ATOM     10  C   UNL A   1      35.846  21.459  25.179  1.00  0.00     0.127 A 
ATOM     11  C   UNL A   1      36.069  20.070  25.144  1.00  0.00     0.048 A 
ATOM     12  C   UNL A   1      34.561  22.018  25.070  1.00  0.00     0.018 A 
ATOM     13  C   UNL A   1      35.040  19.216  24.782  1.00  0.00     0.019 A 
ATOM     14  C   UNL A   1      33.581  21.137  24.595  1.00  0.00     0.027 A 
ATOM     15  C   UNL A   1      33.810  19.763  24.457  1.00  0.00     0.018 A 
ATOM     16  Br  UNL A   1      32.434  18.649  23.796  1.00  0.00    -0.051 Br
BRANCH  12  17
ATOM     17  C   UNL A   1      34.324  23.474  25.317  1.00  0.00     0.026 C 
ATOM     18  C   UNL A   1      33.474  24.069  26.180  1.00  0.00     0.050 C 
ATOM     19  C   UNL A   1      32.462  23.384  27.054  1.00  0.00     0.256 C 
ATOM     20  C   UNL A   1      32.998  25.458  26.066  1.00  0.00     0.012 A 
ATOM     21  O   UNL A   1      32.634  22.455  27.820  1.00  0.00    -0.269 OA
ATOM     22  N   UNL A   1      31.310  24.124  26.871  1.00  0.00    -0.321 N 
ATOM     23  C   UNL A   1      31.622  25.370  26.332  1.00  0.00     0.049 A 
ATOM     24  C   UNL A   1      33.585  26.694  25.878  1.00  0.00     0.026 A 
ATOM     25  H   UNL A   1      30.401  23.816  27.090  1.00  0.00     0.170 HD
ATOM     26  C   UNL A   1      30.763  26.439  26.227  1.00  0.00     0.028 A 
ATOM     27  C   UNL A   1      32.737  27.813  25.873  1.00  0.00     0.018 A 
ATOM     28  C   UNL A   1      31.338  27.685  25.986  1.00  0.00     0.018 A 
ATOM     29  Br  UNL A   1      33.483  29.553  25.798  1.00  0.00    -0.051 Br
ENDBRANCH  12  17
ENDBRANCH   9  10
ENDBRANCH   8   9
ENDBRANCH   6   8
ENDBRANCH   5   6
ENDBRANCH   4   5
ENDBRANCH   3   4
ENDBRANCH   2   3
ENDBRANCH   1   2
BRANCH   1  30
ATOM     30  C   UNL A   1      44.771  19.712  24.594  1.00  0.00     0.188 C 
BRANCH  30  31
ATOM     31  O   UNL A   1      45.698  20.591  25.232  1.00  0.00    -0.376 OA
BRANCH  31  32
ATOM     32  C   UNL A   1      46.271  21.673  24.515  1.00  0.00     0.202 C 
BRANCH  32  33
ATOM     33  C   UNL A   1      45.919  23.085  24.995  1.00  0.00     0.261 C 
BRANCH  33  34
ATOM     34  O   UNL A   1      44.835  23.694  24.274  1.00  0.00    -0.460 OA
BRANCH  34  35
ATOM     35  C   UNL A   1      43.613  23.595  24.858  1.00  0.00     0.338 C 
ATOM     36  O   UNL A   1      42.894  22.610  24.871  1.00  0.00    -0.246 OA
BRANCH  35  37
ATOM     37  C   UNL A   1      43.315  24.825  25.635  1.00  0.00     0.060 A 
ATOM     38  C   UNL A   1      43.452  24.880  27.024  1.00  0.00     0.016 A 
ATOM     39  C   UNL A   1      42.905  25.967  24.931  1.00  0.00     0.016 A 
ATOM     40  C   UNL A   1      43.229  26.090  27.696  1.00  0.00     0.010 A 
ATOM     41  C   UNL A   1      42.681  27.174  25.604  1.00  0.00     0.010 A 
ATOM     42  C   UNL A   1      42.870  27.255  26.989  1.00  0.00    -0.014 A 
BRANCH  42  43
ATOM     43  C   UNL A   1      42.913  28.576  27.671  1.00  0.00     0.031 A 
ATOM     44  C   UNL A   1      41.735  29.170  28.385  1.00  0.00     0.074 A 
ATOM     45  C   UNL A   1      44.064  29.277  27.612  1.00  0.00     0.049 A 
ATOM     46  N   UNL A   1      41.700  30.234  29.146  1.00  0.00    -0.248 NA
ATOM     47  C   UNL A   1      40.433  28.505  28.224  1.00  0.00     0.031 C 
ATOM     48  C   UNL A   1      45.256  28.868  26.867  1.00  0.00     0.029 A 
ATOM     49  N   UNL A   1      44.423  30.473  28.185  1.00  0.00    -0.354 N 
ATOM     50  C   UNL A   1      40.381  30.373  29.557  1.00  0.00     0.074 A 
ATOM     51  C   UNL A   1      39.638  29.290  28.946  1.00  0.00     0.031 C 
ATOM     52  C   UNL A   1      46.224  29.779  27.052  1.00  0.00     0.029 A 
ATOM     53  C   UNL A   1      45.723  30.836  27.928  1.00  0.00     0.049 A 
ATOM     54  H   UNL A   1      43.807  31.018  28.726  1.00  0.00     0.167 HD
ATOM     55  C   UNL A   1      39.853  31.299  30.391  1.00  0.00     0.034 A 
ATOM     56  C   UNL A   1      46.452  31.880  28.369  1.00  0.00     0.034 A 
ATOM     57  C   UNL A   1      40.596  32.356  31.028  1.00  0.00     0.049 A 
ATOM     58  C   UNL A   1      45.854  32.860  29.334  1.00  0.00     0.074 A 
ATOM     59  C   UNL A   1      40.148  33.259  31.979  1.00  0.00     0.029 A 
ATOM     60  N   UNL A   1      41.921  32.664  30.779  1.00  0.00    -0.354 N 
ATOM     61  N   UNL A   1      44.660  32.852  29.874  1.00  0.00    -0.248 NA
ATOM     62  C   UNL A   1      46.709  33.971  29.782  1.00  0.00     0.031 C 
ATOM     63  C   UNL A   1      41.202  34.116  32.303  1.00  0.00     0.029 A 
ATOM     64  C   UNL A   1      42.305  33.748  31.551  1.00  0.00     0.049 A 
ATOM     65  H   UNL A   1      42.504  32.186  30.146  1.00  0.00     0.167 HD
ATOM     66  C   UNL A   1      44.629  33.936  30.743  1.00  0.00     0.074 A 
ATOM     67  C   UNL A   1      45.925  34.577  30.666  1.00  0.00     0.031 C 
ATOM     68  C   UNL A   1      43.606  34.358  31.523  1.00  0.00     0.034 A 
BRANCH  55  69
ATOM     69  C   UNL A   1      38.409  31.174  30.787  1.00  0.00     0.023 A 
ATOM     70  C   UNL A   1      38.107  30.424  31.941  1.00  0.00     0.012 A 
ATOM     71  C   UNL A   1      37.405  31.946  30.173  1.00  0.00     0.148 A 
ATOM     72  C   UNL A   1      36.829  30.457  32.491  1.00  0.00     0.002 A 
ATOM     73  C   UNL A   1      36.133  31.981  30.734  1.00  0.00     0.091 A 
ATOM     74  F   UNL A   1      37.718  32.646  29.074  1.00  0.00    -0.205 F 
ATOM     75  C   UNL A   1      35.846  31.242  31.895  1.00  0.00     0.022 A 
BRANCH  73  76
ATOM     76  S   UNL A   1      34.813  33.010  30.082  1.00  0.00     0.127 S 
ATOM     77  O   UNL A   1      34.005  33.235  31.279  1.00  0.00    -0.237 OA
ATOM     78  O   UNL A   1      35.541  34.189  29.611  1.00  0.00    -0.237 OA
ATOM     79  O   UNL A   1      34.179  32.227  29.031  1.00  0.00    -0.744 OA
ENDBRANCH  73  76
ENDBRANCH  55  69
BRANCH  56  80
ATOM     80  C   UNL A   1      47.885  31.966  27.984  1.00  0.00     0.023 A 
ATOM     81  C   UNL A   1      48.759  30.937  28.384  1.00  0.00     0.012 A 
ATOM     82  C   UNL A   1      48.360  33.002  27.160  1.00  0.00     0.148 A 
ATOM     83  C   UNL A   1      50.091  30.941  27.973  1.00  0.00     0.002 A 
ATOM     84  C   UNL A   1      49.679  32.980  26.724  1.00  0.00     0.091 A 
ATOM     85  F   UNL A   1      47.502  33.964  26.795  1.00  0.00    -0.205 F 
ATOM     86  C   UNL A   1      50.548  31.956  27.136  1.00  0.00     0.022 A 
BRANCH  84  87
ATOM     87  S   UNL A   1      50.339  34.184  25.567  1.00  0.00     0.127 S 
ATOM     88  O   UNL A   1      49.142  34.567  24.820  1.00  0.00    -0.237 OA
ATOM     89  O   UNL A   1      50.856  35.211  26.472  1.00  0.00    -0.237 OA
ATOM     90  O   UNL A   1      51.356  33.482  24.798  1.00  0.00    -0.744 OA
ENDBRANCH  84  87
ENDBRANCH  56  80
BRANCH  68  91
ATOM     91  C   UNL A   1      43.811  35.574  32.386  1.00  0.00     0.023 A 
ATOM     92  C   UNL A   1      44.213  35.406  33.724  1.00  0.00     0.012 A 
ATOM     93  C   UNL A   1      43.763  36.867  31.829  1.00  0.00     0.148 A 
ATOM     94  C   UNL A   1      44.566  36.510  34.499  1.00  0.00     0.002 A 
ATOM     95  C   UNL A   1      44.147  37.960  32.597  1.00  0.00     0.091 A 
ATOM     96  F   UNL A   1      43.375  36.997  30.552  1.00  0.00    -0.205 F 
ATOM     97  C   UNL A   1      44.546  37.784  33.934  1.00  0.00     0.022 A 
BRANCH  95  98
ATOM     98  S   UNL A   1      44.234  39.630  31.939  1.00  0.00     0.127 S 
ATOM     99  O   UNL A   1      42.857  40.092  32.113  1.00  0.00    -0.237 OA
ATOM    100  O   UNL A   1      45.207  40.262  32.830  1.00  0.00    -0.237 OA
ATOM    101  O   UNL A   1      44.669  39.498  30.555  1.00  0.00    -0.744 OA
ENDBRANCH  95  98
ENDBRANCH  68  91
ENDBRANCH  42  43
ENDBRANCH  35  37
ENDBRANCH  34  35
ENDBRANCH  33  34
ENDBRANCH  32  33
ENDBRANCH  31  32
ENDBRANCH  30  31
ENDBRANCH   1  30
TORSDOF 23
ENDMDL
MODEL 3
REMARK VINA RESULT:     -10.4      4.063      4.792
REMARK SMILES O=C(COc1ccc(Br)cc1/C=C1\C(=O)Nc2ccc(Br)cc21)OCCOCCOCCOC(=O)c1ccc(-c2c3nc(c(-c4cccc(S(=O)(=O)[O-])c4F)c4ccc([nH]4)c(-c4cccc(S(=O)(=O)[O-])c4F)c4nc(c(-c5cccc(S(=O)(=O)[O-])c5F)c5ccc2[nH]5)C=C4)C=C3)cc1
REMARK SMILES IDX 28 1 27 2 26 3 25 4 24 5 2 6 1 7 3 8 4 9 5 10 6 11 11 12
REMARK SMILES IDX 7 13 10 14 8 15 9 16 12 17 13 18 14 19 23 20 15 21 16 22
REMARK SMILES IDX 17 23 22 24 18 26 20 27 19 28 21 29 29 30 30 31 31 32 32 33
REMARK SMILES IDX 33 34 34 35 35 36 36 37 37 38 98 39 38 40 97 41 39 42 40 43
REMARK SMILES IDX 41 44 91 45 42 46 96 47 90 48 92 49 43 50 95 51 89 52 88 53
REMARK SMILES IDX 44 55 76 56 56 57 75 58 57 59 60 60 74 61 93 62 58 63 59 64
REMARK SMILES IDX 73 66 94 67 61 68 45 69 46 70 54 71 47 72 49 73 55 74 48 75
REMARK SMILES IDX 50 76 51 77 52 78 53 79 77 80 78 81 86 82 79 83 81 84 87 85
REMARK SMILES IDX 80 86 82 87 83 88 84 89 85 90 62 91 63 92 71 93 64 94 66 95
REMARK SMILES IDX 72 96 65 97 67 98 68 99 69 100 70 101
REMARK H PARENT 16 25 92 54 60 65
REMARK Flexibility Score: inf
ROOT
ATOM      1  C   UNL A   1      43.793  18.515  25.530  1.00  0.00     0.188 C 
ENDROOT
BRANCH   1   2
ATOM      2  O   UNL A   1      42.382  18.683  25.586  1.00  0.00    -0.376 OA
BRANCH   2   3
ATOM      3  C   UNL A   1      41.882  19.567  26.570  1.00  0.00     0.202 C 
BRANCH   3   4
ATOM      4  C   UNL A   1      40.424  19.940  26.325  1.00  0.00     0.261 C 
BRANCH   4   5
ATOM      5  O   UNL A   1      40.032  21.224  26.857  1.00  0.00    -0.461 OA
BRANCH   5   6
ATOM      6  C   UNL A   1      39.244  22.137  26.245  1.00  0.00     0.344 C 
ATOM      7  O   UNL A   1      39.406  23.332  26.485  1.00  0.00    -0.248 OA
BRANCH   6   8
ATOM      8  C   UNL A   1      38.144  21.654  25.302  1.00  0.00     0.351 C 
BRANCH   8   9
ATOM      9  O   UNL A   1      36.977  22.483  25.183  1.00  0.00    -0.481 OA
BRANCH   9  10
ATOM     10  C   UNL A   1      35.877  21.649  25.246  1.00  0.00     0.127 A 
ATOM     11  C   UNL A   1      36.127  20.266  25.195  1.00  0.00     0.048 A 
ATOM     12  C   UNL A   1      34.584  22.186  25.124  1.00  0.00     0.018 A 
ATOM     13  C   UNL A   1      35.120  19.398  24.805  1.00  0.00     0.019 A 
ATOM     14  C   UNL A   1      33.628  21.294  24.621  1.00  0.00     0.027 A 
ATOM     15  C   UNL A   1      33.885  19.927  24.468  1.00  0.00     0.018 A 
ATOM     16  Br  UNL A   1      32.541  18.797  23.768  1.00  0.00    -0.051 Br
BRANCH  12  17
ATOM     17  C   UNL A   1      34.316  23.634  25.388  1.00  0.00     0.026 C 
ATOM     18  C   UNL A   1      33.423  24.200  26.227  1.00  0.00     0.050 C 
ATOM     19  C   UNL A   1      32.389  23.485  27.048  1.00  0.00     0.256 C 
ATOM     20  C   UNL A   1      32.932  25.584  26.120  1.00  0.00     0.012 A 
ATOM     21  O   UNL A   1      32.545  22.544  27.803  1.00  0.00    -0.269 OA
ATOM     22  N   UNL A   1      31.234  24.212  26.833  1.00  0.00    -0.321 N 
ATOM     23  C   UNL A   1      31.548  25.472  26.330  1.00  0.00     0.049 A 
ATOM     24  C   UNL A   1      33.507  26.832  25.977  1.00  0.00     0.026 A 
ATOM     25  H   UNL A   1      30.322  23.887  27.010  1.00  0.00     0.170 HD
ATOM     26  C   UNL A   1      30.678  26.530  26.211  1.00  0.00     0.028 A 
ATOM     27  C   UNL A   1      32.643  27.938  25.959  1.00  0.00     0.018 A 
ATOM     28  C   UNL A   1      31.243  27.789  26.014  1.00  0.00     0.018 A 
ATOM     29  Br  UNL A   1      33.366  29.690  25.945  1.00  0.00    -0.051 Br
ENDBRANCH  12  17
ENDBRANCH   9  10
ENDBRANCH   8   9
ENDBRANCH   6   8
ENDBRANCH   5   6
ENDBRANCH   4   5
ENDBRANCH   3   4
ENDBRANCH   2   3
ENDBRANCH   1   2
BRANCH   1  30
ATOM     30  C   UNL A   1      44.498  19.613  24.715  1.00  0.00     0.188 C 
BRANCH  30  31
ATOM     31  O   UNL A   1      45.445  20.482  25.338  1.00  0.00    -0.376 OA
BRANCH  31  32
ATOM     32  C   UNL A   1      46.003  21.570  24.619  1.00  0.00     0.202 C 
BRANCH  32  33
ATOM     33  C   UNL A   1      45.620  22.978  25.084  1.00  0.00     0.261 C 
BRANCH  33  34
ATOM     34  O   UNL A   1      44.512  23.549  24.369  1.00  0.00    -0.460 OA
BRANCH  34  35
ATOM     35  C   UNL A   1      43.306  23.458  24.985  1.00  0.00     0.338 C 
ATOM     36  O   UNL A   1      42.586  22.473  25.027  1.00  0.00    -0.246 OA
BRANCH  35  37
ATOM     37  C   UNL A   1      43.028  24.696  25.756  1.00  0.00     0.060 A 
ATOM     38  C   UNL A   1      42.979  24.708  27.153  1.00  0.00     0.016 A 
ATOM     39  C   UNL A   1      42.835  25.888  25.044  1.00  0.00     0.016 A 
ATOM     40  C   UNL A   1      42.788  25.921  27.830  1.00  0.00     0.010 A 
ATOM     41  C   UNL A   1      42.643  27.098  25.722  1.00  0.00     0.010 A 
ATOM     42  C   UNL A   1      42.648  27.131  27.122  1.00  0.00    -0.014 A 
BRANCH  42  43
ATOM     43  C   UNL A   1      42.730  28.427  27.848  1.00  0.00     0.031 A 
ATOM     44  C   UNL A   1      41.530  29.123  28.419  1.00  0.00     0.074 A 
ATOM     45  C   UNL A   1      43.942  29.006  27.966  1.00  0.00     0.049 A 
ATOM     46  N   UNL A   1      41.498  30.170  29.205  1.00  0.00    -0.248 NA
ATOM     47  C   UNL A   1      40.203  28.600  28.064  1.00  0.00     0.031 C 
ATOM     48  C   UNL A   1      45.177  28.492  27.372  1.00  0.00     0.029 A 
ATOM     49  N   UNL A   1      44.337  30.147  28.622  1.00  0.00    -0.354 N 
ATOM     50  C   UNL A   1      40.156  30.435  29.442  1.00  0.00     0.074 A 
ATOM     51  C   UNL A   1      39.399  29.447  28.702  1.00  0.00     0.031 C 
ATOM     52  C   UNL A   1      46.196  29.295  27.715  1.00  0.00     0.029 A 
ATOM     53  C   UNL A   1      45.689  30.379  28.552  1.00  0.00     0.049 A 
ATOM     54  H   UNL A   1      43.710  30.741  29.095  1.00  0.00     0.167 HD
ATOM     55  C   UNL A   1      39.615  31.393  30.230  1.00  0.00     0.034 A 
ATOM     56  C   UNL A   1      46.452  31.333  29.121  1.00  0.00     0.034 A 
ATOM     57  C   UNL A   1      40.366  32.354  30.996  1.00  0.00     0.049 A 
ATOM     58  C   UNL A   1      45.828  32.350  30.031  1.00  0.00     0.074 A 
ATOM     59  C   UNL A   1      39.885  33.279  31.910  1.00  0.00     0.029 A 
ATOM     60  N   UNL A   1      41.737  32.530  30.935  1.00  0.00    -0.354 N 
ATOM     61  N   UNL A   1      44.578  32.454  30.407  1.00  0.00    -0.248 NA
ATOM     62  C   UNL A   1      46.721  33.357  30.627  1.00  0.00     0.031 C 
ATOM     63  C   UNL A   1      40.966  34.016  32.399  1.00  0.00     0.029 A 
ATOM     64  C   UNL A   1      42.118  33.552  31.788  1.00  0.00     0.049 A 
ATOM     65  H   UNL A   1      42.350  32.007  30.369  1.00  0.00     0.167 HD
ATOM     66  C   UNL A   1      44.537  33.517  31.302  1.00  0.00     0.074 A 
ATOM     67  C   UNL A   1      45.889  34.023  31.419  1.00  0.00     0.031 C 
ATOM     68  C   UNL A   1      43.466  34.026  31.953  1.00  0.00     0.034 A 
BRANCH  55  69
ATOM     69  C   UNL A   1      38.126  31.409  30.427  1.00  0.00     0.023 A 
ATOM     70  C   UNL A   1      37.609  30.788  31.581  1.00  0.00     0.012 A 
ATOM     71  C   UNL A   1      37.282  32.196  29.620  1.00  0.00     0.148 A 
ATOM     72  C   UNL A   1      36.275  30.963  31.941  1.00  0.00     0.002 A 
ATOM     73  C   UNL A   1      35.953  32.372  29.992  1.00  0.00     0.091 A 
ATOM     74  F   UNL A   1      37.798  32.771  28.525  1.00  0.00    -0.205 F 
ATOM     75  C   UNL A   1      35.451  31.762  31.154  1.00  0.00     0.022 A 
BRANCH  73  76
ATOM     76  S   UNL A   1      34.825  33.433  29.082  1.00  0.00     0.127 S 
ATOM     77  O   UNL A   1      33.690  33.503  30.002  1.00  0.00    -0.237 OA
ATOM     78  O   UNL A   1      35.589  34.676  28.968  1.00  0.00    -0.237 OA
ATOM     79  O   UNL A   1      34.572  32.757  27.818  1.00  0.00    -0.744 OA
ENDBRANCH  73  76
ENDBRANCH  55  69
BRANCH  56  80
ATOM     80  C   UNL A   1      47.925  31.279  28.932  1.00  0.00     0.023 A 
ATOM     81  C   UNL A   1      48.503  32.017  27.883  1.00  0.00     0.012 A 
ATOM     82  C   UNL A   1      48.752  30.580  29.830  1.00  0.00     0.148 A 
ATOM     83  C   UNL A   1      49.887  32.056  27.724  1.00  0.00     0.002 A 
ATOM     84  C   UNL A   1      50.132  30.653  29.688  1.00  0.00     0.091 A 
ATOM     85  F   UNL A   1      48.171  29.889  30.819  1.00  0.00    -0.205 F 
ATOM     86  C   UNL A   1      50.701  31.383  28.631  1.00  0.00     0.022 A 
BRANCH  84  87
ATOM     87  S   UNL A   1      51.269  29.904  30.859  1.00  0.00     0.127 S 
ATOM     88  O   UNL A   1      50.881  30.554  32.109  1.00  0.00    -0.237 OA
ATOM     89  O   UNL A   1      50.907  28.490  30.760  1.00  0.00    -0.237 OA
ATOM     90  O   UNL A   1      52.605  30.226  30.377  1.00  0.00    -0.744 OA
ENDBRANCH  84  87
ENDBRANCH  56  80
BRANCH  68  91
ATOM     91  C   UNL A   1      43.671  35.196  32.876  1.00  0.00     0.023 A 
ATOM     92  C   UNL A   1      43.605  36.502  32.355  1.00  0.00     0.012 A 
ATOM     93  C   UNL A   1      43.766  35.005  34.269  1.00  0.00     0.148 A 
ATOM     94  C   UNL A   1      43.630  37.604  33.209  1.00  0.00     0.002 A 
ATOM     95  C   UNL A   1      43.758  36.107  35.116  1.00  0.00     0.091 A 
ATOM     96  F   UNL A   1      43.829  33.750  34.737  1.00  0.00    -0.205 F 
ATOM     97  C   UNL A   1      43.693  37.408  34.587  1.00  0.00     0.022 A 
BRANCH  95  98
ATOM     98  S   UNL A   1      43.754  35.959  36.907  1.00  0.00     0.127 S 
ATOM     99  O   UNL A   1      43.652  37.358  37.322  1.00  0.00    -0.237 OA
ATOM    100  O   UNL A   1      42.551  35.161  37.147  1.00  0.00    -0.237 OA
ATOM    101  O   UNL A   1      45.004  35.301  37.261  1.00  0.00    -0.744 OA
ENDBRANCH  95  98
ENDBRANCH  68  91
ENDBRANCH  42  43
ENDBRANCH  35  37
ENDBRANCH  34  35
ENDBRANCH  33  34
ENDBRANCH  32  33
ENDBRANCH  31  32
ENDBRANCH  30  31
ENDBRANCH   1  30
TORSDOF 23
ENDMDL
