MODEL 1
REMARK VINA RESULT:      -7.2      0.000      0.000
REMARK SMILES C#CCNC(=O)C[N@@H+](CC(=O)OCCOCCOCCOC(=O)c1ccc(-c2c3nc(c(-c4cccc(S(=O)(=O)[O-])c4F)c4ccc([nH]4)c(-c4cccc(S(=O)(=O)[O-])c4F)c4nc(c(-c5cccc(S(=O)(=O)[O-])c5F)c5ccc2[nH]5)C=C4)C=C3)cc1)C(C)(C)C
REMARK SMILES IDX 16 1 15 2 14 3 13 4 12 5 10 6 11 7 9 8 8 9 7 11 5 12 4 13
REMARK SMILES IDX 6 15 3 16 2 17 1 18 87 19 88 20 89 21 90 22 17 23 18 24
REMARK SMILES IDX 19 25 20 26 21 27 22 28 23 29 24 30 25 31 86 32 26 33 85 34
REMARK SMILES IDX 27 35 28 36 29 37 79 38 30 39 84 40 78 41 80 42 31 43 83 44
REMARK SMILES IDX 77 45 76 46 32 48 64 49 44 50 63 51 45 52 48 53 62 54 81 55
REMARK SMILES IDX 46 56 47 57 61 59 82 60 49 61 33 62 34 63 42 64 35 65 37 66
REMARK SMILES IDX 43 67 36 68 38 69 39 70 40 71 41 72 65 73 66 74 74 75 67 76
REMARK SMILES IDX 69 77 75 78 68 79 70 80 71 81 72 82 73 83 50 84 51 85 59 86
REMARK SMILES IDX 52 87 54 88 60 89 53 90 55 91 56 92 57 93 58 94
REMARK H PARENT 8 10 4 14 80 47 48 58
REMARK Flexibility Score: inf
ROOT
ATOM      1  C   UNL A   1      34.747  33.361  29.532  1.00  0.00     0.188 C 
ENDROOT
BRANCH   1   2
ATOM      2  O   UNL A   1      34.581  33.053  28.155  1.00  0.00    -0.376 OA
BRANCH   2   3
ATOM      3  C   UNL A   1      34.904  31.722  27.764  1.00  0.00     0.202 C 
BRANCH   3   4
ATOM      4  C   UNL A   1      33.739  30.801  27.360  1.00  0.00     0.261 C 
BRANCH   4   5
ATOM      5  O   UNL A   1      33.936  29.946  26.202  1.00  0.00    -0.459 OA
BRANCH   5   6
ATOM      6  C   UNL A   1      33.209  28.796  26.196  1.00  0.00     0.361 C 
ATOM      7  O   UNL A   1      32.798  28.258  27.225  1.00  0.00    -0.245 OA
BRANCH   6   8
ATOM      8  C   UNL A   1      32.977  28.093  24.853  1.00  0.00     0.387 C 
BRANCH   8   9
ATOM      9  N   UNL A   1      32.112  26.888  24.696  1.00  0.00    -0.314 N 
ATOM     10  H   UNL A   1      32.085  26.681  23.698  1.00  0.00     0.349 HD
BRANCH   9  11
ATOM     11  C   UNL A   1      30.698  27.178  25.009  1.00  0.00     0.364 C 
BRANCH  11  12
ATOM     12  C   UNL A   1      29.763  27.062  23.803  1.00  0.00     0.275 C 
ATOM     13  N   UNL A   1      29.471  28.190  23.086  1.00  0.00    -0.340 N 
ATOM     14  H   UNL A   1      29.028  28.078  22.215  1.00  0.00     0.164 HD
ATOM     15  O   UNL A   1      29.246  25.992  23.483  1.00  0.00    -0.268 OA
BRANCH  13  16
ATOM     16  C   UNL A   1      29.765  29.518  23.517  1.00  0.00     0.206 C 
BRANCH  16  17
ATOM     17  C   UNL A   1      28.639  30.538  23.479  1.00  0.00    -0.085 C 
ATOM     18  C   UNL A   1      27.673  31.413  23.447  1.00  0.00     0.006 C 
ENDBRANCH  16  17
ENDBRANCH  13  16
ENDBRANCH  11  12
ENDBRANCH   9  11
BRANCH   9  19
ATOM     19  C   UNL A   1      32.694  25.560  25.023  1.00  0.00     0.090 C 
ATOM     20  C   UNL A   1      32.643  24.793  23.734  1.00  0.00     0.078 C 
ATOM     21  C   UNL A   1      34.179  25.398  25.475  1.00  0.00     0.078 C 
ATOM     22  C   UNL A   1      31.866  24.898  26.156  1.00  0.00     0.078 C 
ENDBRANCH   9  19
ENDBRANCH   8   9
ENDBRANCH   6   8
ENDBRANCH   5   6
ENDBRANCH   4   5
ENDBRANCH   3   4
ENDBRANCH   2   3
ENDBRANCH   1   2
BRANCH   1  23
ATOM     23  C   UNL A   1      33.959  34.582  30.043  1.00  0.00     0.188 C 
BRANCH  23  24
ATOM     24  O   UNL A   1      34.469  35.106  31.266  1.00  0.00    -0.376 OA
BRANCH  24  25
ATOM     25  C   UNL A   1      34.002  34.584  32.510  1.00  0.00     0.202 C 
BRANCH  25  26
ATOM     26  C   UNL A   1      34.712  33.390  33.152  1.00  0.00     0.261 C 
BRANCH  26  27
ATOM     27  O   UNL A   1      36.125  33.318  32.876  1.00  0.00    -0.460 OA
BRANCH  27  28
ATOM     28  C   UNL A   1      36.647  32.100  32.599  1.00  0.00     0.338 C 
ATOM     29  O   UNL A   1      36.332  31.364  31.676  1.00  0.00    -0.246 OA
BRANCH  28  30
ATOM     30  C   UNL A   1      37.834  31.904  33.468  1.00  0.00     0.060 A 
ATOM     31  C   UNL A   1      37.900  30.760  34.269  1.00  0.00     0.016 A 
ATOM     32  C   UNL A   1      38.891  32.809  33.485  1.00  0.00     0.016 A 
ATOM     33  C   UNL A   1      38.997  30.496  35.082  1.00  0.00     0.010 A 
ATOM     34  C   UNL A   1      39.983  32.570  34.329  1.00  0.00     0.010 A 
ATOM     35  C   UNL A   1      40.032  31.424  35.149  1.00  0.00    -0.014 A 
BRANCH  35  36
ATOM     36  C   UNL A   1      41.050  31.298  36.219  1.00  0.00     0.031 A 
ATOM     37  C   UNL A   1      42.137  30.277  36.041  1.00  0.00     0.074 A 
ATOM     38  C   UNL A   1      41.037  32.081  37.313  1.00  0.00     0.049 A 
ATOM     39  N   UNL A   1      43.032  29.860  36.896  1.00  0.00    -0.248 NA
ATOM     40  C   UNL A   1      42.219  29.637  34.718  1.00  0.00     0.031 C 
ATOM     41  C   UNL A   1      40.090  33.164  37.569  1.00  0.00     0.029 A 
ATOM     42  N   UNL A   1      41.834  32.053  38.432  1.00  0.00    -0.354 N 
ATOM     43  C   UNL A   1      43.728  28.851  36.245  1.00  0.00     0.074 A 
ATOM     44  C   UNL A   1      43.168  28.735  34.916  1.00  0.00     0.031 C 
ATOM     45  C   UNL A   1      40.329  33.667  38.792  1.00  0.00     0.029 A 
ATOM     46  C   UNL A   1      41.405  32.903  39.423  1.00  0.00     0.049 A 
ATOM     47  H   UNL A   1      42.631  31.482  38.514  1.00  0.00     0.167 HD
ATOM     48  C   UNL A   1      44.739  28.085  36.715  1.00  0.00     0.034 A 
ATOM     49  C   UNL A   1      41.791  33.009  40.710  1.00  0.00     0.034 A 
ATOM     50  C   UNL A   1      45.319  28.232  38.020  1.00  0.00     0.049 A 
ATOM     51  C   UNL A   1      42.891  32.120  41.228  1.00  0.00     0.074 A 
ATOM     52  C   UNL A   1      46.380  27.539  38.571  1.00  0.00     0.029 A 
ATOM     53  N   UNL A   1      44.876  29.122  38.987  1.00  0.00    -0.354 N 
ATOM     54  N   UNL A   1      43.585  31.207  40.592  1.00  0.00    -0.248 NA
ATOM     55  C   UNL A   1      43.276  32.289  42.637  1.00  0.00     0.031 C 
ATOM     56  C   UNL A   1      46.549  27.975  39.889  1.00  0.00     0.029 A 
ATOM     57  C   UNL A   1      45.626  28.978  40.141  1.00  0.00     0.049 A 
ATOM     58  H   UNL A   1      44.137  29.762  38.870  1.00  0.00     0.167 HD
ATOM     59  C   UNL A   1      44.506  30.713  41.511  1.00  0.00     0.074 A 
ATOM     60  C   UNL A   1      44.294  31.443  42.743  1.00  0.00     0.031 C 
ATOM     61  C   UNL A   1      45.435  29.738  41.351  1.00  0.00     0.034 A 
BRANCH  48  62
ATOM     62  C   UNL A   1      45.253  26.990  35.818  1.00  0.00     0.023 A 
ATOM     63  C   UNL A   1      46.380  27.204  34.999  1.00  0.00     0.012 A 
ATOM     64  C   UNL A   1      44.619  25.733  35.809  1.00  0.00     0.148 A 
ATOM     65  C   UNL A   1      46.839  26.195  34.151  1.00  0.00     0.002 A 
ATOM     66  C   UNL A   1      45.114  24.717  35.002  1.00  0.00     0.091 A 
ATOM     67  F   UNL A   1      43.532  25.559  36.574  1.00  0.00    -0.205 F 
ATOM     68  C   UNL A   1      46.213  24.951  34.160  1.00  0.00     0.022 A 
BRANCH  66  69
ATOM     69  S   UNL A   1      44.427  23.059  35.009  1.00  0.00     0.127 S 
ATOM     70  O   UNL A   1      44.902  22.548  36.294  1.00  0.00    -0.237 OA
ATOM     71  O   UNL A   1      42.989  23.324  34.952  1.00  0.00    -0.237 OA
ATOM     72  O   UNL A   1      44.969  22.394  33.832  1.00  0.00    -0.744 OA
ENDBRANCH  66  69
ENDBRANCH  48  62
BRANCH  49  73
ATOM     73  C   UNL A   1      41.102  33.978  41.610  1.00  0.00     0.023 A 
ATOM     74  C   UNL A   1      41.742  35.177  41.974  1.00  0.00     0.012 A 
ATOM     75  C   UNL A   1      39.799  33.722  42.081  1.00  0.00     0.148 A 
ATOM     76  C   UNL A   1      41.105  36.096  42.809  1.00  0.00     0.002 A 
ATOM     77  C   UNL A   1      39.147  34.668  42.862  1.00  0.00     0.091 A 
ATOM     78  F   UNL A   1      39.216  32.565  41.738  1.00  0.00    -0.205 F 
ATOM     79  C   UNL A   1      39.804  35.848  43.242  1.00  0.00     0.022 A 
BRANCH  77  80
ATOM     80  S   UNL A   1      37.430  34.493  43.358  1.00  0.00     0.127 S 
ATOM     81  O   UNL A   1      37.457  33.229  44.091  1.00  0.00    -0.237 OA
ATOM     82  O   UNL A   1      37.237  35.682  44.187  1.00  0.00    -0.237 OA
ATOM     83  O   UNL A   1      36.659  34.485  42.122  1.00  0.00    -0.744 OA
ENDBRANCH  77  80
ENDBRANCH  49  73
BRANCH  61  84
ATOM     84  C   UNL A   1      46.334  29.422  42.519  1.00  0.00     0.023 A 
ATOM     85  C   UNL A   1      45.998  28.385  43.411  1.00  0.00     0.012 A 
ATOM     86  C   UNL A   1      47.558  30.103  42.681  1.00  0.00     0.148 A 
ATOM     87  C   UNL A   1      46.852  28.052  44.464  1.00  0.00     0.002 A 
ATOM     88  C   UNL A   1      48.427  29.730  43.699  1.00  0.00     0.091 A 
ATOM     89  F   UNL A   1      47.852  31.097  41.831  1.00  0.00    -0.205 F 
ATOM     90  C   UNL A   1      48.069  28.714  44.600  1.00  0.00     0.022 A 
BRANCH  88  91
ATOM     91  S   UNL A   1      50.058  30.457  43.890  1.00  0.00     0.127 S 
ATOM     92  O   UNL A   1      50.674  29.555  44.862  1.00  0.00    -0.237 OA
ATOM     93  O   UNL A   1      50.602  30.358  42.535  1.00  0.00    -0.237 OA
ATOM     94  O   UNL A   1      49.841  31.820  44.358  1.00  0.00    -0.744 OA
ENDBRANCH  88  91
ENDBRANCH  61  84
ENDBRANCH  35  36
ENDBRANCH  28  30
ENDBRANCH  27  28
ENDBRANCH  26  27
ENDBRANCH  25  26
ENDBRANCH  24  25
ENDBRANCH  23  24
ENDBRANCH   1  23
TORSDOF 26
ENDMDL
MODEL 2
REMARK VINA RESULT:      -7.1      4.547     10.386
REMARK SMILES C#CCNC(=O)C[N@@H+](CC(=O)OCCOCCOCCOC(=O)c1ccc(-c2c3nc(c(-c4cccc(S(=O)(=O)[O-])c4F)c4ccc([nH]4)c(-c4cccc(S(=O)(=O)[O-])c4F)c4nc(c(-c5cccc(S(=O)(=O)[O-])c5F)c5ccc2[nH]5)C=C4)C=C3)cc1)C(C)(C)C
REMARK SMILES IDX 16 1 15 2 14 3 13 4 12 5 10 6 11 7 9 8 8 9 7 11 5 12 4 13
REMARK SMILES IDX 6 15 3 16 2 17 1 18 87 19 88 20 89 21 90 22 17 23 18 24
REMARK SMILES IDX 19 25 20 26 21 27 22 28 23 29 24 30 25 31 86 32 26 33 85 34
REMARK SMILES IDX 27 35 28 36 29 37 79 38 30 39 84 40 78 41 80 42 31 43 83 44
REMARK SMILES IDX 77 45 76 46 32 48 64 49 44 50 63 51 45 52 48 53 62 54 81 55
REMARK SMILES IDX 46 56 47 57 61 59 82 60 49 61 33 62 34 63 42 64 35 65 37 66
REMARK SMILES IDX 43 67 36 68 38 69 39 70 40 71 41 72 65 73 66 74 74 75 67 76
REMARK SMILES IDX 69 77 75 78 68 79 70 80 71 81 72 82 73 83 50 84 51 85 59 86
REMARK SMILES IDX 52 87 54 88 60 89 53 90 55 91 56 92 57 93 58 94
REMARK H PARENT 8 10 4 14 80 47 48 58
REMARK Flexibility Score: inf
ROOT
ATOM      1  C   UNL A   1      40.302  25.886  27.180  1.00  0.00     0.188 C 
ENDROOT
BRANCH   1   2
ATOM      2  O   UNL A   1      40.394  26.389  28.506  1.00  0.00    -0.376 OA
BRANCH   2   3
ATOM      3  C   UNL A   1      40.041  27.756  28.687  1.00  0.00     0.202 C 
BRANCH   3   4
ATOM      4  C   UNL A   1      38.714  28.055  29.407  1.00  0.00     0.261 C 
BRANCH   4   5
ATOM      5  O   UNL A   1      37.796  28.974  28.757  1.00  0.00    -0.459 OA
BRANCH   5   6
ATOM      6  C   UNL A   1      37.333  29.987  29.538  1.00  0.00     0.361 C 
ATOM      7  O   UNL A   1      36.440  29.834  30.373  1.00  0.00    -0.245 OA
BRANCH   6   8
ATOM      8  C   UNL A   1      37.884  31.397  29.297  1.00  0.00     0.387 C 
BRANCH   8   9
ATOM      9  N   UNL A   1      37.388  32.607  30.017  1.00  0.00    -0.314 N 
ATOM     10  H   UNL A   1      37.002  32.276  30.901  1.00  0.00     0.349 HD
BRANCH   9  11
ATOM     11  C   UNL A   1      36.215  33.206  29.349  1.00  0.00     0.364 C 
BRANCH  11  12
ATOM     12  C   UNL A   1      34.875  32.676  29.865  1.00  0.00     0.275 C 
ATOM     13  N   UNL A   1      34.162  31.814  29.078  1.00  0.00    -0.340 N 
ATOM     14  H   UNL A   1      33.405  31.338  29.489  1.00  0.00     0.164 HD
ATOM     15  O   UNL A   1      34.411  33.030  30.949  1.00  0.00    -0.268 OA
BRANCH  13  16
ATOM     16  C   UNL A   1      34.441  31.559  27.703  1.00  0.00     0.206 C 
BRANCH  16  17
ATOM     17  C   UNL A   1      34.413  30.114  27.232  1.00  0.00    -0.085 C 
ATOM     18  C   UNL A   1      34.389  28.874  26.829  1.00  0.00     0.006 C 
ENDBRANCH  16  17
ENDBRANCH  13  16
ENDBRANCH  11  12
ENDBRANCH   9  11
BRANCH   9  19
ATOM     19  C   UNL A   1      38.384  33.472  30.701  1.00  0.00     0.090 C 
ATOM     20  C   UNL A   1      39.408  32.520  31.245  1.00  0.00     0.078 C 
ATOM     21  C   UNL A   1      39.246  34.514  29.921  1.00  0.00     0.078 C 
ATOM     22  C   UNL A   1      37.677  34.300  31.807  1.00  0.00     0.078 C 
ENDBRANCH   9  19
ENDBRANCH   8   9
ENDBRANCH   6   8
ENDBRANCH   5   6
ENDBRANCH   4   5
ENDBRANCH   3   4
ENDBRANCH   2   3
ENDBRANCH   1   2
BRANCH   1  23
ATOM     23  C   UNL A   1      41.486  26.223  26.255  1.00  0.00     0.188 C 
BRANCH  23  24
ATOM     24  O   UNL A   1      42.548  25.276  26.335  1.00  0.00    -0.376 OA
BRANCH  24  25
ATOM     25  C   UNL A   1      43.828  25.599  25.790  1.00  0.00     0.202 C 
BRANCH  25  26
ATOM     26  C   UNL A   1      44.897  24.513  25.658  1.00  0.00     0.261 C 
BRANCH  26  27
ATOM     27  O   UNL A   1      45.323  23.940  26.909  1.00  0.00    -0.460 OA
BRANCH  27  28
ATOM     28  C   UNL A   1      44.430  23.181  27.587  1.00  0.00     0.338 C 
ATOM     29  O   UNL A   1      43.858  22.185  27.174  1.00  0.00    -0.246 OA
BRANCH  28  30
ATOM     30  C   UNL A   1      44.437  23.625  29.003  1.00  0.00     0.060 A 
ATOM     31  C   UNL A   1      45.177  24.760  29.349  1.00  0.00     0.016 A 
ATOM     32  C   UNL A   1      43.707  22.964  29.986  1.00  0.00     0.016 A 
ATOM     33  C   UNL A   1      45.201  25.252  30.649  1.00  0.00     0.010 A 
ATOM     34  C   UNL A   1      43.755  23.431  31.306  1.00  0.00     0.010 A 
ATOM     35  C   UNL A   1      44.521  24.564  31.649  1.00  0.00    -0.014 A 
BRANCH  35  36
ATOM     36  C   UNL A   1      44.778  24.906  33.068  1.00  0.00     0.031 A 
ATOM     37  C   UNL A   1      44.292  26.233  33.573  1.00  0.00     0.074 A 
ATOM     38  C   UNL A   1      45.403  24.057  33.904  1.00  0.00     0.049 A 
ATOM     39  N   UNL A   1      44.538  26.831  34.708  1.00  0.00    -0.248 NA
ATOM     40  C   UNL A   1      43.412  26.992  32.668  1.00  0.00     0.031 C 
ATOM     41  C   UNL A   1      45.851  22.708  33.566  1.00  0.00     0.029 A 
ATOM     42  N   UNL A   1      45.800  24.231  35.208  1.00  0.00    -0.354 N 
ATOM     43  C   UNL A   1      43.915  28.068  34.621  1.00  0.00     0.074 A 
ATOM     44  C   UNL A   1      43.260  28.127  33.333  1.00  0.00     0.031 C 
ATOM     45  C   UNL A   1      46.505  22.192  34.620  1.00  0.00     0.029 A 
ATOM     46  C   UNL A   1      46.570  23.196  35.682  1.00  0.00     0.049 A 
ATOM     47  H   UNL A   1      45.557  25.016  35.748  1.00  0.00     0.167 HD
ATOM     48  C   UNL A   1      43.897  29.069  35.531  1.00  0.00     0.034 A 
ATOM     49  C   UNL A   1      47.298  23.095  36.812  1.00  0.00     0.034 A 
ATOM     50  C   UNL A   1      44.515  28.989  36.826  1.00  0.00     0.049 A 
ATOM     51  C   UNL A   1      47.299  24.235  37.797  1.00  0.00     0.074 A 
ATOM     52  C   UNL A   1      44.508  29.930  37.839  1.00  0.00     0.029 A 
ATOM     53  N   UNL A   1      45.263  27.915  37.280  1.00  0.00    -0.354 N 
ATOM     54  N   UNL A   1      46.662  25.380  37.735  1.00  0.00    -0.248 NA
ATOM     55  C   UNL A   1      48.103  24.063  39.015  1.00  0.00     0.031 C 
ATOM     56  C   UNL A   1      45.294  29.445  38.889  1.00  0.00     0.029 A 
ATOM     57  C   UNL A   1      45.746  28.179  38.550  1.00  0.00     0.049 A 
ATOM     58  H   UNL A   1      45.428  27.086  36.775  1.00  0.00     0.167 HD
ATOM     59  C   UNL A   1      46.964  26.051  38.916  1.00  0.00     0.074 A 
ATOM     60  C   UNL A   1      47.825  25.175  39.683  1.00  0.00     0.031 C 
ATOM     61  C   UNL A   1      46.570  27.284  39.324  1.00  0.00     0.034 A 
BRANCH  48  62
ATOM     62  C   UNL A   1      43.217  30.353  35.136  1.00  0.00     0.023 A 
ATOM     63  C   UNL A   1      43.917  31.343  34.418  1.00  0.00     0.012 A 
ATOM     64  C   UNL A   1      41.865  30.563  35.467  1.00  0.00     0.148 A 
ATOM     65  C   UNL A   1      43.291  32.543  34.075  1.00  0.00     0.002 A 
ATOM     66  C   UNL A   1      41.234  31.736  35.076  1.00  0.00     0.091 A 
ATOM     67  F   UNL A   1      41.226  29.620  36.175  1.00  0.00    -0.205 F 
ATOM     68  C   UNL A   1      41.950  32.734  34.394  1.00  0.00     0.022 A 
BRANCH  66  69
ATOM     69  S   UNL A   1      39.489  32.035  35.368  1.00  0.00     0.127 S 
ATOM     70  O   UNL A   1      39.421  31.992  36.828  1.00  0.00    -0.237 OA
ATOM     71  O   UNL A   1      39.306  33.366  34.788  1.00  0.00    -0.237 OA
ATOM     72  O   UNL A   1      38.777  30.969  34.676  1.00  0.00    -0.744 OA
ENDBRANCH  66  69
ENDBRANCH  48  62
BRANCH  49  73
ATOM     73  C   UNL A   1      48.118  21.873  37.056  1.00  0.00     0.023 A 
ATOM     74  C   UNL A   1      47.637  20.862  37.908  1.00  0.00     0.012 A 
ATOM     75  C   UNL A   1      49.362  21.701  36.417  1.00  0.00     0.148 A 
ATOM     76  C   UNL A   1      48.391  19.710  38.138  1.00  0.00     0.002 A 
ATOM     77  C   UNL A   1      50.080  20.527  36.603  1.00  0.00     0.091 A 
ATOM     78  F   UNL A   1      49.810  22.686  35.626  1.00  0.00    -0.205 F 
ATOM     79  C   UNL A   1      49.604  19.536  37.476  1.00  0.00     0.022 A 
BRANCH  77  80
ATOM     80  S   UNL A   1      51.586  20.161  35.696  1.00  0.00     0.127 S 
ATOM     81  O   UNL A   1      52.494  21.190  36.197  1.00  0.00    -0.237 OA
ATOM     82  O   UNL A   1      51.883  18.803  36.148  1.00  0.00    -0.237 OA
ATOM     83  O   UNL A   1      51.235  20.267  34.286  1.00  0.00    -0.744 OA
ENDBRANCH  77  80
ENDBRANCH  49  73
BRANCH  61  84
ATOM     84  C   UNL A   1      47.025  27.757  40.681  1.00  0.00     0.023 A 
ATOM     85  C   UNL A   1      46.216  27.543  41.814  1.00  0.00     0.012 A 
ATOM     86  C   UNL A   1      48.298  28.341  40.841  1.00  0.00     0.148 A 
ATOM     87  C   UNL A   1      46.655  27.932  43.081  1.00  0.00     0.002 A 
ATOM     88  C   UNL A   1      48.749  28.676  42.112  1.00  0.00     0.091 A 
ATOM     89  F   UNL A   1      49.047  28.551  39.748  1.00  0.00    -0.205 F 
ATOM     90  C   UNL A   1      47.924  28.485  43.231  1.00  0.00     0.022 A 
BRANCH  88  91
ATOM     91  S   UNL A   1      50.407  29.300  42.414  1.00  0.00     0.127 S 
ATOM     92  O   UNL A   1      50.389  30.562  41.676  1.00  0.00    -0.237 OA
ATOM     93  O   UNL A   1      50.424  29.444  43.869  1.00  0.00    -0.237 OA
ATOM     94  O   UNL A   1      51.319  28.290  41.894  1.00  0.00    -0.744 OA
ENDBRANCH  88  91
ENDBRANCH  61  84
ENDBRANCH  35  36
ENDBRANCH  28  30
ENDBRANCH  27  28
ENDBRANCH  26  27
ENDBRANCH  25  26
ENDBRANCH  24  25
ENDBRANCH  23  24
ENDBRANCH   1  23
TORSDOF 26
ENDMDL
MODEL 3
REMARK VINA RESULT:      -7.1      6.263     12.632
REMARK SMILES C#CCNC(=O)C[N@@H+](CC(=O)OCCOCCOCCOC(=O)c1ccc(-c2c3nc(c(-c4cccc(S(=O)(=O)[O-])c4F)c4ccc([nH]4)c(-c4cccc(S(=O)(=O)[O-])c4F)c4nc(c(-c5cccc(S(=O)(=O)[O-])c5F)c5ccc2[nH]5)C=C4)C=C3)cc1)C(C)(C)C
REMARK SMILES IDX 16 1 15 2 14 3 13 4 12 5 10 6 11 7 9 8 8 9 7 11 5 12 4 13
REMARK SMILES IDX 6 15 3 16 2 17 1 18 87 19 88 20 89 21 90 22 17 23 18 24
REMARK SMILES IDX 19 25 20 26 21 27 22 28 23 29 24 30 25 31 86 32 26 33 85 34
REMARK SMILES IDX 27 35 28 36 29 37 79 38 30 39 84 40 78 41 80 42 31 43 83 44
REMARK SMILES IDX 77 45 76 46 32 48 64 49 44 50 63 51 45 52 48 53 62 54 81 55
REMARK SMILES IDX 46 56 47 57 61 59 82 60 49 61 33 62 34 63 42 64 35 65 37 66
REMARK SMILES IDX 43 67 36 68 38 69 39 70 40 71 41 72 65 73 66 74 74 75 67 76
REMARK SMILES IDX 69 77 75 78 68 79 70 80 71 81 72 82 73 83 50 84 51 85 59 86
REMARK SMILES IDX 52 87 54 88 60 89 53 90 55 91 56 92 57 93 58 94
REMARK H PARENT 8 10 4 14 80 47 48 58
REMARK Flexibility Score: inf
ROOT
ATOM      1  C   UNL A   1      39.622  34.978  38.840  1.00  0.00     0.188 C 
ENDROOT
BRANCH   1   2
ATOM      2  O   UNL A   1      39.307  33.718  38.264  1.00  0.00    -0.376 OA
BRANCH   2   3
ATOM      3  C   UNL A   1      38.150  33.064  38.774  1.00  0.00     0.202 C 
BRANCH   3   4
ATOM      4  C   UNL A   1      36.924  32.969  37.848  1.00  0.00     0.261 C 
BRANCH   4   5
ATOM      5  O   UNL A   1      37.148  33.155  36.425  1.00  0.00    -0.459 OA
BRANCH   5   6
ATOM      6  C   UNL A   1      37.790  32.133  35.797  1.00  0.00     0.361 C 
ATOM      7  O   UNL A   1      37.772  30.974  36.214  1.00  0.00    -0.245 OA
BRANCH   6   8
ATOM      8  C   UNL A   1      38.650  32.462  34.571  1.00  0.00     0.387 C 
BRANCH   8   9
ATOM      9  N   UNL A   1      38.426  31.859  33.224  1.00  0.00    -0.314 N 
ATOM     10  H   UNL A   1      39.077  32.320  32.590  1.00  0.00     0.349 HD
BRANCH   9  11
ATOM     11  C   UNL A   1      37.108  32.227  32.667  1.00  0.00     0.364 C 
BRANCH  11  12
ATOM     12  C   UNL A   1      37.156  33.417  31.706  1.00  0.00     0.275 C 
ATOM     13  N   UNL A   1      36.672  34.624  32.129  1.00  0.00    -0.340 N 
ATOM     14  H   UNL A   1      36.875  35.416  31.583  1.00  0.00     0.164 HD
ATOM     15  O   UNL A   1      37.587  33.307  30.558  1.00  0.00    -0.268 OA
BRANCH  13  16
ATOM     16  C   UNL A   1      35.893  34.811  33.309  1.00  0.00     0.206 C 
BRANCH  16  17
ATOM     17  C   UNL A   1      34.768  35.833  33.258  1.00  0.00    -0.085 C 
ATOM     18  C   UNL A   1      33.803  36.709  33.214  1.00  0.00     0.006 C 
ENDBRANCH  16  17
ENDBRANCH  13  16
ENDBRANCH  11  12
ENDBRANCH   9  11
BRANCH   9  19
ATOM     19  C   UNL A   1      39.007  30.518  32.952  1.00  0.00     0.090 C 
ATOM     20  C   UNL A   1      39.580  30.625  31.569  1.00  0.00     0.078 C 
ATOM     21  C   UNL A   1      40.196  29.948  33.787  1.00  0.00     0.078 C 
ATOM     22  C   UNL A   1      37.896  29.441  33.067  1.00  0.00     0.078 C 
ENDBRANCH   9  19
ENDBRANCH   8   9
ENDBRANCH   6   8
ENDBRANCH   5   6
ENDBRANCH   4   5
ENDBRANCH   3   4
ENDBRANCH   2   3
ENDBRANCH   1   2
BRANCH   1  23
ATOM     23  C   UNL A   1      40.846  34.999  39.774  1.00  0.00     0.188 C 
BRANCH  23  24
ATOM     24  O   UNL A   1      40.859  33.920  40.705  1.00  0.00    -0.376 OA
BRANCH  24  25
ATOM     25  C   UNL A   1      41.728  33.972  41.837  1.00  0.00     0.202 C 
BRANCH  25  26
ATOM     26  C   UNL A   1      42.571  32.750  42.208  1.00  0.00     0.261 C 
BRANCH  26  27
ATOM     27  O   UNL A   1      43.311  32.180  41.111  1.00  0.00    -0.460 OA
BRANCH  27  28
ATOM     28  C   UNL A   1      44.075  33.015  40.369  1.00  0.00     0.338 C 
ATOM     29  O   UNL A   1      44.729  33.962  40.778  1.00  0.00    -0.246 OA
BRANCH  28  30
ATOM     30  C   UNL A   1      44.174  32.449  39.001  1.00  0.00     0.060 A 
ATOM     31  C   UNL A   1      43.038  31.870  38.428  1.00  0.00     0.016 A 
ATOM     32  C   UNL A   1      45.354  32.504  38.265  1.00  0.00     0.016 A 
ATOM     33  C   UNL A   1      43.050  31.350  37.139  1.00  0.00     0.010 A 
ATOM     34  C   UNL A   1      45.385  31.949  36.979  1.00  0.00     0.010 A 
ATOM     35  C   UNL A   1      44.239  31.349  36.418  1.00  0.00    -0.014 A 
BRANCH  35  36
ATOM     36  C   UNL A   1      44.335  30.542  35.177  1.00  0.00     0.031 A 
ATOM     37  C   UNL A   1      43.973  31.202  33.878  1.00  0.00     0.074 A 
ATOM     38  C   UNL A   1      44.754  29.264  35.187  1.00  0.00     0.049 A 
ATOM     39  N   UNL A   1      43.811  30.674  32.695  1.00  0.00    -0.248 NA
ATOM     40  C   UNL A   1      43.760  32.659  33.924  1.00  0.00     0.031 C 
ATOM     41  C   UNL A   1      45.213  28.531  36.365  1.00  0.00     0.029 A 
ATOM     42  N   UNL A   1      44.825  28.347  34.166  1.00  0.00    -0.354 N 
ATOM     43  C   UNL A   1      43.396  31.714  31.875  1.00  0.00     0.074 A 
ATOM     44  C   UNL A   1      43.354  32.909  32.689  1.00  0.00     0.031 C 
ATOM     45  C   UNL A   1      45.473  27.261  36.010  1.00  0.00     0.029 A 
ATOM     46  C   UNL A   1      45.142  27.081  34.597  1.00  0.00     0.049 A 
ATOM     47  H   UNL A   1      44.665  28.575  33.222  1.00  0.00     0.167 HD
ATOM     48  C   UNL A   1      43.072  31.675  30.562  1.00  0.00     0.034 A 
ATOM     49  C   UNL A   1      45.107  25.902  33.943  1.00  0.00     0.034 A 
ATOM     50  C   UNL A   1      43.155  30.494  29.748  1.00  0.00     0.049 A 
ATOM     51  C   UNL A   1      44.706  25.872  32.492  1.00  0.00     0.074 A 
ATOM     52  C   UNL A   1      42.898  30.364  28.396  1.00  0.00     0.029 A 
ATOM     53  N   UNL A   1      43.506  29.237  30.213  1.00  0.00    -0.354 N 
ATOM     54  N   UNL A   1      44.369  26.867  31.707  1.00  0.00    -0.248 NA
ATOM     55  C   UNL A   1      44.697  24.559  31.830  1.00  0.00     0.031 C 
ATOM     56  C   UNL A   1      43.047  29.017  28.053  1.00  0.00     0.029 A 
ATOM     57  C   UNL A   1      43.448  28.317  29.180  1.00  0.00     0.049 A 
ATOM     58  H   UNL A   1      43.760  29.027  31.141  1.00  0.00     0.167 HD
ATOM     59  C   UNL A   1      44.138  26.306  30.454  1.00  0.00     0.074 A 
ATOM     60  C   UNL A   1      44.391  24.887  30.582  1.00  0.00     0.031 C 
ATOM     61  C   UNL A   1      43.742  26.912  29.306  1.00  0.00     0.034 A 
BRANCH  48  62
ATOM     62  C   UNL A   1      42.559  32.945  29.937  1.00  0.00     0.023 A 
ATOM     63  C   UNL A   1      41.264  33.417  30.233  1.00  0.00     0.012 A 
ATOM     64  C   UNL A   1      43.382  33.682  29.065  1.00  0.00     0.148 A 
ATOM     65  C   UNL A   1      40.782  34.581  29.632  1.00  0.00     0.002 A 
ATOM     66  C   UNL A   1      42.915  34.867  28.513  1.00  0.00     0.091 A 
ATOM     67  F   UNL A   1      44.600  33.201  28.776  1.00  0.00    -0.205 F 
ATOM     68  C   UNL A   1      41.610  35.310  28.782  1.00  0.00     0.022 A 
BRANCH  66  69
ATOM     69  S   UNL A   1      43.937  35.917  27.476  1.00  0.00     0.127 S 
ATOM     70  O   UNL A   1      45.036  36.248  28.383  1.00  0.00    -0.237 OA
ATOM     71  O   UNL A   1      44.299  35.010  26.386  1.00  0.00    -0.237 OA
ATOM     72  O   UNL A   1      43.093  37.035  27.080  1.00  0.00    -0.744 OA
ENDBRANCH  66  69
ENDBRANCH  48  62
BRANCH  49  73
ATOM     73  C   UNL A   1      45.434  24.644  34.674  1.00  0.00     0.023 A 
ATOM     74  C   UNL A   1      44.399  23.840  35.187  1.00  0.00     0.012 A 
ATOM     75  C   UNL A   1      46.771  24.231  34.834  1.00  0.00     0.148 A 
ATOM     76  C   UNL A   1      44.692  22.656  35.865  1.00  0.00     0.002 A 
ATOM     77  C   UNL A   1      47.053  23.022  35.457  1.00  0.00     0.091 A 
ATOM     78  F   UNL A   1      47.741  25.022  34.355  1.00  0.00    -0.205 F 
ATOM     79  C   UNL A   1      46.015  22.240  35.989  1.00  0.00     0.022 A 
BRANCH  77  80
ATOM     80  S   UNL A   1      48.714  22.346  35.548  1.00  0.00     0.127 S 
ATOM     81  O   UNL A   1      49.158  22.456  34.161  1.00  0.00    -0.237 OA
ATOM     82  O   UNL A   1      49.361  23.271  36.478  1.00  0.00    -0.237 OA
ATOM     83  O   UNL A   1      48.562  20.988  36.053  1.00  0.00    -0.744 OA
ENDBRANCH  77  80
ENDBRANCH  49  73
BRANCH  61  84
ATOM     84  C   UNL A   1      43.596  26.058  28.072  1.00  0.00     0.023 A 
ATOM     85  C   UNL A   1      42.317  25.719  27.592  1.00  0.00     0.012 A 
ATOM     86  C   UNL A   1      44.736  25.664  27.341  1.00  0.00     0.148 A 
ATOM     87  C   UNL A   1      42.174  24.972  26.421  1.00  0.00     0.002 A 
ATOM     88  C   UNL A   1      44.584  24.967  26.148  1.00  0.00     0.091 A 
ATOM     89  F   UNL A   1      45.946  25.983  27.822  1.00  0.00    -0.205 F 
ATOM     90  C   UNL A   1      43.304  24.609  25.694  1.00  0.00     0.022 A 
BRANCH  88  91
ATOM     91  S   UNL A   1      45.975  24.546  25.093  1.00  0.00     0.127 S 
ATOM     92  O   UNL A   1      46.890  23.917  26.045  1.00  0.00    -0.237 OA
ATOM     93  O   UNL A   1      45.368  23.625  24.132  1.00  0.00    -0.237 OA
ATOM     94  O   UNL A   1      46.442  25.801  24.520  1.00  0.00    -0.744 OA
ENDBRANCH  88  91
ENDBRANCH  61  84
ENDBRANCH  35  36
ENDBRANCH  28  30
ENDBRANCH  27  28
ENDBRANCH  26  27
ENDBRANCH  25  26
ENDBRANCH  24  25
ENDBRANCH  23  24
ENDBRANCH   1  23
TORSDOF 26
ENDMDL
