MODEL 1
REMARK VINA RESULT:     -11.0      0.000      0.000
REMARK SMILES Cc1ccc(C)c(S(=O)(=O)N[C@@H](CC2=c3ccccc3=NC2)C(=O)OCCOCCOCCOC(=O)c2ccc(-c3c4nc(c(-c5cccc(S(=O)(=O)[O-])c5F)c5ccc([nH]5)c(-c5cccc(S(=O)(=O)[O-])c5F)c5nc(c(-c6cccc(S(=O)(=O)[O-])c6F)c6ccc3[nH]6)C=C5)C=C4)cc2)c1
REMARK SMILES IDX 29 1 28 2 27 3 26 4 25 5 23 6 24 7 12 8 11 9 8 11 9 12 10 13
REMARK SMILES IDX 7 14 1 15 2 16 3 17 100 18 4 19 5 20 6 21 13 22 14 23 15 24
REMARK SMILES IDX 22 25 16 26 20 27 21 28 17 29 19 30 18 31 30 32 31 33 32 34
REMARK SMILES IDX 33 35 34 36 35 37 36 38 37 39 38 40 99 41 39 42 98 43 40 44
REMARK SMILES IDX 41 45 42 46 92 47 43 48 97 49 91 50 93 51 44 52 96 53 90 54
REMARK SMILES IDX 89 55 45 57 77 58 57 59 76 60 58 61 61 62 75 63 94 64 59 65
REMARK SMILES IDX 60 66 74 68 95 69 62 70 46 71 47 72 55 73 48 74 50 75 56 76
REMARK SMILES IDX 49 77 51 78 52 79 53 80 54 81 78 82 79 83 87 84 80 85 82 86
REMARK SMILES IDX 88 87 81 88 83 89 84 90 85 91 86 92 63 93 64 94 72 95 65 96
REMARK SMILES IDX 67 97 73 98 66 99 68 100 69 101 70 102 71 103
REMARK H PARENT 11 10 93 56 61 67
REMARK Flexibility Score: inf
ROOT
ATOM      1  C   UNL A   1      35.655  21.317  25.677  1.00  0.00     0.188 C 
ENDROOT
BRANCH   1   2
ATOM      2  O   UNL A   1      35.710  22.761  25.797  1.00  0.00    -0.376 OA
BRANCH   2   3
ATOM      3  C   UNL A   1      36.714  23.537  25.131  1.00  0.00     0.202 C 
BRANCH   3   4
ATOM      4  C   UNL A   1      36.570  23.606  23.519  1.00  0.00     0.261 C 
BRANCH   4   5
ATOM      5  O   UNL A   1      35.138  23.720  22.800  1.00  0.00    -0.462 OA
BRANCH   5   6
ATOM      6  C   UNL A   1      33.822  23.815  22.459  1.00  0.00     0.324 C 
ATOM      7  O   UNL A   1      33.581  24.746  21.666  1.00  0.00    -0.250 OA
BRANCH   6   8
ATOM      8  C   UNL A   1      32.452  22.890  22.929  1.00  0.00     0.183 C 
BRANCH   8   9
ATOM      9  N   UNL A   1      31.157  23.683  22.839  1.00  0.00    -0.197 NA
ATOM     10  H   UNL A   1      31.246  24.294  22.028  1.00  0.00     0.142 HD
BRANCH   9  11
ATOM     11  S   UNL A   1      30.637  24.665  24.132  1.00  0.00     0.241 S 
ATOM     12  O   UNL A   1      30.381  23.796  25.230  1.00  0.00    -0.207 OA
ATOM     13  O   UNL A   1      29.573  25.502  23.566  1.00  0.00    -0.207 OA
BRANCH  11  14
ATOM     14  C   UNL A   1      31.934  25.836  24.593  1.00  0.00     0.085 A 
ATOM     15  C   UNL A   1      33.362  29.117  23.244  1.00  0.00     0.044 C 
ATOM     16  C   UNL A   1      33.161  27.900  24.097  1.00  0.00    -0.050 A 
ATOM     17  C   UNL A   1      34.074  27.598  25.103  1.00  0.00     0.004 A 
ATOM     18  C   UNL A   1      32.063  27.047  23.900  1.00  0.00     0.025 A 
ATOM     19  C   UNL A   1      33.903  26.451  25.877  1.00  0.00     0.005 A 
ATOM     20  C   UNL A   1      32.844  25.549  25.633  1.00  0.00    -0.031 A 
ATOM     21  C   UNL A   1      32.752  24.374  26.567  1.00  0.00     0.046 C 
ENDBRANCH  11  14
ENDBRANCH   9  11
ENDBRANCH   8   9
BRANCH   8  22
ATOM     22  C   UNL A   1      31.890  21.217  23.166  1.00  0.00     0.065 C 
BRANCH  22  23
ATOM     23  C   UNL A   1      32.304  19.713  23.085  1.00  0.00    -0.037 C 
ATOM     24  C   UNL A   1      32.766  18.906  24.060  1.00  0.00     0.001 A 
ATOM     25  C   UNL A   1      32.527  18.941  21.786  1.00  0.00     0.174 C 
ATOM     26  C   UNL A   1      33.024  19.038  25.460  1.00  0.00     0.010 A 
ATOM     27  C   UNL A   1      32.724  17.549  23.451  1.00  0.00     0.065 A 
ATOM     28  N   UNL A   1      32.607  17.491  22.162  1.00  0.00    -0.280 NA
ATOM     29  C   UNL A   1      32.924  17.953  26.248  1.00  0.00     0.001 A 
ATOM     30  C   UNL A   1      32.554  16.396  24.392  1.00  0.00     0.028 A 
ATOM     31  C   UNL A   1      32.556  16.652  25.713  1.00  0.00     0.002 A 
ENDBRANCH  22  23
ENDBRANCH   8  22
ENDBRANCH   6   8
ENDBRANCH   5   6
ENDBRANCH   4   5
ENDBRANCH   3   4
ENDBRANCH   2   3
ENDBRANCH   1   2
BRANCH   1  32
ATOM     32  C   UNL A   1      36.643  20.543  24.788  1.00  0.00     0.188 C 
BRANCH  32  33
ATOM     33  O   UNL A   1      37.994  20.526  25.246  1.00  0.00    -0.376 OA
BRANCH  33  34
ATOM     34  C   UNL A   1      38.558  19.202  25.338  1.00  0.00     0.202 C 
BRANCH  34  35
ATOM     35  C   UNL A   1      39.941  19.251  26.004  1.00  0.00     0.261 C 
BRANCH  35  36
ATOM     36  O   UNL A   1      41.103  19.616  25.197  1.00  0.00    -0.460 OA
BRANCH  36  37
ATOM     37  C   UNL A   1      42.400  19.633  25.602  1.00  0.00     0.338 C 
ATOM     38  O   UNL A   1      43.282  18.933  25.128  1.00  0.00    -0.246 OA
BRANCH  37  39
ATOM     39  C   UNL A   1      42.695  20.804  26.457  1.00  0.00     0.060 A 
ATOM     40  C   UNL A   1      43.256  21.966  25.950  1.00  0.00     0.016 A 
ATOM     41  C   UNL A   1      42.305  20.858  27.759  1.00  0.00     0.016 A 
ATOM     42  C   UNL A   1      43.314  23.194  26.633  1.00  0.00     0.010 A 
ATOM     43  C   UNL A   1      42.347  22.112  28.420  1.00  0.00     0.010 A 
ATOM     44  C   UNL A   1      42.672  23.314  27.828  1.00  0.00    -0.014 A 
BRANCH  44  45
ATOM     45  C   UNL A   1      42.481  24.514  28.661  1.00  0.00     0.031 A 
ATOM     46  C   UNL A   1      41.306  25.294  28.233  1.00  0.00     0.074 A 
ATOM     47  C   UNL A   1      43.390  25.005  29.550  1.00  0.00     0.049 A 
ATOM     48  N   UNL A   1      41.273  26.230  27.338  1.00  0.00    -0.248 NA
ATOM     49  C   UNL A   1      39.989  24.837  28.687  1.00  0.00     0.031 C 
ATOM     50  C   UNL A   1      44.459  24.241  30.195  1.00  0.00     0.029 A 
ATOM     51  N   UNL A   1      43.542  26.252  30.132  1.00  0.00    -0.354 N 
ATOM     52  C   UNL A   1      39.976  26.721  27.434  1.00  0.00     0.074 A 
ATOM     53  C   UNL A   1      39.185  25.675  28.030  1.00  0.00     0.031 C 
ATOM     54  C   UNL A   1      45.071  24.979  31.143  1.00  0.00     0.029 A 
ATOM     55  C   UNL A   1      44.458  26.285  31.199  1.00  0.00     0.049 A 
ATOM     56  H   UNL A   1      43.050  27.049  29.826  1.00  0.00     0.167 HD
ATOM     57  C   UNL A   1      39.737  28.061  27.438  1.00  0.00     0.034 A 
ATOM     58  C   UNL A   1      44.671  27.264  32.122  1.00  0.00     0.034 A 
ATOM     59  C   UNL A   1      40.865  28.820  26.991  1.00  0.00     0.049 A 
ATOM     60  C   UNL A   1      44.280  28.541  31.501  1.00  0.00     0.074 A 
ATOM     61  C   UNL A   1      41.507  29.068  25.799  1.00  0.00     0.029 A 
ATOM     62  N   UNL A   1      41.710  29.184  28.001  1.00  0.00    -0.354 N 
ATOM     63  N   UNL A   1      44.954  29.097  30.534  1.00  0.00    -0.248 NA
ATOM     64  C   UNL A   1      42.942  29.071  31.736  1.00  0.00     0.031 C 
ATOM     65  C   UNL A   1      42.829  29.475  26.136  1.00  0.00     0.029 A 
ATOM     66  C   UNL A   1      42.940  29.534  27.522  1.00  0.00     0.049 A 
ATOM     67  H   UNL A   1      41.464  29.192  28.955  1.00  0.00     0.167 HD
ATOM     68  C   UNL A   1      43.971  29.681  29.763  1.00  0.00     0.074 A 
ATOM     69  C   UNL A   1      42.800  29.792  30.623  1.00  0.00     0.031 C 
ATOM     70  C   UNL A   1      44.070  29.672  28.408  1.00  0.00     0.034 A 
BRANCH  57  71
ATOM     71  C   UNL A   1      38.693  28.676  28.334  1.00  0.00     0.023 A 
ATOM     72  C   UNL A   1      37.680  29.477  27.782  1.00  0.00     0.012 A 
ATOM     73  C   UNL A   1      38.820  28.678  29.743  1.00  0.00     0.148 A 
ATOM     74  C   UNL A   1      36.783  30.175  28.604  1.00  0.00     0.002 A 
ATOM     75  C   UNL A   1      37.868  29.275  30.554  1.00  0.00     0.091 A 
ATOM     76  F   UNL A   1      39.951  28.225  30.299  1.00  0.00    -0.205 F 
ATOM     77  C   UNL A   1      36.849  30.040  29.991  1.00  0.00     0.022 A 
BRANCH  75  78
ATOM     78  S   UNL A   1      37.899  29.038  32.332  1.00  0.00     0.127 S 
ATOM     79  O   UNL A   1      39.151  29.695  32.694  1.00  0.00    -0.237 OA
ATOM     80  O   UNL A   1      36.683  29.737  32.750  1.00  0.00    -0.237 OA
ATOM     81  O   UNL A   1      37.848  27.593  32.519  1.00  0.00    -0.744 OA
ENDBRANCH  75  78
ENDBRANCH  57  71
BRANCH  58  82
ATOM     82  C   UNL A   1      44.999  27.188  33.582  1.00  0.00     0.023 A 
ATOM     83  C   UNL A   1      45.929  28.102  34.138  1.00  0.00     0.012 A 
ATOM     84  C   UNL A   1      44.196  26.464  34.488  1.00  0.00     0.148 A 
ATOM     85  C   UNL A   1      45.969  28.363  35.516  1.00  0.00     0.002 A 
ATOM     86  C   UNL A   1      44.240  26.723  35.857  1.00  0.00     0.091 A 
ATOM     87  F   UNL A   1      43.311  25.581  34.019  1.00  0.00    -0.205 F 
ATOM     88  C   UNL A   1      45.105  27.691  36.373  1.00  0.00     0.022 A 
BRANCH  86  89
ATOM     89  S   UNL A   1      43.128  25.890  36.999  1.00  0.00     0.127 S 
ATOM     90  O   UNL A   1      43.658  24.527  37.009  1.00  0.00    -0.237 OA
ATOM     91  O   UNL A   1      43.344  26.642  38.231  1.00  0.00    -0.237 OA
ATOM     92  O   UNL A   1      41.799  26.006  36.407  1.00  0.00    -0.744 OA
ENDBRANCH  86  89
ENDBRANCH  58  82
BRANCH  70  93
ATOM     93  C   UNL A   1      45.436  29.682  27.804  1.00  0.00     0.023 A 
ATOM     94  C   UNL A   1      46.207  30.846  27.635  1.00  0.00     0.012 A 
ATOM     95  C   UNL A   1      45.996  28.426  27.518  1.00  0.00     0.148 A 
ATOM     96  C   UNL A   1      47.538  30.745  27.216  1.00  0.00     0.002 A 
ATOM     97  C   UNL A   1      47.319  28.330  27.126  1.00  0.00     0.091 A 
ATOM     98  F   UNL A   1      45.219  27.343  27.672  1.00  0.00    -0.205 F 
ATOM     99  C   UNL A   1      48.098  29.489  26.981  1.00  0.00     0.022 A 
BRANCH  97 100
ATOM    100  S   UNL A   1      48.104  26.742  26.853  1.00  0.00     0.127 S 
ATOM    101  O   UNL A   1      49.482  27.134  26.557  1.00  0.00    -0.237 OA
ATOM    102  O   UNL A   1      47.918  26.081  28.144  1.00  0.00    -0.237 OA
ATOM    103  O   UNL A   1      47.390  26.119  25.745  1.00  0.00    -0.744 OA
ENDBRANCH  97 100
ENDBRANCH  70  93
ENDBRANCH  44  45
ENDBRANCH  37  39
ENDBRANCH  36  37
ENDBRANCH  35  36
ENDBRANCH  34  35
ENDBRANCH  33  34
ENDBRANCH  32  33
ENDBRANCH   1  32
TORSDOF 25
ENDMDL
MODEL 2
REMARK VINA RESULT:     -10.4      1.561      2.159
REMARK SMILES Cc1ccc(C)c(S(=O)(=O)N[C@@H](CC2=c3ccccc3=NC2)C(=O)OCCOCCOCCOC(=O)c2ccc(-c3c4nc(c(-c5cccc(S(=O)(=O)[O-])c5F)c5ccc([nH]5)c(-c5cccc(S(=O)(=O)[O-])c5F)c5nc(c(-c6cccc(S(=O)(=O)[O-])c6F)c6ccc3[nH]6)C=C5)C=C4)cc2)c1
REMARK SMILES IDX 29 1 28 2 27 3 26 4 25 5 23 6 24 7 12 8 11 9 8 11 9 12 10 13
REMARK SMILES IDX 7 14 1 15 2 16 3 17 100 18 4 19 5 20 6 21 13 22 14 23 15 24
REMARK SMILES IDX 22 25 16 26 20 27 21 28 17 29 19 30 18 31 30 32 31 33 32 34
REMARK SMILES IDX 33 35 34 36 35 37 36 38 37 39 38 40 99 41 39 42 98 43 40 44
REMARK SMILES IDX 41 45 42 46 92 47 43 48 97 49 91 50 93 51 44 52 96 53 90 54
REMARK SMILES IDX 89 55 45 57 77 58 57 59 76 60 58 61 61 62 75 63 94 64 59 65
REMARK SMILES IDX 60 66 74 68 95 69 62 70 46 71 47 72 55 73 48 74 50 75 56 76
REMARK SMILES IDX 49 77 51 78 52 79 53 80 54 81 78 82 79 83 87 84 80 85 82 86
REMARK SMILES IDX 88 87 81 88 83 89 84 90 85 91 86 92 63 93 64 94 72 95 65 96
REMARK SMILES IDX 67 97 73 98 66 99 68 100 69 101 70 102 71 103
REMARK H PARENT 11 10 93 56 61 67
REMARK Flexibility Score: inf
ROOT
ATOM      1  C   UNL A   1      35.929  21.455  25.708  1.00  0.00     0.188 C 
ENDROOT
BRANCH   1   2
ATOM      2  O   UNL A   1      36.263  22.865  25.752  1.00  0.00    -0.376 OA
BRANCH   2   3
ATOM      3  C   UNL A   1      37.275  23.429  24.909  1.00  0.00     0.202 C 
BRANCH   3   4
ATOM      4  C   UNL A   1      36.874  23.551  23.344  1.00  0.00     0.261 C 
BRANCH   4   5
ATOM      5  O   UNL A   1      35.345  23.690  22.869  1.00  0.00    -0.462 OA
BRANCH   5   6
ATOM      6  C   UNL A   1      33.996  23.837  22.748  1.00  0.00     0.324 C 
ATOM      7  O   UNL A   1      33.659  24.546  21.780  1.00  0.00    -0.250 OA
BRANCH   6   8
ATOM      8  C   UNL A   1      32.693  23.225  23.687  1.00  0.00     0.183 C 
BRANCH   8   9
ATOM      9  N   UNL A   1      31.475  24.136  23.653  1.00  0.00    -0.197 NA
ATOM     10  H   UNL A   1      31.455  24.561  22.726  1.00  0.00     0.142 HD
BRANCH   9  11
ATOM     11  S   UNL A   1      31.300  25.410  24.775  1.00  0.00     0.241 S 
ATOM     12  O   UNL A   1      32.572  25.597  25.383  1.00  0.00    -0.207 OA
ATOM     13  O   UNL A   1      30.124  25.048  25.574  1.00  0.00    -0.207 OA
BRANCH  11  14
ATOM     14  C   UNL A   1      30.817  26.931  23.927  1.00  0.00     0.085 A 
ATOM     15  C   UNL A   1      27.565  28.693  22.955  1.00  0.00     0.044 C 
ATOM     16  C   UNL A   1      29.026  28.384  23.097  1.00  0.00    -0.050 A 
ATOM     17  C   UNL A   1      29.968  29.162  22.428  1.00  0.00     0.004 A 
ATOM     18  C   UNL A   1      29.470  27.318  23.893  1.00  0.00     0.025 A 
ATOM     19  C   UNL A   1      31.324  28.859  22.537  1.00  0.00     0.005 A 
ATOM     20  C   UNL A   1      31.772  27.740  23.274  1.00  0.00    -0.031 A 
ATOM     21  C   UNL A   1      33.262  27.550  23.343  1.00  0.00     0.046 C 
ENDBRANCH  11  14
ENDBRANCH   9  11
ENDBRANCH   8   9
BRANCH   8  22
ATOM     22  C   UNL A   1      32.067  21.736  24.436  1.00  0.00     0.065 C 
BRANCH  22  23
ATOM     23  C   UNL A   1      32.433  20.282  24.874  1.00  0.00    -0.037 C 
ATOM     24  C   UNL A   1      32.431  19.150  24.144  1.00  0.00     0.001 A 
ATOM     25  C   UNL A   1      32.597  19.826  26.323  1.00  0.00     0.174 C 
ATOM     26  C   UNL A   1      32.157  18.812  22.783  1.00  0.00     0.010 A 
ATOM     27  C   UNL A   1      33.119  18.161  25.018  1.00  0.00     0.065 A 
ATOM     28  N   UNL A   1      33.235  18.469  26.271  1.00  0.00    -0.280 NA
ATOM     29  C   UNL A   1      32.781  17.753  22.234  1.00  0.00     0.001 A 
ATOM     30  C   UNL A   1      33.837  17.041  24.328  1.00  0.00     0.028 A 
ATOM     31  C   UNL A   1      33.726  16.948  22.990  1.00  0.00     0.002 A 
ENDBRANCH  22  23
ENDBRANCH   8  22
ENDBRANCH   6   8
ENDBRANCH   5   6
ENDBRANCH   4   5
ENDBRANCH   3   4
ENDBRANCH   2   3
ENDBRANCH   1   2
BRANCH   1  32
ATOM     32  C   UNL A   1      36.753  20.456  24.878  1.00  0.00     0.188 C 
BRANCH  32  33
ATOM     33  O   UNL A   1      38.142  20.395  25.198  1.00  0.00    -0.376 OA
BRANCH  33  34
ATOM     34  C   UNL A   1      38.617  19.059  25.460  1.00  0.00     0.202 C 
BRANCH  34  35
ATOM     35  C   UNL A   1      40.051  19.095  26.010  1.00  0.00     0.261 C 
BRANCH  35  36
ATOM     36  O   UNL A   1      41.117  19.638  25.171  1.00  0.00    -0.460 OA
BRANCH  36  37
ATOM     37  C   UNL A   1      42.436  19.718  25.486  1.00  0.00     0.338 C 
ATOM     38  O   UNL A   1      43.322  19.099  24.915  1.00  0.00    -0.246 OA
BRANCH  37  39
ATOM     39  C   UNL A   1      42.721  20.861  26.379  1.00  0.00     0.060 A 
ATOM     40  C   UNL A   1      43.300  22.033  25.918  1.00  0.00     0.016 A 
ATOM     41  C   UNL A   1      42.303  20.882  27.674  1.00  0.00     0.016 A 
ATOM     42  C   UNL A   1      43.352  23.241  26.636  1.00  0.00     0.010 A 
ATOM     43  C   UNL A   1      42.340  22.116  28.371  1.00  0.00     0.010 A 
ATOM     44  C   UNL A   1      42.686  23.332  27.821  1.00  0.00    -0.014 A 
BRANCH  44  45
ATOM     45  C   UNL A   1      42.486  24.509  28.684  1.00  0.00     0.031 A 
ATOM     46  C   UNL A   1      41.398  25.371  28.186  1.00  0.00     0.074 A 
ATOM     47  C   UNL A   1      43.335  24.914  29.669  1.00  0.00     0.049 A 
ATOM     48  N   UNL A   1      41.497  26.340  27.331  1.00  0.00    -0.248 NA
ATOM     49  C   UNL A   1      40.023  24.974  28.502  1.00  0.00     0.031 C 
ATOM     50  C   UNL A   1      44.298  24.066  30.374  1.00  0.00     0.029 A 
ATOM     51  N   UNL A   1      43.501  26.128  30.314  1.00  0.00    -0.354 N 
ATOM     52  C   UNL A   1      40.225  26.901  27.333  1.00  0.00     0.074 A 
ATOM     53  C   UNL A   1      39.328  25.881  27.812  1.00  0.00     0.031 C 
ATOM     54  C   UNL A   1      44.861  24.731  31.403  1.00  0.00     0.029 A 
ATOM     55  C   UNL A   1      44.317  26.068  31.459  1.00  0.00     0.049 A 
ATOM     56  H   UNL A   1      43.083  26.962  30.000  1.00  0.00     0.167 HD
ATOM     57  C   UNL A   1      40.060  28.252  27.372  1.00  0.00     0.034 A 
ATOM     58  C   UNL A   1      44.498  26.999  32.437  1.00  0.00     0.034 A 
ATOM     59  C   UNL A   1      41.263  28.961  27.059  1.00  0.00     0.049 A 
ATOM     60  C   UNL A   1      44.235  28.318  31.838  1.00  0.00     0.074 A 
ATOM     61  C   UNL A   1      42.024  29.215  25.941  1.00  0.00     0.029 A 
ATOM     62  N   UNL A   1      42.032  29.237  28.155  1.00  0.00    -0.354 N 
ATOM     63  N   UNL A   1      45.023  28.869  30.959  1.00  0.00    -0.248 NA
ATOM     64  C   UNL A   1      42.912  28.915  31.976  1.00  0.00     0.031 C 
ATOM     65  C   UNL A   1      43.330  29.532  26.410  1.00  0.00     0.029 A 
ATOM     66  C   UNL A   1      43.317  29.533  27.801  1.00  0.00     0.049 A 
ATOM     67  H   UNL A   1      41.701  29.224  29.082  1.00  0.00     0.167 HD
ATOM     68  C   UNL A   1      44.147  29.537  30.129  1.00  0.00     0.074 A 
ATOM     69  C   UNL A   1      42.911  29.684  30.886  1.00  0.00     0.031 C 
ATOM     70  C   UNL A   1      44.368  29.573  28.789  1.00  0.00     0.034 A 
BRANCH  57  71
ATOM     71  C   UNL A   1      38.974  28.893  28.198  1.00  0.00     0.023 A 
ATOM     72  C   UNL A   1      38.032  29.735  27.583  1.00  0.00     0.012 A 
ATOM     73  C   UNL A   1      38.996  28.874  29.611  1.00  0.00     0.148 A 
ATOM     74  C   UNL A   1      37.101  30.454  28.347  1.00  0.00     0.002 A 
ATOM     75  C   UNL A   1      38.007  29.494  30.358  1.00  0.00     0.091 A 
ATOM     76  F   UNL A   1      40.067  28.375  30.243  1.00  0.00    -0.205 F 
ATOM     77  C   UNL A   1      37.060  30.301  29.732  1.00  0.00     0.022 A 
BRANCH  75  78
ATOM     78  S   UNL A   1      37.899  29.236  32.130  1.00  0.00     0.127 S 
ATOM     79  O   UNL A   1      38.124  27.799  32.232  1.00  0.00    -0.237 OA
ATOM     80  O   UNL A   1      38.991  30.077  32.624  1.00  0.00    -0.237 OA
ATOM     81  O   UNL A   1      36.570  29.712  32.499  1.00  0.00    -0.744 OA
ENDBRANCH  75  78
ENDBRANCH  57  71
BRANCH  58  82
ATOM     82  C   UNL A   1      44.688  26.849  33.916  1.00  0.00     0.023 A 
ATOM     83  C   UNL A   1      43.726  26.137  34.676  1.00  0.00     0.012 A 
ATOM     84  C   UNL A   1      45.930  27.104  34.536  1.00  0.00     0.148 A 
ATOM     85  C   UNL A   1      44.032  25.607  35.938  1.00  0.00     0.002 A 
ATOM     86  C   UNL A   1      46.229  26.580  35.792  1.00  0.00     0.091 A 
ATOM     87  F   UNL A   1      46.868  27.781  33.869  1.00  0.00    -0.205 F 
ATOM     88  C   UNL A   1      45.294  25.807  36.486  1.00  0.00     0.022 A 
BRANCH  86  89
ATOM     89  S   UNL A   1      47.856  26.799  36.528  1.00  0.00     0.127 S 
ATOM     90  O   UNL A   1      47.765  28.148  37.086  1.00  0.00    -0.237 OA
ATOM     91  O   UNL A   1      47.885  25.726  37.518  1.00  0.00    -0.237 OA
ATOM     92  O   UNL A   1      48.805  26.675  35.427  1.00  0.00    -0.744 OA
ENDBRANCH  86  89
ENDBRANCH  58  82
BRANCH  70  93
ATOM     93  C   UNL A   1      45.782  29.526  28.309  1.00  0.00     0.023 A 
ATOM     94  C   UNL A   1      46.614  30.656  28.219  1.00  0.00     0.012 A 
ATOM     95  C   UNL A   1      46.311  28.249  28.065  1.00  0.00     0.148 A 
ATOM     96  C   UNL A   1      47.971  30.500  27.919  1.00  0.00     0.002 A 
ATOM     97  C   UNL A   1      47.659  28.096  27.792  1.00  0.00     0.091 A 
ATOM     98  F   UNL A   1      45.478  27.199  28.141  1.00  0.00    -0.205 F 
ATOM     99  C   UNL A   1      48.496  29.221  27.725  1.00  0.00     0.022 A 
BRANCH  97 100
ATOM    100  S   UNL A   1      48.397  26.477  27.578  1.00  0.00     0.127 S 
ATOM    101  O   UNL A   1      48.070  25.828  28.848  1.00  0.00    -0.237 OA
ATOM    102  O   UNL A   1      47.671  25.959  26.420  1.00  0.00    -0.237 OA
ATOM    103  O   UNL A   1      49.819  26.704  27.351  1.00  0.00    -0.744 OA
ENDBRANCH  97 100
ENDBRANCH  70  93
ENDBRANCH  44  45
ENDBRANCH  37  39
ENDBRANCH  36  37
ENDBRANCH  35  36
ENDBRANCH  34  35
ENDBRANCH  33  34
ENDBRANCH  32  33
ENDBRANCH   1  32
TORSDOF 25
ENDMDL
MODEL 3
REMARK VINA RESULT:     -10.0      1.844      2.178
REMARK SMILES Cc1ccc(C)c(S(=O)(=O)N[C@@H](CC2=c3ccccc3=NC2)C(=O)OCCOCCOCCOC(=O)c2ccc(-c3c4nc(c(-c5cccc(S(=O)(=O)[O-])c5F)c5ccc([nH]5)c(-c5cccc(S(=O)(=O)[O-])c5F)c5nc(c(-c6cccc(S(=O)(=O)[O-])c6F)c6ccc3[nH]6)C=C5)C=C4)cc2)c1
REMARK SMILES IDX 29 1 28 2 27 3 26 4 25 5 23 6 24 7 12 8 11 9 8 11 9 12 10 13
REMARK SMILES IDX 7 14 1 15 2 16 3 17 100 18 4 19 5 20 6 21 13 22 14 23 15 24
REMARK SMILES IDX 22 25 16 26 20 27 21 28 17 29 19 30 18 31 30 32 31 33 32 34
REMARK SMILES IDX 33 35 34 36 35 37 36 38 37 39 38 40 99 41 39 42 98 43 40 44
REMARK SMILES IDX 41 45 42 46 92 47 43 48 97 49 91 50 93 51 44 52 96 53 90 54
REMARK SMILES IDX 89 55 45 57 77 58 57 59 76 60 58 61 61 62 75 63 94 64 59 65
REMARK SMILES IDX 60 66 74 68 95 69 62 70 46 71 47 72 55 73 48 74 50 75 56 76
REMARK SMILES IDX 49 77 51 78 52 79 53 80 54 81 78 82 79 83 87 84 80 85 82 86
REMARK SMILES IDX 88 87 81 88 83 89 84 90 85 91 86 92 63 93 64 94 72 95 65 96
REMARK SMILES IDX 67 97 73 98 66 99 68 100 69 101 70 102 71 103
REMARK H PARENT 11 10 93 56 61 67
REMARK Flexibility Score: inf
ROOT
ATOM      1  C   UNL A   1      35.859  21.232  25.634  1.00  0.00     0.188 C 
ENDROOT
BRANCH   1   2
ATOM      2  O   UNL A   1      36.035  22.671  25.627  1.00  0.00    -0.376 OA
BRANCH   2   3
ATOM      3  C   UNL A   1      37.004  23.310  24.787  1.00  0.00     0.202 C 
BRANCH   3   4
ATOM      4  C   UNL A   1      36.632  23.340  23.211  1.00  0.00     0.261 C 
BRANCH   4   5
ATOM      5  O   UNL A   1      35.136  23.625  22.698  1.00  0.00    -0.462 OA
BRANCH   5   6
ATOM      6  C   UNL A   1      33.792  23.765  22.521  1.00  0.00     0.324 C 
ATOM      7  O   UNL A   1      33.491  24.617  21.663  1.00  0.00    -0.250 OA
BRANCH   6   8
ATOM      8  C   UNL A   1      32.456  22.985  23.269  1.00  0.00     0.183 C 
BRANCH   8   9
ATOM      9  N   UNL A   1      31.143  23.710  23.014  1.00  0.00    -0.197 NA
ATOM     10  H   UNL A   1      31.245  24.191  22.121  1.00  0.00     0.142 HD
BRANCH   9  11
ATOM     11  S   UNL A   1      30.547  24.863  24.121  1.00  0.00     0.241 S 
ATOM     12  O   UNL A   1      30.171  24.150  25.293  1.00  0.00    -0.207 OA
ATOM     13  O   UNL A   1      29.564  25.643  23.360  1.00  0.00    -0.207 OA
BRANCH  11  14
ATOM     14  C   UNL A   1      31.838  26.056  24.542  1.00  0.00     0.085 A 
ATOM     15  C   UNL A   1      33.347  29.218  23.009  1.00  0.00     0.044 C 
ATOM     16  C   UNL A   1      33.103  28.068  23.941  1.00  0.00    -0.050 A 
ATOM     17  C   UNL A   1      33.976  27.836  25.000  1.00  0.00     0.004 A 
ATOM     18  C   UNL A   1      32.005  27.212  23.767  1.00  0.00     0.025 A 
ATOM     19  C   UNL A   1      33.765  26.751  25.849  1.00  0.00     0.005 A 
ATOM     20  C   UNL A   1      32.707  25.840  25.633  1.00  0.00    -0.031 A 
ATOM     21  C   UNL A   1      32.570  24.738  26.647  1.00  0.00     0.046 C 
ENDBRANCH  11  14
ENDBRANCH   9  11
ENDBRANCH   8   9
BRANCH   8  22
ATOM     22  C   UNL A   1      31.934  21.432  23.967  1.00  0.00     0.065 C 
BRANCH  22  23
ATOM     23  C   UNL A   1      32.429  20.095  24.604  1.00  0.00    -0.037 C 
ATOM     24  C   UNL A   1      32.579  18.885  24.030  1.00  0.00     0.001 A 
ATOM     25  C   UNL A   1      32.572  19.846  26.105  1.00  0.00     0.174 C 
ATOM     26  C   UNL A   1      32.405  18.349  22.716  1.00  0.00     0.010 A 
ATOM     27  C   UNL A   1      33.325  18.096  25.047  1.00  0.00     0.065 A 
ATOM     28  N   UNL A   1      33.349  18.571  26.252  1.00  0.00    -0.280 NA
ATOM     29  C   UNL A   1      33.160  17.304  22.332  1.00  0.00     0.001 A 
ATOM     30  C   UNL A   1      34.187  16.983  24.534  1.00  0.00     0.028 A 
ATOM     31  C   UNL A   1      34.148  16.710  23.217  1.00  0.00     0.002 A 
ENDBRANCH  22  23
ENDBRANCH   8  22
ENDBRANCH   6   8
ENDBRANCH   5   6
ENDBRANCH   4   5
ENDBRANCH   3   4
ENDBRANCH   2   3
ENDBRANCH   1   2
BRANCH   1  32
ATOM     32  C   UNL A   1      36.796  20.301  24.845  1.00  0.00     0.188 C 
BRANCH  32  33
ATOM     33  O   UNL A   1      38.146  20.258  25.305  1.00  0.00    -0.376 OA
BRANCH  33  34
ATOM     34  C   UNL A   1      38.658  18.920  25.472  1.00  0.00     0.202 C 
BRANCH  34  35
ATOM     35  C   UNL A   1      40.114  18.958  25.958  1.00  0.00     0.261 C 
BRANCH  35  36
ATOM     36  O   UNL A   1      41.092  19.741  25.206  1.00  0.00    -0.460 OA
BRANCH  36  37
ATOM     37  C   UNL A   1      42.421  19.849  25.468  1.00  0.00     0.338 C 
ATOM     38  O   UNL A   1      43.298  19.271  24.844  1.00  0.00    -0.246 OA
BRANCH  37  39
ATOM     39  C   UNL A   1      42.712  20.976  26.381  1.00  0.00     0.060 A 
ATOM     40  C   UNL A   1      43.299  22.151  25.940  1.00  0.00     0.016 A 
ATOM     41  C   UNL A   1      42.294  20.977  27.676  1.00  0.00     0.016 A 
ATOM     42  C   UNL A   1      43.358  23.346  26.679  1.00  0.00     0.010 A 
ATOM     43  C   UNL A   1      42.338  22.199  28.394  1.00  0.00     0.010 A 
ATOM     44  C   UNL A   1      42.692  23.421  27.865  1.00  0.00    -0.014 A 
BRANCH  44  45
ATOM     45  C   UNL A   1      42.498  24.585  28.747  1.00  0.00     0.031 A 
ATOM     46  C   UNL A   1      41.371  25.424  28.304  1.00  0.00     0.074 A 
ATOM     47  C   UNL A   1      43.378  25.001  29.702  1.00  0.00     0.049 A 
ATOM     48  N   UNL A   1      41.411  26.404  27.456  1.00  0.00    -0.248 NA
ATOM     49  C   UNL A   1      40.020  24.991  28.671  1.00  0.00     0.031 C 
ATOM     50  C   UNL A   1      44.389  24.170  30.358  1.00  0.00     0.029 A 
ATOM     51  N   UNL A   1      43.540  26.212  30.353  1.00  0.00    -0.354 N 
ATOM     52  C   UNL A   1      40.127  26.933  27.516  1.00  0.00     0.074 A 
ATOM     53  C   UNL A   1      39.275  25.887  28.020  1.00  0.00     0.031 C 
ATOM     54  C   UNL A   1      44.977  24.840  31.369  1.00  0.00     0.029 A 
ATOM     55  C   UNL A   1      44.403  26.162  31.462  1.00  0.00     0.049 A 
ATOM     56  H   UNL A   1      43.089  27.039  30.064  1.00  0.00     0.167 HD
ATOM     57  C   UNL A   1      39.931  28.278  27.575  1.00  0.00     0.034 A 
ATOM     58  C   UNL A   1      44.601  27.087  32.442  1.00  0.00     0.034 A 
ATOM     59  C   UNL A   1      41.102  29.020  27.221  1.00  0.00     0.049 A 
ATOM     60  C   UNL A   1      44.282  28.405  31.868  1.00  0.00     0.074 A 
ATOM     61  C   UNL A   1      41.810  29.304  26.076  1.00  0.00     0.029 A 
ATOM     62  N   UNL A   1      41.908  29.305  28.288  1.00  0.00    -0.354 N 
ATOM     63  N   UNL A   1      45.020  28.984  30.963  1.00  0.00    -0.248 NA
ATOM     64  C   UNL A   1      42.952  28.969  32.066  1.00  0.00     0.031 C 
ATOM     65  C   UNL A   1      43.126  29.649  26.495  1.00  0.00     0.029 A 
ATOM     66  C   UNL A   1      43.170  29.636  27.885  1.00  0.00     0.049 A 
ATOM     67  H   UNL A   1      41.616  29.275  29.228  1.00  0.00     0.167 HD
ATOM     68  C   UNL A   1      44.094  29.638  30.177  1.00  0.00     0.074 A 
ATOM     69  C   UNL A   1      42.887  29.747  30.985  1.00  0.00     0.031 C 
ATOM     70  C   UNL A   1      44.260  29.693  28.830  1.00  0.00     0.034 A 
BRANCH  57  71
ATOM     71  C   UNL A   1      38.864  28.884  28.451  1.00  0.00     0.023 A 
ATOM     72  C   UNL A   1      37.835  29.648  27.875  1.00  0.00     0.012 A 
ATOM     73  C   UNL A   1      38.979  28.917  29.861  1.00  0.00     0.148 A 
ATOM     74  C   UNL A   1      36.915  30.339  28.677  1.00  0.00     0.002 A 
ATOM     75  C   UNL A   1      38.005  29.505  30.652  1.00  0.00     0.091 A 
ATOM     76  F   UNL A   1      40.116  28.504  30.434  1.00  0.00    -0.205 F 
ATOM     77  C   UNL A   1      36.972  30.233  30.066  1.00  0.00     0.022 A 
BRANCH  75  78
ATOM     78  S   UNL A   1      38.028  29.304  32.435  1.00  0.00     0.127 S 
ATOM     79  O   UNL A   1      39.387  29.720  32.760  1.00  0.00    -0.237 OA
ATOM     80  O   UNL A   1      36.974  30.228  32.855  1.00  0.00    -0.237 OA
ATOM     81  O   UNL A   1      37.709  27.899  32.658  1.00  0.00    -0.744 OA
ENDBRANCH  75  78
ENDBRANCH  57  71
BRANCH  58  82
ATOM     82  C   UNL A   1      44.856  26.928  33.910  1.00  0.00     0.023 A 
ATOM     83  C   UNL A   1      43.775  26.632  34.778  1.00  0.00     0.012 A 
ATOM     84  C   UNL A   1      46.157  26.743  34.424  1.00  0.00     0.148 A 
ATOM     85  C   UNL A   1      43.984  26.070  36.047  1.00  0.00     0.002 A 
ATOM     86  C   UNL A   1      46.361  26.189  35.685  1.00  0.00     0.091 A 
ATOM     87  F   UNL A   1      47.212  27.019  33.652  1.00  0.00    -0.205 F 
ATOM     88  C   UNL A   1      45.279  25.824  36.490  1.00  0.00     0.022 A 
BRANCH  86  89
ATOM     89  S   UNL A   1      48.018  25.837  36.290  1.00  0.00     0.127 S 
ATOM     90  O   UNL A   1      48.829  25.993  35.083  1.00  0.00    -0.237 OA
ATOM     91  O   UNL A   1      48.202  26.883  37.292  1.00  0.00    -0.237 OA
ATOM     92  O   UNL A   1      47.969  24.470  36.799  1.00  0.00    -0.744 OA
ENDBRANCH  86  89
ENDBRANCH  58  82
BRANCH  70  93
ATOM     93  C   UNL A   1      45.653  29.685  28.292  1.00  0.00     0.023 A 
ATOM     94  C   UNL A   1      46.341  28.517  27.921  1.00  0.00     0.012 A 
ATOM     95  C   UNL A   1      46.226  30.942  28.039  1.00  0.00     0.148 A 
ATOM     96  C   UNL A   1      47.576  28.612  27.271  1.00  0.00     0.002 A 
ATOM     97  C   UNL A   1      47.436  31.033  27.376  1.00  0.00     0.091 A 
ATOM     98  F   UNL A   1      45.545  32.032  28.428  1.00  0.00    -0.205 F 
ATOM     99  C   UNL A   1      48.114  29.867  26.982  1.00  0.00     0.022 A 
BRANCH  97 100
ATOM    100  S   UNL A   1      48.153  32.616  26.939  1.00  0.00     0.127 S 
ATOM    101  O   UNL A   1      47.127  33.179  26.062  1.00  0.00    -0.237 OA
ATOM    102  O   UNL A   1      48.271  33.269  28.242  1.00  0.00    -0.237 OA
ATOM    103  O   UNL A   1      49.424  32.324  26.290  1.00  0.00    -0.744 OA
ENDBRANCH  97 100
ENDBRANCH  70  93
ENDBRANCH  44  45
ENDBRANCH  37  39
ENDBRANCH  36  37
ENDBRANCH  35  36
ENDBRANCH  34  35
ENDBRANCH  33  34
ENDBRANCH  32  33
ENDBRANCH   1  32
TORSDOF 25
ENDMDL
