MODEL 1
REMARK VINA RESULT:      -7.9      0.000      0.000
REMARK SMILES CC(C)(C)Nc1ncnc(N2CCC(C(=O)OCCOCCOCCOC(=O)c3ccc(-c4c5nc(c(-c6cccc(S(=O)(=O)[O-])c6F)c6ccc([nH]6)c(-c6cccc(S(=O)(=O)[O-])c6F)c6nc(c(-c7cccc(S(=O)(=O)[O-])c7F)c7ccc4[nH]7)C=C6)C=C5)cc3)CC2)c1N
REMARK SMILES IDX 21 1 20 2 19 3 18 4 17 5 15 6 16 7 14 8 11 9 12 10 93 11
REMARK SMILES IDX 13 12 92 13 10 14 6 15 7 16 94 17 8 18 9 19 5 20 2 22 1 23
REMARK SMILES IDX 3 24 4 25 95 26 22 29 23 30 24 31 25 32 26 33 27 34 28 35
REMARK SMILES IDX 29 36 30 37 91 38 31 39 90 40 32 41 33 42 34 43 84 44 35 45
REMARK SMILES IDX 89 46 83 47 85 48 36 49 88 50 82 51 81 52 37 54 69 55 49 56
REMARK SMILES IDX 68 57 50 58 53 59 67 60 86 61 51 62 52 63 66 65 87 66 54 67
REMARK SMILES IDX 38 68 39 69 47 70 40 71 42 72 48 73 41 74 43 75 44 76 45 77
REMARK SMILES IDX 46 78 70 79 71 80 79 81 72 82 74 83 80 84 73 85 75 86 76 87
REMARK SMILES IDX 77 88 78 89 55 90 56 91 64 92 57 93 59 94 65 95 58 96 60 97
REMARK SMILES IDX 61 98 62 99 63 100
REMARK H PARENT 5 21 95 27 95 28 85 53 53 64
REMARK Flexibility Score: inf
ROOT
ATOM      1  C   UNL A   1      45.352  25.304  25.269  1.00  0.00     0.188 C 
ENDROOT
BRANCH   1   2
ATOM      2  O   UNL A   1      46.412  26.178  25.629  1.00  0.00    -0.376 OA
BRANCH   2   3
ATOM      3  C   UNL A   1      46.824  27.142  24.665  1.00  0.00     0.202 C 
BRANCH   3   4
ATOM      4  C   UNL A   1      48.314  27.189  24.302  1.00  0.00     0.261 C 
BRANCH   4   5
ATOM      5  O   UNL A   1      48.656  28.120  23.256  1.00  0.00    -0.463 OA
BRANCH   5   6
ATOM      6  C   UNL A   1      48.534  27.634  21.994  1.00  0.00     0.309 C 
ATOM      7  O   UNL A   1      47.554  27.805  21.273  1.00  0.00    -0.252 OA
BRANCH   6   8
ATOM      8  C   UNL A   1      49.733  26.845  21.506  1.00  0.00     0.103 C 
ATOM      9  N   UNL A   1      52.316  26.654  20.313  1.00  0.00    -0.355 N 
ATOM     10  C   UNL A   1      51.216  25.998  19.625  1.00  0.00     0.119 C 
ATOM     11  C   UNL A   1      52.232  26.833  21.750  1.00  0.00     0.119 C 
ATOM     12  C   UNL A   1      49.879  26.648  19.991  1.00  0.00     0.037 C 
ATOM     13  C   UNL A   1      50.950  27.560  22.087  1.00  0.00     0.037 C 
BRANCH   9  14
ATOM     14  C   UNL A   1      53.375  27.168  19.585  1.00  0.00     0.157 A 
ATOM     15  C   UNL A   1      54.469  28.889  18.355  1.00  0.00     0.155 A 
ATOM     16  N   UNL A   1      55.521  28.089  18.129  1.00  0.00    -0.217 NA
ATOM     17  C   UNL A   1      53.321  28.456  19.030  1.00  0.00     0.118 A 
ATOM     18  C   UNL A   1      55.455  26.873  18.687  1.00  0.00     0.226 A 
ATOM     19  N   UNL A   1      54.460  26.385  19.438  1.00  0.00    -0.217 NA
BRANCH  15  20
ATOM     20  N   UNL A   1      54.626  30.195  17.898  1.00  0.00    -0.364 N 
ATOM     21  H   UNL A   1      54.790  30.903  18.561  1.00  0.00     0.162 HD
BRANCH  20  22
ATOM     22  C   UNL A   1      54.559  30.575  16.468  1.00  0.00     0.030 C 
ATOM     23  C   UNL A   1      54.040  31.994  16.179  1.00  0.00     0.034 C 
ATOM     24  C   UNL A   1      53.705  29.533  15.726  1.00  0.00     0.034 C 
ATOM     25  C   UNL A   1      55.993  30.495  15.902  1.00  0.00     0.034 C 
ENDBRANCH  20  22
ENDBRANCH  15  20
BRANCH  17  26
ATOM     26  N   UNL A   1      52.177  29.261  19.106  1.00  0.00    -0.393 N 
ATOM     27  H   UNL A   1      51.284  28.856  19.017  1.00  0.00     0.156 HD
ATOM     28  H   UNL A   1      52.266  30.231  19.249  1.00  0.00     0.156 HD
ENDBRANCH  17  26
ENDBRANCH   9  14
ENDBRANCH   6   8
ENDBRANCH   5   6
ENDBRANCH   4   5
ENDBRANCH   3   4
ENDBRANCH   2   3
ENDBRANCH   1   2
BRANCH   1  29
ATOM     29  C   UNL A   1      45.744  23.893  24.830  1.00  0.00     0.188 C 
BRANCH  29  30
ATOM     30  O   UNL A   1      44.705  23.078  24.311  1.00  0.00    -0.376 OA
BRANCH  30  31
ATOM     31  C   UNL A   1      44.469  21.847  25.001  1.00  0.00     0.202 C 
BRANCH  31  32
ATOM     32  C   UNL A   1      43.231  21.796  25.927  1.00  0.00     0.261 C 
BRANCH  32  33
ATOM     33  O   UNL A   1      41.995  22.317  25.387  1.00  0.00    -0.460 OA
BRANCH  33  34
ATOM     34  C   UNL A   1      40.936  22.431  26.225  1.00  0.00     0.338 C 
ATOM     35  O   UNL A   1      40.221  21.516  26.603  1.00  0.00    -0.246 OA
BRANCH  34  36
ATOM     36  C   UNL A   1      40.954  23.788  26.846  1.00  0.00     0.060 A 
ATOM     37  C   UNL A   1      40.651  24.889  26.029  1.00  0.00     0.016 A 
ATOM     38  C   UNL A   1      41.177  23.989  28.212  1.00  0.00     0.016 A 
ATOM     39  C   UNL A   1      40.619  26.184  26.557  1.00  0.00     0.010 A 
ATOM     40  C   UNL A   1      41.165  25.292  28.737  1.00  0.00     0.010 A 
ATOM     41  C   UNL A   1      40.922  26.401  27.907  1.00  0.00    -0.014 A 
BRANCH  41  42
ATOM     42  C   UNL A   1      41.212  27.779  28.393  1.00  0.00     0.031 A 
ATOM     43  C   UNL A   1      42.651  28.230  28.417  1.00  0.00     0.074 A 
ATOM     44  C   UNL A   1      40.248  28.631  28.795  1.00  0.00     0.049 A 
ATOM     45  N   UNL A   1      43.163  29.361  28.824  1.00  0.00    -0.248 NA
ATOM     46  C   UNL A   1      43.646  27.270  27.907  1.00  0.00     0.031 C 
ATOM     47  C   UNL A   1      38.815  28.349  28.800  1.00  0.00     0.029 A 
ATOM     48  N   UNL A   1      40.341  29.910  29.296  1.00  0.00    -0.354 N 
ATOM     49  C   UNL A   1      44.536  29.245  28.640  1.00  0.00     0.074 A 
ATOM     50  C   UNL A   1      44.781  27.926  28.098  1.00  0.00     0.031 C 
ATOM     51  C   UNL A   1      38.164  29.416  29.299  1.00  0.00     0.029 A 
ATOM     52  C   UNL A   1      39.132  30.447  29.674  1.00  0.00     0.049 A 
ATOM     53  H   UNL A   1      41.194  30.395  29.375  1.00  0.00     0.167 HD
ATOM     54  C   UNL A   1      45.509  30.155  28.875  1.00  0.00     0.034 A 
ATOM     55  C   UNL A   1      38.841  31.625  30.269  1.00  0.00     0.034 A 
ATOM     56  C   UNL A   1      45.278  31.473  29.400  1.00  0.00     0.049 A 
ATOM     57  C   UNL A   1      39.952  32.601  30.585  1.00  0.00     0.074 A 
ATOM     58  C   UNL A   1      46.207  32.468  29.651  1.00  0.00     0.029 A 
ATOM     59  N   UNL A   1      44.042  31.978  29.765  1.00  0.00    -0.354 N 
ATOM     60  N   UNL A   1      41.232  32.514  30.312  1.00  0.00    -0.248 NA
ATOM     61  C   UNL A   1      39.575  33.850  31.267  1.00  0.00     0.031 C 
ATOM     62  C   UNL A   1      45.535  33.565  30.194  1.00  0.00     0.029 A 
ATOM     63  C   UNL A   1      44.184  33.266  30.251  1.00  0.00     0.049 A 
ATOM     64  H   UNL A   1      43.188  31.493  29.690  1.00  0.00     0.167 HD
ATOM     65  C   UNL A   1      41.803  33.704  30.759  1.00  0.00     0.074 A 
ATOM     66  C   UNL A   1      40.728  34.507  31.300  1.00  0.00     0.031 C 
ATOM     67  C   UNL A   1      43.104  34.088  30.736  1.00  0.00     0.034 A 
BRANCH  54  68
ATOM     68  C   UNL A   1      46.924  29.774  28.529  1.00  0.00     0.023 A 
ATOM     69  C   UNL A   1      47.428  30.078  27.249  1.00  0.00     0.012 A 
ATOM     70  C   UNL A   1      47.776  29.199  29.492  1.00  0.00     0.148 A 
ATOM     71  C   UNL A   1      48.754  29.796  26.924  1.00  0.00     0.002 A 
ATOM     72  C   UNL A   1      49.108  28.965  29.175  1.00  0.00     0.091 A 
ATOM     73  F   UNL A   1      47.269  28.900  30.696  1.00  0.00    -0.205 F 
ATOM     74  C   UNL A   1      49.595  29.252  27.889  1.00  0.00     0.022 A 
BRANCH  72  75
ATOM     75  S   UNL A   1      50.297  28.347  30.372  1.00  0.00     0.127 S 
ATOM     76  O   UNL A   1      51.518  28.287  29.570  1.00  0.00    -0.237 OA
ATOM     77  O   UNL A   1      50.285  29.401  31.387  1.00  0.00    -0.237 OA
ATOM     78  O   UNL A   1      49.785  27.060  30.821  1.00  0.00    -0.744 OA
ENDBRANCH  72  75
ENDBRANCH  54  68
BRANCH  55  79
ATOM     79  C   UNL A   1      37.422  31.980  30.575  1.00  0.00     0.023 A 
ATOM     80  C   UNL A   1      36.904  31.717  31.859  1.00  0.00     0.012 A 
ATOM     81  C   UNL A   1      36.588  32.582  29.612  1.00  0.00     0.148 A 
ATOM     82  C   UNL A   1      35.578  32.026  32.171  1.00  0.00     0.002 A 
ATOM     83  C   UNL A   1      35.286  32.939  29.947  1.00  0.00     0.091 A 
ATOM     84  F   UNL A   1      37.089  32.801  28.388  1.00  0.00    -0.205 F 
ATOM     85  C   UNL A   1      34.775  32.648  31.221  1.00  0.00     0.022 A 
BRANCH  83  86
ATOM     86  S   UNL A   1      34.214  33.854  28.832  1.00  0.00     0.127 S 
ATOM     87  O   UNL A   1      33.733  32.797  27.945  1.00  0.00    -0.237 OA
ATOM     88  O   UNL A   1      33.211  34.387  29.754  1.00  0.00    -0.237 OA
ATOM     89  O   UNL A   1      35.060  34.861  28.209  1.00  0.00    -0.744 OA
ENDBRANCH  83  86
ENDBRANCH  55  79
BRANCH  67  90
ATOM     90  C   UNL A   1      43.468  35.447  31.287  1.00  0.00     0.023 A 
ATOM     91  C   UNL A   1      43.668  36.526  30.404  1.00  0.00     0.012 A 
ATOM     92  C   UNL A   1      43.479  35.682  32.678  1.00  0.00     0.148 A 
ATOM     93  C   UNL A   1      43.894  37.812  30.896  1.00  0.00     0.002 A 
ATOM     94  C   UNL A   1      43.655  36.975  33.159  1.00  0.00     0.091 A 
ATOM     95  F   UNL A   1      43.298  34.641  33.503  1.00  0.00    -0.205 F 
ATOM     96  C   UNL A   1      43.873  38.040  32.269  1.00  0.00     0.022 A 
BRANCH  94  97
ATOM     97  S   UNL A   1      43.535  37.385  34.905  1.00  0.00     0.127 S 
ATOM     98  O   UNL A   1      43.789  38.824  34.890  1.00  0.00    -0.237 OA
ATOM     99  O   UNL A   1      42.154  37.014  35.216  1.00  0.00    -0.237 OA
ATOM    100  O   UNL A   1      44.545  36.581  35.579  1.00  0.00    -0.744 OA
ENDBRANCH  94  97
ENDBRANCH  67  90
ENDBRANCH  41  42
ENDBRANCH  34  36
ENDBRANCH  33  34
ENDBRANCH  32  33
ENDBRANCH  31  32
ENDBRANCH  30  31
ENDBRANCH  29  30
ENDBRANCH   1  29
TORSDOF 24
ENDMDL
MODEL 2
REMARK VINA RESULT:      -7.7      7.285     14.101
REMARK SMILES CC(C)(C)Nc1ncnc(N2CCC(C(=O)OCCOCCOCCOC(=O)c3ccc(-c4c5nc(c(-c6cccc(S(=O)(=O)[O-])c6F)c6ccc([nH]6)c(-c6cccc(S(=O)(=O)[O-])c6F)c6nc(c(-c7cccc(S(=O)(=O)[O-])c7F)c7ccc4[nH]7)C=C6)C=C5)cc3)CC2)c1N
REMARK SMILES IDX 21 1 20 2 19 3 18 4 17 5 15 6 16 7 14 8 11 9 12 10 93 11
REMARK SMILES IDX 13 12 92 13 10 14 6 15 7 16 94 17 8 18 9 19 5 20 2 22 1 23
REMARK SMILES IDX 3 24 4 25 95 26 22 29 23 30 24 31 25 32 26 33 27 34 28 35
REMARK SMILES IDX 29 36 30 37 91 38 31 39 90 40 32 41 33 42 34 43 84 44 35 45
REMARK SMILES IDX 89 46 83 47 85 48 36 49 88 50 82 51 81 52 37 54 69 55 49 56
REMARK SMILES IDX 68 57 50 58 53 59 67 60 86 61 51 62 52 63 66 65 87 66 54 67
REMARK SMILES IDX 38 68 39 69 47 70 40 71 42 72 48 73 41 74 43 75 44 76 45 77
REMARK SMILES IDX 46 78 70 79 71 80 79 81 72 82 74 83 80 84 73 85 75 86 76 87
REMARK SMILES IDX 77 88 78 89 55 90 56 91 64 92 57 93 59 94 65 95 58 96 60 97
REMARK SMILES IDX 61 98 62 99 63 100
REMARK H PARENT 5 21 95 27 95 28 85 53 53 64
REMARK Flexibility Score: inf
ROOT
ATOM      1  C   UNL A   1      45.302  37.442  33.577  1.00  0.00     0.188 C 
ENDROOT
BRANCH   1   2
ATOM      2  O   UNL A   1      44.456  36.844  34.548  1.00  0.00    -0.376 OA
BRANCH   2   3
ATOM      3  C   UNL A   1      43.119  37.326  34.638  1.00  0.00     0.202 C 
BRANCH   3   4
ATOM      4  C   UNL A   1      42.130  36.515  35.485  1.00  0.00     0.261 C 
BRANCH   4   5
ATOM      5  O   UNL A   1      41.167  35.752  34.731  1.00  0.00    -0.463 OA
BRANCH   5   6
ATOM      6  C   UNL A   1      40.049  35.402  35.418  1.00  0.00     0.309 C 
ATOM      7  O   UNL A   1      39.272  36.199  35.936  1.00  0.00    -0.252 OA
BRANCH   6   8
ATOM      8  C   UNL A   1      39.804  33.908  35.501  1.00  0.00     0.103 C 
ATOM      9  N   UNL A   1      38.896  31.433  34.413  1.00  0.00    -0.355 N 
ATOM     10  C   UNL A   1      38.224  31.921  35.606  1.00  0.00     0.119 C 
ATOM     11  C   UNL A   1      40.273  31.825  34.178  1.00  0.00     0.119 C 
ATOM     12  C   UNL A   1      38.359  33.442  35.725  1.00  0.00     0.037 C 
ATOM     13  C   UNL A   1      40.373  33.334  34.206  1.00  0.00     0.037 C 
BRANCH   9  14
ATOM     14  C   UNL A   1      38.196  30.680  33.487  1.00  0.00     0.157 A 
ATOM     15  C   UNL A   1      36.718  30.430  31.635  1.00  0.00     0.155 A 
ATOM     16  N   UNL A   1      36.824  29.095  31.703  1.00  0.00    -0.217 NA
ATOM     17  C   UNL A   1      37.337  31.286  32.555  1.00  0.00     0.118 A 
ATOM     18  C   UNL A   1      37.653  28.627  32.645  1.00  0.00     0.226 A 
ATOM     19  N   UNL A   1      38.377  29.347  33.510  1.00  0.00    -0.217 NA
BRANCH  15  20
ATOM     20  N   UNL A   1      35.975  30.898  30.554  1.00  0.00    -0.364 N 
ATOM     21  H   UNL A   1      35.003  30.999  30.667  1.00  0.00     0.162 HD
BRANCH  20  22
ATOM     22  C   UNL A   1      36.570  31.252  29.245  1.00  0.00     0.030 C 
ATOM     23  C   UNL A   1      38.106  31.294  29.201  1.00  0.00     0.034 C 
ATOM     24  C   UNL A   1      35.986  32.602  28.793  1.00  0.00     0.034 C 
ATOM     25  C   UNL A   1      36.117  30.183  28.229  1.00  0.00     0.034 C 
ENDBRANCH  20  22
ENDBRANCH  15  20
BRANCH  17  26
ATOM     26  N   UNL A   1      37.076  32.662  32.556  1.00  0.00    -0.393 N 
ATOM     27  H   UNL A   1      36.146  32.986  32.544  1.00  0.00     0.156 HD
ATOM     28  H   UNL A   1      37.821  33.305  32.569  1.00  0.00     0.156 HD
ENDBRANCH  17  26
ENDBRANCH   9  14
ENDBRANCH   6   8
ENDBRANCH   5   6
ENDBRANCH   4   5
ENDBRANCH   3   4
ENDBRANCH   2   3
ENDBRANCH   1   2
BRANCH   1  29
ATOM     29  C   UNL A   1      44.637  37.920  32.286  1.00  0.00     0.188 C 
BRANCH  29  30
ATOM     30  O   UNL A   1      45.445  37.926  31.120  1.00  0.00    -0.376 OA
BRANCH  30  31
ATOM     31  C   UNL A   1      45.032  37.053  30.066  1.00  0.00     0.202 C 
BRANCH  31  32
ATOM     32  C   UNL A   1      43.570  37.196  29.579  1.00  0.00     0.261 C 
BRANCH  32  33
ATOM     33  O   UNL A   1      43.209  36.464  28.385  1.00  0.00    -0.460 OA
BRANCH  33  34
ATOM     34  C   UNL A   1      42.115  35.666  28.437  1.00  0.00     0.338 C 
ATOM     35  O   UNL A   1      41.035  35.898  27.918  1.00  0.00    -0.246 OA
BRANCH  34  36
ATOM     36  C   UNL A   1      42.515  34.331  28.973  1.00  0.00     0.060 A 
ATOM     37  C   UNL A   1      41.672  33.723  29.917  1.00  0.00     0.016 A 
ATOM     38  C   UNL A   1      43.640  33.641  28.513  1.00  0.00     0.016 A 
ATOM     39  C   UNL A   1      41.973  32.458  30.434  1.00  0.00     0.010 A 
ATOM     40  C   UNL A   1      43.953  32.380  29.047  1.00  0.00     0.010 A 
ATOM     41  C   UNL A   1      43.142  31.796  30.037  1.00  0.00    -0.014 A 
BRANCH  41  42
ATOM     42  C   UNL A   1      43.634  30.623  30.814  1.00  0.00     0.031 A 
ATOM     43  C   UNL A   1      43.437  29.251  30.218  1.00  0.00     0.074 A 
ATOM     44  C   UNL A   1      44.251  30.743  32.005  1.00  0.00     0.049 A 
ATOM     45  N   UNL A   1      43.745  28.079  30.708  1.00  0.00    -0.248 NA
ATOM     46  C   UNL A   1      42.811  29.199  28.886  1.00  0.00     0.031 C 
ATOM     47  C   UNL A   1      44.538  32.000  32.690  1.00  0.00     0.029 A 
ATOM     48  N   UNL A   1      44.733  29.777  32.860  1.00  0.00    -0.354 N 
ATOM     49  C   UNL A   1      43.334  27.151  29.758  1.00  0.00     0.074 A 
ATOM     50  C   UNL A   1      42.740  27.894  28.669  1.00  0.00     0.031 C 
ATOM     51  C   UNL A   1      45.128  31.729  33.869  1.00  0.00     0.029 A 
ATOM     52  C   UNL A   1      45.239  30.279  34.038  1.00  0.00     0.049 A 
ATOM     53  H   UNL A   1      44.718  28.816  32.648  1.00  0.00     0.167 HD
ATOM     54  C   UNL A   1      43.456  25.804  29.773  1.00  0.00     0.034 A 
ATOM     55  C   UNL A   1      45.718  29.645  35.130  1.00  0.00     0.034 A 
ATOM     56  C   UNL A   1      44.055  25.054  30.843  1.00  0.00     0.049 A 
ATOM     57  C   UNL A   1      45.784  28.134  35.152  1.00  0.00     0.074 A 
ATOM     58  C   UNL A   1      44.237  23.685  30.930  1.00  0.00     0.029 A 
ATOM     59  N   UNL A   1      44.558  25.601  32.012  1.00  0.00    -0.354 N 
ATOM     60  N   UNL A   1      45.482  27.279  34.204  1.00  0.00    -0.248 NA
ATOM     61  C   UNL A   1      46.281  27.502  36.385  1.00  0.00     0.031 C 
ATOM     62  C   UNL A   1      44.826  23.400  32.164  1.00  0.00     0.029 A 
ATOM     63  C   UNL A   1      45.039  24.595  32.832  1.00  0.00     0.049 A 
ATOM     64  H   UNL A   1      44.571  26.561  32.227  1.00  0.00     0.167 HD
ATOM     65  C   UNL A   1      45.782  26.017  34.715  1.00  0.00     0.074 A 
ATOM     66  C   UNL A   1      46.311  26.219  36.046  1.00  0.00     0.031 C 
ATOM     67  C   UNL A   1      45.619  24.802  34.135  1.00  0.00     0.034 A 
BRANCH  54  68
ATOM     68  C   UNL A   1      42.964  25.042  28.571  1.00  0.00     0.023 A 
ATOM     69  C   UNL A   1      41.581  24.823  28.411  1.00  0.00     0.012 A 
ATOM     70  C   UNL A   1      43.854  24.623  27.564  1.00  0.00     0.148 A 
ATOM     71  C   UNL A   1      41.092  24.178  27.276  1.00  0.00     0.002 A 
ATOM     72  C   UNL A   1      43.355  24.024  26.414  1.00  0.00     0.091 A 
ATOM     73  F   UNL A   1      45.166  24.824  27.747  1.00  0.00    -0.205 F 
ATOM     74  C   UNL A   1      41.977  23.791  26.273  1.00  0.00     0.022 A 
BRANCH  72  75
ATOM     75  S   UNL A   1      44.399  23.565  25.025  1.00  0.00     0.127 S 
ATOM     76  O   UNL A   1      43.426  22.975  24.107  1.00  0.00    -0.237 OA
ATOM     77  O   UNL A   1      44.930  24.862  24.601  1.00  0.00    -0.237 OA
ATOM     78  O   UNL A   1      45.392  22.642  25.555  1.00  0.00    -0.744 OA
ENDBRANCH  72  75
ENDBRANCH  54  68
BRANCH  55  79
ATOM     79  C   UNL A   1      46.221  30.434  36.295  1.00  0.00     0.023 A 
ATOM     80  C   UNL A   1      47.570  30.842  36.324  1.00  0.00     0.012 A 
ATOM     81  C   UNL A   1      45.377  30.790  37.365  1.00  0.00     0.148 A 
ATOM     82  C   UNL A   1      48.073  31.569  37.404  1.00  0.00     0.002 A 
ATOM     83  C   UNL A   1      45.870  31.564  38.411  1.00  0.00     0.091 A 
ATOM     84  F   UNL A   1      44.104  30.371  37.334  1.00  0.00    -0.205 F 
ATOM     85  C   UNL A   1      47.222  31.941  38.440  1.00  0.00     0.022 A 
BRANCH  83  86
ATOM     86  S   UNL A   1      44.823  32.194  39.728  1.00  0.00     0.127 S 
ATOM     87  O   UNL A   1      44.267  30.963  40.283  1.00  0.00    -0.237 OA
ATOM     88  O   UNL A   1      45.797  32.871  40.584  1.00  0.00    -0.237 OA
ATOM     89  O   UNL A   1      43.866  33.081  39.081  1.00  0.00    -0.744 OA
ENDBRANCH  83  86
ENDBRANCH  55  79
BRANCH  67  90
ATOM     90  C   UNL A   1      46.030  23.570  34.908  1.00  0.00     0.023 A 
ATOM     91  C   UNL A   1      45.055  22.819  35.593  1.00  0.00     0.012 A 
ATOM     92  C   UNL A   1      47.354  23.087  34.845  1.00  0.00     0.148 A 
ATOM     93  C   UNL A   1      45.394  21.619  36.218  1.00  0.00     0.002 A 
ATOM     94  C   UNL A   1      47.673  21.866  35.428  1.00  0.00     0.091 A 
ATOM     95  F   UNL A   1      48.272  23.821  34.199  1.00  0.00    -0.205 F 
ATOM     96  C   UNL A   1      46.696  21.135  36.124  1.00  0.00     0.022 A 
BRANCH  94  97
ATOM     97  S   UNL A   1      49.296  21.108  35.266  1.00  0.00     0.127 S 
ATOM     98  O   UNL A   1      49.341  20.806  33.837  1.00  0.00    -0.237 OA
ATOM     99  O   UNL A   1      50.186  22.189  35.689  1.00  0.00    -0.237 OA
ATOM    100  O   UNL A   1      49.289  19.948  36.147  1.00  0.00    -0.744 OA
ENDBRANCH  94  97
ENDBRANCH  67  90
ENDBRANCH  41  42
ENDBRANCH  34  36
ENDBRANCH  33  34
ENDBRANCH  32  33
ENDBRANCH  31  32
ENDBRANCH  30  31
ENDBRANCH  29  30
ENDBRANCH   1  29
TORSDOF 24
ENDMDL
MODEL 3
REMARK VINA RESULT:      -7.7      6.568     13.910
REMARK SMILES CC(C)(C)Nc1ncnc(N2CCC(C(=O)OCCOCCOCCOC(=O)c3ccc(-c4c5nc(c(-c6cccc(S(=O)(=O)[O-])c6F)c6ccc([nH]6)c(-c6cccc(S(=O)(=O)[O-])c6F)c6nc(c(-c7cccc(S(=O)(=O)[O-])c7F)c7ccc4[nH]7)C=C6)C=C5)cc3)CC2)c1N
REMARK SMILES IDX 21 1 20 2 19 3 18 4 17 5 15 6 16 7 14 8 11 9 12 10 93 11
REMARK SMILES IDX 13 12 92 13 10 14 6 15 7 16 94 17 8 18 9 19 5 20 2 22 1 23
REMARK SMILES IDX 3 24 4 25 95 26 22 29 23 30 24 31 25 32 26 33 27 34 28 35
REMARK SMILES IDX 29 36 30 37 91 38 31 39 90 40 32 41 33 42 34 43 84 44 35 45
REMARK SMILES IDX 89 46 83 47 85 48 36 49 88 50 82 51 81 52 37 54 69 55 49 56
REMARK SMILES IDX 68 57 50 58 53 59 67 60 86 61 51 62 52 63 66 65 87 66 54 67
REMARK SMILES IDX 38 68 39 69 47 70 40 71 42 72 48 73 41 74 43 75 44 76 45 77
REMARK SMILES IDX 46 78 70 79 71 80 79 81 72 82 74 83 80 84 73 85 75 86 76 87
REMARK SMILES IDX 77 88 78 89 55 90 56 91 64 92 57 93 59 94 65 95 58 96 60 97
REMARK SMILES IDX 61 98 62 99 63 100
REMARK H PARENT 5 21 95 27 95 28 85 53 53 64
REMARK Flexibility Score: inf
ROOT
ATOM      1  C   UNL A   1      36.626  23.432  25.719  1.00  0.00     0.188 C 
ENDROOT
BRANCH   1   2
ATOM      2  O   UNL A   1      35.237  23.161  25.603  1.00  0.00    -0.376 OA
BRANCH   2   3
ATOM      3  C   UNL A   1      34.379  24.256  25.299  1.00  0.00     0.202 C 
BRANCH   3   4
ATOM      4  C   UNL A   1      32.942  23.931  24.870  1.00  0.00     0.261 C 
BRANCH   4   5
ATOM      5  O   UNL A   1      31.927  24.769  25.458  1.00  0.00    -0.463 OA
BRANCH   5   6
ATOM      6  C   UNL A   1      31.515  25.802  24.677  1.00  0.00     0.309 C 
ATOM      7  O   UNL A   1      31.320  25.725  23.467  1.00  0.00    -0.252 OA
BRANCH   6   8
ATOM      8  C   UNL A   1      31.293  27.103  25.423  1.00  0.00     0.103 C 
ATOM      9  N   UNL A   1      32.219  29.532  26.596  1.00  0.00    -0.355 N 
ATOM     10  C   UNL A   1      31.596  28.561  27.481  1.00  0.00     0.119 C 
ATOM     11  C   UNL A   1      31.839  29.544  25.196  1.00  0.00     0.119 C 
ATOM     12  C   UNL A   1      31.702  27.148  26.901  1.00  0.00     0.037 C 
ATOM     13  C   UNL A   1      32.038  28.163  24.614  1.00  0.00     0.037 C 
BRANCH   9  14
ATOM     14  C   UNL A   1      33.215  30.363  27.078  1.00  0.00     0.157 A 
ATOM     15  C   UNL A   1      35.467  30.847  27.687  1.00  0.00     0.155 A 
ATOM     16  N   UNL A   1      35.120  32.085  28.070  1.00  0.00    -0.217 NA
ATOM     17  C   UNL A   1      34.533  29.905  27.238  1.00  0.00     0.118 A 
ATOM     18  C   UNL A   1      33.832  32.407  27.894  1.00  0.00     0.226 A 
ATOM     19  N   UNL A   1      32.871  31.629  27.378  1.00  0.00    -0.217 NA
BRANCH  15  20
ATOM     20  N   UNL A   1      36.834  30.587  27.736  1.00  0.00    -0.364 N 
ATOM     21  H   UNL A   1      37.354  30.680  26.906  1.00  0.00     0.162 HD
BRANCH  20  22
ATOM     22  C   UNL A   1      37.546  30.181  28.969  1.00  0.00     0.030 C 
ATOM     23  C   UNL A   1      36.691  29.460  30.025  1.00  0.00     0.034 C 
ATOM     24  C   UNL A   1      38.212  31.425  29.581  1.00  0.00     0.034 C 
ATOM     25  C   UNL A   1      38.668  29.206  28.553  1.00  0.00     0.034 C 
ENDBRANCH  20  22
ENDBRANCH  15  20
BRANCH  17  26
ATOM     26  N   UNL A   1      34.900  28.575  27.002  1.00  0.00    -0.393 N 
ATOM     27  H   UNL A   1      35.321  28.325  26.147  1.00  0.00     0.156 HD
ATOM     28  H   UNL A   1      34.738  27.889  27.689  1.00  0.00     0.156 HD
ENDBRANCH  17  26
ENDBRANCH   9  14
ENDBRANCH   6   8
ENDBRANCH   5   6
ENDBRANCH   4   5
ENDBRANCH   3   4
ENDBRANCH   2   3
ENDBRANCH   1   2
BRANCH   1  29
ATOM     29  C   UNL A   1      37.552  22.224  25.870  1.00  0.00     0.188 C 
BRANCH  29  30
ATOM     30  O   UNL A   1      38.861  22.485  26.353  1.00  0.00    -0.376 OA
BRANCH  30  31
ATOM     31  C   UNL A   1      39.290  23.848  26.297  1.00  0.00     0.202 C 
BRANCH  31  32
ATOM     32  C   UNL A   1      40.005  24.403  27.552  1.00  0.00     0.261 C 
BRANCH  32  33
ATOM     33  O   UNL A   1      40.511  25.755  27.465  1.00  0.00    -0.460 OA
BRANCH  33  34
ATOM     34  C   UNL A   1      41.475  26.012  26.548  1.00  0.00     0.338 C 
ATOM     35  O   UNL A   1      41.289  26.344  25.388  1.00  0.00    -0.246 OA
BRANCH  34  36
ATOM     36  C   UNL A   1      42.792  26.116  27.245  1.00  0.00     0.060 A 
ATOM     37  C   UNL A   1      43.616  24.979  27.264  1.00  0.00     0.016 A 
ATOM     38  C   UNL A   1      43.259  27.311  27.799  1.00  0.00     0.016 A 
ATOM     39  C   UNL A   1      44.876  25.020  27.872  1.00  0.00     0.010 A 
ATOM     40  C   UNL A   1      44.515  27.346  28.428  1.00  0.00     0.010 A 
ATOM     41  C   UNL A   1      45.316  26.192  28.501  1.00  0.00    -0.014 A 
BRANCH  41  42
ATOM     42  C   UNL A   1      46.487  26.148  29.421  1.00  0.00     0.031 A 
ATOM     43  C   UNL A   1      47.844  26.473  28.850  1.00  0.00     0.074 A 
ATOM     44  C   UNL A   1      46.376  25.847  30.730  1.00  0.00     0.049 A 
ATOM     45  N   UNL A   1      49.015  26.472  29.433  1.00  0.00    -0.248 NA
ATOM     46  C   UNL A   1      47.883  26.853  27.427  1.00  0.00     0.031 C 
ATOM     47  C   UNL A   1      45.131  25.542  31.428  1.00  0.00     0.029 A 
ATOM     48  N   UNL A   1      47.344  25.732  31.702  1.00  0.00    -0.354 N 
ATOM     49  C   UNL A   1      49.929  26.831  28.449  1.00  0.00     0.074 A 
ATOM     50  C   UNL A   1      49.180  27.026  27.226  1.00  0.00     0.031 C 
ATOM     51  C   UNL A   1      45.412  25.254  32.713  1.00  0.00     0.029 A 
ATOM     52  C   UNL A   1      46.858  25.328  32.925  1.00  0.00     0.049 A 
ATOM     53  H   UNL A   1      48.296  25.921  31.538  1.00  0.00     0.167 HD
ATOM     54  C   UNL A   1      51.266  27.006  28.550  1.00  0.00     0.034 A 
ATOM     55  C   UNL A   1      47.504  25.037  34.075  1.00  0.00     0.034 A 
ATOM     56  C   UNL A   1      52.019  26.827  29.760  1.00  0.00     0.049 A 
ATOM     57  C   UNL A   1      49.008  25.175  34.147  1.00  0.00     0.074 A 
ATOM     58  C   UNL A   1      53.379  27.003  29.955  1.00  0.00     0.029 A 
ATOM     59  N   UNL A   1      51.489  26.424  30.974  1.00  0.00    -0.354 N 
ATOM     60  N   UNL A   1      49.844  25.610  33.234  1.00  0.00    -0.248 NA
ATOM     61  C   UNL A   1      49.656  24.806  35.416  1.00  0.00     0.031 C 
ATOM     62  C   UNL A   1      53.675  26.680  31.281  1.00  0.00     0.029 A 
ATOM     63  C   UNL A   1      52.495  26.333  31.921  1.00  0.00     0.049 A 
ATOM     64  H   UNL A   1      50.538  26.231  31.139  1.00  0.00     0.167 HD
ATOM     65  C   UNL A   1      51.104  25.597  33.828  1.00  0.00     0.074 A 
ATOM     66  C   UNL A   1      50.922  25.133  35.187  1.00  0.00     0.031 C 
ATOM     67  C   UNL A   1      52.304  25.926  33.290  1.00  0.00     0.034 A 
BRANCH  54  68
ATOM     68  C   UNL A   1      52.010  27.452  27.318  1.00  0.00     0.023 A 
ATOM     69  C   UNL A   1      52.180  28.830  27.077  1.00  0.00     0.012 A 
ATOM     70  C   UNL A   1      52.610  26.516  26.455  1.00  0.00     0.148 A 
ATOM     71  C   UNL A   1      52.920  29.270  25.980  1.00  0.00     0.002 A 
ATOM     72  C   UNL A   1      53.384  26.963  25.391  1.00  0.00     0.091 A 
ATOM     73  F   UNL A   1      52.416  25.212  26.693  1.00  0.00    -0.205 F 
ATOM     74  C   UNL A   1      53.531  28.339  25.147  1.00  0.00     0.022 A 
BRANCH  72  75
ATOM     75  S   UNL A   1      54.285  25.848  24.309  1.00  0.00     0.127 S 
ATOM     76  O   UNL A   1      53.289  25.575  23.273  1.00  0.00    -0.237 OA
ATOM     77  O   UNL A   1      55.405  26.682  23.873  1.00  0.00    -0.237 OA
ATOM     78  O   UNL A   1      54.658  24.704  25.128  1.00  0.00    -0.744 OA
ENDBRANCH  72  75
ENDBRANCH  54  68
BRANCH  55  79
ATOM     79  C   UNL A   1      46.731  24.620  35.285  1.00  0.00     0.023 A 
ATOM     80  C   UNL A   1      46.392  23.263  35.456  1.00  0.00     0.012 A 
ATOM     81  C   UNL A   1      46.338  25.552  36.266  1.00  0.00     0.148 A 
ATOM     82  C   UNL A   1      45.659  22.846  36.569  1.00  0.00     0.002 A 
ATOM     83  C   UNL A   1      45.658  25.120  37.400  1.00  0.00     0.091 A 
ATOM     84  F   UNL A   1      46.645  26.843  36.073  1.00  0.00    -0.205 F 
ATOM     85  C   UNL A   1      45.304  23.770  37.546  1.00  0.00     0.022 A 
BRANCH  83  86
ATOM     86  S   UNL A   1      45.264  26.215  38.770  1.00  0.00     0.127 S 
ATOM     87  O   UNL A   1      44.143  26.980  38.229  1.00  0.00    -0.237 OA
ATOM     88  O   UNL A   1      44.909  25.261  39.820  1.00  0.00    -0.237 OA
ATOM     89  O   UNL A   1      46.479  26.976  39.028  1.00  0.00    -0.744 OA
ENDBRANCH  83  86
ENDBRANCH  55  79
BRANCH  67  90
ATOM     90  C   UNL A   1      53.538  25.828  34.156  1.00  0.00     0.023 A 
ATOM     91  C   UNL A   1      53.928  26.929  34.942  1.00  0.00     0.012 A 
ATOM     92  C   UNL A   1      54.230  24.606  34.291  1.00  0.00     0.148 A 
ATOM     93  C   UNL A   1      54.997  26.823  35.832  1.00  0.00     0.002 A 
ATOM     94  C   UNL A   1      55.261  24.492  35.217  1.00  0.00     0.091 A 
ATOM     95  F   UNL A   1      53.852  23.570  33.527  1.00  0.00    -0.205 F 
ATOM     96  C   UNL A   1      55.653  25.604  35.981  1.00  0.00     0.022 A 
BRANCH  94  97
ATOM     97  S   UNL A   1      56.093  22.936  35.558  1.00  0.00     0.127 S 
ATOM     98  O   UNL A   1      56.802  22.697  34.302  1.00  0.00    -0.237 OA
ATOM     99  O   UNL A   1      56.955  23.286  36.687  1.00  0.00    -0.237 OA
ATOM    100  O   UNL A   1      55.042  21.977  35.871  1.00  0.00    -0.744 OA
ENDBRANCH  94  97
ENDBRANCH  67  90
ENDBRANCH  41  42
ENDBRANCH  34  36
ENDBRANCH  33  34
ENDBRANCH  32  33
ENDBRANCH  31  32
ENDBRANCH  30  31
ENDBRANCH  29  30
ENDBRANCH   1  29
TORSDOF 24
ENDMDL
