MODEL 1
REMARK VINA RESULT:     -11.8      0.000      0.000
REMARK SMILES Cc1cccc(-c2ncc(C[NH+]3CCC4(CC3)NC(=O)C[C@H]4C(=O)OCCOCCOCCOC(=O)c3ccc(-c4c5nc(c(-c6cccc(S(=O)(=O)[O-])c6F)c6ccc([nH]6)c(-c6cccc(S(=O)(=O)[O-])c6F)c6nc(c(-c7cccc(S(=O)(=O)[O-])c7F)c7ccc4[nH]7)C=C6)C=C5)cc3)cn2)c1
REMARK SMILES IDX 29 1 28 2 27 3 26 4 25 5 23 6 24 7 22 8 12 9 13 10 17 11
REMARK SMILES IDX 14 13 16 14 15 15 18 16 19 17 21 19 20 20 11 21 10 22 7 23
REMARK SMILES IDX 8 24 101 25 9 26 100 27 6 28 1 29 2 30 3 31 102 32 4 33 5 34
REMARK SMILES IDX 30 35 31 36 32 37 33 38 34 39 35 40 36 41 37 42 38 43 99 44
REMARK SMILES IDX 39 45 98 46 40 47 41 48 42 49 92 50 43 51 97 52 91 53 93 54
REMARK SMILES IDX 44 55 96 56 90 57 89 58 45 60 77 61 57 62 76 63 58 64 61 65
REMARK SMILES IDX 75 66 94 67 59 68 60 69 74 71 95 72 62 73 46 74 47 75 55 76
REMARK SMILES IDX 48 77 50 78 56 79 49 80 51 81 52 82 53 83 54 84 78 85 79 86
REMARK SMILES IDX 87 87 80 88 82 89 88 90 81 91 83 92 84 93 85 94 86 95 63 96
REMARK SMILES IDX 64 97 72 98 65 99 67 100 73 101 66 102 68 103 69 104 70 105
REMARK SMILES IDX 71 106
REMARK H PARENT 12 12 18 18 93 59 61 70
REMARK Flexibility Score: inf
ROOT
ATOM      1  C   UNL A   1      32.240  28.886  25.610  1.00  0.00     0.188 C 
ENDROOT
BRANCH   1   2
ATOM      2  O   UNL A   1      31.294  27.818  25.893  1.00  0.00    -0.376 OA
BRANCH   2   3
ATOM      3  C   UNL A   1      30.610  26.860  25.016  1.00  0.00     0.202 C 
BRANCH   3   4
ATOM      4  C   UNL A   1      31.017  25.961  23.502  1.00  0.00     0.261 C 
BRANCH   4   5
ATOM      5  O   UNL A   1      31.801  24.381  22.891  1.00  0.00    -0.463 OA
BRANCH   5   6
ATOM      6  C   UNL A   1      32.424  22.949  23.218  1.00  0.00     0.311 C 
ATOM      7  O   UNL A   1      33.077  22.198  22.469  1.00  0.00    -0.252 OA
BRANCH   6   8
ATOM      8  C   UNL A   1      32.575  22.432  24.582  1.00  0.00     0.134 C 
ATOM      9  N   UNL A   1      37.598  22.317  24.844  1.00  0.00    -0.331 N 
ATOM     10  C   UNL A   1      36.459  21.171  25.444  1.00  0.00     0.264 C 
ATOM     11  C   UNL A   1      36.683  23.346  23.505  1.00  0.00     0.264 C 
ATOM     12  H   UNL A   1      38.430  21.977  24.361  1.00  0.00     0.348 HD
ATOM     13  C   UNL A   1      34.745  21.524  25.982  1.00  0.00     0.091 C 
ATOM     14  C   UNL A   1      34.721  24.206  24.143  1.00  0.00     0.091 C 
ATOM     15  C   UNL A   1      33.744  22.970  25.329  1.00  0.00     0.064 C 
ATOM     16  N   UNL A   1      33.053  23.495  26.483  1.00  0.00    -0.349 N 
ATOM     17  C   UNL A   1      31.723  23.108  26.602  1.00  0.00     0.221 C 
ATOM     18  H   UNL A   1      33.492  24.084  27.138  1.00  0.00     0.164 HD
ATOM     19  C   UNL A   1      31.324  22.332  25.404  1.00  0.00     0.117 C 
ATOM     20  O   UNL A   1      31.018  23.319  27.573  1.00  0.00    -0.275 OA
BRANCH   9  21
ATOM     21  C   UNL A   1      38.146  23.140  26.302  1.00  0.00     0.302 C 
BRANCH  21  22
ATOM     22  C   UNL A   1      39.581  23.925  26.605  1.00  0.00     0.043 A 
ATOM     23  C   UNL A   1      41.192  25.728  28.069  1.00  0.00     0.159 A 
ATOM     24  N   UNL A   1      41.210  24.413  28.381  1.00  0.00    -0.236 NA
ATOM     25  N   UNL A   1      40.662  26.134  26.896  1.00  0.00    -0.236 NA
ATOM     26  C   UNL A   1      40.487  23.539  27.587  1.00  0.00     0.124 A 
ATOM     27  C   UNL A   1      39.911  25.210  26.180  1.00  0.00     0.124 A 
BRANCH  23  28
ATOM     28  C   UNL A   1      41.797  26.738  29.033  1.00  0.00     0.019 A 
ATOM     29  C   UNL A   1      40.720  29.731  31.296  1.00  0.00     0.044 C 
ATOM     30  C   UNL A   1      41.572  28.664  30.644  1.00  0.00    -0.050 A 
ATOM     31  C   UNL A   1      42.878  28.485  31.068  1.00  0.00     0.003 A 
ATOM     32  C   UNL A   1      41.087  27.826  29.612  1.00  0.00     0.015 A 
ATOM     33  C   UNL A   1      43.663  27.516  30.447  1.00  0.00     0.001 A 
ATOM     34  C   UNL A   1      43.134  26.662  29.449  1.00  0.00     0.012 A 
ENDBRANCH  23  28
ENDBRANCH  21  22
ENDBRANCH   9  21
ENDBRANCH   6   8
ENDBRANCH   5   6
ENDBRANCH   4   5
ENDBRANCH   3   4
ENDBRANCH   2   3
ENDBRANCH   1   2
BRANCH   1  35
ATOM     35  C   UNL A   1      32.055  30.326  26.131  1.00  0.00     0.188 C 
BRANCH  35  36
ATOM     36  O   UNL A   1      32.734  30.503  27.354  1.00  0.00    -0.376 OA
BRANCH  36  37
ATOM     37  C   UNL A   1      33.998  31.163  27.402  1.00  0.00     0.202 C 
BRANCH  37  38
ATOM     38  C   UNL A   1      34.781  31.384  28.742  1.00  0.00     0.261 C 
BRANCH  38  39
ATOM     39  O   UNL A   1      34.163  32.421  29.592  1.00  0.00    -0.460 OA
BRANCH  39  40
ATOM     40  C   UNL A   1      34.770  32.760  30.797  1.00  0.00     0.338 C 
ATOM     41  O   UNL A   1      34.277  32.405  31.850  1.00  0.00    -0.246 OA
BRANCH  40  42
ATOM     42  C   UNL A   1      35.954  33.893  30.513  1.00  0.00     0.060 A 
ATOM     43  C   UNL A   1      37.303  33.970  29.239  1.00  0.00     0.016 A 
ATOM     44  C   UNL A   1      36.497  33.706  32.011  1.00  0.00     0.016 A 
ATOM     45  C   UNL A   1      39.119  33.514  29.865  1.00  0.00     0.010 A 
ATOM     46  C   UNL A   1      38.039  33.296  32.404  1.00  0.00     0.010 A 
ATOM     47  C   UNL A   1      39.477  33.287  31.603  1.00  0.00    -0.014 A 
BRANCH  47  48
ATOM     48  C   UNL A   1      40.824  33.911  32.787  1.00  0.00     0.031 A 
ATOM     49  C   UNL A   1      40.632  34.593  34.581  1.00  0.00     0.074 A 
ATOM     50  C   UNL A   1      42.120  33.667  32.528  1.00  0.00     0.049 A 
ATOM     51  N   UNL A   1      40.861  35.831  34.993  1.00  0.00    -0.248 NA
ATOM     52  C   UNL A   1      39.577  34.071  35.788  1.00  0.00     0.031 C 
ATOM     53  C   UNL A   1      43.237  33.648  33.475  1.00  0.00     0.029 A 
ATOM     54  N   UNL A   1      42.704  33.250  31.345  1.00  0.00    -0.354 N 
ATOM     55  C   UNL A   1      40.206  36.024  36.258  1.00  0.00     0.074 A 
ATOM     56  C   UNL A   1      39.095  35.175  36.320  1.00  0.00     0.031 C 
ATOM     57  C   UNL A   1      44.389  33.556  32.779  1.00  0.00     0.029 A 
ATOM     58  C   UNL A   1      44.032  33.697  31.374  1.00  0.00     0.049 A 
ATOM     59  H   UNL A   1      42.270  32.739  30.623  1.00  0.00     0.167 HD
ATOM     60  C   UNL A   1      40.884  36.291  37.416  1.00  0.00     0.034 A 
ATOM     61  C   UNL A   1      44.333  34.739  30.550  1.00  0.00     0.034 A 
ATOM     62  C   UNL A   1      42.284  36.316  37.032  1.00  0.00     0.049 A 
ATOM     63  C   UNL A   1      44.542  35.992  31.393  1.00  0.00     0.074 A 
ATOM     64  C   UNL A   1      43.261  35.335  36.989  1.00  0.00     0.029 A 
ATOM     65  N   UNL A   1      42.632  37.260  36.088  1.00  0.00    -0.354 N 
ATOM     66  N   UNL A   1      44.183  36.130  32.647  1.00  0.00    -0.248 NA
ATOM     67  C   UNL A   1      45.284  37.145  30.909  1.00  0.00     0.031 C 
ATOM     68  C   UNL A   1      44.181  35.700  35.955  1.00  0.00     0.029 A 
ATOM     69  C   UNL A   1      43.763  36.893  35.385  1.00  0.00     0.049 A 
ATOM     70  H   UNL A   1      42.133  38.095  35.933  1.00  0.00     0.167 HD
ATOM     71  C   UNL A   1      44.562  37.351  33.125  1.00  0.00     0.074 A 
ATOM     72  C   UNL A   1      45.296  37.923  32.005  1.00  0.00     0.031 C 
ATOM     73  C   UNL A   1      44.245  37.827  34.373  1.00  0.00     0.034 A 
BRANCH  60  74
ATOM     74  C   UNL A   1      40.361  36.096  38.873  1.00  0.00     0.023 A 
ATOM     75  C   UNL A   1      39.841  37.263  39.470  1.00  0.00     0.012 A 
ATOM     76  C   UNL A   1      40.303  34.921  39.702  1.00  0.00     0.148 A 
ATOM     77  C   UNL A   1      39.347  37.302  40.782  1.00  0.00     0.002 A 
ATOM     78  C   UNL A   1      39.854  34.974  41.041  1.00  0.00     0.091 A 
ATOM     79  F   UNL A   1      40.617  33.719  39.203  1.00  0.00    -0.205 F 
ATOM     80  C   UNL A   1      39.371  36.168  41.574  1.00  0.00     0.022 A 
BRANCH  78  81
ATOM     81  S   UNL A   1      39.871  33.577  42.202  1.00  0.00     0.127 S 
ATOM     82  O   UNL A   1      38.912  32.652  41.590  1.00  0.00    -0.237 OA
ATOM     83  O   UNL A   1      41.260  33.124  42.140  1.00  0.00    -0.237 OA
ATOM     84  O   UNL A   1      39.444  34.105  43.490  1.00  0.00    -0.744 OA
ENDBRANCH  78  81
ENDBRANCH  60  74
BRANCH  61  85
ATOM     85  C   UNL A   1      43.572  34.608  29.240  1.00  0.00     0.023 A 
ATOM     86  C   UNL A   1      42.517  35.545  28.998  1.00  0.00     0.012 A 
ATOM     87  C   UNL A   1      44.115  33.944  28.130  1.00  0.00     0.148 A 
ATOM     88  C   UNL A   1      42.175  35.947  27.700  1.00  0.00     0.002 A 
ATOM     89  C   UNL A   1      43.739  34.327  26.837  1.00  0.00     0.091 A 
ATOM     90  F   UNL A   1      45.034  32.990  28.330  1.00  0.00    -0.205 F 
ATOM     91  C   UNL A   1      42.816  35.362  26.617  1.00  0.00     0.022 A 
BRANCH  89  92
ATOM     92  S   UNL A   1      44.471  33.499  25.422  1.00  0.00     0.127 S 
ATOM     93  O   UNL A   1      43.709  34.026  24.287  1.00  0.00    -0.237 OA
ATOM     94  O   UNL A   1      45.863  33.925  25.449  1.00  0.00    -0.237 OA
ATOM     95  O   UNL A   1      44.207  32.092  25.707  1.00  0.00    -0.744 OA
ENDBRANCH  89  92
ENDBRANCH  61  85
BRANCH  73  96
ATOM     96  C   UNL A   1      44.316  39.302  34.761  1.00  0.00     0.023 A 
ATOM     97  C   UNL A   1      45.201  39.759  35.750  1.00  0.00     0.012 A 
ATOM     98  C   UNL A   1      43.631  40.310  34.024  1.00  0.00     0.148 A 
ATOM     99  C   UNL A   1      45.297  41.108  36.090  1.00  0.00     0.002 A 
ATOM    100  C   UNL A   1      43.894  41.658  34.226  1.00  0.00     0.091 A 
ATOM    101  F   UNL A   1      42.687  39.989  33.126  1.00  0.00    -0.205 F 
ATOM    102  C   UNL A   1      44.668  42.063  35.307  1.00  0.00     0.022 A 
BRANCH 100 103
ATOM    103  S   UNL A   1      43.412  42.887  33.006  1.00  0.00     0.127 S 
ATOM    104  O   UNL A   1      42.038  43.186  33.405  1.00  0.00    -0.237 OA
ATOM    105  O   UNL A   1      44.368  43.967  33.257  1.00  0.00    -0.237 OA
ATOM    106  O   UNL A   1      43.582  42.228  31.717  1.00  0.00    -0.744 OA
ENDBRANCH 100 103
ENDBRANCH  73  96
ENDBRANCH  47  48
ENDBRANCH  40  42
ENDBRANCH  39  40
ENDBRANCH  38  39
ENDBRANCH  37  38
ENDBRANCH  36  37
ENDBRANCH  35  36
ENDBRANCH   1  35
TORSDOF 23
ENDMDL
MODEL 2
REMARK VINA RESULT:     -11.7      6.020      8.286
REMARK SMILES Cc1cccc(-c2ncc(C[NH+]3CCC4(CC3)NC(=O)C[C@H]4C(=O)OCCOCCOCCOC(=O)c3ccc(-c4c5nc(c(-c6cccc(S(=O)(=O)[O-])c6F)c6ccc([nH]6)c(-c6cccc(S(=O)(=O)[O-])c6F)c6nc(c(-c7cccc(S(=O)(=O)[O-])c7F)c7ccc4[nH]7)C=C6)C=C5)cc3)cn2)c1
REMARK SMILES IDX 29 1 28 2 27 3 26 4 25 5 23 6 24 7 22 8 12 9 13 10 17 11
REMARK SMILES IDX 14 13 16 14 15 15 18 16 19 17 21 19 20 20 11 21 10 22 7 23
REMARK SMILES IDX 8 24 101 25 9 26 100 27 6 28 1 29 2 30 3 31 102 32 4 33 5 34
REMARK SMILES IDX 30 35 31 36 32 37 33 38 34 39 35 40 36 41 37 42 38 43 99 44
REMARK SMILES IDX 39 45 98 46 40 47 41 48 42 49 92 50 43 51 97 52 91 53 93 54
REMARK SMILES IDX 44 55 96 56 90 57 89 58 45 60 77 61 57 62 76 63 58 64 61 65
REMARK SMILES IDX 75 66 94 67 59 68 60 69 74 71 95 72 62 73 46 74 47 75 55 76
REMARK SMILES IDX 48 77 50 78 56 79 49 80 51 81 52 82 53 83 54 84 78 85 79 86
REMARK SMILES IDX 87 87 80 88 82 89 88 90 81 91 83 92 84 93 85 94 86 95 63 96
REMARK SMILES IDX 64 97 72 98 65 99 67 100 73 101 66 102 68 103 69 104 70 105
REMARK SMILES IDX 71 106
REMARK H PARENT 12 12 18 18 93 59 61 70
REMARK Flexibility Score: inf
ROOT
ATOM      1  C   UNL A   1      32.965  27.776  26.472  1.00  0.00     0.188 C 
ENDROOT
BRANCH   1   2
ATOM      2  O   UNL A   1      31.604  27.905  25.976  1.00  0.00    -0.376 OA
BRANCH   2   3
ATOM      3  C   UNL A   1      30.940  27.355  24.789  1.00  0.00     0.202 C 
BRANCH   3   4
ATOM      4  C   UNL A   1      31.462  26.491  23.289  1.00  0.00     0.261 C 
BRANCH   4   5
ATOM      5  O   UNL A   1      32.030  24.825  22.669  1.00  0.00    -0.463 OA
BRANCH   5   6
ATOM      6  C   UNL A   1      32.414  23.309  22.983  1.00  0.00     0.311 C 
ATOM      7  O   UNL A   1      32.941  22.470  22.227  1.00  0.00    -0.252 OA
BRANCH   6   8
ATOM      8  C   UNL A   1      32.475  22.761  24.342  1.00  0.00     0.134 C 
ATOM      9  N   UNL A   1      37.382  21.664  24.543  1.00  0.00    -0.331 N 
ATOM     10  C   UNL A   1      36.047  20.758  25.150  1.00  0.00     0.264 C 
ATOM     11  C   UNL A   1      36.671  22.863  23.222  1.00  0.00     0.264 C 
ATOM     12  H   UNL A   1      38.125  21.171  24.049  1.00  0.00     0.348 HD
ATOM     13  C   UNL A   1      34.440  21.434  25.710  1.00  0.00     0.091 C 
ATOM     14  C   UNL A   1      34.922  24.085  23.888  1.00  0.00     0.091 C 
ATOM     15  C   UNL A   1      33.735  23.054  25.078  1.00  0.00     0.064 C 
ATOM     16  N   UNL A   1      33.172  23.693  26.243  1.00  0.00    -0.349 N 
ATOM     17  C   UNL A   1      31.793  23.574  26.376  1.00  0.00     0.221 C 
ATOM     18  H   UNL A   1      33.724  24.180  26.896  1.00  0.00     0.164 HD
ATOM     19  C   UNL A   1      31.237  22.900  25.177  1.00  0.00     0.117 C 
ATOM     20  O   UNL A   1      31.153  23.910  27.356  1.00  0.00    -0.275 OA
BRANCH   9  21
ATOM     21  C   UNL A   1      38.095  22.351  26.000  1.00  0.00     0.302 C 
BRANCH  21  22
ATOM     22  C   UNL A   1      39.652  22.244  26.574  1.00  0.00     0.043 A 
ATOM     23  C   UNL A   1      42.364  23.038  26.631  1.00  0.00     0.159 A 
ATOM     24  N   UNL A   1      41.492  23.581  27.509  1.00  0.00    -0.236 NA
ATOM     25  N   UNL A   1      42.027  21.924  25.949  1.00  0.00    -0.236 NA
ATOM     26  C   UNL A   1      40.192  23.104  27.525  1.00  0.00     0.124 A 
ATOM     27  C   UNL A   1      40.693  21.536  25.977  1.00  0.00     0.124 A 
BRANCH  23  28
ATOM     28  C   UNL A   1      43.733  23.675  26.439  1.00  0.00     0.019 A 
ATOM     29  C   UNL A   1      45.337  26.986  25.135  1.00  0.00     0.044 C 
ATOM     30  C   UNL A   1      45.192  25.613  25.754  1.00  0.00    -0.050 A 
ATOM     31  C   UNL A   1      46.298  25.004  26.321  1.00  0.00     0.003 A 
ATOM     32  C   UNL A   1      43.961  24.916  25.783  1.00  0.00     0.015 A 
ATOM     33  C   UNL A   1      46.162  23.729  26.867  1.00  0.00     0.001 A 
ATOM     34  C   UNL A   1      44.906  23.078  26.923  1.00  0.00     0.012 A 
ENDBRANCH  23  28
ENDBRANCH  21  22
ENDBRANCH   9  21
ENDBRANCH   6   8
ENDBRANCH   5   6
ENDBRANCH   4   5
ENDBRANCH   3   4
ENDBRANCH   2   3
ENDBRANCH   1   2
BRANCH   1  35
ATOM     35  C   UNL A   1      34.075  28.796  26.143  1.00  0.00     0.188 C 
BRANCH  35  36
ATOM     36  O   UNL A   1      34.094  29.836  27.095  1.00  0.00    -0.376 OA
BRANCH  36  37
ATOM     37  C   UNL A   1      35.133  29.920  28.069  1.00  0.00     0.202 C 
BRANCH  37  38
ATOM     38  C   UNL A   1      36.650  29.803  27.692  1.00  0.00     0.261 C 
BRANCH  38  39
ATOM     39  O   UNL A   1      37.539  30.210  28.799  1.00  0.00    -0.460 OA
BRANCH  39  40
ATOM     40  C   UNL A   1      38.378  29.263  29.375  1.00  0.00     0.338 C 
ATOM     41  O   UNL A   1      38.056  28.707  30.408  1.00  0.00    -0.246 OA
BRANCH  40  42
ATOM     42  C   UNL A   1      39.863  29.320  28.626  1.00  0.00     0.060 A 
ATOM     43  C   UNL A   1      40.602  28.275  27.281  1.00  0.00     0.016 A 
ATOM     44  C   UNL A   1      40.590  29.145  30.046  1.00  0.00     0.016 A 
ATOM     45  C   UNL A   1      41.923  26.924  27.854  1.00  0.00     0.010 A 
ATOM     46  C   UNL A   1      41.660  27.954  30.409  1.00  0.00     0.010 A 
ATOM     47  C   UNL A   1      42.550  26.885  29.529  1.00  0.00    -0.014 A 
BRANCH  47  48
ATOM     48  C   UNL A   1      44.276  26.756  30.311  1.00  0.00     0.031 A 
ATOM     49  C   UNL A   1      44.812  25.796  31.897  1.00  0.00     0.074 A 
ATOM     50  C   UNL A   1      45.362  27.145  29.624  1.00  0.00     0.049 A 
ATOM     51  N   UNL A   1      45.244  26.315  33.036  1.00  0.00    -0.248 NA
ATOM     52  C   UNL A   1      44.267  24.297  32.443  1.00  0.00     0.031 C 
ATOM     53  C   UNL A   1      46.753  26.732  29.832  1.00  0.00     0.029 A 
ATOM     54  N   UNL A   1      45.433  27.920  28.480  1.00  0.00    -0.354 N 
ATOM     55  C   UNL A   1      45.128  25.322  34.069  1.00  0.00     0.074 A 
ATOM     56  C   UNL A   1      44.080  24.455  33.738  1.00  0.00     0.031 C 
ATOM     57  C   UNL A   1      47.549  27.501  29.060  1.00  0.00     0.029 A 
ATOM     58  C   UNL A   1      46.694  28.531  28.487  1.00  0.00     0.049 A 
ATOM     59  H   UNL A   1      44.732  28.023  27.795  1.00  0.00     0.167 HD
ATOM     60  C   UNL A   1      46.206  24.813  34.738  1.00  0.00     0.034 A 
ATOM     61  C   UNL A   1      46.714  29.864  28.766  1.00  0.00     0.034 A 
ATOM     62  C   UNL A   1      47.356  25.488  34.164  1.00  0.00     0.049 A 
ATOM     63  C   UNL A   1      47.292  30.069  30.162  1.00  0.00     0.074 A 
ATOM     64  C   UNL A   1      48.192  25.177  33.104  1.00  0.00     0.029 A 
ATOM     65  N   UNL A   1      47.369  26.862  34.287  1.00  0.00    -0.354 N 
ATOM     66  N   UNL A   1      47.441  29.129  31.065  1.00  0.00    -0.248 NA
ATOM     67  C   UNL A   1      47.854  31.337  30.598  1.00  0.00     0.031 C 
ATOM     68  C   UNL A   1      48.670  26.414  32.566  1.00  0.00     0.029 A 
ATOM     69  C   UNL A   1      48.129  27.460  33.300  1.00  0.00     0.049 A 
ATOM     70  H   UNL A   1      46.893  27.357  34.992  1.00  0.00     0.167 HD
ATOM     71  C   UNL A   1      48.036  29.629  32.187  1.00  0.00     0.074 A 
ATOM     72  C   UNL A   1      48.320  31.008  31.815  1.00  0.00     0.031 C 
ATOM     73  C   UNL A   1      48.240  28.914  33.340  1.00  0.00     0.034 A 
BRANCH  60  74
ATOM     74  C   UNL A   1      46.264  23.473  35.537  1.00  0.00     0.023 A 
ATOM     75  C   UNL A   1      46.260  22.312  34.736  1.00  0.00     0.012 A 
ATOM     76  C   UNL A   1      46.341  23.225  36.953  1.00  0.00     0.148 A 
ATOM     77  C   UNL A   1      46.280  21.013  35.263  1.00  0.00     0.002 A 
ATOM     78  C   UNL A   1      46.307  21.916  37.483  1.00  0.00     0.091 A 
ATOM     79  F   UNL A   1      46.510  24.236  37.814  1.00  0.00    -0.205 F 
ATOM     80  C   UNL A   1      46.283  20.812  36.632  1.00  0.00     0.022 A 
BRANCH  78  81
ATOM     81  S   UNL A   1      46.263  21.510  39.253  1.00  0.00     0.127 S 
ATOM     82  O   UNL A   1      47.595  21.926  39.702  1.00  0.00    -0.237 OA
ATOM     83  O   UNL A   1      45.176  22.351  39.750  1.00  0.00    -0.237 OA
ATOM     84  O   UNL A   1      46.032  20.075  39.342  1.00  0.00    -0.744 OA
ENDBRANCH  78  81
ENDBRANCH  60  74
BRANCH  61  85
ATOM     85  C   UNL A   1      45.509  30.548  28.141  1.00  0.00     0.023 A 
ATOM     86  C   UNL A   1      44.313  30.614  28.926  1.00  0.00     0.012 A 
ATOM     87  C   UNL A   1      45.638  31.459  27.083  1.00  0.00     0.148 A 
ATOM     88  C   UNL A   1      43.400  31.667  28.788  1.00  0.00     0.002 A 
ATOM     89  C   UNL A   1      44.701  32.488  26.930  1.00  0.00     0.091 A 
ATOM     90  F   UNL A   1      46.697  31.362  26.269  1.00  0.00    -0.205 F 
ATOM     91  C   UNL A   1      43.616  32.629  27.810  1.00  0.00     0.022 A 
BRANCH  89  92
ATOM     92  S   UNL A   1      44.898  33.673  25.596  1.00  0.00     0.127 S 
ATOM     93  O   UNL A   1      46.345  33.899  25.552  1.00  0.00    -0.237 OA
ATOM     94  O   UNL A   1      44.372  32.978  24.430  1.00  0.00    -0.237 OA
ATOM     95  O   UNL A   1      44.136  34.821  26.077  1.00  0.00    -0.744 OA
ENDBRANCH  89  92
ENDBRANCH  61  85
BRANCH  73  96
ATOM     96  C   UNL A   1      48.529  29.555  34.696  1.00  0.00     0.023 A 
ATOM     97  C   UNL A   1      49.841  29.803  35.127  1.00  0.00     0.012 A 
ATOM     98  C   UNL A   1      47.494  30.100  35.509  1.00  0.00     0.148 A 
ATOM     99  C   UNL A   1      50.116  30.416  36.348  1.00  0.00     0.002 A 
ATOM    100  C   UNL A   1      47.782  30.893  36.611  1.00  0.00     0.091 A 
ATOM    101  F   UNL A   1      46.203  29.840  35.251  1.00  0.00    -0.205 F 
ATOM    102  C   UNL A   1      49.088  30.991  37.077  1.00  0.00     0.022 A 
BRANCH 100 103
ATOM    103  S   UNL A   1      46.527  31.955  37.339  1.00  0.00     0.127 S 
ATOM    104  O   UNL A   1      45.686  30.990  38.043  1.00  0.00    -0.237 OA
ATOM    105  O   UNL A   1      47.321  32.822  38.211  1.00  0.00    -0.237 OA
ATOM    106  O   UNL A   1      45.915  32.645  36.211  1.00  0.00    -0.744 OA
ENDBRANCH 100 103
ENDBRANCH  73  96
ENDBRANCH  47  48
ENDBRANCH  40  42
ENDBRANCH  39  40
ENDBRANCH  38  39
ENDBRANCH  37  38
ENDBRANCH  36  37
ENDBRANCH  35  36
ENDBRANCH   1  35
TORSDOF 23
ENDMDL
MODEL 3
REMARK VINA RESULT:     -11.6      2.294      5.481
REMARK SMILES Cc1cccc(-c2ncc(C[NH+]3CCC4(CC3)NC(=O)C[C@H]4C(=O)OCCOCCOCCOC(=O)c3ccc(-c4c5nc(c(-c6cccc(S(=O)(=O)[O-])c6F)c6ccc([nH]6)c(-c6cccc(S(=O)(=O)[O-])c6F)c6nc(c(-c7cccc(S(=O)(=O)[O-])c7F)c7ccc4[nH]7)C=C6)C=C5)cc3)cn2)c1
REMARK SMILES IDX 29 1 28 2 27 3 26 4 25 5 23 6 24 7 22 8 12 9 13 10 17 11
REMARK SMILES IDX 14 13 16 14 15 15 18 16 19 17 21 19 20 20 11 21 10 22 7 23
REMARK SMILES IDX 8 24 101 25 9 26 100 27 6 28 1 29 2 30 3 31 102 32 4 33 5 34
REMARK SMILES IDX 30 35 31 36 32 37 33 38 34 39 35 40 36 41 37 42 38 43 99 44
REMARK SMILES IDX 39 45 98 46 40 47 41 48 42 49 92 50 43 51 97 52 91 53 93 54
REMARK SMILES IDX 44 55 96 56 90 57 89 58 45 60 77 61 57 62 76 63 58 64 61 65
REMARK SMILES IDX 75 66 94 67 59 68 60 69 74 71 95 72 62 73 46 74 47 75 55 76
REMARK SMILES IDX 48 77 50 78 56 79 49 80 51 81 52 82 53 83 54 84 78 85 79 86
REMARK SMILES IDX 87 87 80 88 82 89 88 90 81 91 83 92 84 93 85 94 86 95 63 96
REMARK SMILES IDX 64 97 72 98 65 99 67 100 73 101 66 102 68 103 69 104 70 105
REMARK SMILES IDX 71 106
REMARK H PARENT 12 12 18 18 93 59 61 70
REMARK Flexibility Score: inf
ROOT
ATOM      1  C   UNL A   1      38.082  28.570  29.319  1.00  0.00     0.188 C 
ENDROOT
BRANCH   1   2
ATOM      2  O   UNL A   1      38.932  28.311  30.470  1.00  0.00    -0.376 OA
BRANCH   2   3
ATOM      3  C   UNL A   1      40.241  28.846  30.859  1.00  0.00     0.202 C 
BRANCH   3   4
ATOM      4  C   UNL A   1      41.911  28.184  31.058  1.00  0.00     0.261 C 
BRANCH   4   5
ATOM      5  O   UNL A   1      43.512  27.917  30.136  1.00  0.00    -0.463 OA
BRANCH   5   6
ATOM      6  C   UNL A   1      44.274  27.730  28.747  1.00  0.00     0.311 C 
ATOM      7  O   UNL A   1      45.432  27.316  28.547  1.00  0.00    -0.252 OA
BRANCH   6   8
ATOM      8  C   UNL A   1      43.590  27.737  27.449  1.00  0.00     0.134 C 
ATOM      9  N   UNL A   1      44.637  23.043  25.969  1.00  0.00    -0.331 N 
ATOM     10  C   UNL A   1      44.614  24.490  25.033  1.00  0.00     0.264 C 
ATOM     11  C   UNL A   1      44.811  23.583  27.804  1.00  0.00     0.264 C 
ATOM     12  H   UNL A   1      45.405  22.385  25.836  1.00  0.00     0.348 HD
ATOM     13  C   UNL A   1      43.591  25.974  25.355  1.00  0.00     0.091 C 
ATOM     14  C   UNL A   1      43.345  25.126  28.485  1.00  0.00     0.091 C 
ATOM     15  C   UNL A   1      42.970  26.440  27.062  1.00  0.00     0.064 C 
ATOM     16  N   UNL A   1      41.615  26.891  26.855  1.00  0.00    -0.349 N 
ATOM     17  C   UNL A   1      41.449  28.271  26.825  1.00  0.00     0.221 C 
ATOM     18  H   UNL A   1      40.862  26.267  26.744  1.00  0.00     0.164 HD
ATOM     19  C   UNL A   1      42.736  28.933  27.147  1.00  0.00     0.117 C 
ATOM     20  O   UNL A   1      40.419  28.845  26.515  1.00  0.00    -0.275 OA
BRANCH   9  21
ATOM     21  C   UNL A   1      43.159  22.222  25.475  1.00  0.00     0.302 C 
BRANCH  21  22
ATOM     22  C   UNL A   1      41.664  22.194  26.202  1.00  0.00     0.043 A 
ATOM     23  C   UNL A   1      38.842  22.341  26.140  1.00  0.00     0.159 A 
ATOM     24  N   UNL A   1      39.448  21.134  26.085  1.00  0.00    -0.236 NA
ATOM     25  N   UNL A   1      39.541  23.429  26.525  1.00  0.00    -0.236 NA
ATOM     26  C   UNL A   1      40.826  21.084  26.215  1.00  0.00     0.124 A 
ATOM     27  C   UNL A   1      40.925  23.311  26.587  1.00  0.00     0.124 A 
BRANCH  23  28
ATOM     28  C   UNL A   1      37.365  22.457  25.793  1.00  0.00     0.019 A 
ATOM     29  C   UNL A   1      34.651  25.185  25.134  1.00  0.00     0.044 C 
ATOM     30  C   UNL A   1      35.323  23.835  25.257  1.00  0.00    -0.050 A 
ATOM     31  C   UNL A   1      34.635  22.697  24.869  1.00  0.00     0.003 A 
ATOM     32  C   UNL A   1      36.640  23.680  25.752  1.00  0.00     0.015 A 
ATOM     33  C   UNL A   1      35.252  21.455  25.007  1.00  0.00     0.001 A 
ATOM     34  C   UNL A   1      36.588  21.338  25.461  1.00  0.00     0.012 A 
ENDBRANCH  23  28
ENDBRANCH  21  22
ENDBRANCH   9  21
ENDBRANCH   6   8
ENDBRANCH   5   6
ENDBRANCH   4   5
ENDBRANCH   3   4
ENDBRANCH   2   3
ENDBRANCH   1   2
BRANCH   1  35
ATOM     35  C   UNL A   1      37.325  29.900  29.122  1.00  0.00     0.188 C 
BRANCH  35  36
ATOM     36  O   UNL A   1      36.043  29.668  28.581  1.00  0.00    -0.376 OA
BRANCH  36  37
ATOM     37  C   UNL A   1      35.426  30.623  27.719  1.00  0.00     0.202 C 
BRANCH  37  38
ATOM     38  C   UNL A   1      34.565  31.814  28.264  1.00  0.00     0.261 C 
BRANCH  38  39
ATOM     39  O   UNL A   1      34.795  32.066  29.701  1.00  0.00    -0.460 OA
BRANCH  39  40
ATOM     40  C   UNL A   1      34.723  33.369  30.179  1.00  0.00     0.338 C 
ATOM     41  O   UNL A   1      33.651  33.842  30.507  1.00  0.00    -0.246 OA
BRANCH  40  42
ATOM     42  C   UNL A   1      36.175  34.133  29.906  1.00  0.00     0.060 A 
ATOM     43  C   UNL A   1      37.622  33.676  28.836  1.00  0.00     0.016 A 
ATOM     44  C   UNL A   1      36.499  34.087  31.477  1.00  0.00     0.016 A 
ATOM     45  C   UNL A   1      39.194  32.928  29.769  1.00  0.00     0.010 A 
ATOM     46  C   UNL A   1      37.841  33.407  32.136  1.00  0.00     0.010 A 
ATOM     47  C   UNL A   1      39.305  32.929  31.555  1.00  0.00    -0.014 A 
BRANCH  47  48
ATOM     48  C   UNL A   1      40.638  33.420  32.814  1.00  0.00     0.031 A 
ATOM     49  C   UNL A   1      40.418  33.982  34.647  1.00  0.00     0.074 A 
ATOM     50  C   UNL A   1      41.932  33.149  32.573  1.00  0.00     0.049 A 
ATOM     51  N   UNL A   1      40.677  35.178  35.152  1.00  0.00    -0.248 NA
ATOM     52  C   UNL A   1      39.312  33.414  35.786  1.00  0.00     0.031 C 
ATOM     53  C   UNL A   1      43.020  33.024  33.545  1.00  0.00     0.029 A 
ATOM     54  N   UNL A   1      42.535  32.795  31.379  1.00  0.00    -0.354 N 
ATOM     55  C   UNL A   1      39.993  35.306  36.410  1.00  0.00     0.074 A 
ATOM     56  C   UNL A   1      38.853  34.495  36.382  1.00  0.00     0.031 C 
ATOM     57  C   UNL A   1      44.188  32.941  32.874  1.00  0.00     0.029 A 
ATOM     58  C   UNL A   1      43.876  33.192  31.474  1.00  0.00     0.049 A 
ATOM     59  H   UNL A   1      42.105  32.352  30.612  1.00  0.00     0.167 HD
ATOM     60  C   UNL A   1      40.646  35.467  37.601  1.00  0.00     0.034 A 
ATOM     61  C   UNL A   1      44.235  34.278  30.734  1.00  0.00     0.034 A 
ATOM     62  C   UNL A   1      42.057  35.469  37.256  1.00  0.00     0.049 A 
ATOM     63  C   UNL A   1      44.462  35.461  31.669  1.00  0.00     0.074 A 
ATOM     64  C   UNL A   1      43.001  34.459  37.170  1.00  0.00     0.029 A 
ATOM     65  N   UNL A   1      42.463  36.464  36.391  1.00  0.00    -0.354 N 
ATOM     66  N   UNL A   1      44.072  35.523  32.920  1.00  0.00    -0.248 NA
ATOM     67  C   UNL A   1      45.256  36.617  31.288  1.00  0.00     0.031 C 
ATOM     68  C   UNL A   1      43.962  34.862  36.188  1.00  0.00     0.029 A 
ATOM     69  C   UNL A   1      43.600  36.107  35.693  1.00  0.00     0.049 A 
ATOM     70  H   UNL A   1      41.997  37.324  36.283  1.00  0.00     0.167 HD
ATOM     71  C   UNL A   1      44.478  36.693  33.493  1.00  0.00     0.074 A 
ATOM     72  C   UNL A   1      45.262  37.316  32.436  1.00  0.00     0.031 C 
ATOM     73  C   UNL A   1      44.142  37.091  34.762  1.00  0.00     0.034 A 
BRANCH  60  74
ATOM     74  C   UNL A   1      40.076  35.189  39.026  1.00  0.00     0.023 A 
ATOM     75  C   UNL A   1      39.617  36.336  39.708  1.00  0.00     0.012 A 
ATOM     76  C   UNL A   1      39.922  33.956  39.754  1.00  0.00     0.148 A 
ATOM     77  C   UNL A   1      39.094  36.300  41.009  1.00  0.00     0.002 A 
ATOM     78  C   UNL A   1      39.444  33.930  41.084  1.00  0.00     0.091 A 
ATOM     79  F   UNL A   1      40.170  32.781  39.164  1.00  0.00    -0.205 F 
ATOM     80  C   UNL A   1      39.026  35.106  41.704  1.00  0.00     0.022 A 
BRANCH  78  81
ATOM     81  S   UNL A   1      39.342  32.446  42.125  1.00  0.00     0.127 S 
ATOM     82  O   UNL A   1      38.206  31.730  41.537  1.00  0.00    -0.237 OA
ATOM     83  O   UNL A   1      40.636  31.803  41.896  1.00  0.00    -0.237 OA
ATOM     84  O   UNL A   1      39.108  32.910  43.485  1.00  0.00    -0.744 OA
ENDBRANCH  78  81
ENDBRANCH  60  74
BRANCH  61  85
ATOM     85  C   UNL A   1      43.508  34.265  29.399  1.00  0.00     0.023 A 
ATOM     86  C   UNL A   1      42.515  35.275  29.184  1.00  0.00     0.012 A 
ATOM     87  C   UNL A   1      44.045  33.636  28.267  1.00  0.00     0.148 A 
ATOM     88  C   UNL A   1      42.235  35.769  27.903  1.00  0.00     0.002 A 
ATOM     89  C   UNL A   1      43.731  34.113  26.989  1.00  0.00     0.091 A 
ATOM     90  F   UNL A   1      44.903  32.620  28.435  1.00  0.00    -0.205 F 
ATOM     91  C   UNL A   1      42.875  35.210  26.805  1.00  0.00     0.022 A 
BRANCH  89  92
ATOM     92  S   UNL A   1      44.457  33.326  25.548  1.00  0.00     0.127 S 
ATOM     93  O   UNL A   1      43.816  34.013  24.424  1.00  0.00    -0.237 OA
ATOM     94  O   UNL A   1      45.881  33.604  25.677  1.00  0.00    -0.237 OA
ATOM     95  O   UNL A   1      44.041  31.935  25.704  1.00  0.00    -0.744 OA
ENDBRANCH  89  92
ENDBRANCH  61  85
BRANCH  73  96
ATOM     96  C   UNL A   1      44.251  38.533  35.256  1.00  0.00     0.023 A 
ATOM     97  C   UNL A   1      45.127  38.889  36.294  1.00  0.00     0.012 A 
ATOM     98  C   UNL A   1      43.617  39.613  34.578  1.00  0.00     0.148 A 
ATOM     99  C   UNL A   1      45.258  40.206  36.731  1.00  0.00     0.002 A 
ATOM    100  C   UNL A   1      43.919  40.933  34.881  1.00  0.00     0.091 A 
ATOM    101  F   UNL A   1      42.685  39.388  33.640  1.00  0.00    -0.205 F 
ATOM    102  C   UNL A   1      44.680  41.234  36.005  1.00  0.00     0.022 A 
BRANCH 100 103
ATOM    103  S   UNL A   1      43.505  42.261  33.742  1.00  0.00     0.127 S 
ATOM    104  O   UNL A   1      42.060  42.376  33.923  1.00  0.00    -0.237 OA
ATOM    105  O   UNL A   1      44.279  43.383  34.277  1.00  0.00    -0.237 OA
ATOM    106  O   UNL A   1      43.959  41.794  32.437  1.00  0.00    -0.744 OA
ENDBRANCH 100 103
ENDBRANCH  73  96
ENDBRANCH  47  48
ENDBRANCH  40  42
ENDBRANCH  39  40
ENDBRANCH  38  39
ENDBRANCH  37  38
ENDBRANCH  36  37
ENDBRANCH  35  36
ENDBRANCH   1  35
TORSDOF 23
ENDMDL
