MODEL 1
REMARK VINA RESULT:      -7.7      0.000      0.000
REMARK SMILES C[C@@H]1CC[C@H](C)[N@H+]1Cc1cc2c(cc1Cl)C=C(C(=O)OCCOCCOCCOC(=O)c1ccc(-c3c4nc(c(-c5cccc(S(=O)(=O)[O-])c5F)c5ccc([nH]5)c(-c5cccc(S(=O)(=O)[O-])c5F)c5nc(c(-c6cccc(S(=O)(=O)[O-])c6F)c6ccc3[nH]6)C=C5)C=C4)cc1)[C@@H](C(F)(F)F)O2
REMARK SMILES IDX 25 1 24 2 23 3 22 4 21 5 20 6 18 7 19 8 17 9 9 10 10 11
REMARK SMILES IDX 14 12 11 13 13 14 15 15 12 16 100 17 16 18 95 19 8 20 7 21
REMARK SMILES IDX 6 22 5 23 4 24 3 25 2 26 1 28 96 29 97 30 98 31 99 32 26 33
REMARK SMILES IDX 27 34 28 35 29 36 30 37 31 38 32 39 33 40 94 41 34 42 93 43
REMARK SMILES IDX 35 44 36 45 37 46 87 47 38 48 92 49 86 50 88 51 39 52 91 53
REMARK SMILES IDX 85 54 84 55 40 57 72 58 52 59 71 60 53 61 56 62 70 63 89 64
REMARK SMILES IDX 54 65 55 66 69 68 90 69 57 70 41 71 42 72 50 73 43 74 45 75
REMARK SMILES IDX 51 76 44 77 46 78 47 79 48 80 49 81 73 82 74 83 82 84 75 85
REMARK SMILES IDX 77 86 83 87 76 88 78 89 79 90 80 91 81 92 58 93 59 94 67 95
REMARK SMILES IDX 60 96 62 97 68 98 61 99 63 100 64 101 65 102 66 103
REMARK H PARENT 7 27 88 56 56 67
REMARK Flexibility Score: inf
ROOT
ATOM      1  C   UNL A   1      35.486  35.098  32.792  1.00  0.00     0.188 C 
ENDROOT
BRANCH   1   2
ATOM      2  C   UNL A   1      35.610  33.874  31.857  1.00  0.00     0.188 C 
BRANCH   2   3
ATOM      3  O   UNL A   1      36.951  33.505  31.617  1.00  0.00    -0.376 OA
BRANCH   3   4
ATOM      4  C   UNL A   1      37.655  34.136  30.564  1.00  0.00     0.202 C 
BRANCH   4   5
ATOM      5  C   UNL A   1      38.933  33.517  29.965  1.00  0.00     0.261 C 
BRANCH   5   6
ATOM      6  O   UNL A   1      39.172  32.132  30.250  1.00  0.00    -0.460 OA
BRANCH   6   7
ATOM      7  C   UNL A   1      38.723  31.245  29.337  1.00  0.00     0.338 C 
ATOM      8  O   UNL A   1      37.790  31.411  28.567  1.00  0.00    -0.246 OA
BRANCH   7   9
ATOM      9  C   UNL A   1      39.618  30.070  29.306  1.00  0.00     0.087 C 
ATOM     10  C   UNL A   1      42.676  26.376  27.747  1.00  0.00     0.029 A 
ATOM     11  C   UNL A   1      42.022  26.664  28.971  1.00  0.00     0.058 A 
ATOM     12  C   UNL A   1      42.554  27.325  26.716  1.00  0.00     0.050 A 
ATOM     13  C   UNL A   1      41.276  27.841  29.143  1.00  0.00     0.128 A 
ATOM     14  C   UNL A   1      41.916  28.549  26.933  1.00  0.00     0.033 A 
ATOM     15  Cl  UNL A   1      42.993  27.010  25.074  1.00  0.00    -0.084 Cl
ATOM     16  C   UNL A   1      41.254  28.797  28.133  1.00  0.00     0.019 A 
ATOM     17  O   UNL A   1      40.580  27.985  30.314  1.00  0.00    -0.475 OA
ATOM     18  C   UNL A   1      40.460  30.004  28.269  1.00  0.00     0.027 C 
ATOM     19  C   UNL A   1      39.539  29.014  30.377  1.00  0.00     0.316 C 
BRANCH  10  20
ATOM     20  C   UNL A   1      43.374  25.032  27.569  1.00  0.00     0.301 C 
BRANCH  20  21
ATOM     21  N   UNL A   1      42.751  24.008  26.715  1.00  0.00    -0.327 N 
ATOM     22  C   UNL A   1      40.283  23.961  26.822  1.00  0.00     0.075 C 
ATOM     23  C   UNL A   1      41.588  23.308  27.273  1.00  0.00     0.181 C 
ATOM     24  C   UNL A   1      41.698  21.868  26.767  1.00  0.00     0.071 C 
ATOM     25  C   UNL A   1      43.190  21.677  26.599  1.00  0.00     0.071 C 
ATOM     26  C   UNL A   1      43.662  23.035  26.102  1.00  0.00     0.181 C 
ATOM     27  H   UNL A   1      42.407  24.617  25.974  1.00  0.00     0.348 HD
ATOM     28  C   UNL A   1      43.592  23.164  24.579  1.00  0.00     0.075 C 
ENDBRANCH  20  21
ENDBRANCH  10  20
BRANCH  19  29
ATOM     29  C   UNL A   1      38.151  28.359  30.417  1.00  0.00     0.430 C 
ATOM     30  F   UNL A   1      37.294  29.053  31.205  1.00  0.00    -0.167 F 
ATOM     31  F   UNL A   1      37.589  28.321  29.183  1.00  0.00    -0.167 F 
ATOM     32  F   UNL A   1      38.190  27.091  30.879  1.00  0.00    -0.167 F 
ENDBRANCH  19  29
ENDBRANCH   7   9
ENDBRANCH   6   7
ENDBRANCH   5   6
ENDBRANCH   4   5
ENDBRANCH   3   4
ENDBRANCH   2   3
ENDBRANCH   1   2
BRANCH   1  33
ATOM     33  O   UNL A   1      36.065  35.052  34.092  1.00  0.00    -0.376 OA
BRANCH  33  34
ATOM     34  C   UNL A   1      35.549  34.127  35.044  1.00  0.00     0.202 C 
BRANCH  34  35
ATOM     35  C   UNL A   1      36.447  33.630  36.188  1.00  0.00     0.261 C 
BRANCH  35  36
ATOM     36  O   UNL A   1      37.831  33.450  35.842  1.00  0.00    -0.460 OA
BRANCH  36  37
ATOM     37  C   UNL A   1      38.359  32.237  36.156  1.00  0.00     0.338 C 
ATOM     38  O   UNL A   1      37.972  31.469  37.019  1.00  0.00    -0.246 OA
BRANCH  37  39
ATOM     39  C   UNL A   1      39.370  31.877  35.140  1.00  0.00     0.060 A 
ATOM     40  C   UNL A   1      40.710  32.236  35.297  1.00  0.00     0.016 A 
ATOM     41  C   UNL A   1      38.957  31.156  34.009  1.00  0.00     0.016 A 
ATOM     42  C   UNL A   1      41.641  31.849  34.329  1.00  0.00     0.010 A 
ATOM     43  C   UNL A   1      39.886  30.790  33.034  1.00  0.00     0.010 A 
ATOM     44  C   UNL A   1      41.238  31.116  33.197  1.00  0.00    -0.014 A 
BRANCH  44  45
ATOM     45  C   UNL A   1      42.260  30.534  32.294  1.00  0.00     0.031 A 
ATOM     46  C   UNL A   1      42.849  29.175  32.520  1.00  0.00     0.074 A 
ATOM     47  C   UNL A   1      42.675  31.282  31.253  1.00  0.00     0.049 A 
ATOM     48  N   UNL A   1      43.655  28.500  31.742  1.00  0.00    -0.248 NA
ATOM     49  C   UNL A   1      42.500  28.487  33.771  1.00  0.00     0.031 C 
ATOM     50  C   UNL A   1      42.225  32.647  30.973  1.00  0.00     0.029 A 
ATOM     51  N   UNL A   1      43.562  31.007  30.245  1.00  0.00    -0.354 N 
ATOM     52  C   UNL A   1      43.918  27.308  32.405  1.00  0.00     0.074 A 
ATOM     53  C   UNL A   1      43.196  27.360  33.660  1.00  0.00     0.031 C 
ATOM     54  C   UNL A   1      42.820  33.082  29.852  1.00  0.00     0.029 A 
ATOM     55  C   UNL A   1      43.696  32.032  29.340  1.00  0.00     0.049 A 
ATOM     56  H   UNL A   1      44.055  30.157  30.176  1.00  0.00     0.167 HD
ATOM     57  C   UNL A   1      44.675  26.265  31.990  1.00  0.00     0.034 A 
ATOM     58  C   UNL A   1      44.423  32.115  28.209  1.00  0.00     0.034 A 
ATOM     59  C   UNL A   1      45.373  26.213  30.732  1.00  0.00     0.049 A 
ATOM     60  C   UNL A   1      45.235  30.935  27.762  1.00  0.00     0.074 A 
ATOM     61  C   UNL A   1      46.083  25.154  30.189  1.00  0.00     0.029 A 
ATOM     62  N   UNL A   1      45.472  27.261  29.831  1.00  0.00    -0.354 N 
ATOM     63  N   UNL A   1      45.332  29.751  28.317  1.00  0.00    -0.248 NA
ATOM     64  C   UNL A   1      46.010  31.086  26.524  1.00  0.00     0.031 C 
ATOM     65  C   UNL A   1      46.629  25.569  28.971  1.00  0.00     0.029 A 
ATOM     66  C   UNL A   1      46.246  26.882  28.747  1.00  0.00     0.049 A 
ATOM     67  H   UNL A   1      45.054  28.144  29.945  1.00  0.00     0.167 HD
ATOM     68  C   UNL A   1      46.162  29.010  27.485  1.00  0.00     0.074 A 
ATOM     69  C   UNL A   1      46.531  29.873  26.382  1.00  0.00     0.031 C 
ATOM     70  C   UNL A   1      46.584  27.731  27.634  1.00  0.00     0.034 A 
BRANCH  57  71
ATOM     71  C   UNL A   1      44.748  25.043  32.865  1.00  0.00     0.023 A 
ATOM     72  C   UNL A   1      43.845  23.986  32.637  1.00  0.00     0.012 A 
ATOM     73  C   UNL A   1      45.787  24.882  33.802  1.00  0.00     0.148 A 
ATOM     74  C   UNL A   1      43.971  22.785  33.333  1.00  0.00     0.002 A 
ATOM     75  C   UNL A   1      45.922  23.671  34.473  1.00  0.00     0.091 A 
ATOM     76  F   UNL A   1      46.627  25.906  34.005  1.00  0.00    -0.205 F 
ATOM     77  C   UNL A   1      45.014  22.624  34.242  1.00  0.00     0.022 A 
BRANCH  75  78
ATOM     78  S   UNL A   1      47.265  23.338  35.619  1.00  0.00     0.127 S 
ATOM     79  O   UNL A   1      46.712  22.235  36.404  1.00  0.00    -0.237 OA
ATOM     80  O   UNL A   1      48.352  22.960  34.716  1.00  0.00    -0.237 OA
ATOM     81  O   UNL A   1      47.484  24.574  36.356  1.00  0.00    -0.744 OA
ENDBRANCH  75  78
ENDBRANCH  57  71
BRANCH  58  82
ATOM     82  C   UNL A   1      44.320  33.341  27.377  1.00  0.00     0.023 A 
ATOM     83  C   UNL A   1      43.592  33.289  26.174  1.00  0.00     0.012 A 
ATOM     84  C   UNL A   1      44.849  34.568  27.817  1.00  0.00     0.148 A 
ATOM     85  C   UNL A   1      43.395  34.442  25.416  1.00  0.00     0.002 A 
ATOM     86  C   UNL A   1      44.616  35.721  27.077  1.00  0.00     0.091 A 
ATOM     87  F   UNL A   1      45.532  34.586  28.971  1.00  0.00    -0.205 F 
ATOM     88  C   UNL A   1      43.897  35.659  25.872  1.00  0.00     0.022 A 
BRANCH  86  89
ATOM     89  S   UNL A   1      45.134  37.350  27.630  1.00  0.00     0.127 S 
ATOM     90  O   UNL A   1      44.629  38.202  26.557  1.00  0.00    -0.237 OA
ATOM     91  O   UNL A   1      44.421  37.471  28.902  1.00  0.00    -0.237 OA
ATOM     92  O   UNL A   1      46.583  37.288  27.747  1.00  0.00    -0.744 OA
ENDBRANCH  86  89
ENDBRANCH  58  82
BRANCH  70  93
ATOM     93  C   UNL A   1      47.501  27.162  26.587  1.00  0.00     0.023 A 
ATOM     94  C   UNL A   1      46.970  26.322  25.588  1.00  0.00     0.012 A 
ATOM     95  C   UNL A   1      48.851  27.556  26.518  1.00  0.00     0.148 A 
ATOM     96  C   UNL A   1      47.772  25.877  24.539  1.00  0.00     0.002 A 
ATOM     97  C   UNL A   1      49.636  27.136  25.451  1.00  0.00     0.091 A 
ATOM     98  F   UNL A   1      49.334  28.349  27.485  1.00  0.00    -0.205 F 
ATOM     99  C   UNL A   1      49.099  26.293  24.463  1.00  0.00     0.022 A 
BRANCH  97 100
ATOM    100  S   UNL A   1      51.336  27.675  25.224  1.00  0.00     0.127 S 
ATOM    101  O   UNL A   1      51.728  26.930  24.028  1.00  0.00    -0.237 OA
ATOM    102  O   UNL A   1      51.178  29.115  25.022  1.00  0.00    -0.237 OA
ATOM    103  O   UNL A   1      52.044  27.304  26.442  1.00  0.00    -0.744 OA
ENDBRANCH  97 100
ENDBRANCH  70  93
ENDBRANCH  44  45
ENDBRANCH  37  39
ENDBRANCH  36  37
ENDBRANCH  35  36
ENDBRANCH  34  35
ENDBRANCH  33  34
ENDBRANCH   1  33
TORSDOF 23
ENDMDL
MODEL 2
REMARK VINA RESULT:      -7.4      6.297     10.522
REMARK SMILES C[C@@H]1CC[C@H](C)[N@H+]1Cc1cc2c(cc1Cl)C=C(C(=O)OCCOCCOCCOC(=O)c1ccc(-c3c4nc(c(-c5cccc(S(=O)(=O)[O-])c5F)c5ccc([nH]5)c(-c5cccc(S(=O)(=O)[O-])c5F)c5nc(c(-c6cccc(S(=O)(=O)[O-])c6F)c6ccc3[nH]6)C=C5)C=C4)cc1)[C@@H](C(F)(F)F)O2
REMARK SMILES IDX 25 1 24 2 23 3 22 4 21 5 20 6 18 7 19 8 17 9 9 10 10 11
REMARK SMILES IDX 14 12 11 13 13 14 15 15 12 16 100 17 16 18 95 19 8 20 7 21
REMARK SMILES IDX 6 22 5 23 4 24 3 25 2 26 1 28 96 29 97 30 98 31 99 32 26 33
REMARK SMILES IDX 27 34 28 35 29 36 30 37 31 38 32 39 33 40 94 41 34 42 93 43
REMARK SMILES IDX 35 44 36 45 37 46 87 47 38 48 92 49 86 50 88 51 39 52 91 53
REMARK SMILES IDX 85 54 84 55 40 57 72 58 52 59 71 60 53 61 56 62 70 63 89 64
REMARK SMILES IDX 54 65 55 66 69 68 90 69 57 70 41 71 42 72 50 73 43 74 45 75
REMARK SMILES IDX 51 76 44 77 46 78 47 79 48 80 49 81 73 82 74 83 82 84 75 85
REMARK SMILES IDX 77 86 83 87 76 88 78 89 79 90 80 91 81 92 58 93 59 94 67 95
REMARK SMILES IDX 60 96 62 97 68 98 61 99 63 100 64 101 65 102 66 103
REMARK H PARENT 7 27 88 56 56 67
REMARK Flexibility Score: inf
ROOT
ATOM      1  C   UNL A   1      38.384  21.890  25.791  1.00  0.00     0.188 C 
ENDROOT
BRANCH   1   2
ATOM      2  C   UNL A   1      37.331  22.559  24.878  1.00  0.00     0.188 C 
BRANCH   2   3
ATOM      3  O   UNL A   1      36.422  21.631  24.323  1.00  0.00    -0.376 OA
BRANCH   3   4
ATOM      4  C   UNL A   1      36.295  20.357  24.926  1.00  0.00     0.202 C 
BRANCH   4   5
ATOM      5  C   UNL A   1      34.950  19.605  24.939  1.00  0.00     0.261 C 
BRANCH   5   6
ATOM      6  O   UNL A   1      33.843  20.252  24.299  1.00  0.00    -0.460 OA
BRANCH   6   7
ATOM      7  C   UNL A   1      32.664  20.216  24.957  1.00  0.00     0.338 C 
ATOM      8  O   UNL A   1      32.124  19.222  25.415  1.00  0.00    -0.246 OA
BRANCH   7   9
ATOM      9  C   UNL A   1      32.172  21.593  25.166  1.00  0.00     0.087 C 
ATOM     10  C   UNL A   1      30.965  26.440  24.478  1.00  0.00     0.029 A 
ATOM     11  C   UNL A   1      31.011  25.587  25.608  1.00  0.00     0.058 A 
ATOM     12  C   UNL A   1      31.227  25.859  23.224  1.00  0.00     0.050 A 
ATOM     13  C   UNL A   1      31.315  24.222  25.482  1.00  0.00     0.128 A 
ATOM     14  C   UNL A   1      31.407  24.480  23.091  1.00  0.00     0.033 A 
ATOM     15  Cl  UNL A   1      31.538  26.779  21.793  1.00  0.00    -0.084 Cl
ATOM     16  C   UNL A   1      31.479  23.665  24.218  1.00  0.00     0.019 A 
ATOM     17  O   UNL A   1      31.455  23.495  26.636  1.00  0.00    -0.475 OA
ATOM     18  C   UNL A   1      31.832  22.267  24.062  1.00  0.00     0.027 C 
ATOM     19  C   UNL A   1      32.101  22.183  26.550  1.00  0.00     0.316 C 
BRANCH  10  20
ATOM     20  C   UNL A   1      30.748  27.937  24.677  1.00  0.00     0.301 C 
BRANCH  20  21
ATOM     21  N   UNL A   1      31.867  28.768  25.148  1.00  0.00    -0.327 N 
ATOM     22  C   UNL A   1      33.760  28.909  23.566  1.00  0.00     0.075 C 
ATOM     23  C   UNL A   1      33.218  28.279  24.847  1.00  0.00     0.181 C 
ATOM     24  C   UNL A   1      34.067  28.660  26.062  1.00  0.00     0.071 C 
ATOM     25  C   UNL A   1      33.064  28.660  27.195  1.00  0.00     0.071 C 
ATOM     26  C   UNL A   1      31.804  29.210  26.544  1.00  0.00     0.181 C 
ATOM     27  H   UNL A   1      31.706  29.585  24.559  1.00  0.00     0.348 HD
ATOM     28  C   UNL A   1      31.731  30.737  26.592  1.00  0.00     0.075 C 
ENDBRANCH  20  21
ENDBRANCH  10  20
BRANCH  19  29
ATOM     29  C   UNL A   1      33.486  22.232  27.211  1.00  0.00     0.430 C 
ATOM     30  F   UNL A   1      34.409  22.793  26.393  1.00  0.00    -0.167 F 
ATOM     31  F   UNL A   1      33.466  22.985  28.339  1.00  0.00    -0.167 F 
ATOM     32  F   UNL A   1      33.939  21.007  27.554  1.00  0.00    -0.167 F 
ENDBRANCH  19  29
ENDBRANCH   7   9
ENDBRANCH   6   7
ENDBRANCH   5   6
ENDBRANCH   4   5
ENDBRANCH   3   4
ENDBRANCH   2   3
ENDBRANCH   1   2
BRANCH   1  33
ATOM     33  O   UNL A   1      39.291  22.701  26.530  1.00  0.00    -0.376 OA
BRANCH  33  34
ATOM     34  C   UNL A   1      38.898  24.022  26.891  1.00  0.00     0.202 C 
BRANCH  34  35
ATOM     35  C   UNL A   1      39.958  25.128  27.006  1.00  0.00     0.261 C 
BRANCH  35  36
ATOM     36  O   UNL A   1      41.220  24.829  26.385  1.00  0.00    -0.460 OA
BRANCH  36  37
ATOM     37  C   UNL A   1      41.911  25.903  25.918  1.00  0.00     0.338 C 
ATOM     38  O   UNL A   1      41.516  26.741  25.126  1.00  0.00    -0.246 OA
BRANCH  37  39
ATOM     39  C   UNL A   1      43.170  26.033  26.682  1.00  0.00     0.060 A 
ATOM     40  C   UNL A   1      43.538  27.248  27.261  1.00  0.00     0.016 A 
ATOM     41  C   UNL A   1      43.990  24.904  26.821  1.00  0.00     0.016 A 
ATOM     42  C   UNL A   1      44.721  27.323  28.002  1.00  0.00     0.010 A 
ATOM     43  C   UNL A   1      45.181  24.987  27.544  1.00  0.00     0.010 A 
ATOM     44  C   UNL A   1      45.544  26.192  28.157  1.00  0.00    -0.014 A 
BRANCH  44  45
ATOM     45  C   UNL A   1      46.676  26.230  29.115  1.00  0.00     0.031 A 
ATOM     46  C   UNL A   1      46.499  25.958  30.577  1.00  0.00     0.074 A 
ATOM     47  C   UNL A   1      47.894  26.546  28.632  1.00  0.00     0.049 A 
ATOM     48  N   UNL A   1      47.419  25.838  31.499  1.00  0.00    -0.248 NA
ATOM     49  C   UNL A   1      45.123  25.808  31.074  1.00  0.00     0.031 C 
ATOM     50  C   UNL A   1      48.176  26.899  27.239  1.00  0.00     0.029 A 
ATOM     51  N   UNL A   1      49.114  26.622  29.252  1.00  0.00    -0.354 N 
ATOM     52  C   UNL A   1      46.742  25.602  32.688  1.00  0.00     0.074 A 
ATOM     53  C   UNL A   1      45.328  25.613  32.373  1.00  0.00     0.031 C 
ATOM     54  C   UNL A   1      49.490  27.131  27.105  1.00  0.00     0.029 A 
ATOM     55  C   UNL A   1      50.141  26.950  28.400  1.00  0.00     0.049 A 
ATOM     56  H   UNL A   1      49.243  26.458  30.214  1.00  0.00     0.167 HD
ATOM     57  C   UNL A   1      47.260  25.378  33.919  1.00  0.00     0.034 A 
ATOM     58  C   UNL A   1      51.463  27.070  28.624  1.00  0.00     0.034 A 
ATOM     59  C   UNL A   1      48.667  25.349  34.220  1.00  0.00     0.049 A 
ATOM     60  C   UNL A   1      52.011  26.793  29.993  1.00  0.00     0.074 A 
ATOM     61  C   UNL A   1      49.280  25.032  35.422  1.00  0.00     0.029 A 
ATOM     62  N   UNL A   1      49.679  25.667  33.329  1.00  0.00    -0.354 N 
ATOM     63  N   UNL A   1      51.370  26.401  31.067  1.00  0.00    -0.248 NA
ATOM     64  C   UNL A   1      53.460  26.945  30.177  1.00  0.00     0.031 C 
ATOM     65  C   UNL A   1      50.661  25.180  35.263  1.00  0.00     0.029 A 
ATOM     66  C   UNL A   1      50.910  25.573  33.957  1.00  0.00     0.049 A 
ATOM     67  H   UNL A   1      49.544  25.922  32.389  1.00  0.00     0.167 HD
ATOM     68  C   UNL A   1      52.339  26.238  32.049  1.00  0.00     0.074 A 
ATOM     69  C   UNL A   1      53.612  26.562  31.440  1.00  0.00     0.031 C 
ATOM     70  C   UNL A   1      52.179  25.862  33.340  1.00  0.00     0.034 A 
BRANCH  57  71
ATOM     71  C   UNL A   1      46.312  25.073  35.047  1.00  0.00     0.023 A 
ATOM     72  C   UNL A   1      46.000  23.729  35.333  1.00  0.00     0.012 A 
ATOM     73  C   UNL A   1      45.850  26.092  35.904  1.00  0.00     0.148 A 
ATOM     74  C   UNL A   1      45.238  23.401  36.453  1.00  0.00     0.002 A 
ATOM     75  C   UNL A   1      45.114  25.755  37.034  1.00  0.00     0.091 A 
ATOM     76  F   UNL A   1      46.154  27.362  35.605  1.00  0.00    -0.205 F 
ATOM     77  C   UNL A   1      44.805  24.412  37.308  1.00  0.00     0.022 A 
BRANCH  75  78
ATOM     78  S   UNL A   1      44.558  26.972  38.233  1.00  0.00     0.127 S 
ATOM     79  O   UNL A   1      43.809  26.137  39.171  1.00  0.00    -0.237 OA
ATOM     80  O   UNL A   1      45.823  27.490  38.754  1.00  0.00    -0.237 OA
ATOM     81  O   UNL A   1      43.762  27.937  37.490  1.00  0.00    -0.744 OA
ENDBRANCH  75  78
ENDBRANCH  57  71
BRANCH  58  82
ATOM     82  C   UNL A   1      52.361  27.373  27.479  1.00  0.00     0.023 A 
ATOM     83  C   UNL A   1      52.699  28.714  27.214  1.00  0.00     0.012 A 
ATOM     84  C   UNL A   1      52.953  26.344  26.725  1.00  0.00     0.148 A 
ATOM     85  C   UNL A   1      53.612  29.026  26.209  1.00  0.00     0.002 A 
ATOM     86  C   UNL A   1      53.891  26.661  25.750  1.00  0.00     0.091 A 
ATOM     87  F   UNL A   1      52.616  25.078  27.006  1.00  0.00    -0.205 F 
ATOM     88  C   UNL A   1      54.215  28.001  25.484  1.00  0.00     0.022 A 
BRANCH  86  89
ATOM     89  S   UNL A   1      54.798  25.410  24.833  1.00  0.00     0.127 S 
ATOM     90  O   UNL A   1      55.398  26.202  23.762  1.00  0.00    -0.237 OA
ATOM     91  O   UNL A   1      55.738  24.926  25.844  1.00  0.00    -0.237 OA
ATOM     92  O   UNL A   1      53.807  24.433  24.406  1.00  0.00    -0.744 OA
ENDBRANCH  86  89
ENDBRANCH  58  82
BRANCH  70  93
ATOM     93  C   UNL A   1      53.403  25.776  34.210  1.00  0.00     0.023 A 
ATOM     94  C   UNL A   1      53.695  26.831  35.096  1.00  0.00     0.012 A 
ATOM     95  C   UNL A   1      54.186  24.606  34.240  1.00  0.00     0.148 A 
ATOM     96  C   UNL A   1      54.754  26.725  35.996  1.00  0.00     0.002 A 
ATOM     97  C   UNL A   1      55.218  24.493  35.163  1.00  0.00     0.091 A 
ATOM     98  F   UNL A   1      53.892  23.619  33.381  1.00  0.00    -0.205 F 
ATOM     99  C   UNL A   1      55.506  25.554  36.038  1.00  0.00     0.022 A 
BRANCH  97 100
ATOM    100  S   UNL A   1      56.200  22.998  35.346  1.00  0.00     0.127 S 
ATOM    101  O   UNL A   1      56.828  23.212  36.649  1.00  0.00    -0.237 OA
ATOM    102  O   UNL A   1      55.177  21.954  35.326  1.00  0.00    -0.237 OA
ATOM    103  O   UNL A   1      57.117  22.976  34.215  1.00  0.00    -0.744 OA
ENDBRANCH  97 100
ENDBRANCH  70  93
ENDBRANCH  44  45
ENDBRANCH  37  39
ENDBRANCH  36  37
ENDBRANCH  35  36
ENDBRANCH  34  35
ENDBRANCH  33  34
ENDBRANCH   1  33
TORSDOF 23
ENDMDL
MODEL 3
REMARK VINA RESULT:      -7.2      1.677      2.152
REMARK SMILES C[C@@H]1CC[C@H](C)[N@H+]1Cc1cc2c(cc1Cl)C=C(C(=O)OCCOCCOCCOC(=O)c1ccc(-c3c4nc(c(-c5cccc(S(=O)(=O)[O-])c5F)c5ccc([nH]5)c(-c5cccc(S(=O)(=O)[O-])c5F)c5nc(c(-c6cccc(S(=O)(=O)[O-])c6F)c6ccc3[nH]6)C=C5)C=C4)cc1)[C@@H](C(F)(F)F)O2
REMARK SMILES IDX 25 1 24 2 23 3 22 4 21 5 20 6 18 7 19 8 17 9 9 10 10 11
REMARK SMILES IDX 14 12 11 13 13 14 15 15 12 16 100 17 16 18 95 19 8 20 7 21
REMARK SMILES IDX 6 22 5 23 4 24 3 25 2 26 1 28 96 29 97 30 98 31 99 32 26 33
REMARK SMILES IDX 27 34 28 35 29 36 30 37 31 38 32 39 33 40 94 41 34 42 93 43
REMARK SMILES IDX 35 44 36 45 37 46 87 47 38 48 92 49 86 50 88 51 39 52 91 53
REMARK SMILES IDX 85 54 84 55 40 57 72 58 52 59 71 60 53 61 56 62 70 63 89 64
REMARK SMILES IDX 54 65 55 66 69 68 90 69 57 70 41 71 42 72 50 73 43 74 45 75
REMARK SMILES IDX 51 76 44 77 46 78 47 79 48 80 49 81 73 82 74 83 82 84 75 85
REMARK SMILES IDX 77 86 83 87 76 88 78 89 79 90 80 91 81 92 58 93 59 94 67 95
REMARK SMILES IDX 60 96 62 97 68 98 61 99 63 100 64 101 65 102 66 103
REMARK H PARENT 7 27 88 56 56 67
REMARK Flexibility Score: inf
ROOT
ATOM      1  C   UNL A   1      35.011  35.083  32.159  1.00  0.00     0.188 C 
ENDROOT
BRANCH   1   2
ATOM      2  C   UNL A   1      35.271  33.701  31.518  1.00  0.00     0.188 C 
BRANCH   2   3
ATOM      3  O   UNL A   1      36.622  33.302  31.613  1.00  0.00    -0.376 OA
BRANCH   3   4
ATOM      4  C   UNL A   1      37.563  33.859  30.715  1.00  0.00     0.202 C 
BRANCH   4   5
ATOM      5  C   UNL A   1      38.718  33.018  30.136  1.00  0.00     0.261 C 
BRANCH   5   6
ATOM      6  O   UNL A   1      38.738  31.627  30.479  1.00  0.00    -0.460 OA
BRANCH   6   7
ATOM      7  C   UNL A   1      38.648  30.754  29.453  1.00  0.00     0.338 C 
ATOM      8  O   UNL A   1      37.827  30.784  28.550  1.00  0.00    -0.246 OA
BRANCH   7   9
ATOM      9  C   UNL A   1      39.787  29.814  29.502  1.00  0.00     0.087 C 
ATOM     10  C   UNL A   1      43.718  26.930  28.218  1.00  0.00     0.029 A 
ATOM     11  C   UNL A   1      42.921  27.048  29.384  1.00  0.00     0.058 A 
ATOM     12  C   UNL A   1      43.466  27.838  27.174  1.00  0.00     0.050 A 
ATOM     13  C   UNL A   1      41.916  28.023  29.487  1.00  0.00     0.128 A 
ATOM     14  C   UNL A   1      42.551  28.883  27.330  1.00  0.00     0.033 A 
ATOM     15  Cl  UNL A   1      44.094  27.650  25.574  1.00  0.00    -0.084 Cl
ATOM     16  C   UNL A   1      41.757  28.960  28.472  1.00  0.00     0.019 A 
ATOM     17  O   UNL A   1      41.115  27.991  30.599  1.00  0.00    -0.475 OA
ATOM     18  C   UNL A   1      40.701  29.953  28.536  1.00  0.00     0.027 C 
ATOM     19  C   UNL A   1      39.866  28.755  30.571  1.00  0.00     0.316 C 
BRANCH  10  20
ATOM     20  C   UNL A   1      44.716  25.782  28.106  1.00  0.00     0.301 C 
BRANCH  20  21
ATOM     21  N   UNL A   1      44.315  24.549  27.410  1.00  0.00    -0.327 N 
ATOM     22  C   UNL A   1      46.077  23.573  25.979  1.00  0.00     0.075 C 
ATOM     23  C   UNL A   1      44.789  24.392  26.030  1.00  0.00     0.181 C 
ATOM     24  C   UNL A   1      43.650  23.690  25.286  1.00  0.00     0.071 C 
ATOM     25  C   UNL A   1      42.418  24.143  26.040  1.00  0.00     0.071 C 
ATOM     26  C   UNL A   1      42.894  24.196  27.484  1.00  0.00     0.181 C 
ATOM     27  H   UNL A   1      44.829  23.879  27.981  1.00  0.00     0.348 HD
ATOM     28  C   UNL A   1      42.740  22.855  28.206  1.00  0.00     0.075 C 
ENDBRANCH  20  21
ENDBRANCH  10  20
BRANCH  19  29
ATOM     29  C   UNL A   1      38.664  27.802  30.505  1.00  0.00     0.430 C 
ATOM     30  F   UNL A   1      37.506  28.472  30.287  1.00  0.00    -0.167 F 
ATOM     31  F   UNL A   1      38.793  26.919  29.482  1.00  0.00    -0.167 F 
ATOM     32  F   UNL A   1      38.511  27.084  31.638  1.00  0.00    -0.167 F 
ENDBRANCH  19  29
ENDBRANCH   7   9
ENDBRANCH   6   7
ENDBRANCH   5   6
ENDBRANCH   4   5
ENDBRANCH   3   4
ENDBRANCH   2   3
ENDBRANCH   1   2
BRANCH   1  33
ATOM     33  O   UNL A   1      35.480  35.347  33.477  1.00  0.00    -0.376 OA
BRANCH  33  34
ATOM     34  C   UNL A   1      34.984  34.559  34.555  1.00  0.00     0.202 C 
BRANCH  34  35
ATOM     35  C   UNL A   1      35.970  33.869  35.511  1.00  0.00     0.261 C 
BRANCH  35  36
ATOM     36  O   UNL A   1      37.135  33.309  34.883  1.00  0.00    -0.460 OA
BRANCH  36  37
ATOM     37  C   UNL A   1      37.788  32.359  35.604  1.00  0.00     0.338 C 
ATOM     38  O   UNL A   1      37.400  31.815  36.623  1.00  0.00    -0.246 OA
BRANCH  37  39
ATOM     39  C   UNL A   1      38.977  31.914  34.846  1.00  0.00     0.060 A 
ATOM     40  C   UNL A   1      40.220  32.520  35.035  1.00  0.00     0.016 A 
ATOM     41  C   UNL A   1      38.833  30.860  33.931  1.00  0.00     0.016 A 
ATOM     42  C   UNL A   1      41.327  32.049  34.322  1.00  0.00     0.010 A 
ATOM     43  C   UNL A   1      39.936  30.407  33.205  1.00  0.00     0.010 A 
ATOM     44  C   UNL A   1      41.195  30.985  33.411  1.00  0.00    -0.014 A 
BRANCH  44  45
ATOM     45  C   UNL A   1      42.406  30.361  32.825  1.00  0.00     0.031 A 
ATOM     46  C   UNL A   1      43.072  29.169  33.441  1.00  0.00     0.074 A 
ATOM     47  C   UNL A   1      42.922  30.919  31.712  1.00  0.00     0.049 A 
ATOM     48  N   UNL A   1      44.059  28.454  32.966  1.00  0.00    -0.248 NA
ATOM     49  C   UNL A   1      42.580  28.723  34.753  1.00  0.00     0.031 C 
ATOM     50  C   UNL A   1      42.401  32.124  31.063  1.00  0.00     0.029 A 
ATOM     51  N   UNL A   1      43.990  30.553  30.935  1.00  0.00    -0.354 N 
ATOM     52  C   UNL A   1      44.314  27.475  33.917  1.00  0.00     0.074 A 
ATOM     53  C   UNL A   1      43.387  27.698  35.007  1.00  0.00     0.031 C 
ATOM     54  C   UNL A   1      43.136  32.384  29.971  1.00  0.00     0.029 A 
ATOM     55  C   UNL A   1      44.181  31.371  29.848  1.00  0.00     0.049 A 
ATOM     56  H   UNL A   1      44.564  29.779  31.137  1.00  0.00     0.167 HD
ATOM     57  C   UNL A   1      45.225  26.474  33.869  1.00  0.00     0.034 A 
ATOM     58  C   UNL A   1      45.080  31.306  28.848  1.00  0.00     0.034 A 
ATOM     59  C   UNL A   1      46.131  26.247  32.772  1.00  0.00     0.049 A 
ATOM     60  C   UNL A   1      46.063  30.173  28.808  1.00  0.00     0.074 A 
ATOM     61  C   UNL A   1      47.019  25.198  32.598  1.00  0.00     0.029 A 
ATOM     62  N   UNL A   1      46.284  27.084  31.679  1.00  0.00    -0.354 N 
ATOM     63  N   UNL A   1      46.174  29.156  29.628  1.00  0.00    -0.248 NA
ATOM     64  C   UNL A   1      47.021  30.157  27.695  1.00  0.00     0.031 C 
ATOM     65  C   UNL A   1      47.725  25.412  31.410  1.00  0.00     0.029 A 
ATOM     66  C   UNL A   1      47.265  26.587  30.836  1.00  0.00     0.049 A 
ATOM     67  H   UNL A   1      45.773  27.910  31.524  1.00  0.00     0.167 HD
ATOM     68  C   UNL A   1      47.199  28.369  29.120  1.00  0.00     0.074 A 
ATOM     69  C   UNL A   1      47.670  29.019  27.914  1.00  0.00     0.031 C 
ATOM     70  C   UNL A   1      47.707  27.216  29.619  1.00  0.00     0.034 A 
BRANCH  57  71
ATOM     71  C   UNL A   1      45.261  25.486  35.002  1.00  0.00     0.023 A 
ATOM     72  C   UNL A   1      44.557  24.272  34.873  1.00  0.00     0.012 A 
ATOM     73  C   UNL A   1      46.097  25.690  36.118  1.00  0.00     0.148 A 
ATOM     74  C   UNL A   1      44.678  23.276  35.840  1.00  0.00     0.002 A 
ATOM     75  C   UNL A   1      46.234  24.681  37.065  1.00  0.00     0.091 A 
ATOM     76  F   UNL A   1      46.749  26.856  36.221  1.00  0.00    -0.205 F 
ATOM     77  C   UNL A   1      45.524  23.476  36.929  1.00  0.00     0.022 A 
BRANCH  75  78
ATOM     78  S   UNL A   1      47.342  24.810  38.473  1.00  0.00     0.127 S 
ATOM     79  O   UNL A   1      46.589  25.699  39.357  1.00  0.00    -0.237 OA
ATOM     80  O   UNL A   1      47.422  23.422  38.928  1.00  0.00    -0.237 OA
ATOM     81  O   UNL A   1      48.588  25.358  37.958  1.00  0.00    -0.744 OA
ENDBRANCH  75  78
ENDBRANCH  57  71
BRANCH  58  82
ATOM     82  C   UNL A   1      45.007  32.304  27.750  1.00  0.00     0.023 A 
ATOM     83  C   UNL A   1      44.210  32.021  26.624  1.00  0.00     0.012 A 
ATOM     84  C   UNL A   1      45.635  33.557  27.860  1.00  0.00     0.148 A 
ATOM     85  C   UNL A   1      44.043  32.973  25.620  1.00  0.00     0.002 A 
ATOM     86  C   UNL A   1      45.434  34.515  26.874  1.00  0.00     0.091 A 
ATOM     87  F   UNL A   1      46.382  33.798  28.947  1.00  0.00    -0.205 F 
ATOM     88  C   UNL A   1      44.645  34.222  25.749  1.00  0.00     0.022 A 
BRANCH  86  89
ATOM     89  S   UNL A   1      46.082  36.186  26.997  1.00  0.00     0.127 S 
ATOM     90  O   UNL A   1      47.368  36.058  26.317  1.00  0.00    -0.237 OA
ATOM     91  O   UNL A   1      45.070  36.951  26.267  1.00  0.00    -0.237 OA
ATOM     92  O   UNL A   1      46.156  36.480  28.421  1.00  0.00    -0.744 OA
ENDBRANCH  86  89
ENDBRANCH  58  82
BRANCH  70  93
ATOM     93  C   UNL A   1      48.839  26.561  28.877  1.00  0.00     0.023 A 
ATOM     94  C   UNL A   1      48.552  25.723  27.782  1.00  0.00     0.012 A 
ATOM     95  C   UNL A   1      50.178  26.874  29.181  1.00  0.00     0.148 A 
ATOM     96  C   UNL A   1      49.583  25.199  27.004  1.00  0.00     0.002 A 
ATOM     97  C   UNL A   1      51.199  26.375  28.381  1.00  0.00     0.091 A 
ATOM     98  F   UNL A   1      50.425  27.668  30.233  1.00  0.00    -0.205 F 
ATOM     99  C   UNL A   1      50.903  25.534  27.295  1.00  0.00     0.022 A 
BRANCH  97 100
ATOM    100  S   UNL A   1      52.927  26.806  28.628  1.00  0.00     0.127 S 
ATOM    101  O   UNL A   1      53.173  26.289  29.974  1.00  0.00    -0.237 OA
ATOM    102  O   UNL A   1      53.586  26.059  27.558  1.00  0.00    -0.237 OA
ATOM    103  O   UNL A   1      53.005  28.254  28.499  1.00  0.00    -0.744 OA
ENDBRANCH  97 100
ENDBRANCH  70  93
ENDBRANCH  44  45
ENDBRANCH  37  39
ENDBRANCH  36  37
ENDBRANCH  35  36
ENDBRANCH  34  35
ENDBRANCH  33  34
ENDBRANCH   1  33
TORSDOF 23
ENDMDL
