MODEL 1
REMARK VINA RESULT:     -10.3      0.000      0.000
REMARK SMILES CC1(C)C(Nc2cc(C(=O)OCCOCCOCCOC(=O)c3ccc(-c4c5nc(c(-c6cccc(S(=O)(=O)[O-])c6F)c6ccc([nH]6)c(-c6cccc(S(=O)(=O)[O-])c6F)c6nc(c(-c7cccc(S(=O)(=O)[O-])c7F)c7ccc4[nH]7)C=C6)C=C5)cc3)cc(Cl)n2)C1(C)C
REMARK SMILES IDX 16 1 15 2 14 3 13 4 12 5 11 6 9 7 10 8 8 9 6 10 7 11 89 12
REMARK SMILES IDX 87 13 86 14 88 15 5 16 4 18 1 19 2 20 3 21 90 22 91 23 92 24
REMARK SMILES IDX 17 25 18 26 19 27 20 28 21 29 22 30 23 31 24 32 85 33 25 34
REMARK SMILES IDX 84 35 26 36 27 37 28 38 78 39 29 40 83 41 77 42 79 43 30 44
REMARK SMILES IDX 82 45 76 46 75 47 31 49 63 50 43 51 62 52 44 53 47 54 61 55
REMARK SMILES IDX 80 56 45 57 46 58 60 60 81 61 48 62 32 63 33 64 41 65 34 66
REMARK SMILES IDX 36 67 42 68 35 69 37 70 38 71 39 72 40 73 64 74 65 75 73 76
REMARK SMILES IDX 66 77 68 78 74 79 67 80 69 81 70 82 71 83 72 84 49 85 50 86
REMARK SMILES IDX 58 87 51 88 53 89 59 90 52 91 54 92 55 93 56 94 57 95
REMARK H PARENT 5 17 79 48 47 59
REMARK Flexibility Score: inf
ROOT
ATOM      1  C   UNL A   1      35.246  21.504  24.509  1.00  0.00     0.188 C 
ENDROOT
BRANCH   1   2
ATOM      2  C   UNL A   1      35.179  22.458  25.719  1.00  0.00     0.188 C 
BRANCH   2   3
ATOM      3  O   UNL A   1      34.655  21.977  26.938  1.00  0.00    -0.376 OA
BRANCH   3   4
ATOM      4  C   UNL A   1      33.256  21.856  27.130  1.00  0.00     0.202 C 
BRANCH   4   5
ATOM      5  C   UNL A   1      32.409  22.792  28.014  1.00  0.00     0.261 C 
BRANCH   5   6
ATOM      6  O   UNL A   1      31.556  23.736  27.355  1.00  0.00    -0.460 OA
BRANCH   6   7
ATOM      7  C   UNL A   1      30.733  23.232  26.399  1.00  0.00     0.338 C 
ATOM      8  O   UNL A   1      29.834  22.422  26.564  1.00  0.00    -0.246 OA
BRANCH   7   9
ATOM      9  C   UNL A   1      30.999  23.892  25.101  1.00  0.00     0.066 A 
ATOM     10  C   UNL A   1      30.548  25.648  23.520  1.00  0.00     0.128 A 
ATOM     11  C   UNL A   1      30.324  25.077  24.769  1.00  0.00     0.062 A 
ATOM     12  N   UNL A   1      31.381  25.085  22.625  1.00  0.00    -0.219 NA
ATOM     13  C   UNL A   1      32.049  23.974  22.998  1.00  0.00     0.132 A 
ATOM     14  C   UNL A   1      31.908  23.337  24.209  1.00  0.00     0.057 A 
ATOM     15  Cl  UNL A   1      33.146  23.382  21.819  1.00  0.00    -0.062 Cl
BRANCH  10  16
ATOM     16  N   UNL A   1      29.960  26.859  23.122  1.00  0.00    -0.366 N 
ATOM     17  H   UNL A   1      29.401  26.889  22.312  1.00  0.00     0.162 HD
BRANCH  16  18
ATOM     18  C   UNL A   1      30.171  28.080  23.907  1.00  0.00     0.093 C 
ATOM     19  C   UNL A   1      32.038  28.871  25.427  1.00  0.00     0.014 C 
ATOM     20  C   UNL A   1      31.567  28.720  23.988  1.00  0.00    -0.008 C 
ATOM     21  C   UNL A   1      32.742  28.560  23.054  1.00  0.00     0.014 C 
ATOM     22  C   UNL A   1      30.366  29.461  23.362  1.00  0.00    -0.008 C 
ATOM     23  C   UNL A   1      29.832  30.642  24.106  1.00  0.00     0.014 C 
ATOM     24  C   UNL A   1      30.143  29.614  21.872  1.00  0.00     0.014 C 
ENDBRANCH  16  18
ENDBRANCH  10  16
ENDBRANCH   7   9
ENDBRANCH   6   7
ENDBRANCH   5   6
ENDBRANCH   4   5
ENDBRANCH   3   4
ENDBRANCH   2   3
ENDBRANCH   1   2
BRANCH   1  25
ATOM     25  O   UNL A   1      35.162  20.121  24.758  1.00  0.00    -0.376 OA
BRANCH  25  26
ATOM     26  C   UNL A   1      36.341  19.343  24.897  1.00  0.00     0.202 C 
BRANCH  26  27
ATOM     27  C   UNL A   1      37.793  19.827  24.692  1.00  0.00     0.261 C 
BRANCH  27  28
ATOM     28  O   UNL A   1      38.241  20.983  25.402  1.00  0.00    -0.460 OA
BRANCH  28  29
ATOM     29  C   UNL A   1      39.374  20.819  26.129  1.00  0.00     0.338 C 
ATOM     30  O   UNL A   1      40.011  19.789  26.273  1.00  0.00    -0.246 OA
BRANCH  29  31
ATOM     31  C   UNL A   1      39.857  22.139  26.577  1.00  0.00     0.060 A 
ATOM     32  C   UNL A   1      39.206  23.277  26.093  1.00  0.00     0.016 A 
ATOM     33  C   UNL A   1      40.961  22.265  27.424  1.00  0.00     0.016 A 
ATOM     34  C   UNL A   1      39.673  24.541  26.446  1.00  0.00     0.010 A 
ATOM     35  C   UNL A   1      41.438  23.541  27.757  1.00  0.00     0.010 A 
ATOM     36  C   UNL A   1      40.808  24.690  27.255  1.00  0.00    -0.014 A 
BRANCH  36  37
ATOM     37  C   UNL A   1      41.412  26.041  27.413  1.00  0.00     0.031 A 
ATOM     38  C   UNL A   1      40.774  27.007  28.371  1.00  0.00     0.074 A 
ATOM     39  C   UNL A   1      42.537  26.396  26.764  1.00  0.00     0.049 A 
ATOM     40  N   UNL A   1      41.181  28.192  28.747  1.00  0.00    -0.248 NA
ATOM     41  C   UNL A   1      39.497  26.589  28.968  1.00  0.00     0.031 C 
ATOM     42  C   UNL A   1      43.249  25.562  25.801  1.00  0.00     0.029 A 
ATOM     43  N   UNL A   1      43.316  27.526  26.871  1.00  0.00    -0.354 N 
ATOM     44  C   UNL A   1      40.171  28.697  29.555  1.00  0.00     0.074 A 
ATOM     45  C   UNL A   1      39.156  27.670  29.652  1.00  0.00     0.031 C 
ATOM     46  C   UNL A   1      44.407  26.166  25.476  1.00  0.00     0.029 A 
ATOM     47  C   UNL A   1      44.500  27.450  26.172  1.00  0.00     0.049 A 
ATOM     48  H   UNL A   1      43.050  28.314  27.398  1.00  0.00     0.167 HD
ATOM     49  C   UNL A   1      40.080  29.916  30.140  1.00  0.00     0.034 A 
ATOM     50  C   UNL A   1      45.549  28.301  26.128  1.00  0.00     0.034 A 
ATOM     51  C   UNL A   1      41.088  30.938  30.053  1.00  0.00     0.049 A 
ATOM     52  C   UNL A   1      45.469  29.613  26.873  1.00  0.00     0.074 A 
ATOM     53  C   UNL A   1      41.078  32.204  30.614  1.00  0.00     0.029 A 
ATOM     54  N   UNL A   1      42.280  30.823  29.355  1.00  0.00    -0.354 N 
ATOM     55  N   UNL A   1      44.544  30.046  27.694  1.00  0.00    -0.248 NA
ATOM     56  C   UNL A   1      46.578  30.559  26.672  1.00  0.00     0.031 C 
ATOM     57  C   UNL A   1      42.247  32.866  30.224  1.00  0.00     0.029 A 
ATOM     58  C   UNL A   1      43.009  31.996  29.463  1.00  0.00     0.049 A 
ATOM     59  H   UNL A   1      42.567  30.024  28.856  1.00  0.00     0.167 HD
ATOM     60  C   UNL A   1      44.955  31.313  28.100  1.00  0.00     0.074 A 
ATOM     61  C   UNL A   1      46.244  31.550  27.487  1.00  0.00     0.031 C 
ATOM     62  C   UNL A   1      44.306  32.215  28.878  1.00  0.00     0.034 A 
BRANCH  49  63
ATOM     63  C   UNL A   1      38.815  30.228  30.895  1.00  0.00     0.023 A 
ATOM     64  C   UNL A   1      38.652  29.786  32.223  1.00  0.00     0.012 A 
ATOM     65  C   UNL A   1      37.801  30.999  30.292  1.00  0.00     0.148 A 
ATOM     66  C   UNL A   1      37.481  30.074  32.925  1.00  0.00     0.002 A 
ATOM     67  C   UNL A   1      36.661  31.326  31.015  1.00  0.00     0.091 A 
ATOM     68  F   UNL A   1      37.966  31.389  29.020  1.00  0.00    -0.205 F 
ATOM     69  C   UNL A   1      36.493  30.851  32.326  1.00  0.00     0.022 A 
BRANCH  67  70
ATOM     70  S   UNL A   1      35.372  32.391  30.361  1.00  0.00     0.127 S 
ATOM     71  O   UNL A   1      36.119  33.615  30.074  1.00  0.00    -0.237 OA
ATOM     72  O   UNL A   1      34.935  31.650  29.178  1.00  0.00    -0.237 OA
ATOM     73  O   UNL A   1      34.371  32.505  31.413  1.00  0.00    -0.744 OA
ENDBRANCH  67  70
ENDBRANCH  49  63
BRANCH  50  74
ATOM     74  C   UNL A   1      46.797  27.942  25.384  1.00  0.00     0.023 A 
ATOM     75  C   UNL A   1      46.837  28.077  23.979  1.00  0.00     0.012 A 
ATOM     76  C   UNL A   1      47.936  27.454  26.048  1.00  0.00     0.148 A 
ATOM     77  C   UNL A   1      47.971  27.703  23.255  1.00  0.00     0.002 A 
ATOM     78  C   UNL A   1      49.091  27.162  25.330  1.00  0.00     0.091 A 
ATOM     79  F   UNL A   1      47.873  27.282  27.376  1.00  0.00    -0.205 F 
ATOM     80  C   UNL A   1      49.105  27.262  23.931  1.00  0.00     0.022 A 
BRANCH  78  81
ATOM     81  S   UNL A   1      50.636  26.754  26.148  1.00  0.00     0.127 S 
ATOM     82  O   UNL A   1      50.796  27.879  27.065  1.00  0.00    -0.237 OA
ATOM     83  O   UNL A   1      50.313  25.477  26.786  1.00  0.00    -0.237 OA
ATOM     84  O   UNL A   1      51.623  26.655  25.081  1.00  0.00    -0.744 OA
ENDBRANCH  78  81
ENDBRANCH  50  74
BRANCH  62  85
ATOM     85  C   UNL A   1      44.974  33.549  29.117  1.00  0.00     0.023 A 
ATOM     86  C   UNL A   1      45.683  33.777  30.316  1.00  0.00     0.012 A 
ATOM     87  C   UNL A   1      44.956  34.555  28.130  1.00  0.00     0.148 A 
ATOM     88  C   UNL A   1      46.322  34.995  30.546  1.00  0.00     0.002 A 
ATOM     89  C   UNL A   1      45.639  35.746  28.345  1.00  0.00     0.091 A 
ATOM     90  F   UNL A   1      44.267  34.329  27.002  1.00  0.00    -0.205 F 
ATOM     91  C   UNL A   1      46.308  35.975  29.557  1.00  0.00     0.022 A 
BRANCH  89  92
ATOM     92  S   UNL A   1      45.758  37.029  27.091  1.00  0.00     0.127 S 
ATOM     93  O   UNL A   1      46.336  36.296  25.968  1.00  0.00    -0.237 OA
ATOM     94  O   UNL A   1      44.358  37.417  26.911  1.00  0.00    -0.237 OA
ATOM     95  O   UNL A   1      46.604  38.070  27.661  1.00  0.00    -0.744 OA
ENDBRANCH  89  92
ENDBRANCH  62  85
ENDBRANCH  36  37
ENDBRANCH  29  31
ENDBRANCH  28  29
ENDBRANCH  27  28
ENDBRANCH  26  27
ENDBRANCH  25  26
ENDBRANCH   1  25
TORSDOF 22
ENDMDL
MODEL 2
REMARK VINA RESULT:     -10.3      1.999      7.884
REMARK SMILES CC1(C)C(Nc2cc(C(=O)OCCOCCOCCOC(=O)c3ccc(-c4c5nc(c(-c6cccc(S(=O)(=O)[O-])c6F)c6ccc([nH]6)c(-c6cccc(S(=O)(=O)[O-])c6F)c6nc(c(-c7cccc(S(=O)(=O)[O-])c7F)c7ccc4[nH]7)C=C6)C=C5)cc3)cc(Cl)n2)C1(C)C
REMARK SMILES IDX 16 1 15 2 14 3 13 4 12 5 11 6 9 7 10 8 8 9 6 10 7 11 89 12
REMARK SMILES IDX 87 13 86 14 88 15 5 16 4 18 1 19 2 20 3 21 90 22 91 23 92 24
REMARK SMILES IDX 17 25 18 26 19 27 20 28 21 29 22 30 23 31 24 32 85 33 25 34
REMARK SMILES IDX 84 35 26 36 27 37 28 38 78 39 29 40 83 41 77 42 79 43 30 44
REMARK SMILES IDX 82 45 76 46 75 47 31 49 63 50 43 51 62 52 44 53 47 54 61 55
REMARK SMILES IDX 80 56 45 57 46 58 60 60 81 61 48 62 32 63 33 64 41 65 34 66
REMARK SMILES IDX 36 67 42 68 35 69 37 70 38 71 39 72 40 73 64 74 65 75 73 76
REMARK SMILES IDX 66 77 68 78 74 79 67 80 69 81 70 82 71 83 72 84 49 85 50 86
REMARK SMILES IDX 58 87 51 88 53 89 59 90 52 91 54 92 55 93 56 94 57 95
REMARK H PARENT 5 17 79 48 47 59
REMARK Flexibility Score: inf
ROOT
ATOM      1  C   UNL A   1      32.676  21.242  25.746  1.00  0.00     0.188 C 
ENDROOT
BRANCH   1   2
ATOM      2  C   UNL A   1      32.413  22.386  24.746  1.00  0.00     0.188 C 
BRANCH   2   3
ATOM      3  O   UNL A   1      31.461  23.374  25.076  1.00  0.00    -0.376 OA
BRANCH   3   4
ATOM      4  C   UNL A   1      31.043  24.329  24.116  1.00  0.00     0.202 C 
BRANCH   4   5
ATOM      5  C   UNL A   1      31.816  24.674  22.828  1.00  0.00     0.261 C 
BRANCH   5   6
ATOM      6  O   UNL A   1      33.116  25.261  22.969  1.00  0.00    -0.460 OA
BRANCH   6   7
ATOM      7  C   UNL A   1      33.269  26.505  22.445  1.00  0.00     0.338 C 
ATOM      8  O   UNL A   1      33.638  26.779  21.314  1.00  0.00    -0.246 OA
BRANCH   7   9
ATOM      9  C   UNL A   1      32.813  27.525  23.416  1.00  0.00     0.066 A 
ATOM     10  C   UNL A   1      31.425  29.412  23.964  1.00  0.00     0.128 A 
ATOM     11  C   UNL A   1      31.798  28.425  23.056  1.00  0.00     0.062 A 
ATOM     12  N   UNL A   1      32.022  29.528  25.165  1.00  0.00    -0.219 NA
ATOM     13  C   UNL A   1      32.957  28.614  25.496  1.00  0.00     0.132 A 
ATOM     14  C   UNL A   1      33.391  27.597  24.677  1.00  0.00     0.057 A 
ATOM     15  Cl  UNL A   1      33.596  28.799  27.077  1.00  0.00    -0.062 Cl
BRANCH  10  16
ATOM     16  N   UNL A   1      30.386  30.322  23.713  1.00  0.00    -0.366 N 
ATOM     17  H   UNL A   1      30.382  31.197  24.164  1.00  0.00     0.162 HD
BRANCH  16  18
ATOM     18  C   UNL A   1      29.306  29.976  22.783  1.00  0.00     0.093 C 
ATOM     19  C   UNL A   1      27.008  28.950  23.087  1.00  0.00     0.014 C 
ATOM     20  C   UNL A   1      27.838  30.224  23.170  1.00  0.00    -0.008 C 
ATOM     21  C   UNL A   1      27.274  31.164  24.208  1.00  0.00     0.014 C 
ATOM     22  C   UNL A   1      28.495  30.938  21.970  1.00  0.00    -0.008 C 
ATOM     23  C   UNL A   1      28.022  30.553  20.605  1.00  0.00     0.014 C 
ATOM     24  C   UNL A   1      28.970  32.376  21.991  1.00  0.00     0.014 C 
ENDBRANCH  16  18
ENDBRANCH  10  16
ENDBRANCH   7   9
ENDBRANCH   6   7
ENDBRANCH   5   6
ENDBRANCH   4   5
ENDBRANCH   3   4
ENDBRANCH   2   3
ENDBRANCH   1   2
BRANCH   1  25
ATOM     25  O   UNL A   1      33.998  20.773  25.876  1.00  0.00    -0.376 OA
BRANCH  25  26
ATOM     26  C   UNL A   1      34.861  20.738  24.750  1.00  0.00     0.202 C 
BRANCH  26  27
ATOM     27  C   UNL A   1      36.331  21.208  24.701  1.00  0.00     0.261 C 
BRANCH  27  28
ATOM     28  O   UNL A   1      36.990  21.539  25.925  1.00  0.00    -0.460 OA
BRANCH  28  29
ATOM     29  C   UNL A   1      38.312  21.238  25.976  1.00  0.00     0.338 C 
ATOM     30  O   UNL A   1      38.830  20.166  25.718  1.00  0.00    -0.246 OA
BRANCH  29  31
ATOM     31  C   UNL A   1      39.080  22.477  26.202  1.00  0.00     0.060 A 
ATOM     32  C   UNL A   1      40.300  22.381  26.876  1.00  0.00     0.016 A 
ATOM     33  C   UNL A   1      38.592  23.723  25.800  1.00  0.00     0.016 A 
ATOM     34  C   UNL A   1      41.023  23.538  27.161  1.00  0.00     0.010 A 
ATOM     35  C   UNL A   1      39.316  24.884  26.110  1.00  0.00     0.010 A 
ATOM     36  C   UNL A   1      40.528  24.802  26.811  1.00  0.00    -0.014 A 
BRANCH  36  37
ATOM     37  C   UNL A   1      41.207  26.016  27.339  1.00  0.00     0.031 A 
ATOM     38  C   UNL A   1      42.583  26.349  26.835  1.00  0.00     0.074 A 
ATOM     39  C   UNL A   1      40.601  26.847  28.208  1.00  0.00     0.049 A 
ATOM     40  N   UNL A   1      43.320  27.403  27.072  1.00  0.00    -0.248 NA
ATOM     41  C   UNL A   1      43.220  25.349  25.965  1.00  0.00     0.031 C 
ATOM     42  C   UNL A   1      39.276  26.637  28.784  1.00  0.00     0.029 A 
ATOM     43  N   UNL A   1      40.995  28.068  28.706  1.00  0.00    -0.354 N 
ATOM     44  C   UNL A   1      44.539  27.156  26.454  1.00  0.00     0.074 A 
ATOM     45  C   UNL A   1      44.423  25.874  25.791  1.00  0.00     0.031 C 
ATOM     46  C   UNL A   1      38.927  27.736  29.479  1.00  0.00     0.029 A 
ATOM     47  C   UNL A   1      40.019  28.708  29.438  1.00  0.00     0.049 A 
ATOM     48  H   UNL A   1      41.891  28.448  28.553  1.00  0.00     0.167 HD
ATOM     49  C   UNL A   1      45.664  27.911  26.460  1.00  0.00     0.034 A 
ATOM     50  C   UNL A   1      39.999  29.947  29.979  1.00  0.00     0.034 A 
ATOM     51  C   UNL A   1      45.783  29.189  27.110  1.00  0.00     0.049 A 
ATOM     52  C   UNL A   1      41.232  30.815  29.885  1.00  0.00     0.074 A 
ATOM     53  C   UNL A   1      46.887  30.023  27.167  1.00  0.00     0.029 A 
ATOM     54  N   UNL A   1      44.774  29.815  27.824  1.00  0.00    -0.354 N 
ATOM     55  N   UNL A   1      42.349  30.602  29.233  1.00  0.00    -0.248 NA
ATOM     56  C   UNL A   1      41.201  32.093  30.615  1.00  0.00     0.031 C 
ATOM     57  C   UNL A   1      46.555  31.136  27.947  1.00  0.00     0.029 A 
ATOM     58  C   UNL A   1      45.231  31.020  28.333  1.00  0.00     0.049 A 
ATOM     59  H   UNL A   1      43.866  29.457  27.950  1.00  0.00     0.167 HD
ATOM     60  C   UNL A   1      43.153  31.713  29.480  1.00  0.00     0.074 A 
ATOM     61  C   UNL A   1      42.370  32.624  30.286  1.00  0.00     0.031 C 
ATOM     62  C   UNL A   1      44.437  31.939  29.107  1.00  0.00     0.034 A 
BRANCH  49  63
ATOM     63  C   UNL A   1      46.879  27.348  25.773  1.00  0.00     0.023 A 
ATOM     64  C   UNL A   1      47.700  26.411  26.432  1.00  0.00     0.012 A 
ATOM     65  C   UNL A   1      47.184  27.723  24.448  1.00  0.00     0.148 A 
ATOM     66  C   UNL A   1      48.827  25.887  25.797  1.00  0.00     0.002 A 
ATOM     67  C   UNL A   1      48.276  27.158  23.805  1.00  0.00     0.091 A 
ATOM     68  F   UNL A   1      46.404  28.634  23.848  1.00  0.00    -0.205 F 
ATOM     69  C   UNL A   1      49.107  26.252  24.483  1.00  0.00     0.022 A 
BRANCH  67  70
ATOM     70  S   UNL A   1      48.671  27.498  22.087  1.00  0.00     0.127 S 
ATOM     71  O   UNL A   1      47.368  27.902  21.560  1.00  0.00    -0.237 OA
ATOM     72  O   UNL A   1      49.645  28.584  22.207  1.00  0.00    -0.237 OA
ATOM     73  O   UNL A   1      49.206  26.258  21.542  1.00  0.00    -0.744 OA
ENDBRANCH  67  70
ENDBRANCH  49  63
BRANCH  50  74
ATOM     74  C   UNL A   1      38.762  30.477  30.634  1.00  0.00     0.023 A 
ATOM     75  C   UNL A   1      38.599  30.346  32.030  1.00  0.00     0.012 A 
ATOM     76  C   UNL A   1      37.742  31.094  29.890  1.00  0.00     0.148 A 
ATOM     77  C   UNL A   1      37.434  30.788  32.660  1.00  0.00     0.002 A 
ATOM     78  C   UNL A   1      36.621  31.607  30.534  1.00  0.00     0.091 A 
ATOM     79  F   UNL A   1      37.882  31.171  28.558  1.00  0.00    -0.205 F 
ATOM     80  C   UNL A   1      36.452  31.434  31.915  1.00  0.00     0.022 A 
BRANCH  78  81
ATOM     81  S   UNL A   1      35.401  32.599  29.666  1.00  0.00     0.127 S 
ATOM     82  O   UNL A   1      34.413  32.841  30.714  1.00  0.00    -0.237 OA
ATOM     83  O   UNL A   1      36.187  33.770  29.274  1.00  0.00    -0.237 OA
ATOM     84  O   UNL A   1      34.958  31.776  28.549  1.00  0.00    -0.744 OA
ENDBRANCH  78  81
ENDBRANCH  50  74
BRANCH  62  85
ATOM     85  C   UNL A   1      45.088  33.224  29.563  1.00  0.00     0.023 A 
ATOM     86  C   UNL A   1      45.864  33.242  30.741  1.00  0.00     0.012 A 
ATOM     87  C   UNL A   1      44.986  34.399  28.792  1.00  0.00     0.148 A 
ATOM     88  C   UNL A   1      46.488  34.415  31.166  1.00  0.00     0.002 A 
ATOM     89  C   UNL A   1      45.653  35.551  29.194  1.00  0.00     0.091 A 
ATOM     90  F   UNL A   1      44.234  34.371  27.681  1.00  0.00    -0.205 F 
ATOM     91  C   UNL A   1      46.391  35.565  30.388  1.00  0.00     0.022 A 
BRANCH  89  92
ATOM     92  S   UNL A   1      45.666  37.054  28.208  1.00  0.00     0.127 S 
ATOM     93  O   UNL A   1      44.242  37.377  28.139  1.00  0.00    -0.237 OA
ATOM     94  O   UNL A   1      46.458  37.962  29.038  1.00  0.00    -0.237 OA
ATOM     95  O   UNL A   1      46.288  36.697  26.939  1.00  0.00    -0.744 OA
ENDBRANCH  89  92
ENDBRANCH  62  85
ENDBRANCH  36  37
ENDBRANCH  29  31
ENDBRANCH  28  29
ENDBRANCH  27  28
ENDBRANCH  26  27
ENDBRANCH  25  26
ENDBRANCH   1  25
TORSDOF 22
ENDMDL
MODEL 3
REMARK VINA RESULT:     -10.2      1.814      7.738
REMARK SMILES CC1(C)C(Nc2cc(C(=O)OCCOCCOCCOC(=O)c3ccc(-c4c5nc(c(-c6cccc(S(=O)(=O)[O-])c6F)c6ccc([nH]6)c(-c6cccc(S(=O)(=O)[O-])c6F)c6nc(c(-c7cccc(S(=O)(=O)[O-])c7F)c7ccc4[nH]7)C=C6)C=C5)cc3)cc(Cl)n2)C1(C)C
REMARK SMILES IDX 16 1 15 2 14 3 13 4 12 5 11 6 9 7 10 8 8 9 6 10 7 11 89 12
REMARK SMILES IDX 87 13 86 14 88 15 5 16 4 18 1 19 2 20 3 21 90 22 91 23 92 24
REMARK SMILES IDX 17 25 18 26 19 27 20 28 21 29 22 30 23 31 24 32 85 33 25 34
REMARK SMILES IDX 84 35 26 36 27 37 28 38 78 39 29 40 83 41 77 42 79 43 30 44
REMARK SMILES IDX 82 45 76 46 75 47 31 49 63 50 43 51 62 52 44 53 47 54 61 55
REMARK SMILES IDX 80 56 45 57 46 58 60 60 81 61 48 62 32 63 33 64 41 65 34 66
REMARK SMILES IDX 36 67 42 68 35 69 37 70 38 71 39 72 40 73 64 74 65 75 73 76
REMARK SMILES IDX 66 77 68 78 74 79 67 80 69 81 70 82 71 83 72 84 49 85 50 86
REMARK SMILES IDX 58 87 51 88 53 89 59 90 52 91 54 92 55 93 56 94 57 95
REMARK H PARENT 5 17 79 48 47 59
REMARK Flexibility Score: inf
ROOT
ATOM      1  C   UNL A   1      34.583  21.996  23.962  1.00  0.00     0.188 C 
ENDROOT
BRANCH   1   2
ATOM      2  C   UNL A   1      34.962  23.415  24.430  1.00  0.00     0.188 C 
BRANCH   2   3
ATOM      3  O   UNL A   1      34.197  24.025  25.448  1.00  0.00    -0.376 OA
BRANCH   3   4
ATOM      4  C   UNL A   1      33.060  23.376  25.989  1.00  0.00     0.202 C 
BRANCH   4   5
ATOM      5  C   UNL A   1      31.720  24.070  26.301  1.00  0.00     0.261 C 
BRANCH   5   6
ATOM      6  O   UNL A   1      30.598  23.753  25.468  1.00  0.00    -0.460 OA
BRANCH   6   7
ATOM      7  C   UNL A   1      30.735  24.042  24.148  1.00  0.00     0.338 C 
ATOM      8  O   UNL A   1      30.823  23.240  23.231  1.00  0.00    -0.246 OA
BRANCH   7   9
ATOM      9  C   UNL A   1      30.654  25.505  23.937  1.00  0.00     0.066 A 
ATOM     10  C   UNL A   1      31.707  27.667  23.878  1.00  0.00     0.128 A 
ATOM     11  C   UNL A   1      31.816  26.287  24.023  1.00  0.00     0.062 A 
ATOM     12  N   UNL A   1      30.518  28.263  23.671  1.00  0.00    -0.219 NA
ATOM     13  C   UNL A   1      29.431  27.475  23.543  1.00  0.00     0.132 A 
ATOM     14  C   UNL A   1      29.431  26.104  23.661  1.00  0.00     0.057 A 
ATOM     15  Cl  UNL A   1      27.981  28.325  23.199  1.00  0.00    -0.062 Cl
BRANCH  10  16
ATOM     16  N   UNL A   1      32.819  28.523  23.897  1.00  0.00    -0.366 N 
ATOM     17  H   UNL A   1      33.386  28.607  23.095  1.00  0.00     0.162 HD
BRANCH  16  18
ATOM     18  C   UNL A   1      33.144  29.293  25.102  1.00  0.00     0.093 C 
ATOM     19  C   UNL A   1      31.734  30.360  26.918  1.00  0.00     0.014 C 
ATOM     20  C   UNL A   1      32.355  29.069  26.403  1.00  0.00    -0.008 C 
ATOM     21  C   UNL A   1      31.532  27.875  26.823  1.00  0.00     0.014 C 
ATOM     22  C   UNL A   1      33.869  28.785  26.310  1.00  0.00    -0.008 C 
ATOM     23  C   UNL A   1      34.780  29.691  27.073  1.00  0.00     0.014 C 
ATOM     24  C   UNL A   1      34.468  27.400  26.180  1.00  0.00     0.014 C 
ENDBRANCH  16  18
ENDBRANCH  10  16
ENDBRANCH   7   9
ENDBRANCH   6   7
ENDBRANCH   5   6
ENDBRANCH   4   5
ENDBRANCH   3   4
ENDBRANCH   2   3
ENDBRANCH   1   2
BRANCH   1  25
ATOM     25  O   UNL A   1      34.725  20.941  24.883  1.00  0.00    -0.376 OA
BRANCH  25  26
ATOM     26  C   UNL A   1      35.969  20.273  25.024  1.00  0.00     0.202 C 
BRANCH  26  27
ATOM     27  C   UNL A   1      37.371  20.875  24.783  1.00  0.00     0.261 C 
BRANCH  27  28
ATOM     28  O   UNL A   1      37.853  21.878  25.679  1.00  0.00    -0.460 OA
BRANCH  28  29
ATOM     29  C   UNL A   1      39.101  21.672  26.169  1.00  0.00     0.338 C 
ATOM     30  O   UNL A   1      39.824  20.714  25.955  1.00  0.00    -0.246 OA
BRANCH  29  31
ATOM     31  C   UNL A   1      39.556  22.892  26.862  1.00  0.00     0.060 A 
ATOM     32  C   UNL A   1      38.894  24.091  26.586  1.00  0.00     0.016 A 
ATOM     33  C   UNL A   1      40.646  22.873  27.736  1.00  0.00     0.016 A 
ATOM     34  C   UNL A   1      39.336  25.274  27.174  1.00  0.00     0.010 A 
ATOM     35  C   UNL A   1      41.098  24.072  28.307  1.00  0.00     0.010 A 
ATOM     36  C   UNL A   1      40.458  25.286  28.015  1.00  0.00    -0.014 A 
BRANCH  36  37
ATOM     37  C   UNL A   1      41.037  26.591  28.430  1.00  0.00     0.031 A 
ATOM     38  C   UNL A   1      42.410  26.959  27.940  1.00  0.00     0.074 A 
ATOM     39  C   UNL A   1      40.347  27.468  29.184  1.00  0.00     0.049 A 
ATOM     40  N   UNL A   1      43.070  28.078  28.086  1.00  0.00    -0.248 NA
ATOM     41  C   UNL A   1      43.142  25.916  27.205  1.00  0.00     0.031 C 
ATOM     42  C   UNL A   1      39.015  27.234  29.734  1.00  0.00     0.029 A 
ATOM     43  N   UNL A   1      40.644  28.758  29.558  1.00  0.00    -0.354 N 
ATOM     44  C   UNL A   1      44.326  27.848  27.539  1.00  0.00     0.074 A 
ATOM     45  C   UNL A   1      44.317  26.498  27.016  1.00  0.00     0.031 C 
ATOM     46  C   UNL A   1      38.571  28.374  30.294  1.00  0.00     0.029 A 
ATOM     47  C   UNL A   1      39.602  29.407  30.183  1.00  0.00     0.049 A 
ATOM     48  H   UNL A   1      41.520  29.178  29.395  1.00  0.00     0.167 HD
ATOM     49  C   UNL A   1      45.401  28.672  27.500  1.00  0.00     0.034 A 
ATOM     50  C   UNL A   1      39.483  30.692  30.586  1.00  0.00     0.034 A 
ATOM     51  C   UNL A   1      45.414  30.016  28.011  1.00  0.00     0.049 A 
ATOM     52  C   UNL A   1      40.663  31.624  30.439  1.00  0.00     0.074 A 
ATOM     53  C   UNL A   1      46.460  30.923  28.014  1.00  0.00     0.029 A 
ATOM     54  N   UNL A   1      44.340  30.647  28.618  1.00  0.00    -0.354 N 
ATOM     55  N   UNL A   1      41.816  31.418  29.852  1.00  0.00    -0.248 NA
ATOM     56  C   UNL A   1      40.523  32.968  31.025  1.00  0.00     0.031 C 
ATOM     57  C   UNL A   1      46.030  32.088  28.658  1.00  0.00     0.029 A 
ATOM     58  C   UNL A   1      44.701  31.927  29.009  1.00  0.00     0.049 A 
ATOM     59  H   UNL A   1      43.452  30.245  28.753  1.00  0.00     0.167 HD
ATOM     60  C   UNL A   1      42.539  32.599  30.004  1.00  0.00     0.074 A 
ATOM     61  C   UNL A   1      41.669  33.537  30.679  1.00  0.00     0.031 C 
ATOM     62  C   UNL A   1      43.821  32.868  29.652  1.00  0.00     0.034 A 
BRANCH  49  63
ATOM     63  C   UNL A   1      46.675  28.120  26.919  1.00  0.00     0.023 A 
ATOM     64  C   UNL A   1      47.657  27.560  27.761  1.00  0.00     0.012 A 
ATOM     65  C   UNL A   1      46.879  28.124  25.524  1.00  0.00     0.148 A 
ATOM     66  C   UNL A   1      48.839  27.047  27.225  1.00  0.00     0.002 A 
ATOM     67  C   UNL A   1      48.034  27.564  24.995  1.00  0.00     0.091 A 
ATOM     68  F   UNL A   1      45.943  28.683  24.744  1.00  0.00    -0.205 F 
ATOM     69  C   UNL A   1      49.022  27.040  25.844  1.00  0.00     0.022 A 
BRANCH  67  70
ATOM     70  S   UNL A   1      48.323  27.431  23.228  1.00  0.00     0.127 S 
ATOM     71  O   UNL A   1      49.680  27.963  23.110  1.00  0.00    -0.237 OA
ATOM     72  O   UNL A   1      48.212  25.989  23.008  1.00  0.00    -0.237 OA
ATOM     73  O   UNL A   1      47.284  28.226  22.588  1.00  0.00    -0.744 OA
ENDBRANCH  67  70
ENDBRANCH  49  63
BRANCH  50  74
ATOM     74  C   UNL A   1      38.191  31.206  31.137  1.00  0.00     0.023 A 
ATOM     75  C   UNL A   1      37.933  31.110  32.522  1.00  0.00     0.012 A 
ATOM     76  C   UNL A   1      37.209  31.773  30.306  1.00  0.00     0.148 A 
ATOM     77  C   UNL A   1      36.716  31.537  33.057  1.00  0.00     0.002 A 
ATOM     78  C   UNL A   1      36.033  32.273  30.856  1.00  0.00     0.091 A 
ATOM     79  F   UNL A   1      37.440  31.816  28.986  1.00  0.00    -0.205 F 
ATOM     80  C   UNL A   1      35.772  32.134  32.227  1.00  0.00     0.022 A 
BRANCH  78  81
ATOM     81  S   UNL A   1      34.851  33.205  29.877  1.00  0.00     0.127 S 
ATOM     82  O   UNL A   1      34.049  33.851  30.911  1.00  0.00    -0.237 OA
ATOM     83  O   UNL A   1      35.726  34.104  29.121  1.00  0.00    -0.237 OA
ATOM     84  O   UNL A   1      34.163  32.216  29.058  1.00  0.00    -0.744 OA
ENDBRANCH  78  81
ENDBRANCH  50  74
BRANCH  62  85
ATOM     85  C   UNL A   1      44.372  34.235  29.987  1.00  0.00     0.023 A 
ATOM     86  C   UNL A   1      45.068  34.437  31.197  1.00  0.00     0.012 A 
ATOM     87  C   UNL A   1      44.259  35.304  29.075  1.00  0.00     0.148 A 
ATOM     88  C   UNL A   1      45.600  35.687  31.514  1.00  0.00     0.002 A 
ATOM     89  C   UNL A   1      44.837  36.532  29.374  1.00  0.00     0.091 A 
ATOM     90  F   UNL A   1      43.584  35.101  27.934  1.00  0.00    -0.205 F 
ATOM     91  C   UNL A   1      45.493  36.730  30.599  1.00  0.00     0.022 A 
BRANCH  89  92
ATOM     92  S   UNL A   1      44.834  37.907  28.216  1.00  0.00     0.127 S 
ATOM     93  O   UNL A   1      43.431  38.315  28.241  1.00  0.00    -0.237 OA
ATOM     94  O   UNL A   1      45.754  38.850  28.854  1.00  0.00    -0.237 OA
ATOM     95  O   UNL A   1      45.306  37.367  26.948  1.00  0.00    -0.744 OA
ENDBRANCH  89  92
ENDBRANCH  62  85
ENDBRANCH  36  37
ENDBRANCH  29  31
ENDBRANCH  28  29
ENDBRANCH  27  28
ENDBRANCH  26  27
ENDBRANCH  25  26
ENDBRANCH   1  25
TORSDOF 22
ENDMDL
