MODEL 1
REMARK VINA RESULT:     -11.1      0.000      0.000
REMARK SMILES O=C(CCc1nc(-c2ccccc2)c(-c2ccccc2)o1)OCCOCCOCCOC(=O)c1ccc(-c2c3nc(c(-c4cccc(S(=O)(=O)[O-])c4F)c4ccc([nH]4)c(-c4cccc(S(=O)(=O)[O-])c4F)c4nc(c(-c5cccc(S(=O)(=O)[O-])c5F)c5ccc2[nH]5)C=C4)C=C3)cc1
REMARK SMILES IDX 26 1 25 2 24 3 23 4 22 5 2 6 1 7 3 8 4 9 5 10 6 11 21 12
REMARK SMILES IDX 7 13 14 14 8 15 9 16 13 17 10 18 12 19 11 20 15 21 16 22
REMARK SMILES IDX 20 23 17 24 19 25 18 26 27 27 28 28 29 29 30 30 31 31 32 32
REMARK SMILES IDX 33 33 34 34 35 35 96 36 36 37 95 38 37 39 38 40 39 41 89 42
REMARK SMILES IDX 40 43 94 44 88 45 90 46 41 47 93 48 87 49 86 50 42 52 74 53
REMARK SMILES IDX 54 54 73 55 55 56 58 57 72 58 91 59 56 60 57 61 71 63 92 64
REMARK SMILES IDX 59 65 43 66 44 67 52 68 45 69 47 70 53 71 46 72 48 73 49 74
REMARK SMILES IDX 50 75 51 76 75 77 76 78 84 79 77 80 79 81 85 82 78 83 80 84
REMARK SMILES IDX 81 85 82 86 83 87 60 88 61 89 69 90 62 91 64 92 70 93 63 94
REMARK SMILES IDX 65 95 66 96 67 97 68 98
REMARK H PARENT 90 51 58 62
REMARK Flexibility Score: inf
ROOT
ATOM      1  C   UNL A   1      33.736  28.340  26.414  1.00  0.00     0.188 C 
ENDROOT
BRANCH   1   2
ATOM      2  O   UNL A   1      34.065  28.353  25.035  1.00  0.00    -0.376 OA
BRANCH   2   3
ATOM      3  C   UNL A   1      33.388  27.431  24.185  1.00  0.00     0.202 C 
BRANCH   3   4
ATOM      4  C   UNL A   1      32.963  26.094  24.796  1.00  0.00     0.261 C 
BRANCH   4   5
ATOM      5  O   UNL A   1      32.125  25.191  24.039  1.00  0.00    -0.463 OA
BRANCH   5   6
ATOM      6  C   UNL A   1      30.987  24.550  24.351  1.00  0.00     0.306 C 
ATOM      7  O   UNL A   1      30.322  24.044  23.448  1.00  0.00    -0.252 OA
BRANCH   6   8
ATOM      8  C   UNL A   1      30.501  24.490  25.770  1.00  0.00     0.132 C 
BRANCH   8   9
ATOM      9  C   UNL A   1      30.386  23.073  26.304  1.00  0.00     0.109 C 
BRANCH   9  10
ATOM     10  C   UNL A   1      31.479  22.173  25.854  1.00  0.00     0.196 A 
ATOM     11  N   UNL A   1      31.372  20.985  25.295  1.00  0.00    -0.213 NA
ATOM     12  O   UNL A   1      32.769  22.635  25.960  1.00  0.00    -0.440 OA
ATOM     13  C   UNL A   1      32.667  20.642  25.006  1.00  0.00     0.117 A 
ATOM     14  C   UNL A   1      33.523  21.673  25.337  1.00  0.00     0.162 A 
BRANCH  13  15
ATOM     15  C   UNL A   1      33.052  19.419  24.348  1.00  0.00     0.004 A 
ATOM     16  C   UNL A   1      34.223  18.755  24.734  1.00  0.00     0.010 A 
ATOM     17  C   UNL A   1      32.281  18.915  23.296  1.00  0.00     0.010 A 
ATOM     18  C   UNL A   1      34.629  17.604  24.062  1.00  0.00     0.001 A 
ATOM     19  C   UNL A   1      32.696  17.768  22.619  1.00  0.00     0.001 A 
ATOM     20  C   UNL A   1      33.868  17.116  23.001  1.00  0.00     0.000 A 
ENDBRANCH  13  15
BRANCH  14  21
ATOM     21  C   UNL A   1      34.906  22.003  25.014  1.00  0.00     0.020 A 
ATOM     22  C   UNL A   1      35.291  22.450  23.749  1.00  0.00     0.012 A 
ATOM     23  C   UNL A   1      35.894  21.852  26.005  1.00  0.00     0.012 A 
ATOM     24  C   UNL A   1      36.631  22.771  23.493  1.00  0.00     0.001 A 
ATOM     25  C   UNL A   1      37.229  22.161  25.748  1.00  0.00     0.001 A 
ATOM     26  C   UNL A   1      37.596  22.629  24.491  1.00  0.00     0.000 A 
ENDBRANCH  14  21
ENDBRANCH   9  10
ENDBRANCH   8   9
ENDBRANCH   6   8
ENDBRANCH   5   6
ENDBRANCH   4   5
ENDBRANCH   3   4
ENDBRANCH   2   3
ENDBRANCH   1   2
BRANCH   1  27
ATOM     27  C   UNL A   1      32.742  29.398  26.900  1.00  0.00     0.188 C 
BRANCH  27  28
ATOM     28  O   UNL A   1      32.543  30.471  25.984  1.00  0.00    -0.376 OA
BRANCH  28  29
ATOM     29  C   UNL A   1      31.426  31.301  26.312  1.00  0.00     0.202 C 
BRANCH  29  30
ATOM     30  C   UNL A   1      31.784  32.722  26.788  1.00  0.00     0.261 C 
BRANCH  30  31
ATOM     31  O   UNL A   1      32.665  32.818  27.918  1.00  0.00    -0.460 OA
BRANCH  31  32
ATOM     32  C   UNL A   1      33.732  33.638  27.807  1.00  0.00     0.338 C 
ATOM     33  O   UNL A   1      33.711  34.826  27.541  1.00  0.00    -0.246 OA
BRANCH  32  34
ATOM     34  C   UNL A   1      34.948  32.887  28.188  1.00  0.00     0.060 A 
ATOM     35  C   UNL A   1      34.823  31.555  28.600  1.00  0.00     0.016 A 
ATOM     36  C   UNL A   1      36.201  33.509  28.188  1.00  0.00     0.016 A 
ATOM     37  C   UNL A   1      35.949  30.844  29.021  1.00  0.00     0.010 A 
ATOM     38  C   UNL A   1      37.323  32.803  28.637  1.00  0.00     0.010 A 
ATOM     39  C   UNL A   1      37.200  31.476  29.080  1.00  0.00    -0.014 A 
BRANCH  39  40
ATOM     40  C   UNL A   1      38.327  30.811  29.785  1.00  0.00     0.031 A 
ATOM     41  C   UNL A   1      38.616  31.213  31.207  1.00  0.00     0.074 A 
ATOM     42  C   UNL A   1      39.082  29.871  29.188  1.00  0.00     0.049 A 
ATOM     43  N   UNL A   1      39.525  30.759  32.030  1.00  0.00    -0.248 NA
ATOM     44  C   UNL A   1      37.759  32.267  31.778  1.00  0.00     0.031 C 
ATOM     45  C   UNL A   1      38.916  29.394  27.817  1.00  0.00     0.029 A 
ATOM     46  N   UNL A   1      40.160  29.164  29.663  1.00  0.00    -0.354 N 
ATOM     47  C   UNL A   1      39.354  31.470  33.211  1.00  0.00     0.074 A 
ATOM     48  C   UNL A   1      38.270  32.402  32.993  1.00  0.00     0.031 C 
ATOM     49  C   UNL A   1      39.880  28.493  27.550  1.00  0.00     0.029 A 
ATOM     50  C   UNL A   1      40.735  28.337  28.727  1.00  0.00     0.049 A 
ATOM     51  H   UNL A   1      40.491  29.242  30.587  1.00  0.00     0.167 HD
ATOM     52  C   UNL A   1      40.022  31.347  34.383  1.00  0.00     0.034 A 
ATOM     53  C   UNL A   1      41.832  27.554  28.808  1.00  0.00     0.034 A 
ATOM     54  C   UNL A   1      41.106  30.430  34.606  1.00  0.00     0.049 A 
ATOM     55  C   UNL A   1      42.585  27.464  30.114  1.00  0.00     0.074 A 
ATOM     56  C   UNL A   1      41.831  30.222  35.766  1.00  0.00     0.029 A 
ATOM     57  N   UNL A   1      41.632  29.580  33.648  1.00  0.00    -0.354 N 
ATOM     58  N   UNL A   1      42.325  28.042  31.262  1.00  0.00    -0.248 NA
ATOM     59  C   UNL A   1      43.764  26.584  30.144  1.00  0.00     0.031 C 
ATOM     60  C   UNL A   1      42.810  29.257  35.502  1.00  0.00     0.029 A 
ATOM     61  C   UNL A   1      42.678  28.849  34.185  1.00  0.00     0.049 A 
ATOM     62  H   UNL A   1      41.310  29.506  32.719  1.00  0.00     0.167 HD
ATOM     63  C   UNL A   1      43.278  27.564  32.157  1.00  0.00     0.074 A 
ATOM     64  C   UNL A   1      44.111  26.634  31.424  1.00  0.00     0.031 C 
ATOM     65  C   UNL A   1      43.459  27.878  33.464  1.00  0.00     0.034 A 
BRANCH  52  66
ATOM     66  C   UNL A   1      39.566  32.206  35.531  1.00  0.00     0.023 A 
ATOM     67  C   UNL A   1      38.717  31.651  36.511  1.00  0.00     0.012 A 
ATOM     68  C   UNL A   1      40.004  33.536  35.667  1.00  0.00     0.148 A 
ATOM     69  C   UNL A   1      38.289  32.416  37.594  1.00  0.00     0.002 A 
ATOM     70  C   UNL A   1      39.605  34.281  36.771  1.00  0.00     0.091 A 
ATOM     71  F   UNL A   1      40.790  34.053  34.710  1.00  0.00    -0.205 F 
ATOM     72  C   UNL A   1      38.740  33.726  37.729  1.00  0.00     0.022 A 
BRANCH  70  73
ATOM     73  S   UNL A   1      40.184  35.954  37.071  1.00  0.00     0.127 S 
ATOM     74  O   UNL A   1      39.503  36.282  38.322  1.00  0.00    -0.237 OA
ATOM     75  O   UNL A   1      41.630  35.762  37.194  1.00  0.00    -0.237 OA
ATOM     76  O   UNL A   1      39.773  36.734  35.912  1.00  0.00    -0.744 OA
ENDBRANCH  70  73
ENDBRANCH  52  66
BRANCH  53  77
ATOM     77  C   UNL A   1      42.274  26.755  27.630  1.00  0.00     0.023 A 
ATOM     78  C   UNL A   1      43.011  27.375  26.602  1.00  0.00     0.012 A 
ATOM     79  C   UNL A   1      41.954  25.388  27.512  1.00  0.00     0.148 A 
ATOM     80  C   UNL A   1      43.389  26.661  25.464  1.00  0.00     0.002 A 
ATOM     81  C   UNL A   1      42.380  24.668  26.400  1.00  0.00     0.091 A 
ATOM     82  F   UNL A   1      41.230  24.818  28.486  1.00  0.00    -0.205 F 
ATOM     83  C   UNL A   1      43.083  25.306  25.367  1.00  0.00     0.022 A 
BRANCH  81  84
ATOM     84  S   UNL A   1      42.131  22.895  26.255  1.00  0.00     0.127 S 
ATOM     85  O   UNL A   1      42.860  22.394  27.416  1.00  0.00    -0.237 OA
ATOM     86  O   UNL A   1      40.674  22.784  26.345  1.00  0.00    -0.237 OA
ATOM     87  O   UNL A   1      42.678  22.530  24.954  1.00  0.00    -0.744 OA
ENDBRANCH  81  84
ENDBRANCH  53  77
BRANCH  65  88
ATOM     88  C   UNL A   1      44.574  27.187  34.210  1.00  0.00     0.023 A 
ATOM     89  C   UNL A   1      45.839  27.798  34.302  1.00  0.00     0.012 A 
ATOM     90  C   UNL A   1      44.344  25.970  34.882  1.00  0.00     0.148 A 
ATOM     91  C   UNL A   1      46.868  27.196  35.027  1.00  0.00     0.002 A 
ATOM     92  C   UNL A   1      45.360  25.398  35.641  1.00  0.00     0.091 A 
ATOM     93  F   UNL A   1      43.140  25.392  34.769  1.00  0.00    -0.205 F 
ATOM     94  C   UNL A   1      46.625  26.004  35.705  1.00  0.00     0.022 A 
BRANCH  92  95
ATOM     95  S   UNL A   1      45.106  23.914  36.624  1.00  0.00     0.127 S 
ATOM     96  O   UNL A   1      44.516  24.462  37.844  1.00  0.00    -0.237 OA
ATOM     97  O   UNL A   1      44.182  23.143  35.792  1.00  0.00    -0.237 OA
ATOM     98  O   UNL A   1      46.422  23.310  36.779  1.00  0.00    -0.744 OA
ENDBRANCH  92  95
ENDBRANCH  65  88
ENDBRANCH  39  40
ENDBRANCH  32  34
ENDBRANCH  31  32
ENDBRANCH  30  31
ENDBRANCH  29  30
ENDBRANCH  28  29
ENDBRANCH  27  28
ENDBRANCH   1  27
TORSDOF 24
ENDMDL
MODEL 2
REMARK VINA RESULT:     -10.7      1.617      2.713
REMARK SMILES O=C(CCc1nc(-c2ccccc2)c(-c2ccccc2)o1)OCCOCCOCCOC(=O)c1ccc(-c2c3nc(c(-c4cccc(S(=O)(=O)[O-])c4F)c4ccc([nH]4)c(-c4cccc(S(=O)(=O)[O-])c4F)c4nc(c(-c5cccc(S(=O)(=O)[O-])c5F)c5ccc2[nH]5)C=C4)C=C3)cc1
REMARK SMILES IDX 26 1 25 2 24 3 23 4 22 5 2 6 1 7 3 8 4 9 5 10 6 11 21 12
REMARK SMILES IDX 7 13 14 14 8 15 9 16 13 17 10 18 12 19 11 20 15 21 16 22
REMARK SMILES IDX 20 23 17 24 19 25 18 26 27 27 28 28 29 29 30 30 31 31 32 32
REMARK SMILES IDX 33 33 34 34 35 35 96 36 36 37 95 38 37 39 38 40 39 41 89 42
REMARK SMILES IDX 40 43 94 44 88 45 90 46 41 47 93 48 87 49 86 50 42 52 74 53
REMARK SMILES IDX 54 54 73 55 55 56 58 57 72 58 91 59 56 60 57 61 71 63 92 64
REMARK SMILES IDX 59 65 43 66 44 67 52 68 45 69 47 70 53 71 46 72 48 73 49 74
REMARK SMILES IDX 50 75 51 76 75 77 76 78 84 79 77 80 79 81 85 82 78 83 80 84
REMARK SMILES IDX 81 85 82 86 83 87 60 88 61 89 69 90 62 91 64 92 70 93 63 94
REMARK SMILES IDX 65 95 66 96 67 97 68 98
REMARK H PARENT 90 51 58 62
REMARK Flexibility Score: inf
ROOT
ATOM      1  C   UNL A   1      33.719  27.490  24.646  1.00  0.00     0.188 C 
ENDROOT
BRANCH   1   2
ATOM      2  O   UNL A   1      33.939  28.001  23.342  1.00  0.00    -0.376 OA
BRANCH   2   3
ATOM      3  C   UNL A   1      32.854  27.951  22.420  1.00  0.00     0.202 C 
BRANCH   3   4
ATOM      4  C   UNL A   1      31.817  26.843  22.615  1.00  0.00     0.261 C 
BRANCH   4   5
ATOM      5  O   UNL A   1      30.476  27.179  23.039  1.00  0.00    -0.463 OA
BRANCH   5   6
ATOM      6  C   UNL A   1      29.713  26.722  24.046  1.00  0.00     0.306 C 
ATOM      7  O   UNL A   1      28.499  26.618  23.872  1.00  0.00    -0.252 OA
BRANCH   6   8
ATOM      8  C   UNL A   1      30.316  26.390  25.380  1.00  0.00     0.132 C 
BRANCH   8   9
ATOM      9  C   UNL A   1      30.203  24.919  25.737  1.00  0.00     0.109 C 
BRANCH   9  10
ATOM     10  C   UNL A   1      31.379  24.110  25.323  1.00  0.00     0.196 A 
ATOM     11  N   UNL A   1      32.654  24.408  25.456  1.00  0.00    -0.213 NA
ATOM     12  O   UNL A   1      31.140  22.865  24.793  1.00  0.00    -0.440 OA
ATOM     13  C   UNL A   1      33.301  23.291  24.995  1.00  0.00     0.117 A 
ATOM     14  C   UNL A   1      32.389  22.312  24.658  1.00  0.00     0.162 A 
BRANCH  13  15
ATOM     15  C   UNL A   1      34.734  23.137  24.974  1.00  0.00     0.004 A 
ATOM     16  C   UNL A   1      35.333  22.291  24.032  1.00  0.00     0.010 A 
ATOM     17  C   UNL A   1      35.525  23.795  25.920  1.00  0.00     0.010 A 
ATOM     18  C   UNL A   1      36.712  22.094  24.045  1.00  0.00     0.001 A 
ATOM     19  C   UNL A   1      36.904  23.587  25.938  1.00  0.00     0.001 A 
ATOM     20  C   UNL A   1      37.496  22.738  25.003  1.00  0.00     0.000 A 
ENDBRANCH  13  15
BRANCH  14  21
ATOM     21  C   UNL A   1      32.468  20.880  24.399  1.00  0.00     0.020 A 
ATOM     22  C   UNL A   1      32.225  20.334  23.138  1.00  0.00     0.012 A 
ATOM     23  C   UNL A   1      32.785  20.010  25.459  1.00  0.00     0.012 A 
ATOM     24  C   UNL A   1      32.331  18.951  22.936  1.00  0.00     0.001 A 
ATOM     25  C   UNL A   1      32.880  18.633  25.262  1.00  0.00     0.001 A 
ATOM     26  C   UNL A   1      32.661  18.104  23.995  1.00  0.00     0.000 A 
ENDBRANCH  14  21
ENDBRANCH   9  10
ENDBRANCH   8   9
ENDBRANCH   6   8
ENDBRANCH   5   6
ENDBRANCH   4   5
ENDBRANCH   3   4
ENDBRANCH   2   3
ENDBRANCH   1   2
BRANCH   1  27
ATOM     27  C   UNL A   1      33.241  28.482  25.709  1.00  0.00     0.188 C 
BRANCH  27  28
ATOM     28  O   UNL A   1      32.984  29.791  25.207  1.00  0.00    -0.376 OA
BRANCH  28  29
ATOM     29  C   UNL A   1      31.694  30.295  25.562  1.00  0.00     0.202 C 
BRANCH  29  30
ATOM     30  C   UNL A   1      31.703  31.498  26.523  1.00  0.00     0.261 C 
BRANCH  30  31
ATOM     31  O   UNL A   1      32.661  31.458  27.593  1.00  0.00    -0.460 OA
BRANCH  31  32
ATOM     32  C   UNL A   1      33.555  32.468  27.665  1.00  0.00     0.338 C 
ATOM     33  O   UNL A   1      33.324  33.655  27.535  1.00  0.00    -0.246 OA
BRANCH  32  34
ATOM     34  C   UNL A   1      34.867  31.909  28.059  1.00  0.00     0.060 A 
ATOM     35  C   UNL A   1      34.979  30.534  28.291  1.00  0.00     0.016 A 
ATOM     36  C   UNL A   1      35.971  32.747  28.250  1.00  0.00     0.016 A 
ATOM     37  C   UNL A   1      36.193  29.993  28.721  1.00  0.00     0.010 A 
ATOM     38  C   UNL A   1      37.178  32.207  28.710  1.00  0.00     0.010 A 
ATOM     39  C   UNL A   1      37.288  30.831  28.972  1.00  0.00    -0.014 A 
BRANCH  39  40
ATOM     40  C   UNL A   1      38.475  30.296  29.689  1.00  0.00     0.031 A 
ATOM     41  C   UNL A   1      38.744  30.783  31.088  1.00  0.00     0.074 A 
ATOM     42  C   UNL A   1      39.301  29.396  29.123  1.00  0.00     0.049 A 
ATOM     43  N   UNL A   1      39.697  30.444  31.916  1.00  0.00    -0.248 NA
ATOM     44  C   UNL A   1      37.807  31.786  31.624  1.00  0.00     0.031 C 
ATOM     45  C   UNL A   1      39.162  28.847  27.776  1.00  0.00     0.029 A 
ATOM     46  N   UNL A   1      40.440  28.805  29.613  1.00  0.00    -0.354 N 
ATOM     47  C   UNL A   1      39.479  31.190  33.068  1.00  0.00     0.074 A 
ATOM     48  C   UNL A   1      38.317  32.017  32.825  1.00  0.00     0.031 C 
ATOM     49  C   UNL A   1      40.196  28.019  27.535  1.00  0.00     0.029 A 
ATOM     50  C   UNL A   1      41.073  27.989  28.705  1.00  0.00     0.049 A 
ATOM     51  H   UNL A   1      40.773  28.951  30.528  1.00  0.00     0.167 HD
ATOM     52  C   UNL A   1      40.167  31.176  34.235  1.00  0.00     0.034 A 
ATOM     53  C   UNL A   1      42.233  27.305  28.805  1.00  0.00     0.034 A 
ATOM     54  C   UNL A   1      41.327  30.364  34.482  1.00  0.00     0.049 A 
ATOM     55  C   UNL A   1      43.005  27.337  30.102  1.00  0.00     0.074 A 
ATOM     56  C   UNL A   1      42.079  30.270  35.640  1.00  0.00     0.029 A 
ATOM     57  N   UNL A   1      41.913  29.520  33.554  1.00  0.00    -0.354 N 
ATOM     58  N   UNL A   1      42.709  27.941  31.228  1.00  0.00    -0.248 NA
ATOM     59  C   UNL A   1      44.254  26.561  30.154  1.00  0.00     0.031 C 
ATOM     60  C   UNL A   1      43.133  29.380  35.405  1.00  0.00     0.029 A 
ATOM     61  C   UNL A   1      43.022  28.905  34.108  1.00  0.00     0.049 A 
ATOM     62  H   UNL A   1      41.589  29.378  32.635  1.00  0.00     0.167 HD
ATOM     63  C   UNL A   1      43.709  27.586  32.130  1.00  0.00     0.074 A 
ATOM     64  C   UNL A   1      44.609  26.697  31.426  1.00  0.00     0.031 C 
ATOM     65  C   UNL A   1      43.876  27.972  33.419  1.00  0.00     0.034 A 
BRANCH  52  66
ATOM     66  C   UNL A   1      39.651  32.044  35.351  1.00  0.00     0.023 A 
ATOM     67  C   UNL A   1      39.931  33.425  35.334  1.00  0.00     0.012 A 
ATOM     68  C   UNL A   1      38.859  31.509  36.385  1.00  0.00     0.148 A 
ATOM     69  C   UNL A   1      39.455  34.258  36.346  1.00  0.00     0.002 A 
ATOM     70  C   UNL A   1      38.355  32.352  37.368  1.00  0.00     0.091 A 
ATOM     71  F   UNL A   1      38.627  30.188  36.396  1.00  0.00    -0.205 F 
ATOM     72  C   UNL A   1      38.659  33.724  37.356  1.00  0.00     0.022 A 
BRANCH  70  73
ATOM     73  S   UNL A   1      37.267  31.773  38.674  1.00  0.00     0.127 S 
ATOM     74  O   UNL A   1      38.158  31.795  39.833  1.00  0.00    -0.237 OA
ATOM     75  O   UNL A   1      36.225  32.801  38.686  1.00  0.00    -0.237 OA
ATOM     76  O   UNL A   1      36.810  30.454  38.260  1.00  0.00    -0.744 OA
ENDBRANCH  70  73
ENDBRANCH  52  66
BRANCH  53  77
ATOM     77  C   UNL A   1      42.729  26.494  27.656  1.00  0.00     0.023 A 
ATOM     78  C   UNL A   1      43.421  27.125  26.603  1.00  0.00     0.012 A 
ATOM     79  C   UNL A   1      42.505  25.105  27.592  1.00  0.00     0.148 A 
ATOM     80  C   UNL A   1      43.847  26.396  25.493  1.00  0.00     0.002 A 
ATOM     81  C   UNL A   1      42.980  24.375  26.507  1.00  0.00     0.091 A 
ATOM     82  F   UNL A   1      41.823  24.524  28.589  1.00  0.00    -0.205 F 
ATOM     83  C   UNL A   1      43.635  25.020  25.448  1.00  0.00     0.022 A 
BRANCH  81  84
ATOM     84  S   UNL A   1      42.855  22.584  26.429  1.00  0.00     0.127 S 
ATOM     85  O   UNL A   1      41.788  22.401  25.449  1.00  0.00    -0.237 OA
ATOM     86  O   UNL A   1      44.191  22.205  25.966  1.00  0.00    -0.237 OA
ATOM     87  O   UNL A   1      42.551  22.155  27.788  1.00  0.00    -0.744 OA
ENDBRANCH  81  84
ENDBRANCH  53  77
BRANCH  65  88
ATOM     88  C   UNL A   1      45.053  27.411  34.178  1.00  0.00     0.023 A 
ATOM     89  C   UNL A   1      46.281  28.099  34.174  1.00  0.00     0.012 A 
ATOM     90  C   UNL A   1      44.917  26.243  34.957  1.00  0.00     0.148 A 
ATOM     91  C   UNL A   1      47.366  27.620  34.908  1.00  0.00     0.002 A 
ATOM     92  C   UNL A   1      45.989  25.797  35.722  1.00  0.00     0.091 A 
ATOM     93  F   UNL A   1      43.747  25.591  34.935  1.00  0.00    -0.205 F 
ATOM     94  C   UNL A   1      47.217  26.477  35.690  1.00  0.00     0.022 A 
BRANCH  92  95
ATOM     95  S   UNL A   1      45.856  24.390  36.833  1.00  0.00     0.127 S 
ATOM     96  O   UNL A   1      45.784  23.274  35.892  1.00  0.00    -0.237 OA
ATOM     97  O   UNL A   1      47.105  24.470  37.591  1.00  0.00    -0.237 OA
ATOM     98  O   UNL A   1      44.656  24.621  37.626  1.00  0.00    -0.744 OA
ENDBRANCH  92  95
ENDBRANCH  65  88
ENDBRANCH  39  40
ENDBRANCH  32  34
ENDBRANCH  31  32
ENDBRANCH  30  31
ENDBRANCH  29  30
ENDBRANCH  28  29
ENDBRANCH  27  28
ENDBRANCH   1  27
TORSDOF 24
ENDMDL
MODEL 3
REMARK VINA RESULT:     -10.6      1.610      2.107
REMARK SMILES O=C(CCc1nc(-c2ccccc2)c(-c2ccccc2)o1)OCCOCCOCCOC(=O)c1ccc(-c2c3nc(c(-c4cccc(S(=O)(=O)[O-])c4F)c4ccc([nH]4)c(-c4cccc(S(=O)(=O)[O-])c4F)c4nc(c(-c5cccc(S(=O)(=O)[O-])c5F)c5ccc2[nH]5)C=C4)C=C3)cc1
REMARK SMILES IDX 26 1 25 2 24 3 23 4 22 5 2 6 1 7 3 8 4 9 5 10 6 11 21 12
REMARK SMILES IDX 7 13 14 14 8 15 9 16 13 17 10 18 12 19 11 20 15 21 16 22
REMARK SMILES IDX 20 23 17 24 19 25 18 26 27 27 28 28 29 29 30 30 31 31 32 32
REMARK SMILES IDX 33 33 34 34 35 35 96 36 36 37 95 38 37 39 38 40 39 41 89 42
REMARK SMILES IDX 40 43 94 44 88 45 90 46 41 47 93 48 87 49 86 50 42 52 74 53
REMARK SMILES IDX 54 54 73 55 55 56 58 57 72 58 91 59 56 60 57 61 71 63 92 64
REMARK SMILES IDX 59 65 43 66 44 67 52 68 45 69 47 70 53 71 46 72 48 73 49 74
REMARK SMILES IDX 50 75 51 76 75 77 76 78 84 79 77 80 79 81 85 82 78 83 80 84
REMARK SMILES IDX 81 85 82 86 83 87 60 88 61 89 69 90 62 91 64 92 70 93 63 94
REMARK SMILES IDX 65 95 66 96 67 97 68 98
REMARK H PARENT 90 51 58 62
REMARK Flexibility Score: inf
ROOT
ATOM      1  C   UNL A   1      33.651  27.407  24.718  1.00  0.00     0.188 C 
ENDROOT
BRANCH   1   2
ATOM      2  O   UNL A   1      34.218  27.985  23.554  1.00  0.00    -0.376 OA
BRANCH   2   3
ATOM      3  C   UNL A   1      33.358  28.203  22.439  1.00  0.00     0.202 C 
BRANCH   3   4
ATOM      4  C   UNL A   1      32.076  27.372  22.367  1.00  0.00     0.261 C 
BRANCH   4   5
ATOM      5  O   UNL A   1      30.887  27.822  23.057  1.00  0.00    -0.463 OA
BRANCH   5   6
ATOM      6  C   UNL A   1      29.881  27.151  23.640  1.00  0.00     0.306 C 
ATOM      7  O   UNL A   1      28.789  27.706  23.766  1.00  0.00    -0.252 OA
BRANCH   6   8
ATOM      8  C   UNL A   1      30.089  25.765  24.178  1.00  0.00     0.132 C 
BRANCH   8   9
ATOM      9  C   UNL A   1      30.364  24.738  23.094  1.00  0.00     0.109 C 
BRANCH   9  10
ATOM     10  C   UNL A   1      31.323  23.678  23.502  1.00  0.00     0.196 A 
ATOM     11  N   UNL A   1      31.228  22.380  23.300  1.00  0.00    -0.213 NA
ATOM     12  O   UNL A   1      32.490  24.075  24.107  1.00  0.00    -0.440 OA
ATOM     13  C   UNL A   1      32.408  21.886  23.794  1.00  0.00     0.117 A 
ATOM     14  C   UNL A   1      33.220  22.917  24.220  1.00  0.00     0.162 A 
BRANCH  13  15
ATOM     15  C   UNL A   1      32.777  20.493  23.764  1.00  0.00     0.004 A 
ATOM     16  C   UNL A   1      32.125  19.615  22.890  1.00  0.00     0.010 A 
ATOM     17  C   UNL A   1      33.757  20.008  24.635  1.00  0.00     0.010 A 
ATOM     18  C   UNL A   1      32.438  18.258  22.898  1.00  0.00     0.001 A 
ATOM     19  C   UNL A   1      34.061  18.647  24.648  1.00  0.00     0.001 A 
ATOM     20  C   UNL A   1      33.402  17.774  23.782  1.00  0.00     0.000 A 
ENDBRANCH  13  15
BRANCH  14  21
ATOM     21  C   UNL A   1      34.634  23.041  24.552  1.00  0.00     0.020 A 
ATOM     22  C   UNL A   1      35.079  23.271  25.855  1.00  0.00     0.012 A 
ATOM     23  C   UNL A   1      35.589  22.940  23.523  1.00  0.00     0.012 A 
ATOM     24  C   UNL A   1      36.450  23.365  26.125  1.00  0.00     0.001 A 
ATOM     25  C   UNL A   1      36.954  23.045  23.789  1.00  0.00     0.001 A 
ATOM     26  C   UNL A   1      37.385  23.248  25.095  1.00  0.00     0.000 A 
ENDBRANCH  14  21
ENDBRANCH   9  10
ENDBRANCH   8   9
ENDBRANCH   6   8
ENDBRANCH   5   6
ENDBRANCH   4   5
ENDBRANCH   3   4
ENDBRANCH   2   3
ENDBRANCH   1   2
BRANCH   1  27
ATOM     27  C   UNL A   1      33.336  28.353  25.880  1.00  0.00     0.188 C 
BRANCH  27  28
ATOM     28  O   UNL A   1      33.231  29.722  25.500  1.00  0.00    -0.376 OA
BRANCH  28  29
ATOM     29  C   UNL A   1      31.966  30.308  25.824  1.00  0.00     0.202 C 
BRANCH  29  30
ATOM     30  C   UNL A   1      32.023  31.463  26.841  1.00  0.00     0.261 C 
BRANCH  30  31
ATOM     31  O   UNL A   1      33.072  31.406  27.821  1.00  0.00    -0.460 OA
BRANCH  31  32
ATOM     32  C   UNL A   1      34.025  32.361  27.768  1.00  0.00     0.338 C 
ATOM     33  O   UNL A   1      33.852  33.552  27.581  1.00  0.00    -0.246 OA
BRANCH  32  34
ATOM     34  C   UNL A   1      35.329  31.747  28.101  1.00  0.00     0.060 A 
ATOM     35  C   UNL A   1      35.405  30.359  28.262  1.00  0.00     0.016 A 
ATOM     36  C   UNL A   1      36.461  32.543  28.306  1.00  0.00     0.016 A 
ATOM     37  C   UNL A   1      36.612  29.763  28.635  1.00  0.00     0.010 A 
ATOM     38  C   UNL A   1      37.661  31.946  28.708  1.00  0.00     0.010 A 
ATOM     39  C   UNL A   1      37.738  30.556  28.900  1.00  0.00    -0.014 A 
BRANCH  39  40
ATOM     40  C   UNL A   1      38.924  29.953  29.561  1.00  0.00     0.031 A 
ATOM     41  C   UNL A   1      39.333  30.476  30.912  1.00  0.00     0.074 A 
ATOM     42  C   UNL A   1      39.629  28.961  28.985  1.00  0.00     0.049 A 
ATOM     43  N   UNL A   1      40.312  30.093  31.689  1.00  0.00    -0.248 NA
ATOM     44  C   UNL A   1      38.524  31.579  31.460  1.00  0.00     0.031 C 
ATOM     45  C   UNL A   1      39.348  28.367  27.680  1.00  0.00     0.029 A 
ATOM     46  N   UNL A   1      40.748  28.295  29.425  1.00  0.00    -0.354 N 
ATOM     47  C   UNL A   1      40.240  30.905  32.814  1.00  0.00     0.074 A 
ATOM     48  C   UNL A   1      39.137  31.818  32.610  1.00  0.00     0.031 C 
ATOM     49  C   UNL A   1      40.289  27.443  27.411  1.00  0.00     0.029 A 
ATOM     50  C   UNL A   1      41.244  27.388  28.519  1.00  0.00     0.049 A 
ATOM     51  H   UNL A   1      41.156  28.452  30.307  1.00  0.00     0.167 HD
ATOM     52  C   UNL A   1      41.007  30.882  33.930  1.00  0.00     0.034 A 
ATOM     53  C   UNL A   1      42.347  26.612  28.573  1.00  0.00     0.034 A 
ATOM     54  C   UNL A   1      42.110  29.985  34.139  1.00  0.00     0.049 A 
ATOM     55  C   UNL A   1      43.210  26.634  29.811  1.00  0.00     0.074 A 
ATOM     56  C   UNL A   1      42.933  29.877  35.246  1.00  0.00     0.029 A 
ATOM     57  N   UNL A   1      42.556  29.053  33.216  1.00  0.00    -0.354 N 
ATOM     58  N   UNL A   1      43.047  27.311  30.923  1.00  0.00    -0.248 NA
ATOM     59  C   UNL A   1      44.391  25.756  29.817  1.00  0.00     0.031 C 
ATOM     60  C   UNL A   1      43.890  28.890  34.984  1.00  0.00     0.029 A 
ATOM     61  C   UNL A   1      43.647  28.369  33.724  1.00  0.00     0.049 A 
ATOM     62  H   UNL A   1      42.155  28.900  32.329  1.00  0.00     0.167 HD
ATOM     63  C   UNL A   1      44.076  26.910  31.771  1.00  0.00     0.074 A 
ATOM     64  C   UNL A   1      44.847  25.917  31.053  1.00  0.00     0.031 C 
ATOM     65  C   UNL A   1      44.368  27.336  33.026  1.00  0.00     0.034 A 
BRANCH  52  66
ATOM     66  C   UNL A   1      40.647  31.840  35.035  1.00  0.00     0.023 A 
ATOM     67  C   UNL A   1      41.466  32.963  35.266  1.00  0.00     0.012 A 
ATOM     68  C   UNL A   1      39.486  31.657  35.809  1.00  0.00     0.148 A 
ATOM     69  C   UNL A   1      41.151  33.876  36.271  1.00  0.00     0.002 A 
ATOM     70  C   UNL A   1      39.157  32.593  36.783  1.00  0.00     0.091 A 
ATOM     71  F   UNL A   1      38.735  30.568  35.591  1.00  0.00    -0.205 F 
ATOM     72  C   UNL A   1      39.993  33.697  37.022  1.00  0.00     0.022 A 
BRANCH  70  73
ATOM     73  S   UNL A   1      37.653  32.487  37.758  1.00  0.00     0.127 S 
ATOM     74  O   UNL A   1      37.936  33.427  38.841  1.00  0.00    -0.237 OA
ATOM     75  O   UNL A   1      36.637  32.940  36.807  1.00  0.00    -0.237 OA
ATOM     76  O   UNL A   1      37.530  31.092  38.157  1.00  0.00    -0.744 OA
ENDBRANCH  70  73
ENDBRANCH  52  66
BRANCH  53  77
ATOM     77  C   UNL A   1      42.690  25.711  27.435  1.00  0.00     0.023 A 
ATOM     78  C   UNL A   1      43.489  26.193  26.380  1.00  0.00     0.012 A 
ATOM     79  C   UNL A   1      42.214  24.387  27.383  1.00  0.00     0.148 A 
ATOM     80  C   UNL A   1      43.779  25.386  25.279  1.00  0.00     0.002 A 
ATOM     81  C   UNL A   1      42.551  23.570  26.308  1.00  0.00     0.091 A 
ATOM     82  F   UNL A   1      41.433  23.952  28.382  1.00  0.00    -0.205 F 
ATOM     83  C   UNL A   1      43.318  24.072  25.247  1.00  0.00     0.022 A 
BRANCH  81  84
ATOM     84  S   UNL A   1      42.098  21.832  26.247  1.00  0.00     0.127 S 
ATOM     85  O   UNL A   1      42.941  21.342  25.161  1.00  0.00    -0.237 OA
ATOM     86  O   UNL A   1      42.482  21.371  27.583  1.00  0.00    -0.237 OA
ATOM     87  O   UNL A   1      40.663  21.811  25.999  1.00  0.00    -0.744 OA
ENDBRANCH  81  84
ENDBRANCH  53  77
BRANCH  65  88
ATOM     88  C   UNL A   1      45.545  26.710  33.729  1.00  0.00     0.023 A 
ATOM     89  C   UNL A   1      46.806  27.337  33.680  1.00  0.00     0.012 A 
ATOM     90  C   UNL A   1      45.384  25.542  34.502  1.00  0.00     0.148 A 
ATOM     91  C   UNL A   1      47.895  26.796  34.365  1.00  0.00     0.002 A 
ATOM     92  C   UNL A   1      46.463  25.035  35.219  1.00  0.00     0.091 A 
ATOM     93  F   UNL A   1      44.183  24.948  34.524  1.00  0.00    -0.205 F 
ATOM     94  C   UNL A   1      47.721  25.654  35.142  1.00  0.00     0.022 A 
BRANCH  92  95
ATOM     95  S   UNL A   1      46.306  23.623  36.321  1.00  0.00     0.127 S 
ATOM     96  O   UNL A   1      46.007  22.544  35.382  1.00  0.00    -0.237 OA
ATOM     97  O   UNL A   1      47.635  23.552  36.929  1.00  0.00    -0.237 OA
ATOM     98  O   UNL A   1      45.237  23.961  37.251  1.00  0.00    -0.744 OA
ENDBRANCH  92  95
ENDBRANCH  65  88
ENDBRANCH  39  40
ENDBRANCH  32  34
ENDBRANCH  31  32
ENDBRANCH  30  31
ENDBRANCH  29  30
ENDBRANCH  28  29
ENDBRANCH  27  28
ENDBRANCH   1  27
TORSDOF 24
ENDMDL
