MODEL 1
REMARK VINA RESULT:      -8.7      0.000      0.000
REMARK SMILES C[C@@H]1CCC[C@@]1(C[NH3+])C(=O)OCCOCCOCCOC(=O)c1ccc(-c2c3nc(c(-c4cccc(S(=O)(=O)[O-])c4F)c4ccc([nH]4)c(-c4cccc(S(=O)(=O)[O-])c4F)c4nc(c(-c5cccc(S(=O)(=O)[O-])c5F)c5ccc2[nH]5)C=C4)C=C3)cc1
REMARK SMILES IDX 16 1 15 2 14 3 13 4 12 5 11 6 9 7 10 8 6 9 1 10 2 11 3 12
REMARK SMILES IDX 4 13 5 14 7 15 8 16 17 20 18 21 19 22 20 23 21 24 22 25
REMARK SMILES IDX 23 26 24 27 85 28 25 29 84 30 26 31 27 32 28 33 78 34 29 35
REMARK SMILES IDX 83 36 77 37 79 38 30 39 82 40 76 41 75 42 31 44 63 45 43 46
REMARK SMILES IDX 62 47 44 48 47 49 61 50 80 51 45 52 46 53 60 55 81 56 48 57
REMARK SMILES IDX 32 58 33 59 41 60 34 61 36 62 42 63 35 64 37 65 38 66 39 67
REMARK SMILES IDX 40 68 64 69 65 70 73 71 66 72 68 73 74 74 67 75 69 76 70 77
REMARK SMILES IDX 71 78 72 79 49 80 50 81 58 82 51 83 53 84 59 85 52 86 54 87
REMARK SMILES IDX 55 88 56 89 57 90
REMARK H PARENT 8 17 8 18 8 19 79 43 47 54
REMARK Flexibility Score: inf
ROOT
ATOM      1  C   UNL A   1      36.772  21.843  25.755  1.00  0.00     0.188 C 
ENDROOT
BRANCH   1   2
ATOM      2  C   UNL A   1      35.235  21.743  25.852  1.00  0.00     0.188 C 
BRANCH   2   3
ATOM      3  O   UNL A   1      34.583  21.648  24.609  1.00  0.00    -0.376 OA
BRANCH   3   4
ATOM      4  C   UNL A   1      33.310  21.031  24.539  1.00  0.00     0.202 C 
BRANCH   4   5
ATOM      5  C   UNL A   1      32.031  21.509  25.263  1.00  0.00     0.261 C 
BRANCH   5   6
ATOM      6  O   UNL A   1      31.851  22.911  25.501  1.00  0.00    -0.463 OA
BRANCH   6   7
ATOM      7  C   UNL A   1      31.525  23.686  24.428  1.00  0.00     0.318 C 
ATOM      8  O   UNL A   1      30.712  23.328  23.585  1.00  0.00    -0.251 OA
BRANCH   7   9
ATOM      9  C   UNL A   1      32.245  25.074  24.415  1.00  0.00     0.119 C 
ATOM     10  C   UNL A   1      31.840  27.380  23.202  1.00  0.00     0.009 C 
ATOM     11  C   UNL A   1      31.245  26.103  23.792  1.00  0.00     0.009 C 
ATOM     12  C   UNL A   1      30.315  26.467  24.959  1.00  0.00     0.005 C 
ATOM     13  C   UNL A   1      31.198  26.462  26.194  1.00  0.00     0.002 C 
ATOM     14  C   UNL A   1      32.409  25.587  25.869  1.00  0.00     0.025 C 
BRANCH   9  15
ATOM     15  C   UNL A   1      33.590  24.946  23.633  1.00  0.00     0.278 C 
BRANCH  15  16
ATOM     16  N   UNL A   1      33.695  23.900  22.610  1.00  0.00    -0.357 N 
ATOM     17  H   UNL A   1      33.013  23.166  22.804  1.00  0.00     0.344 HD
ATOM     18  H   UNL A   1      34.635  23.505  22.624  1.00  0.00     0.344 HD
ATOM     19  H   UNL A   1      33.508  24.303  21.691  1.00  0.00     0.344 HD
ENDBRANCH  15  16
ENDBRANCH   9  15
ENDBRANCH   7   9
ENDBRANCH   6   7
ENDBRANCH   5   6
ENDBRANCH   4   5
ENDBRANCH   3   4
ENDBRANCH   2   3
ENDBRANCH   1   2
BRANCH   1  20
ATOM     20  O   UNL A   1      37.467  21.102  24.771  1.00  0.00    -0.376 OA
BRANCH  20  21
ATOM     21  C   UNL A   1      37.678  19.714  24.981  1.00  0.00     0.202 C 
BRANCH  21  22
ATOM     22  C   UNL A   1      38.892  19.155  25.751  1.00  0.00     0.261 C 
BRANCH  22  23
ATOM     23  O   UNL A   1      40.112  19.909  25.707  1.00  0.00    -0.460 OA
BRANCH  23  24
ATOM     24  C   UNL A   1      40.749  20.074  26.893  1.00  0.00     0.338 C 
ATOM     25  O   UNL A   1      40.961  19.215  27.740  1.00  0.00    -0.246 OA
BRANCH  24  26
ATOM     26  C   UNL A   1      41.346  21.423  26.945  1.00  0.00     0.060 A 
ATOM     27  C   UNL A   1      42.074  21.806  28.083  1.00  0.00     0.016 A 
ATOM     28  C   UNL A   1      41.156  22.320  25.896  1.00  0.00     0.016 A 
ATOM     29  C   UNL A   1      42.604  23.093  28.180  1.00  0.00     0.010 A 
ATOM     30  C   UNL A   1      41.660  23.620  26.009  1.00  0.00     0.010 A 
ATOM     31  C   UNL A   1      42.363  24.021  27.161  1.00  0.00    -0.014 A 
BRANCH  31  32
ATOM     32  C   UNL A   1      42.670  25.458  27.369  1.00  0.00     0.031 A 
ATOM     33  C   UNL A   1      43.994  25.981  26.883  1.00  0.00     0.074 A 
ATOM     34  C   UNL A   1      41.807  26.279  27.994  1.00  0.00     0.049 A 
ATOM     35  N   UNL A   1      44.534  27.160  27.049  1.00  0.00    -0.248 NA
ATOM     36  C   UNL A   1      44.825  25.045  26.107  1.00  0.00     0.031 C 
ATOM     37  C   UNL A   1      40.481  25.904  28.482  1.00  0.00     0.029 A 
ATOM     38  N   UNL A   1      41.939  27.597  28.357  1.00  0.00    -0.354 N 
ATOM     39  C   UNL A   1      45.775  27.100  26.426  1.00  0.00     0.074 A 
ATOM     40  C   UNL A   1      45.915  25.765  25.889  1.00  0.00     0.031 C 
ATOM     41  C   UNL A   1      39.935  26.959  29.113  1.00  0.00     0.029 A 
ATOM     42  C   UNL A   1      40.886  28.070  29.105  1.00  0.00     0.049 A 
ATOM     43  H   UNL A   1      42.713  28.151  28.104  1.00  0.00     0.167 HD
ATOM     44  C   UNL A   1      46.710  28.072  26.301  1.00  0.00     0.034 A 
ATOM     45  C   UNL A   1      40.728  29.251  29.737  1.00  0.00     0.034 A 
ATOM     46  C   UNL A   1      46.568  29.399  26.833  1.00  0.00     0.049 A 
ATOM     47  C   UNL A   1      41.818  30.292  29.641  1.00  0.00     0.074 A 
ATOM     48  C   UNL A   1      47.455  30.459  26.747  1.00  0.00     0.029 A 
ATOM     49  N   UNL A   1      45.477  29.848  27.558  1.00  0.00    -0.354 N 
ATOM     50  N   UNL A   1      42.948  30.251  28.978  1.00  0.00    -0.248 NA
ATOM     51  C   UNL A   1      41.594  31.556  30.361  1.00  0.00     0.031 C 
ATOM     52  C   UNL A   1      46.912  31.540  27.447  1.00  0.00     0.029 A 
ATOM     53  C   UNL A   1      45.669  31.167  27.933  1.00  0.00     0.049 A 
ATOM     54  H   UNL A   1      44.682  29.310  27.775  1.00  0.00     0.167 HD
ATOM     55  C   UNL A   1      43.543  31.497  29.159  1.00  0.00     0.074 A 
ATOM     56  C   UNL A   1      42.642  32.275  29.982  1.00  0.00     0.031 C 
ATOM     57  C   UNL A   1      44.733  31.953  28.695  1.00  0.00     0.034 A 
BRANCH  44  58
ATOM     58  C   UNL A   1      47.965  27.739  25.539  1.00  0.00     0.023 A 
ATOM     59  C   UNL A   1      49.083  27.225  26.229  1.00  0.00     0.012 A 
ATOM     60  C   UNL A   1      48.021  27.877  24.139  1.00  0.00     0.148 A 
ATOM     61  C   UNL A   1      50.247  26.884  25.541  1.00  0.00     0.002 A 
ATOM     62  C   UNL A   1      49.169  27.491  23.454  1.00  0.00     0.091 A 
ATOM     63  F   UNL A   1      46.955  28.384  23.504  1.00  0.00    -0.205 F 
ATOM     64  C   UNL A   1      50.285  27.007  24.155  1.00  0.00     0.022 A 
BRANCH  62  65
ATOM     65  S   UNL A   1      49.292  27.536  21.664  1.00  0.00     0.127 S 
ATOM     66  O   UNL A   1      49.556  28.953  21.421  1.00  0.00    -0.237 OA
ATOM     67  O   UNL A   1      50.432  26.652  21.415  1.00  0.00    -0.237 OA
ATOM     68  O   UNL A   1      48.018  27.045  21.157  1.00  0.00    -0.744 OA
ENDBRANCH  62  65
ENDBRANCH  44  58
BRANCH  45  69
ATOM     69  C   UNL A   1      39.486  29.537  30.514  1.00  0.00     0.023 A 
ATOM     70  C   UNL A   1      39.305  28.939  31.777  1.00  0.00     0.012 A 
ATOM     71  C   UNL A   1      38.471  30.366  29.998  1.00  0.00     0.148 A 
ATOM     72  C   UNL A   1      38.118  29.121  32.489  1.00  0.00     0.002 A 
ATOM     73  C   UNL A   1      37.315  30.588  30.738  1.00  0.00     0.091 A 
ATOM     74  F   UNL A   1      38.650  30.913  28.787  1.00  0.00    -0.205 F 
ATOM     75  C   UNL A   1      37.128  29.950  31.974  1.00  0.00     0.022 A 
BRANCH  73  76
ATOM     76  S   UNL A   1      36.033  31.729  30.208  1.00  0.00     0.127 S 
ATOM     77  O   UNL A   1      35.476  31.036  29.050  1.00  0.00    -0.237 OA
ATOM     78  O   UNL A   1      35.162  31.769  31.382  1.00  0.00    -0.237 OA
ATOM     79  O   UNL A   1      36.717  32.984  29.924  1.00  0.00    -0.744 OA
ENDBRANCH  73  76
ENDBRANCH  45  69
BRANCH  57  80
ATOM     80  C   UNL A   1      45.110  33.381  28.999  1.00  0.00     0.023 A 
ATOM     81  C   UNL A   1      45.796  33.697  30.188  1.00  0.00     0.012 A 
ATOM     82  C   UNL A   1      44.854  34.400  28.059  1.00  0.00     0.148 A 
ATOM     83  C   UNL A   1      46.190  35.008  30.453  1.00  0.00     0.002 A 
ATOM     84  C   UNL A   1      45.296  35.694  28.305  1.00  0.00     0.091 A 
ATOM     85  F   UNL A   1      44.188  34.083  26.940  1.00  0.00    -0.205 F 
ATOM     86  C   UNL A   1      45.951  36.003  29.508  1.00  0.00     0.022 A 
BRANCH  84  87
ATOM     87  S   UNL A   1      45.123  37.020  27.104  1.00  0.00     0.127 S 
ATOM     88  O   UNL A   1      45.957  36.536  26.004  1.00  0.00    -0.237 OA
ATOM     89  O   UNL A   1      43.686  37.005  26.833  1.00  0.00    -0.237 OA
ATOM     90  O   UNL A   1      45.604  38.226  27.763  1.00  0.00    -0.744 OA
ENDBRANCH  84  87
ENDBRANCH  57  80
ENDBRANCH  31  32
ENDBRANCH  24  26
ENDBRANCH  23  24
ENDBRANCH  22  23
ENDBRANCH  21  22
ENDBRANCH  20  21
ENDBRANCH   1  20
TORSDOF 22
ENDMDL
MODEL 2
REMARK VINA RESULT:      -8.6      6.084      9.642
REMARK SMILES C[C@@H]1CCC[C@@]1(C[NH3+])C(=O)OCCOCCOCCOC(=O)c1ccc(-c2c3nc(c(-c4cccc(S(=O)(=O)[O-])c4F)c4ccc([nH]4)c(-c4cccc(S(=O)(=O)[O-])c4F)c4nc(c(-c5cccc(S(=O)(=O)[O-])c5F)c5ccc2[nH]5)C=C4)C=C3)cc1
REMARK SMILES IDX 16 1 15 2 14 3 13 4 12 5 11 6 9 7 10 8 6 9 1 10 2 11 3 12
REMARK SMILES IDX 4 13 5 14 7 15 8 16 17 20 18 21 19 22 20 23 21 24 22 25
REMARK SMILES IDX 23 26 24 27 85 28 25 29 84 30 26 31 27 32 28 33 78 34 29 35
REMARK SMILES IDX 83 36 77 37 79 38 30 39 82 40 76 41 75 42 31 44 63 45 43 46
REMARK SMILES IDX 62 47 44 48 47 49 61 50 80 51 45 52 46 53 60 55 81 56 48 57
REMARK SMILES IDX 32 58 33 59 41 60 34 61 36 62 42 63 35 64 37 65 38 66 39 67
REMARK SMILES IDX 40 68 64 69 65 70 73 71 66 72 68 73 74 74 67 75 69 76 70 77
REMARK SMILES IDX 71 78 72 79 49 80 50 81 58 82 51 83 53 84 59 85 52 86 54 87
REMARK SMILES IDX 55 88 56 89 57 90
REMARK H PARENT 8 17 8 18 8 19 79 43 47 54
REMARK Flexibility Score: inf
ROOT
ATOM      1  C   UNL A   1      32.965  28.492  26.377  1.00  0.00     0.188 C 
ENDROOT
BRANCH   1   2
ATOM      2  C   UNL A   1      31.780  27.508  26.467  1.00  0.00     0.188 C 
BRANCH   2   3
ATOM      3  O   UNL A   1      31.934  26.345  25.691  1.00  0.00    -0.376 OA
BRANCH   3   4
ATOM      4  C   UNL A   1      32.429  26.455  24.368  1.00  0.00     0.202 C 
BRANCH   4   5
ATOM      5  C   UNL A   1      33.801  25.949  23.870  1.00  0.00     0.261 C 
BRANCH   5   6
ATOM      6  O   UNL A   1      34.480  24.930  24.617  1.00  0.00    -0.463 OA
BRANCH   6   7
ATOM      7  C   UNL A   1      34.520  23.683  24.070  1.00  0.00     0.318 C 
ATOM      8  O   UNL A   1      34.681  23.499  22.870  1.00  0.00    -0.251 OA
BRANCH   7   9
ATOM      9  C   UNL A   1      34.394  22.532  25.122  1.00  0.00     0.119 C 
ATOM     10  C   UNL A   1      33.353  22.309  27.535  1.00  0.00     0.009 C 
ATOM     11  C   UNL A   1      33.315  22.978  26.162  1.00  0.00     0.009 C 
ATOM     12  C   UNL A   1      31.981  22.651  25.473  1.00  0.00     0.005 C 
ATOM     13  C   UNL A   1      32.236  21.374  24.691  1.00  0.00     0.002 C 
ATOM     14  C   UNL A   1      33.745  21.291  24.458  1.00  0.00     0.025 C 
BRANCH   9  15
ATOM     15  C   UNL A   1      35.798  22.255  25.747  1.00  0.00     0.278 C 
BRANCH  15  16
ATOM     16  N   UNL A   1      36.501  23.372  26.385  1.00  0.00    -0.357 N 
ATOM     17  H   UNL A   1      36.557  23.208  27.390  1.00  0.00     0.344 HD
ATOM     18  H   UNL A   1      35.992  24.238  26.209  1.00  0.00     0.344 HD
ATOM     19  H   UNL A   1      37.443  23.446  25.999  1.00  0.00     0.344 HD
ENDBRANCH  15  16
ENDBRANCH   9  15
ENDBRANCH   7   9
ENDBRANCH   6   7
ENDBRANCH   5   6
ENDBRANCH   4   5
ENDBRANCH   3   4
ENDBRANCH   2   3
ENDBRANCH   1   2
BRANCH   1  20
ATOM     20  O   UNL A   1      33.127  29.495  27.361  1.00  0.00    -0.376 OA
BRANCH  20  21
ATOM     21  C   UNL A   1      33.379  30.828  26.945  1.00  0.00     0.202 C 
BRANCH  21  22
ATOM     22  C   UNL A   1      33.794  31.950  27.920  1.00  0.00     0.261 C 
BRANCH  22  23
ATOM     23  O   UNL A   1      33.394  33.290  27.599  1.00  0.00    -0.460 OA
BRANCH  23  24
ATOM     24  C   UNL A   1      33.455  34.186  28.616  1.00  0.00     0.338 C 
ATOM     25  O   UNL A   1      32.606  35.015  28.919  1.00  0.00    -0.246 OA
BRANCH  24  26
ATOM     26  C   UNL A   1      34.631  33.889  29.459  1.00  0.00     0.060 A 
ATOM     27  C   UNL A   1      35.913  34.202  28.979  1.00  0.00     0.016 A 
ATOM     28  C   UNL A   1      34.474  33.270  30.698  1.00  0.00     0.016 A 
ATOM     29  C   UNL A   1      37.044  33.884  29.732  1.00  0.00     0.010 A 
ATOM     30  C   UNL A   1      35.610  32.923  31.436  1.00  0.00     0.010 A 
ATOM     31  C   UNL A   1      36.900  33.204  30.946  1.00  0.00    -0.014 A 
BRANCH  31  32
ATOM     32  C   UNL A   1      38.083  32.612  31.619  1.00  0.00     0.031 A 
ATOM     33  C   UNL A   1      38.767  31.445  30.962  1.00  0.00     0.074 A 
ATOM     34  C   UNL A   1      38.531  33.083  32.797  1.00  0.00     0.049 A 
ATOM     35  N   UNL A   1      39.740  30.693  31.407  1.00  0.00    -0.248 NA
ATOM     36  C   UNL A   1      38.286  31.072  29.620  1.00  0.00     0.031 C 
ATOM     37  C   UNL A   1      37.978  34.227  33.520  1.00  0.00     0.029 A 
ATOM     38  N   UNL A   1      39.539  32.625  33.611  1.00  0.00    -0.354 N 
ATOM     39  C   UNL A   1      39.968  29.744  30.417  1.00  0.00     0.074 A 
ATOM     40  C   UNL A   1      39.023  30.005  29.353  1.00  0.00     0.031 C 
ATOM     41  C   UNL A   1      38.631  34.360  34.688  1.00  0.00     0.029 A 
ATOM     42  C   UNL A   1      39.621  33.291  34.812  1.00  0.00     0.049 A 
ATOM     43  H   UNL A   1      40.145  31.891  33.358  1.00  0.00     0.167 HD
ATOM     44  C   UNL A   1      40.887  28.750  30.389  1.00  0.00     0.034 A 
ATOM     45  C   UNL A   1      40.384  33.040  35.896  1.00  0.00     0.034 A 
ATOM     46  C   UNL A   1      41.826  28.493  31.446  1.00  0.00     0.049 A 
ATOM     47  C   UNL A   1      41.352  31.882  35.866  1.00  0.00     0.074 A 
ATOM     48  C   UNL A   1      42.807  27.517  31.506  1.00  0.00     0.029 A 
ATOM     49  N   UNL A   1      41.898  29.205  32.632  1.00  0.00    -0.354 N 
ATOM     50  N   UNL A   1      41.615  31.045  34.892  1.00  0.00    -0.248 NA
ATOM     51  C   UNL A   1      42.149  31.652  37.081  1.00  0.00     0.031 C 
ATOM     52  C   UNL A   1      43.451  27.621  32.743  1.00  0.00     0.029 A 
ATOM     53  C   UNL A   1      42.900  28.687  33.434  1.00  0.00     0.049 A 
ATOM     54  H   UNL A   1      41.322  29.966  32.869  1.00  0.00     0.167 HD
ATOM     55  C   UNL A   1      42.640  30.226  35.357  1.00  0.00     0.074 A 
ATOM     56  C   UNL A   1      42.960  30.675  36.695  1.00  0.00     0.031 C 
ATOM     57  C   UNL A   1      43.255  29.187  34.737  1.00  0.00     0.034 A 
BRANCH  44  58
ATOM     58  C   UNL A   1      40.935  27.876  29.164  1.00  0.00     0.023 A 
ATOM     59  C   UNL A   1      40.078  26.760  29.070  1.00  0.00     0.012 A 
ATOM     60  C   UNL A   1      41.780  28.191  28.082  1.00  0.00     0.148 A 
ATOM     61  C   UNL A   1      40.086  25.953  27.933  1.00  0.00     0.002 A 
ATOM     62  C   UNL A   1      41.749  27.408  26.934  1.00  0.00     0.091 A 
ATOM     63  F   UNL A   1      42.600  29.245  28.199  1.00  0.00    -0.205 F 
ATOM     64  C   UNL A   1      40.912  26.283  26.863  1.00  0.00     0.022 A 
BRANCH  62  65
ATOM     65  S   UNL A   1      42.715  27.793  25.470  1.00  0.00     0.127 S 
ATOM     66  O   UNL A   1      42.547  26.576  24.677  1.00  0.00    -0.237 OA
ATOM     67  O   UNL A   1      42.016  28.965  24.942  1.00  0.00    -0.237 OA
ATOM     68  O   UNL A   1      44.071  28.050  25.935  1.00  0.00    -0.744 OA
ENDBRANCH  62  65
ENDBRANCH  44  58
BRANCH  45  69
ATOM     69  C   UNL A   1      40.288  33.904  37.109  1.00  0.00     0.023 A 
ATOM     70  C   UNL A   1      39.150  33.813  37.936  1.00  0.00     0.012 A 
ATOM     71  C   UNL A   1      41.293  34.837  37.429  1.00  0.00     0.148 A 
ATOM     72  C   UNL A   1      38.993  34.667  39.030  1.00  0.00     0.002 A 
ATOM     73  C   UNL A   1      41.157  35.645  38.553  1.00  0.00     0.091 A 
ATOM     74  F   UNL A   1      42.361  34.924  36.622  1.00  0.00    -0.205 F 
ATOM     75  C   UNL A   1      39.999  35.575  39.342  1.00  0.00     0.022 A 
BRANCH  73  76
ATOM     76  S   UNL A   1      42.450  36.766  39.099  1.00  0.00     0.127 S 
ATOM     77  O   UNL A   1      42.651  37.592  37.911  1.00  0.00    -0.237 OA
ATOM     78  O   UNL A   1      41.804  37.446  40.221  1.00  0.00    -0.237 OA
ATOM     79  O   UNL A   1      43.572  35.917  39.476  1.00  0.00    -0.744 OA
ENDBRANCH  73  76
ENDBRANCH  45  69
BRANCH  57  80
ATOM     80  C   UNL A   1      44.387  28.502  35.461  1.00  0.00     0.023 A 
ATOM     81  C   UNL A   1      45.719  28.895  35.229  1.00  0.00     0.012 A 
ATOM     82  C   UNL A   1      44.117  27.521  36.437  1.00  0.00     0.148 A 
ATOM     83  C   UNL A   1      46.766  28.298  35.930  1.00  0.00     0.002 A 
ATOM     84  C   UNL A   1      45.160  26.970  37.170  1.00  0.00     0.091 A 
ATOM     85  F   UNL A   1      42.843  27.150  36.635  1.00  0.00    -0.205 F 
ATOM     86  C   UNL A   1      46.487  27.346  36.907  1.00  0.00     0.022 A 
BRANCH  84  87
ATOM     87  S   UNL A   1      44.890  25.811  38.517  1.00  0.00     0.127 S 
ATOM     88  O   UNL A   1      44.290  24.676  37.818  1.00  0.00    -0.237 OA
ATOM     89  O   UNL A   1      46.251  25.579  39.001  1.00  0.00    -0.237 OA
ATOM     90  O   UNL A   1      44.018  26.490  39.464  1.00  0.00    -0.744 OA
ENDBRANCH  84  87
ENDBRANCH  57  80
ENDBRANCH  31  32
ENDBRANCH  24  26
ENDBRANCH  23  24
ENDBRANCH  22  23
ENDBRANCH  21  22
ENDBRANCH  20  21
ENDBRANCH   1  20
TORSDOF 22
ENDMDL
MODEL 3
REMARK VINA RESULT:      -8.6      5.775     11.437
REMARK SMILES C[C@@H]1CCC[C@@]1(C[NH3+])C(=O)OCCOCCOCCOC(=O)c1ccc(-c2c3nc(c(-c4cccc(S(=O)(=O)[O-])c4F)c4ccc([nH]4)c(-c4cccc(S(=O)(=O)[O-])c4F)c4nc(c(-c5cccc(S(=O)(=O)[O-])c5F)c5ccc2[nH]5)C=C4)C=C3)cc1
REMARK SMILES IDX 16 1 15 2 14 3 13 4 12 5 11 6 9 7 10 8 6 9 1 10 2 11 3 12
REMARK SMILES IDX 4 13 5 14 7 15 8 16 17 20 18 21 19 22 20 23 21 24 22 25
REMARK SMILES IDX 23 26 24 27 85 28 25 29 84 30 26 31 27 32 28 33 78 34 29 35
REMARK SMILES IDX 83 36 77 37 79 38 30 39 82 40 76 41 75 42 31 44 63 45 43 46
REMARK SMILES IDX 62 47 44 48 47 49 61 50 80 51 45 52 46 53 60 55 81 56 48 57
REMARK SMILES IDX 32 58 33 59 41 60 34 61 36 62 42 63 35 64 37 65 38 66 39 67
REMARK SMILES IDX 40 68 64 69 65 70 73 71 66 72 68 73 74 74 67 75 69 76 70 77
REMARK SMILES IDX 71 78 72 79 49 80 50 81 58 82 51 83 53 84 59 85 52 86 54 87
REMARK SMILES IDX 55 88 56 89 57 90
REMARK H PARENT 8 17 8 18 8 19 79 43 47 54
REMARK Flexibility Score: inf
ROOT
ATOM      1  C   UNL A   1      33.903  29.101  26.408  1.00  0.00     0.188 C 
ENDROOT
BRANCH   1   2
ATOM      2  C   UNL A   1      33.055  28.511  25.262  1.00  0.00     0.188 C 
BRANCH   2   3
ATOM      3  O   UNL A   1      33.616  27.372  24.655  1.00  0.00    -0.376 OA
BRANCH   3   4
ATOM      4  C   UNL A   1      33.600  27.261  23.243  1.00  0.00     0.202 C 
BRANCH   4   5
ATOM      5  C   UNL A   1      33.147  26.023  22.437  1.00  0.00     0.261 C 
BRANCH   5   6
ATOM      6  O   UNL A   1      32.807  24.822  23.142  1.00  0.00    -0.463 OA
BRANCH   6   7
ATOM      7  C   UNL A   1      33.697  23.791  23.077  1.00  0.00     0.318 C 
ATOM      8  O   UNL A   1      34.107  23.346  22.012  1.00  0.00    -0.251 OA
BRANCH   7   9
ATOM      9  C   UNL A   1      34.171  23.282  24.478  1.00  0.00     0.119 C 
ATOM     10  C   UNL A   1      33.095  23.150  26.882  1.00  0.00     0.009 C 
ATOM     11  C   UNL A   1      32.893  23.135  25.368  1.00  0.00     0.009 C 
ATOM     12  C   UNL A   1      32.304  21.780  24.947  1.00  0.00     0.005 C 
ATOM     13  C   UNL A   1      33.503  20.893  24.657  1.00  0.00     0.002 C 
ATOM     14  C   UNL A   1      34.678  21.822  24.355  1.00  0.00     0.025 C 
BRANCH   9  15
ATOM     15  C   UNL A   1      35.230  24.275  25.051  1.00  0.00     0.278 C 
BRANCH  15  16
ATOM     16  N   UNL A   1      36.639  23.868  25.028  1.00  0.00    -0.357 N 
ATOM     17  H   UNL A   1      37.230  24.682  25.197  1.00  0.00     0.344 HD
ATOM     18  H   UNL A   1      36.862  23.468  24.117  1.00  0.00     0.344 HD
ATOM     19  H   UNL A   1      36.803  23.172  25.756  1.00  0.00     0.344 HD
ENDBRANCH  15  16
ENDBRANCH   9  15
ENDBRANCH   7   9
ENDBRANCH   6   7
ENDBRANCH   5   6
ENDBRANCH   4   5
ENDBRANCH   3   4
ENDBRANCH   2   3
ENDBRANCH   1   2
BRANCH   1  20
ATOM     20  O   UNL A   1      33.279  29.842  27.438  1.00  0.00    -0.376 OA
BRANCH  20  21
ATOM     21  C   UNL A   1      32.802  31.148  27.150  1.00  0.00     0.202 C 
BRANCH  21  22
ATOM     22  C   UNL A   1      33.460  32.427  27.710  1.00  0.00     0.261 C 
BRANCH  22  23
ATOM     23  O   UNL A   1      32.660  33.616  27.762  1.00  0.00    -0.460 OA
BRANCH  23  24
ATOM     24  C   UNL A   1      33.110  34.597  28.584  1.00  0.00     0.338 C 
ATOM     25  O   UNL A   1      32.593  35.689  28.780  1.00  0.00    -0.246 OA
BRANCH  24  26
ATOM     26  C   UNL A   1      34.237  34.082  29.388  1.00  0.00     0.060 A 
ATOM     27  C   UNL A   1      35.551  34.307  28.947  1.00  0.00     0.016 A 
ATOM     28  C   UNL A   1      34.000  33.347  30.548  1.00  0.00     0.016 A 
ATOM     29  C   UNL A   1      36.633  33.786  29.659  1.00  0.00     0.010 A 
ATOM     30  C   UNL A   1      35.083  32.800  31.243  1.00  0.00     0.010 A 
ATOM     31  C   UNL A   1      36.401  32.993  30.788  1.00  0.00    -0.014 A 
BRANCH  31  32
ATOM     32  C   UNL A   1      37.506  32.205  31.389  1.00  0.00     0.031 A 
ATOM     33  C   UNL A   1      38.062  32.652  32.714  1.00  0.00     0.074 A 
ATOM     34  C   UNL A   1      38.024  31.131  30.766  1.00  0.00     0.049 A 
ATOM     35  N   UNL A   1      39.093  32.200  33.378  1.00  0.00    -0.248 NA
ATOM     36  C   UNL A   1      37.359  33.763  33.379  1.00  0.00     0.031 C 
ATOM     37  C   UNL A   1      37.554  30.576  29.497  1.00  0.00     0.029 A 
ATOM     38  N   UNL A   1      39.090  30.334  31.108  1.00  0.00    -0.354 N 
ATOM     39  C   UNL A   1      39.182  32.986  34.521  1.00  0.00     0.074 A 
ATOM     40  C   UNL A   1      38.108  33.952  34.455  1.00  0.00     0.031 C 
ATOM     41  C   UNL A   1      38.352  29.551  29.149  1.00  0.00     0.029 A 
ATOM     42  C   UNL A   1      39.407  29.400  30.150  1.00  0.00     0.049 A 
ATOM     43  H   UNL A   1      39.579  30.422  31.959  1.00  0.00     0.167 HD
ATOM     44  C   UNL A   1      40.070  32.905  35.540  1.00  0.00     0.034 A 
ATOM     45  C   UNL A   1      40.450  28.548  30.076  1.00  0.00     0.034 A 
ATOM     46  C   UNL A   1      41.135  31.943  35.605  1.00  0.00     0.049 A 
ATOM     47  C   UNL A   1      41.467  28.527  31.193  1.00  0.00     0.074 A 
ATOM     48  C   UNL A   1      42.079  31.772  36.604  1.00  0.00     0.029 A 
ATOM     49  N   UNL A   1      41.407  30.996  34.631  1.00  0.00    -0.354 N 
ATOM     50  N   UNL A   1      41.490  29.217  32.307  1.00  0.00    -0.248 NA
ATOM     51  C   UNL A   1      42.588  27.584  31.052  1.00  0.00     0.031 C 
ATOM     52  C   UNL A   1      42.941  30.740  36.217  1.00  0.00     0.029 A 
ATOM     53  C   UNL A   1      42.508  30.242  35.000  1.00  0.00     0.049 A 
ATOM     54  H   UNL A   1      40.894  30.877  33.800  1.00  0.00     0.167 HD
ATOM     55  C   UNL A   1      42.595  28.758  33.019  1.00  0.00     0.074 A 
ATOM     56  C   UNL A   1      43.207  27.720  32.218  1.00  0.00     0.031 C 
ATOM     57  C   UNL A   1      43.067  29.165  34.224  1.00  0.00     0.034 A 
BRANCH  44  58
ATOM     58  C   UNL A   1      39.913  33.874  36.682  1.00  0.00     0.023 A 
ATOM     59  C   UNL A   1      40.299  35.220  36.511  1.00  0.00     0.012 A 
ATOM     60  C   UNL A   1      39.331  33.472  37.899  1.00  0.00     0.148 A 
ATOM     61  C   UNL A   1      40.138  36.141  37.545  1.00  0.00     0.002 A 
ATOM     62  C   UNL A   1      39.131  34.407  38.909  1.00  0.00     0.091 A 
ATOM     63  F   UNL A   1      38.987  32.185  38.048  1.00  0.00    -0.205 F 
ATOM     64  C   UNL A   1      39.546  35.738  38.738  1.00  0.00     0.022 A 
BRANCH  62  65
ATOM     65  S   UNL A   1      38.305  34.007  40.452  1.00  0.00     0.127 S 
ATOM     66  O   UNL A   1      39.247  33.067  41.057  1.00  0.00    -0.237 OA
ATOM     67  O   UNL A   1      38.241  35.313  41.110  1.00  0.00    -0.237 OA
ATOM     68  O   UNL A   1      37.013  33.444  40.087  1.00  0.00    -0.744 OA
ENDBRANCH  62  65
ENDBRANCH  44  58
BRANCH  45  69
ATOM     69  C   UNL A   1      40.597  27.623  28.913  1.00  0.00     0.023 A 
ATOM     70  C   UNL A   1      39.806  26.459  28.850  1.00  0.00     0.012 A 
ATOM     71  C   UNL A   1      41.535  27.869  27.893  1.00  0.00     0.148 A 
ATOM     72  C   UNL A   1      39.980  25.533  27.819  1.00  0.00     0.002 A 
ATOM     73  C   UNL A   1      41.664  26.971  26.838  1.00  0.00     0.091 A 
ATOM     74  F   UNL A   1      42.293  28.972  27.977  1.00  0.00    -0.205 F 
ATOM     75  C   UNL A   1      40.902  25.794  26.811  1.00  0.00     0.022 A 
BRANCH  73  76
ATOM     76  S   UNL A   1      42.744  27.277  25.436  1.00  0.00     0.127 S 
ATOM     77  O   UNL A   1      44.029  27.503  26.092  1.00  0.00    -0.237 OA
ATOM     78  O   UNL A   1      42.641  26.018  24.698  1.00  0.00    -0.237 OA
ATOM     79  O   UNL A   1      42.175  28.426  24.745  1.00  0.00    -0.744 OA
ENDBRANCH  73  76
ENDBRANCH  45  69
BRANCH  57  80
ATOM     80  C   UNL A   1      44.265  28.446  34.793  1.00  0.00     0.023 A 
ATOM     81  C   UNL A   1      45.561  28.956  34.589  1.00  0.00     0.012 A 
ATOM     82  C   UNL A   1      44.091  27.307  35.605  1.00  0.00     0.148 A 
ATOM     83  C   UNL A   1      46.669  28.322  35.153  1.00  0.00     0.002 A 
ATOM     84  C   UNL A   1      45.192  26.713  36.207  1.00  0.00     0.091 A 
ATOM     85  F   UNL A   1      42.850  26.829  35.777  1.00  0.00    -0.205 F 
ATOM     86  C   UNL A   1      46.484  27.210  35.971  1.00  0.00     0.022 A 
BRANCH  84  87
ATOM     87  S   UNL A   1      45.043  25.338  37.356  1.00  0.00     0.127 S 
ATOM     88  O   UNL A   1      44.403  24.322  36.522  1.00  0.00    -0.237 OA
ATOM     89  O   UNL A   1      46.441  25.063  37.689  1.00  0.00    -0.237 OA
ATOM     90  O   UNL A   1      44.240  25.827  38.467  1.00  0.00    -0.744 OA
ENDBRANCH  84  87
ENDBRANCH  57  80
ENDBRANCH  31  32
ENDBRANCH  24  26
ENDBRANCH  23  24
ENDBRANCH  22  23
ENDBRANCH  21  22
ENDBRANCH  20  21
ENDBRANCH   1  20
TORSDOF 22
ENDMDL
