MODEL 1
REMARK VINA RESULT:     -10.2      0.000      0.000
REMARK SMILES C[C@@H](C(=O)OCCOCCOCCOC(=O)c1ccc(-c2c3nc(c(-c4cccc(S(=O)(=O)[O-])c4F)c4ccc([nH]4)c(-c4cccc(S(=O)(=O)[O-])c4F)c4nc(c(-c5cccc(S(=O)(=O)[O-])c5F)c5ccc2[nH]5)C=C4)C=C3)cc1)c1ccc(Cc2ccco2)cc1F
REMARK SMILES IDX 9 1 8 2 7 3 6 4 5 5 3 6 4 7 2 8 1 9 80 10 81 11 91 12 82 13
REMARK SMILES IDX 90 14 92 15 83 16 84 17 85 18 86 19 89 20 87 21 88 22 10 23
REMARK SMILES IDX 11 24 12 25 13 26 14 27 15 28 16 29 17 30 18 31 79 32 19 33
REMARK SMILES IDX 78 34 20 35 21 36 22 37 72 38 23 39 77 40 71 41 73 42 24 43
REMARK SMILES IDX 76 44 70 45 69 46 25 48 57 49 37 50 56 51 38 52 41 53 55 54
REMARK SMILES IDX 74 55 39 56 40 57 54 59 75 60 42 61 26 62 27 63 35 64 28 65
REMARK SMILES IDX 30 66 36 67 29 68 31 69 32 70 33 71 34 72 58 73 59 74 67 75
REMARK SMILES IDX 60 76 62 77 68 78 61 79 63 80 64 81 65 82 66 83 43 84 44 85
REMARK SMILES IDX 52 86 45 87 47 88 53 89 46 90 48 91 49 92 50 93 51 94
REMARK H PARENT 73 47 41 58
REMARK Flexibility Score: inf
ROOT
ATOM      1  C   UNL A   1      40.516  20.708  26.658  1.00  0.00     0.188 C 
ENDROOT
BRANCH   1   2
ATOM      2  O   UNL A   1      40.402  21.682  27.665  1.00  0.00    -0.376 OA
BRANCH   2   3
ATOM      3  C   UNL A   1      39.981  22.978  27.280  1.00  0.00     0.202 C 
BRANCH   3   4
ATOM      4  C   UNL A   1      38.836  23.235  26.260  1.00  0.00     0.261 C 
BRANCH   4   5
ATOM      5  O   UNL A   1      37.558  22.575  26.486  1.00  0.00    -0.463 OA
BRANCH   5   6
ATOM      6  C   UNL A   1      36.830  22.243  25.382  1.00  0.00     0.313 C 
ATOM      7  O   UNL A   1      37.344  22.195  24.269  1.00  0.00    -0.252 OA
BRANCH   6   8
ATOM      8  C   UNL A   1      35.327  21.876  25.643  1.00  0.00     0.129 C 
ATOM      9  C   UNL A   1      34.772  20.619  24.939  1.00  0.00     0.025 C 
BRANCH   8  10
ATOM     10  C   UNL A   1      34.402  23.123  25.691  1.00  0.00     0.002 A 
ATOM     11  C   UNL A   1      34.505  24.290  24.910  1.00  0.00     0.008 A 
ATOM     12  C   UNL A   1      33.321  23.106  26.588  1.00  0.00     0.127 A 
ATOM     13  C   UNL A   1      33.575  25.373  25.053  1.00  0.00     0.005 A 
ATOM     14  C   UNL A   1      32.432  24.184  26.763  1.00  0.00     0.043 A 
ATOM     15  F   UNL A   1      33.069  21.988  27.281  1.00  0.00    -0.207 F 
ATOM     16  C   UNL A   1      32.526  25.352  26.001  1.00  0.00    -0.038 A 
BRANCH  16  17
ATOM     17  C   UNL A   1      31.438  26.453  26.169  1.00  0.00     0.111 C 
BRANCH  17  18
ATOM     18  C   UNL A   1      31.069  27.242  24.936  1.00  0.00     0.108 A 
ATOM     19  C   UNL A   1      31.474  28.864  24.648  1.00  0.00     0.046 A 
ATOM     20  O   UNL A   1      29.548  26.968  24.021  1.00  0.00    -0.469 OA
ATOM     21  C   UNL A   1      29.879  29.710  23.390  1.00  0.00     0.042 A 
ATOM     22  C   UNL A   1      28.803  28.382  23.143  1.00  0.00     0.195 A 
ENDBRANCH  17  18
ENDBRANCH  16  17
ENDBRANCH   8  10
ENDBRANCH   6   8
ENDBRANCH   5   6
ENDBRANCH   4   5
ENDBRANCH   3   4
ENDBRANCH   2   3
ENDBRANCH   1   2
BRANCH   1  23
ATOM     23  C   UNL A   1      41.780  19.845  26.642  1.00  0.00     0.188 C 
BRANCH  23  24
ATOM     24  O   UNL A   1      43.062  20.407  26.508  1.00  0.00    -0.376 OA
BRANCH  24  25
ATOM     25  C   UNL A   1      43.545  20.809  25.237  1.00  0.00     0.202 C 
BRANCH  25  26
ATOM     26  C   UNL A   1      43.562  22.255  24.674  1.00  0.00     0.261 C 
BRANCH  26  27
ATOM     27  O   UNL A   1      44.747  23.062  24.792  1.00  0.00    -0.460 OA
BRANCH  27  28
ATOM     28  C   UNL A   1      45.320  23.062  26.028  1.00  0.00     0.338 C 
ATOM     29  O   UNL A   1      46.405  22.579  26.313  1.00  0.00    -0.246 OA
BRANCH  28  30
ATOM     30  C   UNL A   1      44.616  24.004  26.938  1.00  0.00     0.060 A 
ATOM     31  C   UNL A   1      44.953  25.367  26.877  1.00  0.00     0.016 A 
ATOM     32  C   UNL A   1      43.707  23.554  27.892  1.00  0.00     0.016 A 
ATOM     33  C   UNL A   1      44.431  26.266  27.802  1.00  0.00     0.010 A 
ATOM     34  C   UNL A   1      43.193  24.458  28.833  1.00  0.00     0.010 A 
ATOM     35  C   UNL A   1      43.565  25.812  28.806  1.00  0.00    -0.014 A 
BRANCH  35  36
ATOM     36  C   UNL A   1      42.986  26.782  29.763  1.00  0.00     0.031 A 
ATOM     37  C   UNL A   1      43.578  27.058  31.071  1.00  0.00     0.074 A 
ATOM     38  C   UNL A   1      41.925  27.497  29.369  1.00  0.00     0.049 A 
ATOM     39  N   UNL A   1      43.122  27.844  32.001  1.00  0.00    -0.248 NA
ATOM     40  C   UNL A   1      44.822  26.352  31.375  1.00  0.00     0.031 C 
ATOM     41  C   UNL A   1      41.301  27.155  27.660  1.00  0.00     0.029 A 
ATOM     42  N   UNL A   1      40.998  28.802  30.140  1.00  0.00    -0.354 N 
ATOM     43  C   UNL A   1      44.017  27.725  33.034  1.00  0.00     0.074 A 
ATOM     44  C   UNL A   1      45.015  26.749  32.621  1.00  0.00     0.031 C 
ATOM     45  C   UNL A   1      40.086  28.115  27.329  1.00  0.00     0.029 A 
ATOM     46  C   UNL A   1      39.635  29.404  29.031  1.00  0.00     0.049 A 
ATOM     47  H   UNL A   1      41.182  29.160  31.038  1.00  0.00     0.167 HD
ATOM     48  C   UNL A   1      44.016  28.374  34.215  1.00  0.00     0.034 A 
ATOM     49  C   UNL A   1      38.626  30.224  29.634  1.00  0.00     0.034 A 
ATOM     50  C   UNL A   1      43.017  29.295  34.680  1.00  0.00     0.049 A 
ATOM     51  C   UNL A   1      38.754  30.648  31.131  1.00  0.00     0.074 A 
ATOM     52  C   UNL A   1      42.979  29.918  35.914  1.00  0.00     0.029 A 
ATOM     53  N   UNL A   1      41.879  29.700  33.992  1.00  0.00    -0.354 N 
ATOM     54  N   UNL A   1      39.671  30.400  32.045  1.00  0.00    -0.248 NA
ATOM     55  C   UNL A   1      37.641  31.471  31.661  1.00  0.00     0.031 C 
ATOM     56  C   UNL A   1      41.779  30.618  36.014  1.00  0.00     0.029 A 
ATOM     57  C   UNL A   1      41.115  30.532  34.798  1.00  0.00     0.049 A 
ATOM     58  H   UNL A   1      41.649  29.435  33.072  1.00  0.00     0.167 HD
ATOM     59  C   UNL A   1      39.276  31.077  33.211  1.00  0.00     0.074 A 
ATOM     60  C   UNL A   1      38.022  31.725  32.905  1.00  0.00     0.031 C 
ATOM     61  C   UNL A   1      39.880  31.181  34.427  1.00  0.00     0.034 A 
BRANCH  48  62
ATOM     62  C   UNL A   1      45.138  28.001  35.126  1.00  0.00     0.023 A 
ATOM     63  C   UNL A   1      46.373  28.675  35.041  1.00  0.00     0.012 A 
ATOM     64  C   UNL A   1      44.978  26.918  36.003  1.00  0.00     0.148 A 
ATOM     65  C   UNL A   1      47.464  28.218  35.771  1.00  0.00     0.002 A 
ATOM     66  C   UNL A   1      46.046  26.518  36.779  1.00  0.00     0.091 A 
ATOM     67  F   UNL A   1      43.797  26.283  36.027  1.00  0.00    -0.205 F 
ATOM     68  C   UNL A   1      47.297  27.146  36.647  1.00  0.00     0.022 A 
BRANCH  66  69
ATOM     69  S   UNL A   1      45.904  25.202  37.985  1.00  0.00     0.127 S 
ATOM     70  O   UNL A   1      47.305  24.968  38.330  1.00  0.00    -0.237 OA
ATOM     71  O   UNL A   1      45.111  25.843  39.032  1.00  0.00    -0.237 OA
ATOM     72  O   UNL A   1      45.244  24.096  37.305  1.00  0.00    -0.744 OA
ENDBRANCH  66  69
ENDBRANCH  48  62
BRANCH  49  73
ATOM     73  C   UNL A   1      37.284  30.632  29.002  1.00  0.00     0.023 A 
ATOM     74  C   UNL A   1      36.416  29.662  28.472  1.00  0.00     0.012 A 
ATOM     75  C   UNL A   1      36.868  31.980  28.909  1.00  0.00     0.148 A 
ATOM     76  C   UNL A   1      35.135  30.013  28.018  1.00  0.00     0.002 A 
ATOM     77  C   UNL A   1      35.533  32.294  28.670  1.00  0.00     0.091 A 
ATOM     78  F   UNL A   1      37.782  32.955  29.044  1.00  0.00    -0.205 F 
ATOM     79  C   UNL A   1      34.661  31.310  28.204  1.00  0.00     0.022 A 
BRANCH  77  80
ATOM     80  S   UNL A   1      34.827  33.861  29.222  1.00  0.00     0.127 S 
ATOM     81  O   UNL A   1      33.459  33.785  28.718  1.00  0.00    -0.237 OA
ATOM     82  O   UNL A   1      34.951  33.762  30.678  1.00  0.00    -0.237 OA
ATOM     83  O   UNL A   1      35.668  34.892  28.625  1.00  0.00    -0.744 OA
ENDBRANCH  77  80
ENDBRANCH  49  73
BRANCH  61  84
ATOM     84  C   UNL A   1      39.261  32.113  35.467  1.00  0.00     0.023 A 
ATOM     85  C   UNL A   1      38.218  31.690  36.316  1.00  0.00     0.012 A 
ATOM     86  C   UNL A   1      39.785  33.416  35.641  1.00  0.00     0.148 A 
ATOM     87  C   UNL A   1      37.676  32.557  37.273  1.00  0.00     0.002 A 
ATOM     88  C   UNL A   1      39.283  34.252  36.633  1.00  0.00     0.091 A 
ATOM     89  F   UNL A   1      40.783  33.811  34.837  1.00  0.00    -0.205 F 
ATOM     90  C   UNL A   1      38.214  33.832  37.438  1.00  0.00     0.022 A 
BRANCH  88  91
ATOM     91  S   UNL A   1      39.973  35.877  36.976  1.00  0.00     0.127 S 
ATOM     92  O   UNL A   1      39.221  36.274  38.166  1.00  0.00    -0.237 OA
ATOM     93  O   UNL A   1      41.382  35.570  37.219  1.00  0.00    -0.237 OA
ATOM     94  O   UNL A   1      39.721  36.684  35.789  1.00  0.00    -0.744 OA
ENDBRANCH  88  91
ENDBRANCH  61  84
ENDBRANCH  35  36
ENDBRANCH  28  30
ENDBRANCH  27  28
ENDBRANCH  26  27
ENDBRANCH  25  26
ENDBRANCH  24  25
ENDBRANCH  23  24
ENDBRANCH   1  23
TORSDOF 23
ENDMDL
MODEL 2
REMARK VINA RESULT:      -9.5      4.913      7.752
REMARK SMILES C[C@@H](C(=O)OCCOCCOCCOC(=O)c1ccc(-c2c3nc(c(-c4cccc(S(=O)(=O)[O-])c4F)c4ccc([nH]4)c(-c4cccc(S(=O)(=O)[O-])c4F)c4nc(c(-c5cccc(S(=O)(=O)[O-])c5F)c5ccc2[nH]5)C=C4)C=C3)cc1)c1ccc(Cc2ccco2)cc1F
REMARK SMILES IDX 9 1 8 2 7 3 6 4 5 5 3 6 4 7 2 8 1 9 80 10 81 11 91 12 82 13
REMARK SMILES IDX 90 14 92 15 83 16 84 17 85 18 86 19 89 20 87 21 88 22 10 23
REMARK SMILES IDX 11 24 12 25 13 26 14 27 15 28 16 29 17 30 18 31 79 32 19 33
REMARK SMILES IDX 78 34 20 35 21 36 22 37 72 38 23 39 77 40 71 41 73 42 24 43
REMARK SMILES IDX 76 44 70 45 69 46 25 48 57 49 37 50 56 51 38 52 41 53 55 54
REMARK SMILES IDX 74 55 39 56 40 57 54 59 75 60 42 61 26 62 27 63 35 64 28 65
REMARK SMILES IDX 30 66 36 67 29 68 31 69 32 70 33 71 34 72 58 73 59 74 67 75
REMARK SMILES IDX 60 76 62 77 68 78 61 79 63 80 64 81 65 82 66 83 43 84 44 85
REMARK SMILES IDX 52 86 45 87 47 88 53 89 46 90 48 91 49 92 50 93 51 94
REMARK H PARENT 73 47 41 58
REMARK Flexibility Score: inf
ROOT
ATOM      1  C   UNL A   1      46.150  24.208  24.672  1.00  0.00     0.188 C 
ENDROOT
BRANCH   1   2
ATOM      2  O   UNL A   1      46.123  25.613  24.642  1.00  0.00    -0.376 OA
BRANCH   2   3
ATOM      3  C   UNL A   1      46.049  26.295  25.882  1.00  0.00     0.202 C 
BRANCH   3   4
ATOM      4  C   UNL A   1      45.197  27.577  26.099  1.00  0.00     0.261 C 
BRANCH   4   5
ATOM      5  O   UNL A   1      45.817  28.702  26.783  1.00  0.00    -0.463 OA
BRANCH   5   6
ATOM      6  C   UNL A   1      46.424  29.641  26.002  1.00  0.00     0.313 C 
ATOM      7  O   UNL A   1      46.524  29.494  24.788  1.00  0.00    -0.252 OA
BRANCH   6   8
ATOM      8  C   UNL A   1      46.924  30.927  26.750  1.00  0.00     0.129 C 
ATOM      9  C   UNL A   1      48.353  30.894  27.336  1.00  0.00     0.025 C 
BRANCH   8  10
ATOM     10  C   UNL A   1      45.820  31.585  27.621  1.00  0.00     0.002 A 
ATOM     11  C   UNL A   1      45.651  31.467  29.014  1.00  0.00     0.008 A 
ATOM     12  C   UNL A   1      44.883  32.413  26.980  1.00  0.00     0.127 A 
ATOM     13  C   UNL A   1      44.582  32.138  29.699  1.00  0.00     0.005 A 
ATOM     14  C   UNL A   1      43.808  33.037  27.641  1.00  0.00     0.043 A 
ATOM     15  F   UNL A   1      45.041  32.685  25.677  1.00  0.00    -0.207 F 
ATOM     16  C   UNL A   1      43.622  32.923  29.022  1.00  0.00    -0.038 A 
BRANCH  16  17
ATOM     17  C   UNL A   1      42.479  33.736  29.699  1.00  0.00     0.111 C 
BRANCH  17  18
ATOM     18  C   UNL A   1      42.340  35.183  29.297  1.00  0.00     0.108 A 
ATOM     19  C   UNL A   1      41.376  35.764  28.028  1.00  0.00     0.046 A 
ATOM     20  O   UNL A   1      43.678  36.371  29.451  1.00  0.00    -0.469 OA
ATOM     21  C   UNL A   1      42.349  37.583  27.262  1.00  0.00     0.042 A 
ATOM     22  C   UNL A   1      43.743  37.756  28.266  1.00  0.00     0.195 A 
ENDBRANCH  17  18
ENDBRANCH  16  17
ENDBRANCH   8  10
ENDBRANCH   6   8
ENDBRANCH   5   6
ENDBRANCH   4   5
ENDBRANCH   3   4
ENDBRANCH   2   3
ENDBRANCH   1   2
BRANCH   1  23
ATOM     23  C   UNL A   1      46.497  23.531  26.001  1.00  0.00     0.188 C 
BRANCH  23  24
ATOM     24  O   UNL A   1      45.992  22.264  26.343  1.00  0.00    -0.376 OA
BRANCH  24  25
ATOM     25  C   UNL A   1      45.827  21.261  25.353  1.00  0.00     0.202 C 
BRANCH  25  26
ATOM     26  C   UNL A   1      44.568  20.379  25.139  1.00  0.00     0.261 C 
BRANCH  26  27
ATOM     27  O   UNL A   1      43.293  20.991  24.883  1.00  0.00    -0.460 OA
BRANCH  27  28
ATOM     28  C   UNL A   1      42.400  20.906  25.908  1.00  0.00     0.338 C 
ATOM     29  O   UNL A   1      41.829  19.891  26.276  1.00  0.00    -0.246 OA
BRANCH  28  30
ATOM     30  C   UNL A   1      42.436  22.135  26.745  1.00  0.00     0.060 A 
ATOM     31  C   UNL A   1      42.705  23.363  26.116  1.00  0.00     0.016 A 
ATOM     32  C   UNL A   1      42.295  22.079  28.129  1.00  0.00     0.016 A 
ATOM     33  C   UNL A   1      42.892  24.518  26.870  1.00  0.00     0.010 A 
ATOM     34  C   UNL A   1      42.499  23.240  28.889  1.00  0.00     0.010 A 
ATOM     35  C   UNL A   1      42.816  24.459  28.268  1.00  0.00    -0.014 A 
BRANCH  35  36
ATOM     36  C   UNL A   1      42.980  25.699  29.060  1.00  0.00     0.031 A 
ATOM     37  C   UNL A   1      44.250  26.093  29.668  1.00  0.00     0.074 A 
ATOM     38  C   UNL A   1      41.937  26.535  29.143  1.00  0.00     0.049 A 
ATOM     39  N   UNL A   1      44.486  27.125  30.421  1.00  0.00    -0.248 NA
ATOM     40  C   UNL A   1      45.386  25.209  29.409  1.00  0.00     0.031 C 
ATOM     41  C   UNL A   1      40.398  26.007  28.260  1.00  0.00     0.029 A 
ATOM     42  N   UNL A   1      41.731  28.134  29.889  1.00  0.00    -0.354 N 
ATOM     43  C   UNL A   1      45.812  27.021  30.758  1.00  0.00     0.074 A 
ATOM     44  C   UNL A   1      46.308  25.791  30.157  1.00  0.00     0.031 C 
ATOM     45  C   UNL A   1      39.283  27.122  28.409  1.00  0.00     0.029 A 
ATOM     46  C   UNL A   1      40.013  28.786  29.617  1.00  0.00     0.049 A 
ATOM     47  H   UNL A   1      42.435  28.613  30.383  1.00  0.00     0.167 HD
ATOM     48  C   UNL A   1      46.553  27.874  31.493  1.00  0.00     0.034 A 
ATOM     49  C   UNL A   1      39.613  29.906  30.417  1.00  0.00     0.034 A 
ATOM     50  C   UNL A   1      46.085  29.062  32.150  1.00  0.00     0.049 A 
ATOM     51  C   UNL A   1      40.634  30.578  31.389  1.00  0.00     0.074 A 
ATOM     52  C   UNL A   1      46.827  29.907  32.953  1.00  0.00     0.029 A 
ATOM     53  N   UNL A   1      44.787  29.559  32.136  1.00  0.00    -0.354 N 
ATOM     54  N   UNL A   1      41.898  30.322  31.658  1.00  0.00    -0.248 NA
ATOM     55  C   UNL A   1      40.107  31.709  32.189  1.00  0.00     0.031 C 
ATOM     56  C   UNL A   1      45.966  30.855  33.503  1.00  0.00     0.029 A 
ATOM     57  C   UNL A   1      44.705  30.678  32.953  1.00  0.00     0.049 A 
ATOM     58  H   UNL A   1      44.038  29.174  31.625  1.00  0.00     0.167 HD
ATOM     59  C   UNL A   1      42.317  31.284  32.592  1.00  0.00     0.074 A 
ATOM     60  C   UNL A   1      41.168  32.113  32.872  1.00  0.00     0.031 C 
ATOM     61  C   UNL A   1      43.532  31.492  33.170  1.00  0.00     0.034 A 
BRANCH  48  62
ATOM     62  C   UNL A   1      47.973  27.454  31.680  1.00  0.00     0.023 A 
ATOM     63  C   UNL A   1      48.346  26.699  32.811  1.00  0.00     0.012 A 
ATOM     64  C   UNL A   1      48.943  27.894  30.767  1.00  0.00     0.148 A 
ATOM     65  C   UNL A   1      49.690  26.454  33.068  1.00  0.00     0.002 A 
ATOM     66  C   UNL A   1      50.269  27.581  30.992  1.00  0.00     0.091 A 
ATOM     67  F   UNL A   1      48.549  28.639  29.724  1.00  0.00    -0.205 F 
ATOM     68  C   UNL A   1      50.649  26.887  32.153  1.00  0.00     0.022 A 
BRANCH  66  69
ATOM     69  S   UNL A   1      51.558  28.029  29.834  1.00  0.00     0.127 S 
ATOM     70  O   UNL A   1      51.061  27.431  28.596  1.00  0.00    -0.237 OA
ATOM     71  O   UNL A   1      51.503  29.489  29.876  1.00  0.00    -0.237 OA
ATOM     72  O   UNL A   1      52.789  27.445  30.349  1.00  0.00    -0.744 OA
ENDBRANCH  66  69
ENDBRANCH  48  62
BRANCH  49  73
ATOM     73  C   UNL A   1      38.185  30.461  30.560  1.00  0.00     0.023 A 
ATOM     74  C   UNL A   1      37.384  30.108  31.660  1.00  0.00     0.012 A 
ATOM     75  C   UNL A   1      37.608  31.327  29.602  1.00  0.00     0.148 A 
ATOM     76  C   UNL A   1      36.136  30.716  31.865  1.00  0.00     0.002 A 
ATOM     77  C   UNL A   1      36.485  32.085  29.918  1.00  0.00     0.091 A 
ATOM     78  F   UNL A   1      38.155  31.401  28.377  1.00  0.00    -0.205 F 
ATOM     79  C   UNL A   1      35.730  31.770  31.048  1.00  0.00     0.022 A 
BRANCH  77  80
ATOM     80  S   UNL A   1      36.140  33.645  29.077  1.00  0.00     0.127 S 
ATOM     81  O   UNL A   1      37.413  34.350  29.187  1.00  0.00    -0.237 OA
ATOM     82  O   UNL A   1      35.801  33.200  27.724  1.00  0.00    -0.237 OA
ATOM     83  O   UNL A   1      35.022  34.234  29.805  1.00  0.00    -0.744 OA
ENDBRANCH  77  80
ENDBRANCH  49  73
BRANCH  61  84
ATOM     84  C   UNL A   1      43.711  32.721  34.060  1.00  0.00     0.023 A 
ATOM     85  C   UNL A   1      43.442  32.681  35.443  1.00  0.00     0.012 A 
ATOM     86  C   UNL A   1      44.226  33.916  33.507  1.00  0.00     0.148 A 
ATOM     87  C   UNL A   1      43.629  33.816  36.242  1.00  0.00     0.002 A 
ATOM     88  C   UNL A   1      44.466  35.023  34.316  1.00  0.00     0.091 A 
ATOM     89  F   UNL A   1      44.490  33.946  32.192  1.00  0.00    -0.205 F 
ATOM     90  C   UNL A   1      44.149  34.981  35.681  1.00  0.00     0.022 A 
BRANCH  88  91
ATOM     91  S   UNL A   1      45.216  36.535  33.698  1.00  0.00     0.127 S 
ATOM     92  O   UNL A   1      45.302  37.343  34.914  1.00  0.00    -0.237 OA
ATOM     93  O   UNL A   1      46.503  36.058  33.192  1.00  0.00    -0.237 OA
ATOM     94  O   UNL A   1      44.313  37.050  32.677  1.00  0.00    -0.744 OA
ENDBRANCH  88  91
ENDBRANCH  61  84
ENDBRANCH  35  36
ENDBRANCH  28  30
ENDBRANCH  27  28
ENDBRANCH  26  27
ENDBRANCH  25  26
ENDBRANCH  24  25
ENDBRANCH  23  24
ENDBRANCH   1  23
TORSDOF 23
ENDMDL
MODEL 3
REMARK VINA RESULT:      -9.2      5.374      9.111
REMARK SMILES C[C@@H](C(=O)OCCOCCOCCOC(=O)c1ccc(-c2c3nc(c(-c4cccc(S(=O)(=O)[O-])c4F)c4ccc([nH]4)c(-c4cccc(S(=O)(=O)[O-])c4F)c4nc(c(-c5cccc(S(=O)(=O)[O-])c5F)c5ccc2[nH]5)C=C4)C=C3)cc1)c1ccc(Cc2ccco2)cc1F
REMARK SMILES IDX 9 1 8 2 7 3 6 4 5 5 3 6 4 7 2 8 1 9 80 10 81 11 91 12 82 13
REMARK SMILES IDX 90 14 92 15 83 16 84 17 85 18 86 19 89 20 87 21 88 22 10 23
REMARK SMILES IDX 11 24 12 25 13 26 14 27 15 28 16 29 17 30 18 31 79 32 19 33
REMARK SMILES IDX 78 34 20 35 21 36 22 37 72 38 23 39 77 40 71 41 73 42 24 43
REMARK SMILES IDX 76 44 70 45 69 46 25 48 57 49 37 50 56 51 38 52 41 53 55 54
REMARK SMILES IDX 74 55 39 56 40 57 54 59 75 60 42 61 26 62 27 63 35 64 28 65
REMARK SMILES IDX 30 66 36 67 29 68 31 69 32 70 33 71 34 72 58 73 59 74 67 75
REMARK SMILES IDX 60 76 62 77 68 78 61 79 63 80 64 81 65 82 66 83 43 84 44 85
REMARK SMILES IDX 52 86 45 87 47 88 53 89 46 90 48 91 49 92 50 93 51 94
REMARK H PARENT 73 47 41 58
REMARK Flexibility Score: inf
ROOT
ATOM      1  C   UNL A   1      36.124  22.432  23.759  1.00  0.00     0.188 C 
ENDROOT
BRANCH   1   2
ATOM      2  O   UNL A   1      34.771  22.535  24.126  1.00  0.00    -0.376 OA
BRANCH   2   3
ATOM      3  C   UNL A   1      34.424  23.516  25.087  1.00  0.00     0.202 C 
BRANCH   3   4
ATOM      4  C   UNL A   1      34.087  23.179  26.566  1.00  0.00     0.261 C 
BRANCH   4   5
ATOM      5  O   UNL A   1      33.179  22.072  26.825  1.00  0.00    -0.463 OA
BRANCH   5   6
ATOM      6  C   UNL A   1      32.014  22.048  26.115  1.00  0.00     0.313 C 
ATOM      7  O   UNL A   1      31.761  21.134  25.337  1.00  0.00    -0.252 OA
BRANCH   6   8
ATOM      8  C   UNL A   1      31.016  23.222  26.407  1.00  0.00     0.129 C 
ATOM      9  C   UNL A   1      29.640  22.851  27.002  1.00  0.00     0.025 C 
BRANCH   8  10
ATOM     10  C   UNL A   1      31.035  24.317  25.305  1.00  0.00     0.002 A 
ATOM     11  C   UNL A   1      30.723  24.158  23.941  1.00  0.00     0.008 A 
ATOM     12  C   UNL A   1      31.378  25.625  25.684  1.00  0.00     0.127 A 
ATOM     13  C   UNL A   1      30.777  25.262  23.026  1.00  0.00     0.005 A 
ATOM     14  C   UNL A   1      31.474  26.702  24.782  1.00  0.00     0.043 A 
ATOM     15  F   UNL A   1      31.567  25.898  26.982  1.00  0.00    -0.207 F 
ATOM     16  C   UNL A   1      31.176  26.558  23.424  1.00  0.00    -0.038 A 
BRANCH  16  17
ATOM     17  C   UNL A   1      31.193  27.819  22.509  1.00  0.00     0.111 C 
BRANCH  17  18
ATOM     18  C   UNL A   1      29.880  28.535  22.310  1.00  0.00     0.108 A 
ATOM     19  C   UNL A   1      29.696  30.203  22.063  1.00  0.00     0.046 A 
ATOM     20  O   UNL A   1      28.352  28.006  23.092  1.00  0.00    -0.469 OA
ATOM     21  C   UNL A   1      27.740  30.765  22.898  1.00  0.00     0.042 A 
ATOM     22  C   UNL A   1      27.101  29.273  23.486  1.00  0.00     0.195 A 
ENDBRANCH  17  18
ENDBRANCH  16  17
ENDBRANCH   8  10
ENDBRANCH   6   8
ENDBRANCH   5   6
ENDBRANCH   4   5
ENDBRANCH   3   4
ENDBRANCH   2   3
ENDBRANCH   1   2
BRANCH   1  23
ATOM     23  C   UNL A   1      37.126  22.016  24.839  1.00  0.00     0.188 C 
BRANCH  23  24
ATOM     24  O   UNL A   1      37.198  20.695  25.316  1.00  0.00    -0.376 OA
BRANCH  24  25
ATOM     25  C   UNL A   1      38.314  19.877  25.007  1.00  0.00     0.202 C 
BRANCH  25  26
ATOM     26  C   UNL A   1      39.535  19.600  25.924  1.00  0.00     0.261 C 
BRANCH  26  27
ATOM     27  O   UNL A   1      40.852  19.483  25.357  1.00  0.00    -0.460 OA
BRANCH  27  28
ATOM     28  C   UNL A   1      41.871  19.537  26.260  1.00  0.00     0.338 C 
ATOM     29  O   UNL A   1      42.660  18.637  26.501  1.00  0.00    -0.246 OA
BRANCH  28  30
ATOM     30  C   UNL A   1      42.118  20.937  26.697  1.00  0.00     0.060 A 
ATOM     31  C   UNL A   1      42.283  21.924  25.709  1.00  0.00     0.016 A 
ATOM     32  C   UNL A   1      42.272  21.265  28.041  1.00  0.00     0.016 A 
ATOM     33  C   UNL A   1      42.659  23.218  26.059  1.00  0.00     0.010 A 
ATOM     34  C   UNL A   1      42.665  22.565  28.391  1.00  0.00     0.010 A 
ATOM     35  C   UNL A   1      42.879  23.542  27.405  1.00  0.00    -0.014 A 
BRANCH  35  36
ATOM     36  C   UNL A   1      43.242  24.929  27.772  1.00  0.00     0.031 A 
ATOM     37  C   UNL A   1      42.277  25.889  28.306  1.00  0.00     0.074 A 
ATOM     38  C   UNL A   1      44.531  25.284  27.692  1.00  0.00     0.049 A 
ATOM     39  N   UNL A   1      42.479  27.137  28.606  1.00  0.00    -0.248 NA
ATOM     40  C   UNL A   1      40.919  25.387  28.510  1.00  0.00     0.031 C 
ATOM     41  C   UNL A   1      45.700  23.977  27.102  1.00  0.00     0.029 A 
ATOM     42  N   UNL A   1      45.397  26.776  28.114  1.00  0.00    -0.354 N 
ATOM     43  C   UNL A   1      41.258  27.601  29.028  1.00  0.00     0.074 A 
ATOM     44  C   UNL A   1      40.316  26.500  28.894  1.00  0.00     0.031 C 
ATOM     45  C   UNL A   1      47.183  24.535  27.116  1.00  0.00     0.029 A 
ATOM     46  C   UNL A   1      47.218  26.611  27.786  1.00  0.00     0.049 A 
ATOM     47  H   UNL A   1      44.969  27.586  28.475  1.00  0.00     0.167 HD
ATOM     48  C   UNL A   1      40.949  28.828  29.491  1.00  0.00     0.034 A 
ATOM     49  C   UNL A   1      47.986  27.822  27.782  1.00  0.00     0.034 A 
ATOM     50  C   UNL A   1      41.836  29.954  29.580  1.00  0.00     0.049 A 
ATOM     51  C   UNL A   1      47.306  29.181  28.139  1.00  0.00     0.074 A 
ATOM     52  C   UNL A   1      41.509  31.230  29.999  1.00  0.00     0.029 A 
ATOM     53  N   UNL A   1      43.178  29.981  29.219  1.00  0.00    -0.354 N 
ATOM     54  N   UNL A   1      46.069  29.489  28.476  1.00  0.00    -0.248 NA
ATOM     55  C   UNL A   1      48.185  30.373  28.077  1.00  0.00     0.031 C 
ATOM     56  C   UNL A   1      42.618  32.052  29.802  1.00  0.00     0.029 A 
ATOM     57  C   UNL A   1      43.678  31.268  29.370  1.00  0.00     0.049 A 
ATOM     58  H   UNL A   1      43.696  29.205  28.903  1.00  0.00     0.167 HD
ATOM     59  C   UNL A   1      46.048  30.873  28.720  1.00  0.00     0.074 A 
ATOM     60  C   UNL A   1      47.385  31.356  28.464  1.00  0.00     0.031 C 
ATOM     61  C   UNL A   1      45.038  31.688  29.130  1.00  0.00     0.034 A 
BRANCH  48  62
ATOM     62  C   UNL A   1      39.513  29.006  29.859  1.00  0.00     0.023 A 
ATOM     63  C   UNL A   1      39.059  28.634  31.140  1.00  0.00     0.012 A 
ATOM     64  C   UNL A   1      38.609  29.462  28.888  1.00  0.00     0.148 A 
ATOM     65  C   UNL A   1      37.698  28.645  31.423  1.00  0.00     0.002 A 
ATOM     66  C   UNL A   1      37.267  29.540  29.202  1.00  0.00     0.091 A 
ATOM     67  F   UNL A   1      39.079  29.772  27.671  1.00  0.00    -0.205 F 
ATOM     68  C   UNL A   1      36.804  29.107  30.457  1.00  0.00     0.022 A 
BRANCH  66  69
ATOM     69  S   UNL A   1      36.060  30.191  28.053  1.00  0.00     0.127 S 
ATOM     70  O   UNL A   1      34.924  29.301  28.286  1.00  0.00    -0.237 OA
ATOM     71  O   UNL A   1      35.883  31.555  28.549  1.00  0.00    -0.237 OA
ATOM     72  O   UNL A   1      36.660  30.091  26.730  1.00  0.00    -0.744 OA
ENDBRANCH  66  69
ENDBRANCH  48  62
BRANCH  49  73
ATOM     73  C   UNL A   1      49.438  27.979  27.296  1.00  0.00     0.023 A 
ATOM     74  C   UNL A   1      50.510  27.895  28.200  1.00  0.00     0.012 A 
ATOM     75  C   UNL A   1      49.762  28.227  25.942  1.00  0.00     0.148 A 
ATOM     76  C   UNL A   1      51.838  27.902  27.745  1.00  0.00     0.002 A 
ATOM     77  C   UNL A   1      51.054  28.013  25.473  1.00  0.00     0.091 A 
ATOM     78  F   UNL A   1      48.806  28.683  25.116  1.00  0.00    -0.205 F 
ATOM     79  C   UNL A   1      52.106  27.866  26.377  1.00  0.00     0.022 A 
BRANCH  77  80
ATOM     80  S   UNL A   1      51.368  27.626  23.737  1.00  0.00     0.127 S 
ATOM     81  O   UNL A   1      50.197  26.834  23.375  1.00  0.00    -0.237 OA
ATOM     82  O   UNL A   1      51.422  28.956  23.128  1.00  0.00    -0.237 OA
ATOM     83  O   UNL A   1      52.643  26.918  23.728  1.00  0.00    -0.744 OA
ENDBRANCH  77  80
ENDBRANCH  49  73
BRANCH  61  84
ATOM     84  C   UNL A   1      45.364  33.148  29.439  1.00  0.00     0.023 A 
ATOM     85  C   UNL A   1      45.978  33.531  30.650  1.00  0.00     0.012 A 
ATOM     86  C   UNL A   1      45.114  34.143  28.466  1.00  0.00     0.148 A 
ATOM     87  C   UNL A   1      46.283  34.873  30.906  1.00  0.00     0.002 A 
ATOM     88  C   UNL A   1      45.473  35.467  28.701  1.00  0.00     0.091 A 
ATOM     89  F   UNL A   1      44.538  33.773  27.312  1.00  0.00    -0.205 F 
ATOM     90  C   UNL A   1      46.040  35.838  29.929  1.00  0.00     0.022 A 
BRANCH  88  91
ATOM     91  S   UNL A   1      45.279  36.761  27.468  1.00  0.00     0.127 S 
ATOM     92  O   UNL A   1      43.930  36.496  26.969  1.00  0.00    -0.237 OA
ATOM     93  O   UNL A   1      45.404  37.976  28.272  1.00  0.00    -0.237 OA
ATOM     94  O   UNL A   1      46.347  36.560  26.496  1.00  0.00    -0.744 OA
ENDBRANCH  88  91
ENDBRANCH  61  84
ENDBRANCH  35  36
ENDBRANCH  28  30
ENDBRANCH  27  28
ENDBRANCH  26  27
ENDBRANCH  25  26
ENDBRANCH  24  25
ENDBRANCH  23  24
ENDBRANCH   1  23
TORSDOF 23
ENDMDL
