MODEL 1
REMARK VINA RESULT:      -9.6      0.000      0.000
REMARK SMILES O=C(NNS(=O)(=O)c1cccc(C(=O)OCCOCCOCCOC(=O)c2ccc(-c3c4nc(c(-c5cccc(S(=O)(=O)[O-])c5F)c5ccc([nH]5)c(-c5cccc(S(=O)(=O)[O-])c5F)c5nc(c(-c6cccc(S(=O)(=O)[O-])c6F)c6ccc3[nH]6)C=C5)C=C4)cc2)c1)c1ccc2c(c1)OCO2
REMARK SMILES IDX 19 1 18 2 17 3 16 4 15 5 13 6 14 7 12 8 8 9 9 10 90 11 10 12
REMARK SMILES IDX 11 13 5 14 6 15 7 16 4 17 3 19 1 20 2 21 91 23 92 24 96 25
REMARK SMILES IDX 93 26 95 27 94 28 97 29 99 30 98 31 20 32 21 33 22 34 23 35
REMARK SMILES IDX 24 36 25 37 26 38 27 39 28 40 89 41 29 42 88 43 30 44 31 45
REMARK SMILES IDX 32 46 82 47 33 48 87 49 81 50 83 51 34 52 86 53 80 54 79 55
REMARK SMILES IDX 35 57 67 58 47 59 66 60 48 61 51 62 65 63 84 64 49 65 50 66
REMARK SMILES IDX 64 68 85 69 52 70 36 71 37 72 45 73 38 74 40 75 46 76 39 77
REMARK SMILES IDX 41 78 42 79 43 80 44 81 68 82 69 83 77 84 70 85 72 86 78 87
REMARK SMILES IDX 71 88 73 89 74 90 75 91 76 92 53 93 54 94 62 95 55 96 57 97
REMARK SMILES IDX 63 98 56 99 58 100 59 101 60 102 61 103
REMARK H PARENT 4 18 3 22 83 56 51 67
REMARK Flexibility Score: inf
ROOT
ATOM      1  C   UNL A   1      34.510  33.983  29.945  1.00  0.00     0.188 C 
ENDROOT
BRANCH   1   2
ATOM      2  O   UNL A   1      35.255  33.171  29.042  1.00  0.00    -0.376 OA
BRANCH   2   3
ATOM      3  C   UNL A   1      34.629  32.682  27.861  1.00  0.00     0.202 C 
BRANCH   3   4
ATOM      4  C   UNL A   1      34.529  31.164  27.683  1.00  0.00     0.261 C 
BRANCH   4   5
ATOM      5  O   UNL A   1      33.223  30.741  27.257  1.00  0.00    -0.460 OA
BRANCH   5   6
ATOM      6  C   UNL A   1      33.082  29.413  27.026  1.00  0.00     0.338 C 
ATOM      7  O   UNL A   1      33.579  28.495  27.652  1.00  0.00    -0.246 OA
BRANCH   6   8
ATOM      8  C   UNL A   1      32.068  29.216  25.967  1.00  0.00     0.061 A 
ATOM      9  C   UNL A   1      30.787  27.816  24.483  1.00  0.00     0.084 A 
ATOM     10  C   UNL A   1      30.230  28.944  23.871  1.00  0.00     0.022 A 
ATOM     11  C   UNL A   1      31.716  27.940  25.522  1.00  0.00     0.037 A 
ATOM     12  C   UNL A   1      30.587  30.214  24.325  1.00  0.00     0.002 A 
ATOM     13  C   UNL A   1      31.493  30.350  25.380  1.00  0.00     0.016 A 
BRANCH   9  14
ATOM     14  S   UNL A   1      30.262  26.201  23.984  1.00  0.00     0.257 S 
ATOM     15  O   UNL A   1      30.897  25.879  22.724  1.00  0.00    -0.205 OA
ATOM     16  O   UNL A   1      28.830  26.116  24.160  1.00  0.00    -0.205 OA
BRANCH  14  17
ATOM     17  N   UNL A   1      30.969  25.198  25.145  1.00  0.00    -0.123 NA
ATOM     18  H   UNL A   1      31.720  24.690  24.676  1.00  0.00     0.167 HD
BRANCH  17  19
ATOM     19  N   UNL A   1      30.179  24.213  25.841  1.00  0.00    -0.273 N 
ATOM     20  O   UNL A   1      29.806  22.049  26.415  1.00  0.00    -0.268 OA
ATOM     21  C   UNL A   1      30.602  22.934  26.118  1.00  0.00     0.266 C 
ATOM     22  H   UNL A   1      29.277  24.474  26.138  1.00  0.00     0.186 HD
BRANCH  21  23
ATOM     23  C   UNL A   1      32.056  22.650  26.163  1.00  0.00     0.045 A 
ATOM     24  C   UNL A   1      32.786  22.843  27.360  1.00  0.00     0.018 A 
ATOM     25  C   UNL A   1      32.650  22.033  25.056  1.00  0.00     0.064 A 
ATOM     26  C   UNL A   1      34.120  22.436  27.451  1.00  0.00     0.051 A 
ATOM     27  C   UNL A   1      33.959  21.623  25.188  1.00  0.00     0.166 A 
ATOM     28  C   UNL A   1      34.672  21.816  26.352  1.00  0.00     0.165 A 
ATOM     29  O   UNL A   1      34.682  20.961  24.245  1.00  0.00    -0.454 OA
ATOM     30  O   UNL A   1      35.925  21.293  26.283  1.00  0.00    -0.454 OA
ATOM     31  C   UNL A   1      35.874  20.646  24.993  1.00  0.00     0.468 C 
ENDBRANCH  21  23
ENDBRANCH  17  19
ENDBRANCH  14  17
ENDBRANCH   9  14
ENDBRANCH   6   8
ENDBRANCH   5   6
ENDBRANCH   4   5
ENDBRANCH   3   4
ENDBRANCH   2   3
ENDBRANCH   1   2
BRANCH   1  32
ATOM     32  C   UNL A   1      34.915  34.025  31.433  1.00  0.00     0.188 C 
BRANCH  32  33
ATOM     33  O   UNL A   1      36.299  33.827  31.671  1.00  0.00    -0.376 OA
BRANCH  33  34
ATOM     34  C   UNL A   1      36.637  32.691  32.453  1.00  0.00     0.202 C 
BRANCH  34  35
ATOM     35  C   UNL A   1      35.725  31.471  32.259  1.00  0.00     0.261 C 
BRANCH  35  36
ATOM     36  O   UNL A   1      36.401  30.202  32.203  1.00  0.00    -0.460 OA
BRANCH  36  37
ATOM     37  C   UNL A   1      37.252  30.009  31.172  1.00  0.00     0.338 C 
ATOM     38  O   UNL A   1      37.073  30.324  30.008  1.00  0.00    -0.246 OA
BRANCH  37  39
ATOM     39  C   UNL A   1      38.532  29.508  31.716  1.00  0.00     0.060 A 
ATOM     40  C   UNL A   1      39.632  30.374  31.757  1.00  0.00     0.016 A 
ATOM     41  C   UNL A   1      38.654  28.190  32.164  1.00  0.00     0.016 A 
ATOM     42  C   UNL A   1      40.869  29.906  32.206  1.00  0.00     0.010 A 
ATOM     43  C   UNL A   1      39.897  27.720  32.603  1.00  0.00     0.010 A 
ATOM     44  C   UNL A   1      41.019  28.566  32.589  1.00  0.00    -0.014 A 
BRANCH  44  45
ATOM     45  C   UNL A   1      42.381  28.014  32.806  1.00  0.00     0.031 A 
ATOM     46  C   UNL A   1      43.184  27.577  31.609  1.00  0.00     0.074 A 
ATOM     47  C   UNL A   1      42.908  27.911  34.040  1.00  0.00     0.049 A 
ATOM     48  N   UNL A   1      44.409  27.125  31.553  1.00  0.00    -0.248 NA
ATOM     49  C   UNL A   1      42.514  27.663  30.300  1.00  0.00     0.031 C 
ATOM     50  C   UNL A   1      42.232  28.273  35.283  1.00  0.00     0.029 A 
ATOM     51  N   UNL A   1      44.138  27.452  34.447  1.00  0.00    -0.354 N 
ATOM     52  C   UNL A   1      44.654  26.860  30.210  1.00  0.00     0.074 A 
ATOM     53  C   UNL A   1      43.443  27.182  29.487  1.00  0.00     0.031 C 
ATOM     54  C   UNL A   1      43.049  28.003  36.318  1.00  0.00     0.029 A 
ATOM     55  C   UNL A   1      44.303  27.447  35.811  1.00  0.00     0.049 A 
ATOM     56  H   UNL A   1      44.837  27.157  33.819  1.00  0.00     0.167 HD
ATOM     57  C   UNL A   1      45.790  26.412  29.624  1.00  0.00     0.034 A 
ATOM     58  C   UNL A   1      45.345  27.040  36.564  1.00  0.00     0.034 A 
ATOM     59  C   UNL A   1      47.000  26.102  30.335  1.00  0.00     0.049 A 
ATOM     60  C   UNL A   1      46.600  26.546  35.888  1.00  0.00     0.074 A 
ATOM     61  C   UNL A   1      48.216  25.683  29.823  1.00  0.00     0.029 A 
ATOM     62  N   UNL A   1      47.147  26.168  31.711  1.00  0.00    -0.354 N 
ATOM     63  N   UNL A   1      46.865  26.446  34.608  1.00  0.00    -0.248 NA
ATOM     64  C   UNL A   1      47.718  26.153  36.762  1.00  0.00     0.031 C 
ATOM     65  C   UNL A   1      49.094  25.481  30.894  1.00  0.00     0.029 A 
ATOM     66  C   UNL A   1      48.431  25.794  32.069  1.00  0.00     0.049 A 
ATOM     67  H   UNL A   1      46.442  26.440  32.343  1.00  0.00     0.167 HD
ATOM     68  C   UNL A   1      48.188  26.020  34.522  1.00  0.00     0.074 A 
ATOM     69  C   UNL A   1      48.675  25.899  35.881  1.00  0.00     0.031 C 
ATOM     70  C   UNL A   1      48.928  25.742  33.420  1.00  0.00     0.034 A 
BRANCH  57  71
ATOM     71  C   UNL A   1      45.789  26.274  28.126  1.00  0.00     0.023 A 
ATOM     72  C   UNL A   1      46.083  27.398  27.328  1.00  0.00     0.012 A 
ATOM     73  C   UNL A   1      45.548  25.031  27.510  1.00  0.00     0.148 A 
ATOM     74  C   UNL A   1      46.109  27.296  25.938  1.00  0.00     0.002 A 
ATOM     75  C   UNL A   1      45.615  24.927  26.125  1.00  0.00     0.091 A 
ATOM     76  F   UNL A   1      45.245  23.980  28.285  1.00  0.00    -0.205 F 
ATOM     77  C   UNL A   1      45.886  26.059  25.338  1.00  0.00     0.022 A 
BRANCH  75  78
ATOM     78  S   UNL A   1      45.414  23.364  25.264  1.00  0.00     0.127 S 
ATOM     79  O   UNL A   1      43.961  23.209  25.270  1.00  0.00    -0.237 OA
ATOM     80  O   UNL A   1      45.990  23.656  23.951  1.00  0.00    -0.237 OA
ATOM     81  O   UNL A   1      46.155  22.381  26.043  1.00  0.00    -0.744 OA
ENDBRANCH  75  78
ENDBRANCH  57  71
BRANCH  58  82
ATOM     82  C   UNL A   1      45.277  27.139  38.050  1.00  0.00     0.023 A 
ATOM     83  C   UNL A   1      44.755  26.063  38.795  1.00  0.00     0.012 A 
ATOM     84  C   UNL A   1      45.730  28.287  38.728  1.00  0.00     0.148 A 
ATOM     85  C   UNL A   1      44.658  26.139  40.184  1.00  0.00     0.002 A 
ATOM     86  C   UNL A   1      45.679  28.337  40.116  1.00  0.00     0.091 A 
ATOM     87  F   UNL A   1      46.201  29.310  38.001  1.00  0.00    -0.205 F 
ATOM     88  C   UNL A   1      45.130  27.271  40.846  1.00  0.00     0.022 A 
BRANCH  86  89
ATOM     89  S   UNL A   1      46.373  29.702  41.055  1.00  0.00     0.127 S 
ATOM     90  O   UNL A   1      45.597  29.641  42.289  1.00  0.00    -0.237 OA
ATOM     91  O   UNL A   1      47.774  29.298  41.186  1.00  0.00    -0.237 OA
ATOM     92  O   UNL A   1      46.166  30.885  40.231  1.00  0.00    -0.744 OA
ENDBRANCH  86  89
ENDBRANCH  58  82
BRANCH  70  93
ATOM     93  C   UNL A   1      50.360  25.322  33.620  1.00  0.00     0.023 A 
ATOM     94  C   UNL A   1      51.353  26.297  33.842  1.00  0.00     0.012 A 
ATOM     95  C   UNL A   1      50.712  23.958  33.664  1.00  0.00     0.148 A 
ATOM     96  C   UNL A   1      52.678  25.922  34.069  1.00  0.00     0.002 A 
ATOM     97  C   UNL A   1      52.025  23.591  33.937  1.00  0.00     0.091 A 
ATOM     98  F   UNL A   1      49.760  23.043  33.430  1.00  0.00    -0.205 F 
ATOM     99  C   UNL A   1      53.011  24.571  34.129  1.00  0.00     0.022 A 
BRANCH  97 100
ATOM    100  S   UNL A   1      52.513  21.872  34.124  1.00  0.00     0.127 S 
ATOM    101  O   UNL A   1      53.967  21.981  34.208  1.00  0.00    -0.237 OA
ATOM    102  O   UNL A   1      51.858  21.490  35.376  1.00  0.00    -0.237 OA
ATOM    103  O   UNL A   1      51.997  21.186  32.946  1.00  0.00    -0.744 OA
ENDBRANCH  97 100
ENDBRANCH  70  93
ENDBRANCH  44  45
ENDBRANCH  37  39
ENDBRANCH  36  37
ENDBRANCH  35  36
ENDBRANCH  34  35
ENDBRANCH  33  34
ENDBRANCH  32  33
ENDBRANCH   1  32
TORSDOF 24
ENDMDL
MODEL 2
REMARK VINA RESULT:      -9.5      1.705      2.283
REMARK SMILES O=C(NNS(=O)(=O)c1cccc(C(=O)OCCOCCOCCOC(=O)c2ccc(-c3c4nc(c(-c5cccc(S(=O)(=O)[O-])c5F)c5ccc([nH]5)c(-c5cccc(S(=O)(=O)[O-])c5F)c5nc(c(-c6cccc(S(=O)(=O)[O-])c6F)c6ccc3[nH]6)C=C5)C=C4)cc2)c1)c1ccc2c(c1)OCO2
REMARK SMILES IDX 19 1 18 2 17 3 16 4 15 5 13 6 14 7 12 8 8 9 9 10 90 11 10 12
REMARK SMILES IDX 11 13 5 14 6 15 7 16 4 17 3 19 1 20 2 21 91 23 92 24 96 25
REMARK SMILES IDX 93 26 95 27 94 28 97 29 99 30 98 31 20 32 21 33 22 34 23 35
REMARK SMILES IDX 24 36 25 37 26 38 27 39 28 40 89 41 29 42 88 43 30 44 31 45
REMARK SMILES IDX 32 46 82 47 33 48 87 49 81 50 83 51 34 52 86 53 80 54 79 55
REMARK SMILES IDX 35 57 67 58 47 59 66 60 48 61 51 62 65 63 84 64 49 65 50 66
REMARK SMILES IDX 64 68 85 69 52 70 36 71 37 72 45 73 38 74 40 75 46 76 39 77
REMARK SMILES IDX 41 78 42 79 43 80 44 81 68 82 69 83 77 84 70 85 72 86 78 87
REMARK SMILES IDX 71 88 73 89 74 90 75 91 76 92 53 93 54 94 62 95 55 96 57 97
REMARK SMILES IDX 63 98 56 99 58 100 59 101 60 102 61 103
REMARK H PARENT 4 18 3 22 83 56 51 67
REMARK Flexibility Score: inf
ROOT
ATOM      1  C   UNL A   1      34.453  33.888  30.078  1.00  0.00     0.188 C 
ENDROOT
BRANCH   1   2
ATOM      2  O   UNL A   1      35.307  33.262  29.125  1.00  0.00    -0.376 OA
BRANCH   2   3
ATOM      3  C   UNL A   1      34.739  32.626  27.987  1.00  0.00     0.202 C 
BRANCH   3   4
ATOM      4  C   UNL A   1      34.608  31.100  28.012  1.00  0.00     0.261 C 
BRANCH   4   5
ATOM      5  O   UNL A   1      33.285  30.651  27.675  1.00  0.00    -0.460 OA
BRANCH   5   6
ATOM      6  C   UNL A   1      33.204  29.800  26.623  1.00  0.00     0.338 C 
ATOM      7  O   UNL A   1      33.884  28.811  26.416  1.00  0.00    -0.246 OA
BRANCH   6   8
ATOM      8  C   UNL A   1      32.020  30.153  25.810  1.00  0.00     0.061 A 
ATOM      9  C   UNL A   1      30.456  29.721  24.030  1.00  0.00     0.084 A 
ATOM     10  C   UNL A   1      29.848  30.963  24.239  1.00  0.00     0.022 A 
ATOM     11  C   UNL A   1      31.551  29.311  24.800  1.00  0.00     0.037 A 
ATOM     12  C   UNL A   1      30.324  31.796  25.252  1.00  0.00     0.002 A 
ATOM     13  C   UNL A   1      31.399  31.387  26.045  1.00  0.00     0.016 A 
BRANCH   9  14
ATOM     14  S   UNL A   1      29.793  28.615  22.817  1.00  0.00     0.257 S 
ATOM     15  O   UNL A   1      29.912  29.235  21.515  1.00  0.00    -0.205 OA
ATOM     16  O   UNL A   1      28.532  28.107  23.309  1.00  0.00    -0.205 OA
BRANCH  14  17
ATOM     17  N   UNL A   1      30.891  27.330  22.837  1.00  0.00    -0.123 NA
ATOM     18  H   UNL A   1      31.626  27.584  23.498  1.00  0.00     0.167 HD
BRANCH  17  19
ATOM     19  N   UNL A   1      31.552  26.914  21.626  1.00  0.00    -0.273 N 
ATOM     20  O   UNL A   1      33.192  25.730  20.596  1.00  0.00    -0.268 OA
ATOM     21  C   UNL A   1      32.421  25.851  21.543  1.00  0.00     0.266 C 
ATOM     22  H   UNL A   1      31.368  27.423  20.803  1.00  0.00     0.186 HD
BRANCH  21  23
ATOM     23  C   UNL A   1      32.348  24.779  22.564  1.00  0.00     0.045 A 
ATOM     24  C   UNL A   1      31.097  24.367  23.081  1.00  0.00     0.018 A 
ATOM     25  C   UNL A   1      33.517  24.075  22.877  1.00  0.00     0.064 A 
ATOM     26  C   UNL A   1      31.009  23.259  23.927  1.00  0.00     0.051 A 
ATOM     27  C   UNL A   1      33.391  22.974  23.696  1.00  0.00     0.166 A 
ATOM     28  C   UNL A   1      32.173  22.576  24.203  1.00  0.00     0.165 A 
ATOM     29  O   UNL A   1      34.400  22.139  24.063  1.00  0.00    -0.454 OA
ATOM     30  O   UNL A   1      32.268  21.440  24.945  1.00  0.00    -0.454 OA
ATOM     31  C   UNL A   1      33.658  21.106  24.743  1.00  0.00     0.468 C 
ENDBRANCH  21  23
ENDBRANCH  17  19
ENDBRANCH  14  17
ENDBRANCH   9  14
ENDBRANCH   6   8
ENDBRANCH   5   6
ENDBRANCH   4   5
ENDBRANCH   3   4
ENDBRANCH   2   3
ENDBRANCH   1   2
BRANCH   1  32
ATOM     32  C   UNL A   1      34.842  33.867  31.570  1.00  0.00     0.188 C 
BRANCH  32  33
ATOM     33  O   UNL A   1      36.234  33.747  31.813  1.00  0.00    -0.376 OA
BRANCH  33  34
ATOM     34  C   UNL A   1      36.638  32.610  32.562  1.00  0.00     0.202 C 
BRANCH  34  35
ATOM     35  C   UNL A   1      35.773  31.358  32.362  1.00  0.00     0.261 C 
BRANCH  35  36
ATOM     36  O   UNL A   1      36.502  30.137  32.145  1.00  0.00    -0.460 OA
BRANCH  36  37
ATOM     37  C   UNL A   1      37.403  30.134  31.138  1.00  0.00     0.338 C 
ATOM     38  O   UNL A   1      37.256  30.610  30.026  1.00  0.00    -0.246 OA
BRANCH  37  39
ATOM     39  C   UNL A   1      38.682  29.613  31.663  1.00  0.00     0.060 A 
ATOM     40  C   UNL A   1      39.805  30.449  31.654  1.00  0.00     0.016 A 
ATOM     41  C   UNL A   1      38.781  28.303  32.143  1.00  0.00     0.016 A 
ATOM     42  C   UNL A   1      41.041  29.959  32.084  1.00  0.00     0.010 A 
ATOM     43  C   UNL A   1      40.022  27.812  32.562  1.00  0.00     0.010 A 
ATOM     44  C   UNL A   1      41.165  28.626  32.498  1.00  0.00    -0.014 A 
BRANCH  44  45
ATOM     45  C   UNL A   1      42.517  28.043  32.696  1.00  0.00     0.031 A 
ATOM     46  C   UNL A   1      43.304  27.614  31.485  1.00  0.00     0.074 A 
ATOM     47  C   UNL A   1      43.050  27.906  33.924  1.00  0.00     0.049 A 
ATOM     48  N   UNL A   1      44.520  27.139  31.412  1.00  0.00    -0.248 NA
ATOM     49  C   UNL A   1      42.628  27.739  30.183  1.00  0.00     0.031 C 
ATOM     50  C   UNL A   1      42.388  28.257  35.179  1.00  0.00     0.029 A 
ATOM     51  N   UNL A   1      44.273  27.415  34.314  1.00  0.00    -0.354 N 
ATOM     52  C   UNL A   1      44.751  26.895  30.063  1.00  0.00     0.074 A 
ATOM     53  C   UNL A   1      43.542  27.255  29.355  1.00  0.00     0.031 C 
ATOM     54  C   UNL A   1      43.206  27.951  36.202  1.00  0.00     0.029 A 
ATOM     55  C   UNL A   1      44.446  27.380  35.677  1.00  0.00     0.049 A 
ATOM     56  H   UNL A   1      44.961  27.118  33.676  1.00  0.00     0.167 HD
ATOM     57  C   UNL A   1      45.874  26.437  29.461  1.00  0.00     0.034 A 
ATOM     58  C   UNL A   1      45.485  26.938  36.415  1.00  0.00     0.034 A 
ATOM     59  C   UNL A   1      47.082  26.089  30.158  1.00  0.00     0.049 A 
ATOM     60  C   UNL A   1      46.725  26.433  35.721  1.00  0.00     0.074 A 
ATOM     61  C   UNL A   1      48.286  25.655  29.631  1.00  0.00     0.029 A 
ATOM     62  N   UNL A   1      47.239  26.125  31.534  1.00  0.00    -0.354 N 
ATOM     63  N   UNL A   1      46.980  26.352  34.437  1.00  0.00    -0.248 NA
ATOM     64  C   UNL A   1      47.840  26.000  36.580  1.00  0.00     0.031 C 
ATOM     65  C   UNL A   1      49.166  25.415  30.691  1.00  0.00     0.029 A 
ATOM     66  C   UNL A   1      48.517  25.719  31.876  1.00  0.00     0.049 A 
ATOM     67  H   UNL A   1      46.543  26.398  32.176  1.00  0.00     0.167 HD
ATOM     68  C   UNL A   1      48.293  25.902  34.335  1.00  0.00     0.074 A 
ATOM     69  C   UNL A   1      48.787  25.744  35.688  1.00  0.00     0.031 C 
ATOM     70  C   UNL A   1      49.021  25.631  33.222  1.00  0.00     0.034 A 
BRANCH  57  71
ATOM     71  C   UNL A   1      45.861  26.327  27.961  1.00  0.00     0.023 A 
ATOM     72  C   UNL A   1      45.155  25.270  27.351  1.00  0.00     0.012 A 
ATOM     73  C   UNL A   1      46.499  27.289  27.155  1.00  0.00     0.148 A 
ATOM     74  C   UNL A   1      45.109  25.154  25.963  1.00  0.00     0.002 A 
ATOM     75  C   UNL A   1      46.414  27.190  25.771  1.00  0.00     0.091 A 
ATOM     76  F   UNL A   1      47.187  28.272  27.754  1.00  0.00    -0.205 F 
ATOM     77  C   UNL A   1      45.729  26.119  25.174  1.00  0.00     0.022 A 
BRANCH  75  78
ATOM     78  S   UNL A   1      47.119  28.423  24.670  1.00  0.00     0.127 S 
ATOM     79  O   UNL A   1      46.736  27.902  23.360  1.00  0.00    -0.237 OA
ATOM     80  O   UNL A   1      46.410  29.639  25.074  1.00  0.00    -0.237 OA
ATOM     81  O   UNL A   1      48.548  28.437  24.949  1.00  0.00    -0.744 OA
ENDBRANCH  75  78
ENDBRANCH  57  71
BRANCH  58  82
ATOM     82  C   UNL A   1      45.427  27.010  37.903  1.00  0.00     0.023 A 
ATOM     83  C   UNL A   1      44.979  25.893  38.636  1.00  0.00     0.012 A 
ATOM     84  C   UNL A   1      45.819  28.172  38.595  1.00  0.00     0.148 A 
ATOM     85  C   UNL A   1      44.894  25.942  40.027  1.00  0.00     0.002 A 
ATOM     86  C   UNL A   1      45.781  28.196  39.984  1.00  0.00     0.091 A 
ATOM     87  F   UNL A   1      46.220  29.232  37.880  1.00  0.00    -0.205 F 
ATOM     88  C   UNL A   1      45.305  27.089  40.702  1.00  0.00     0.022 A 
BRANCH  86  89
ATOM     89  S   UNL A   1      46.403  29.586  40.938  1.00  0.00     0.127 S 
ATOM     90  O   UNL A   1      47.569  29.986  40.157  1.00  0.00    -0.237 OA
ATOM     91  O   UNL A   1      45.275  30.518  40.885  1.00  0.00    -0.237 OA
ATOM     92  O   UNL A   1      46.679  29.054  42.265  1.00  0.00    -0.744 OA
ENDBRANCH  86  89
ENDBRANCH  58  82
BRANCH  70  93
ATOM     93  C   UNL A   1      50.446  25.179  33.406  1.00  0.00     0.023 A 
ATOM     94  C   UNL A   1      51.455  26.127  33.665  1.00  0.00     0.012 A 
ATOM     95  C   UNL A   1      50.775  23.809  33.395  1.00  0.00     0.148 A 
ATOM     96  C   UNL A   1      52.774  25.721  33.877  1.00  0.00     0.002 A 
ATOM     97  C   UNL A   1      52.081  23.408  33.653  1.00  0.00     0.091 A 
ATOM     98  F   UNL A   1      49.807  22.919  33.127  1.00  0.00    -0.205 F 
ATOM     99  C   UNL A   1      53.083  24.363  33.883  1.00  0.00     0.022 A 
BRANCH  97 100
ATOM    100  S   UNL A   1      52.539  21.675  33.772  1.00  0.00     0.127 S 
ATOM    101  O   UNL A   1      52.171  21.362  35.151  1.00  0.00    -0.237 OA
ATOM    102  O   UNL A   1      51.686  21.051  32.759  1.00  0.00    -0.237 OA
ATOM    103  O   UNL A   1      53.963  21.622  33.470  1.00  0.00    -0.744 OA
ENDBRANCH  97 100
ENDBRANCH  70  93
ENDBRANCH  44  45
ENDBRANCH  37  39
ENDBRANCH  36  37
ENDBRANCH  35  36
ENDBRANCH  34  35
ENDBRANCH  33  34
ENDBRANCH  32  33
ENDBRANCH   1  32
TORSDOF 24
ENDMDL
MODEL 3
REMARK VINA RESULT:      -9.4      4.283      6.657
REMARK SMILES O=C(NNS(=O)(=O)c1cccc(C(=O)OCCOCCOCCOC(=O)c2ccc(-c3c4nc(c(-c5cccc(S(=O)(=O)[O-])c5F)c5ccc([nH]5)c(-c5cccc(S(=O)(=O)[O-])c5F)c5nc(c(-c6cccc(S(=O)(=O)[O-])c6F)c6ccc3[nH]6)C=C5)C=C4)cc2)c1)c1ccc2c(c1)OCO2
REMARK SMILES IDX 19 1 18 2 17 3 16 4 15 5 13 6 14 7 12 8 8 9 9 10 90 11 10 12
REMARK SMILES IDX 11 13 5 14 6 15 7 16 4 17 3 19 1 20 2 21 91 23 92 24 96 25
REMARK SMILES IDX 93 26 95 27 94 28 97 29 99 30 98 31 20 32 21 33 22 34 23 35
REMARK SMILES IDX 24 36 25 37 26 38 27 39 28 40 89 41 29 42 88 43 30 44 31 45
REMARK SMILES IDX 32 46 82 47 33 48 87 49 81 50 83 51 34 52 86 53 80 54 79 55
REMARK SMILES IDX 35 57 67 58 47 59 66 60 48 61 51 62 65 63 84 64 49 65 50 66
REMARK SMILES IDX 64 68 85 69 52 70 36 71 37 72 45 73 38 74 40 75 46 76 39 77
REMARK SMILES IDX 41 78 42 79 43 80 44 81 68 82 69 83 77 84 70 85 72 86 78 87
REMARK SMILES IDX 71 88 73 89 74 90 75 91 76 92 53 93 54 94 62 95 55 96 57 97
REMARK SMILES IDX 63 98 56 99 58 100 59 101 60 102 61 103
REMARK H PARENT 4 18 3 22 83 56 51 67
REMARK Flexibility Score: inf
ROOT
ATOM      1  C   UNL A   1      36.978  30.196  28.450  1.00  0.00     0.188 C 
ENDROOT
BRANCH   1   2
ATOM      2  O   UNL A   1      36.139  29.653  27.436  1.00  0.00    -0.376 OA
BRANCH   2   3
ATOM      3  C   UNL A   1      34.798  29.299  27.752  1.00  0.00     0.202 C 
BRANCH   3   4
ATOM      4  C   UNL A   1      33.715  29.604  26.712  1.00  0.00     0.261 C 
BRANCH   4   5
ATOM      5  O   UNL A   1      32.757  28.541  26.581  1.00  0.00    -0.460 OA
BRANCH   5   6
ATOM      6  C   UNL A   1      31.768  28.750  25.678  1.00  0.00     0.338 C 
ATOM      7  O   UNL A   1      31.430  29.808  25.179  1.00  0.00    -0.246 OA
BRANCH   6   8
ATOM      8  C   UNL A   1      31.238  27.442  25.236  1.00  0.00     0.061 A 
ATOM      9  C   UNL A   1      31.096  25.042  25.391  1.00  0.00     0.084 A 
ATOM     10  C   UNL A   1      30.286  24.999  24.252  1.00  0.00     0.022 A 
ATOM     11  C   UNL A   1      31.589  26.256  25.885  1.00  0.00     0.037 A 
ATOM     12  C   UNL A   1      29.940  26.189  23.613  1.00  0.00     0.002 A 
ATOM     13  C   UNL A   1      30.403  27.409  24.111  1.00  0.00     0.016 A 
BRANCH   9  14
ATOM     14  S   UNL A   1      31.455  23.546  26.269  1.00  0.00     0.257 S 
ATOM     15  O   UNL A   1      30.420  22.579  25.971  1.00  0.00    -0.205 OA
ATOM     16  O   UNL A   1      31.809  23.892  27.626  1.00  0.00    -0.205 OA
BRANCH  14  17
ATOM     17  N   UNL A   1      32.860  22.991  25.511  1.00  0.00    -0.123 NA
ATOM     18  H   UNL A   1      33.637  23.223  26.130  1.00  0.00     0.167 HD
BRANCH  17  19
ATOM     19  N   UNL A   1      33.221  23.468  24.199  1.00  0.00    -0.273 N 
ATOM     20  O   UNL A   1      34.720  24.474  22.825  1.00  0.00    -0.268 OA
ATOM     21  C   UNL A   1      34.503  23.784  23.816  1.00  0.00     0.266 C 
ATOM     22  H   UNL A   1      32.502  23.573  23.534  1.00  0.00     0.186 HD
BRANCH  21  23
ATOM     23  C   UNL A   1      35.644  23.191  24.553  1.00  0.00     0.045 A 
ATOM     24  C   UNL A   1      36.064  21.868  24.276  1.00  0.00     0.018 A 
ATOM     25  C   UNL A   1      36.393  24.015  25.399  1.00  0.00     0.064 A 
ATOM     26  C   UNL A   1      37.227  21.357  24.857  1.00  0.00     0.051 A 
ATOM     27  C   UNL A   1      37.547  23.487  25.936  1.00  0.00     0.166 A 
ATOM     28  C   UNL A   1      37.954  22.198  25.671  1.00  0.00     0.165 A 
ATOM     29  O   UNL A   1      38.428  24.151  26.733  1.00  0.00    -0.454 OA
ATOM     30  O   UNL A   1      39.141  21.898  26.262  1.00  0.00    -0.454 OA
ATOM     31  C   UNL A   1      39.490  23.181  26.824  1.00  0.00     0.468 C 
ENDBRANCH  21  23
ENDBRANCH  17  19
ENDBRANCH  14  17
ENDBRANCH   9  14
ENDBRANCH   6   8
ENDBRANCH   5   6
ENDBRANCH   4   5
ENDBRANCH   3   4
ENDBRANCH   2   3
ENDBRANCH   1   2
BRANCH   1  32
ATOM     32  C   UNL A   1      37.152  31.726  28.547  1.00  0.00     0.188 C 
BRANCH  32  33
ATOM     33  O   UNL A   1      35.986  32.426  28.948  1.00  0.00    -0.376 OA
BRANCH  33  34
ATOM     34  C   UNL A   1      35.507  33.406  28.039  1.00  0.00     0.202 C 
BRANCH  34  35
ATOM     35  C   UNL A   1      34.226  34.131  28.476  1.00  0.00     0.261 C 
BRANCH  35  36
ATOM     36  O   UNL A   1      33.643  33.659  29.704  1.00  0.00    -0.460 OA
BRANCH  36  37
ATOM     37  C   UNL A   1      33.635  34.519  30.746  1.00  0.00     0.338 C 
ATOM     38  O   UNL A   1      32.810  35.388  30.969  1.00  0.00    -0.246 OA
BRANCH  37  39
ATOM     39  C   UNL A   1      34.703  34.117  31.686  1.00  0.00     0.060 A 
ATOM     40  C   UNL A   1      35.799  34.970  31.863  1.00  0.00     0.016 A 
ATOM     41  C   UNL A   1      34.635  32.901  32.372  1.00  0.00     0.016 A 
ATOM     42  C   UNL A   1      36.853  34.583  32.696  1.00  0.00     0.010 A 
ATOM     43  C   UNL A   1      35.696  32.512  33.196  1.00  0.00     0.010 A 
ATOM     44  C   UNL A   1      36.828  33.334  33.331  1.00  0.00    -0.014 A 
BRANCH  44  45
ATOM     45  C   UNL A   1      38.056  32.823  33.991  1.00  0.00     0.031 A 
ATOM     46  C   UNL A   1      38.985  31.937  33.202  1.00  0.00     0.074 A 
ATOM     47  C   UNL A   1      38.357  33.145  35.263  1.00  0.00     0.049 A 
ATOM     48  N   UNL A   1      40.138  31.427  33.550  1.00  0.00    -0.248 NA
ATOM     49  C   UNL A   1      38.556  31.581  31.840  1.00  0.00     0.031 C 
ATOM     50  C   UNL A   1      37.534  33.970  36.144  1.00  0.00     0.029 A 
ATOM     51  N   UNL A   1      39.437  32.797  36.037  1.00  0.00    -0.354 N 
ATOM     52  C   UNL A   1      40.566  30.680  32.458  1.00  0.00     0.074 A 
ATOM     53  C   UNL A   1      39.540  30.786  31.444  1.00  0.00     0.031 C 
ATOM     54  C   UNL A   1      38.130  34.049  37.348  1.00  0.00     0.029 A 
ATOM     55  C   UNL A   1      39.372  33.277  37.324  1.00  0.00     0.049 A 
ATOM     56  H   UNL A   1      40.187  32.255  35.703  1.00  0.00     0.167 HD
ATOM     57  C   UNL A   1      41.719  29.988  32.300  1.00  0.00     0.034 A 
ATOM     58  C   UNL A   1      40.218  33.112  38.361  1.00  0.00     0.034 A 
ATOM     59  C   UNL A   1      42.748  29.888  33.299  1.00  0.00     0.049 A 
ATOM     60  C   UNL A   1      41.497  32.337  38.160  1.00  0.00     0.074 A 
ATOM     61  C   UNL A   1      43.970  29.244  33.216  1.00  0.00     0.029 A 
ATOM     62  N   UNL A   1      42.673  30.440  34.568  1.00  0.00    -0.354 N 
ATOM     63  N   UNL A   1      41.954  31.765  37.073  1.00  0.00    -0.248 NA
ATOM     64  C   UNL A   1      42.397  32.225  39.319  1.00  0.00     0.031 C 
ATOM     65  C   UNL A   1      44.628  29.395  34.441  1.00  0.00     0.029 A 
ATOM     66  C   UNL A   1      43.825  30.150  35.280  1.00  0.00     0.049 A 
ATOM     67  H   UNL A   1      41.913  30.962  34.914  1.00  0.00     0.167 HD
ATOM     68  C   UNL A   1      43.210  31.263  37.403  1.00  0.00     0.074 A 
ATOM     69  C   UNL A   1      43.448  31.615  38.788  1.00  0.00     0.031 C 
ATOM     70  C   UNL A   1      44.081  30.563  36.635  1.00  0.00     0.034 A 
BRANCH  57  71
ATOM     71  C   UNL A   1      41.948  29.316  30.974  1.00  0.00     0.023 A 
ATOM     72  C   UNL A   1      41.228  28.145  30.659  1.00  0.00     0.012 A 
ATOM     73  C   UNL A   1      42.830  29.863  30.023  1.00  0.00     0.148 A 
ATOM     74  C   UNL A   1      41.404  27.511  29.430  1.00  0.00     0.002 A 
ATOM     75  C   UNL A   1      42.971  29.248  28.784  1.00  0.00     0.091 A 
ATOM     76  F   UNL A   1      43.525  30.961  30.351  1.00  0.00    -0.205 F 
ATOM     77  C   UNL A   1      42.266  28.068  28.489  1.00  0.00     0.022 A 
BRANCH  75  78
ATOM     78  S   UNL A   1      44.002  29.929  27.480  1.00  0.00     0.127 S 
ATOM     79  O   UNL A   1      45.311  29.966  28.129  1.00  0.00    -0.237 OA
ATOM     80  O   UNL A   1      43.873  28.923  26.425  1.00  0.00    -0.237 OA
ATOM     81  O   UNL A   1      43.425  31.225  27.152  1.00  0.00    -0.744 OA
ENDBRANCH  75  78
ENDBRANCH  57  71
BRANCH  58  82
ATOM     82  C   UNL A   1      39.918  33.748  39.676  1.00  0.00     0.023 A 
ATOM     83  C   UNL A   1      40.535  34.969  40.014  1.00  0.00     0.012 A 
ATOM     84  C   UNL A   1      39.024  33.156  40.588  1.00  0.00     0.148 A 
ATOM     85  C   UNL A   1      40.289  35.573  41.248  1.00  0.00     0.002 A 
ATOM     86  C   UNL A   1      38.743  33.788  41.794  1.00  0.00     0.091 A 
ATOM     87  F   UNL A   1      38.466  31.982  40.259  1.00  0.00    -0.205 F 
ATOM     88  C   UNL A   1      39.386  34.989  42.132  1.00  0.00     0.022 A 
BRANCH  86  89
ATOM     89  S   UNL A   1      37.505  33.169  42.938  1.00  0.00     0.127 S 
ATOM     90  O   UNL A   1      38.212  32.062  43.574  1.00  0.00    -0.237 OA
ATOM     91  O   UNL A   1      37.279  34.333  43.798  1.00  0.00    -0.237 OA
ATOM     92  O   UNL A   1      36.361  32.804  42.112  1.00  0.00    -0.744 OA
ENDBRANCH  86  89
ENDBRANCH  58  82
BRANCH  70  93
ATOM     93  C   UNL A   1      45.398  30.165  37.248  1.00  0.00     0.023 A 
ATOM     94  C   UNL A   1      46.463  31.087  37.285  1.00  0.00     0.012 A 
ATOM     95  C   UNL A   1      45.559  28.902  37.853  1.00  0.00     0.148 A 
ATOM     96  C   UNL A   1      47.676  30.747  37.885  1.00  0.00     0.002 A 
ATOM     97  C   UNL A   1      46.754  28.587  38.490  1.00  0.00     0.091 A 
ATOM     98  F   UNL A   1      44.544  28.028  37.791  1.00  0.00    -0.205 F 
ATOM     99  C   UNL A   1      47.817  29.504  38.497  1.00  0.00     0.022 A 
BRANCH  97 100
ATOM    100  S   UNL A   1      46.979  27.044  39.382  1.00  0.00     0.127 S 
ATOM    101  O   UNL A   1      46.974  26.067  38.295  1.00  0.00    -0.237 OA
ATOM    102  O   UNL A   1      48.281  27.235  40.022  1.00  0.00    -0.237 OA
ATOM    103  O   UNL A   1      45.861  26.960  40.312  1.00  0.00    -0.744 OA
ENDBRANCH  97 100
ENDBRANCH  70  93
ENDBRANCH  44  45
ENDBRANCH  37  39
ENDBRANCH  36  37
ENDBRANCH  35  36
ENDBRANCH  34  35
ENDBRANCH  33  34
ENDBRANCH  32  33
ENDBRANCH   1  32
TORSDOF 24
ENDMDL
