MODEL 1
REMARK VINA RESULT:      -9.4      0.000      0.000
REMARK SMILES C[C@H](C[N@H+](C)[C@H]1CC[C@H]([NH3+])CC1)C(=O)OCCOCCOCCOC(=O)c1ccc(-c2c3nc(c(-c4cccc(S(=O)(=O)[O-])c4F)c4ccc([nH]4)c(-c4cccc(S(=O)(=O)[O-])c4F)c4nc(c(-c5cccc(S(=O)(=O)[O-])c5F)c5ccc2[nH]5)C=C4)C=C3)cc1
REMARK SMILES IDX 19 1 18 2 17 3 16 4 15 5 13 6 14 7 2 8 1 9 3 10 4 11 5 12
REMARK SMILES IDX 6 14 7 15 12 16 8 17 11 18 9 19 10 20 20 24 21 25 22 26
REMARK SMILES IDX 23 27 24 28 25 29 26 30 27 31 28 32 89 33 29 34 88 35 30 36
REMARK SMILES IDX 31 37 32 38 82 39 33 40 87 41 81 42 83 43 34 44 86 45 80 46
REMARK SMILES IDX 79 47 35 49 67 50 47 51 66 52 48 53 51 54 65 55 84 56 49 57
REMARK SMILES IDX 50 58 64 60 85 61 52 62 36 63 37 64 45 65 38 66 40 67 46 68
REMARK SMILES IDX 39 69 41 70 42 71 43 72 44 73 68 74 69 75 77 76 70 77 72 78
REMARK SMILES IDX 78 79 71 80 73 81 74 82 75 83 76 84 53 85 54 86 62 87 55 88
REMARK SMILES IDX 57 89 63 90 56 91 58 92 59 93 60 94 61 95
REMARK H PARENT 4 13 10 21 10 22 10 23 83 48 51 59
REMARK Flexibility Score: inf
ROOT
ATOM      1  C   UNL A   1      34.957  20.367  25.061  1.00  0.00     0.188 C 
ENDROOT
BRANCH   1   2
ATOM      2  O   UNL A   1      33.889  20.430  24.124  1.00  0.00    -0.376 OA
BRANCH   2   3
ATOM      3  C   UNL A   1      32.826  21.336  24.411  1.00  0.00     0.202 C 
BRANCH   3   4
ATOM      4  C   UNL A   1      32.198  22.048  23.206  1.00  0.00     0.261 C 
BRANCH   4   5
ATOM      5  O   UNL A   1      33.210  22.727  22.431  1.00  0.00    -0.463 OA
BRANCH   5   6
ATOM      6  C   UNL A   1      33.413  24.041  22.699  1.00  0.00     0.314 C 
ATOM      7  O   UNL A   1      34.504  24.494  23.024  1.00  0.00    -0.252 OA
BRANCH   6   8
ATOM      8  C   UNL A   1      32.163  24.898  22.440  1.00  0.00     0.151 C 
ATOM      9  C   UNL A   1      32.355  25.702  21.154  1.00  0.00     0.026 C 
BRANCH   8  10
ATOM     10  C   UNL A   1      31.579  25.783  23.578  1.00  0.00     0.277 C 
BRANCH  10  11
ATOM     11  N   UNL A   1      32.044  25.758  24.971  1.00  0.00    -0.334 N 
ATOM     12  C   UNL A   1      31.442  24.740  25.807  1.00  0.00     0.332 C 
ATOM     13  H   UNL A   1      32.998  25.399  24.927  1.00  0.00     0.348 HD
BRANCH  11  14
ATOM     14  C   UNL A   1      32.256  27.078  25.550  1.00  0.00     0.184 C 
ATOM     15  C   UNL A   1      32.070  28.209  24.530  1.00  0.00     0.071 C 
ATOM     16  C   UNL A   1      33.601  27.273  26.261  1.00  0.00     0.071 C 
ATOM     17  C   UNL A   1      31.964  29.535  25.295  1.00  0.00     0.071 C 
ATOM     18  C   UNL A   1      33.588  28.575  27.052  1.00  0.00     0.071 C 
ATOM     19  C   UNL A   1      33.171  29.788  26.211  1.00  0.00     0.181 C 
BRANCH  19  20
ATOM     20  N   UNL A   1      32.886  30.907  27.114  1.00  0.00    -0.355 N 
ATOM     21  H   UNL A   1      31.975  30.768  27.552  1.00  0.00     0.344 HD
ATOM     22  H   UNL A   1      32.878  31.778  26.584  1.00  0.00     0.344 HD
ATOM     23  H   UNL A   1      33.607  30.955  27.835  1.00  0.00     0.344 HD
ENDBRANCH  19  20
ENDBRANCH  11  14
ENDBRANCH  10  11
ENDBRANCH   8  10
ENDBRANCH   6   8
ENDBRANCH   5   6
ENDBRANCH   4   5
ENDBRANCH   3   4
ENDBRANCH   2   3
ENDBRANCH   1   2
BRANCH   1  24
ATOM     24  C   UNL A   1      36.025  21.469  24.987  1.00  0.00     0.188 C 
BRANCH  24  25
ATOM     25  O   UNL A   1      37.305  21.040  24.543  1.00  0.00    -0.376 OA
BRANCH  25  26
ATOM     26  C   UNL A   1      38.304  20.984  25.558  1.00  0.00     0.202 C 
BRANCH  26  27
ATOM     27  C   UNL A   1      39.223  19.755  25.471  1.00  0.00     0.261 C 
BRANCH  27  28
ATOM     28  O   UNL A   1      40.214  19.682  26.511  1.00  0.00    -0.460 OA
BRANCH  28  29
ATOM     29  C   UNL A   1      41.467  20.090  26.201  1.00  0.00     0.338 C 
ATOM     30  O   UNL A   1      42.253  19.524  25.460  1.00  0.00    -0.246 OA
BRANCH  29  31
ATOM     31  C   UNL A   1      41.599  21.497  26.665  1.00  0.00     0.060 A 
ATOM     32  C   UNL A   1      41.385  22.524  25.732  1.00  0.00     0.016 A 
ATOM     33  C   UNL A   1      41.783  21.806  28.017  1.00  0.00     0.016 A 
ATOM     34  C   UNL A   1      41.378  23.857  26.145  1.00  0.00     0.010 A 
ATOM     35  C   UNL A   1      41.790  23.143  28.429  1.00  0.00     0.010 A 
ATOM     36  C   UNL A   1      41.624  24.174  27.488  1.00  0.00    -0.014 A 
BRANCH  36  37
ATOM     37  C   UNL A   1      42.014  25.561  27.838  1.00  0.00     0.031 A 
ATOM     38  C   UNL A   1      43.420  25.975  27.493  1.00  0.00     0.074 A 
ATOM     39  C   UNL A   1      41.171  26.431  28.423  1.00  0.00     0.049 A 
ATOM     40  N   UNL A   1      44.007  27.132  27.644  1.00  0.00    -0.248 NA
ATOM     41  C   UNL A   1      44.279  24.938  26.892  1.00  0.00     0.031 C 
ATOM     42  C   UNL A   1      39.796  26.150  28.825  1.00  0.00     0.029 A 
ATOM     43  N   UNL A   1      41.371  27.737  28.798  1.00  0.00    -0.354 N 
ATOM     44  C   UNL A   1      45.297  26.961  27.157  1.00  0.00     0.074 A 
ATOM     45  C   UNL A   1      45.420  25.586  26.735  1.00  0.00     0.031 C 
ATOM     46  C   UNL A   1      39.284  27.244  29.423  1.00  0.00     0.029 A 
ATOM     47  C   UNL A   1      40.296  28.300  29.446  1.00  0.00     0.049 A 
ATOM     48  H   UNL A   1      42.208  28.226  28.621  1.00  0.00     0.167 HD
ATOM     49  C   UNL A   1      46.288  27.873  27.038  1.00  0.00     0.034 A 
ATOM     50  C   UNL A   1      40.155  29.524  29.998  1.00  0.00     0.034 A 
ATOM     51  C   UNL A   1      46.179  29.236  27.469  1.00  0.00     0.049 A 
ATOM     52  C   UNL A   1      41.287  30.519  29.879  1.00  0.00     0.074 A 
ATOM     53  C   UNL A   1      47.126  30.240  27.397  1.00  0.00     0.029 A 
ATOM     54  N   UNL A   1      45.056  29.782  28.067  1.00  0.00    -0.354 N 
ATOM     55  N   UNL A   1      42.453  30.383  29.293  1.00  0.00    -0.248 NA
ATOM     56  C   UNL A   1      41.065  31.852  30.461  1.00  0.00     0.031 C 
ATOM     57  C   UNL A   1      46.576  31.396  27.964  1.00  0.00     0.029 A 
ATOM     58  C   UNL A   1      45.282  31.112  28.369  1.00  0.00     0.049 A 
ATOM     59  H   UNL A   1      44.219  29.296  28.251  1.00  0.00     0.167 HD
ATOM     60  C   UNL A   1      43.087  31.617  29.406  1.00  0.00     0.074 A 
ATOM     61  C   UNL A   1      42.164  32.496  30.093  1.00  0.00     0.031 C 
ATOM     62  C   UNL A   1      44.327  31.988  28.998  1.00  0.00     0.034 A 
BRANCH  49  63
ATOM     63  C   UNL A   1      47.557  27.418  26.376  1.00  0.00     0.023 A 
ATOM     64  C   UNL A   1      48.566  26.824  27.163  1.00  0.00     0.012 A 
ATOM     65  C   UNL A   1      47.753  27.561  24.991  1.00  0.00     0.148 A 
ATOM     66  C   UNL A   1      49.763  26.406  26.587  1.00  0.00     0.002 A 
ATOM     67  C   UNL A   1      48.933  27.106  24.416  1.00  0.00     0.091 A 
ATOM     68  F   UNL A   1      46.795  28.159  24.269  1.00  0.00    -0.205 F 
ATOM     69  C   UNL A   1      49.943  26.538  25.213  1.00  0.00     0.022 A 
BRANCH  67  70
ATOM     70  S   UNL A   1      49.237  27.173  22.647  1.00  0.00     0.127 S 
ATOM     71  O   UNL A   1      50.683  26.965  22.590  1.00  0.00    -0.237 OA
ATOM     72  O   UNL A   1      48.439  26.049  22.157  1.00  0.00    -0.237 OA
ATOM     73  O   UNL A   1      48.777  28.483  22.210  1.00  0.00    -0.744 OA
ENDBRANCH  67  70
ENDBRANCH  49  63
BRANCH  50  74
ATOM     74  C   UNL A   1      38.885  29.904  30.681  1.00  0.00     0.023 A 
ATOM     75  C   UNL A   1      38.624  29.436  31.985  1.00  0.00     0.012 A 
ATOM     76  C   UNL A   1      37.924  30.709  30.040  1.00  0.00     0.148 A 
ATOM     77  C   UNL A   1      37.417  29.731  32.621  1.00  0.00     0.002 A 
ATOM     78  C   UNL A   1      36.745  31.043  30.699  1.00  0.00     0.091 A 
ATOM     79  F   UNL A   1      38.174  31.125  28.790  1.00  0.00    -0.205 F 
ATOM     80  C   UNL A   1      36.482  30.541  31.983  1.00  0.00     0.022 A 
BRANCH  78  81
ATOM     81  S   UNL A   1      35.541  32.175  29.994  1.00  0.00     0.127 S 
ATOM     82  O   UNL A   1      35.100  31.444  28.809  1.00  0.00    -0.237 OA
ATOM     83  O   UNL A   1      34.547  32.268  31.064  1.00  0.00    -0.237 OA
ATOM     84  O   UNL A   1      36.270  33.411  29.747  1.00  0.00    -0.744 OA
ENDBRANCH  78  81
ENDBRANCH  50  74
BRANCH  62  85
ATOM     85  C   UNL A   1      44.753  33.411  29.249  1.00  0.00     0.023 A 
ATOM     86  C   UNL A   1      44.416  34.415  28.321  1.00  0.00     0.012 A 
ATOM     87  C   UNL A   1      45.412  33.765  30.442  1.00  0.00     0.148 A 
ATOM     88  C   UNL A   1      44.760  35.746  28.560  1.00  0.00     0.002 A 
ATOM     89  C   UNL A   1      45.711  35.099  30.696  1.00  0.00     0.091 A 
ATOM     90  F   UNL A   1      45.740  32.793  31.307  1.00  0.00    -0.205 F 
ATOM     91  C   UNL A   1      45.396  36.089  29.751  1.00  0.00     0.022 A 
BRANCH  89  92
ATOM     92  S   UNL A   1      46.440  35.635  32.248  1.00  0.00     0.127 S 
ATOM     93  O   UNL A   1      47.086  36.887  31.858  1.00  0.00    -0.237 OA
ATOM     94  O   UNL A   1      45.266  35.797  33.108  1.00  0.00    -0.237 OA
ATOM     95  O   UNL A   1      47.337  34.562  32.655  1.00  0.00    -0.744 OA
ENDBRANCH  89  92
ENDBRANCH  62  85
ENDBRANCH  36  37
ENDBRANCH  29  31
ENDBRANCH  28  29
ENDBRANCH  27  28
ENDBRANCH  26  27
ENDBRANCH  25  26
ENDBRANCH  24  25
ENDBRANCH   1  24
TORSDOF 24
ENDMDL
MODEL 2
REMARK VINA RESULT:      -9.2      5.319     12.354
REMARK SMILES C[C@H](C[N@H+](C)[C@H]1CC[C@H]([NH3+])CC1)C(=O)OCCOCCOCCOC(=O)c1ccc(-c2c3nc(c(-c4cccc(S(=O)(=O)[O-])c4F)c4ccc([nH]4)c(-c4cccc(S(=O)(=O)[O-])c4F)c4nc(c(-c5cccc(S(=O)(=O)[O-])c5F)c5ccc2[nH]5)C=C4)C=C3)cc1
REMARK SMILES IDX 19 1 18 2 17 3 16 4 15 5 13 6 14 7 2 8 1 9 3 10 4 11 5 12
REMARK SMILES IDX 6 14 7 15 12 16 8 17 11 18 9 19 10 20 20 24 21 25 22 26
REMARK SMILES IDX 23 27 24 28 25 29 26 30 27 31 28 32 89 33 29 34 88 35 30 36
REMARK SMILES IDX 31 37 32 38 82 39 33 40 87 41 81 42 83 43 34 44 86 45 80 46
REMARK SMILES IDX 79 47 35 49 67 50 47 51 66 52 48 53 51 54 65 55 84 56 49 57
REMARK SMILES IDX 50 58 64 60 85 61 52 62 36 63 37 64 45 65 38 66 40 67 46 68
REMARK SMILES IDX 39 69 41 70 42 71 43 72 44 73 68 74 69 75 77 76 70 77 72 78
REMARK SMILES IDX 78 79 71 80 73 81 74 82 75 83 76 84 53 85 54 86 62 87 55 88
REMARK SMILES IDX 57 89 63 90 56 91 58 92 59 93 60 94 61 95
REMARK H PARENT 4 13 10 21 10 22 10 23 83 48 51 59
REMARK Flexibility Score: inf
ROOT
ATOM      1  C   UNL A   1      33.294  35.999  32.497  1.00  0.00     0.188 C 
ENDROOT
BRANCH   1   2
ATOM      2  O   UNL A   1      34.156  34.882  32.673  1.00  0.00    -0.376 OA
BRANCH   2   3
ATOM      3  C   UNL A   1      35.538  35.155  32.892  1.00  0.00     0.202 C 
BRANCH   3   4
ATOM      4  C   UNL A   1      36.448  33.936  33.085  1.00  0.00     0.261 C 
BRANCH   4   5
ATOM      5  O   UNL A   1      37.785  34.216  32.616  1.00  0.00    -0.463 OA
BRANCH   5   6
ATOM      6  C   UNL A   1      38.702  34.580  33.547  1.00  0.00     0.314 C 
ATOM      7  O   UNL A   1      38.396  34.963  34.669  1.00  0.00    -0.252 OA
BRANCH   6   8
ATOM      8  C   UNL A   1      40.147  34.347  33.076  1.00  0.00     0.151 C 
ATOM      9  C   UNL A   1      41.088  35.273  33.847  1.00  0.00     0.026 C 
BRANCH   8  10
ATOM     10  C   UNL A   1      40.477  34.342  31.557  1.00  0.00     0.277 C 
BRANCH  10  11
ATOM     11  N   UNL A   1      41.835  34.271  31.002  1.00  0.00    -0.334 N 
ATOM     12  C   UNL A   1      42.106  35.177  29.906  1.00  0.00     0.332 C 
ATOM     13  H   UNL A   1      42.436  34.683  31.715  1.00  0.00     0.348 HD
BRANCH  11  14
ATOM     14  C   UNL A   1      42.372  32.918  30.917  1.00  0.00     0.184 C 
ATOM     15  C   UNL A   1      43.656  32.739  31.736  1.00  0.00     0.071 C 
ATOM     16  C   UNL A   1      42.619  32.400  29.496  1.00  0.00     0.071 C 
ATOM     17  C   UNL A   1      43.936  31.236  31.870  1.00  0.00     0.071 C 
ATOM     18  C   UNL A   1      42.907  30.904  29.529  1.00  0.00     0.071 C 
ATOM     19  C   UNL A   1      44.025  30.527  30.509  1.00  0.00     0.181 C 
BRANCH  19  20
ATOM     20  N   UNL A   1      44.009  29.074  30.702  1.00  0.00    -0.355 N 
ATOM     21  H   UNL A   1      43.791  28.862  31.675  1.00  0.00     0.344 HD
ATOM     22  H   UNL A   1      44.924  28.690  30.466  1.00  0.00     0.344 HD
ATOM     23  H   UNL A   1      43.300  28.660  30.096  1.00  0.00     0.344 HD
ENDBRANCH  19  20
ENDBRANCH  11  14
ENDBRANCH  10  11
ENDBRANCH   8  10
ENDBRANCH   6   8
ENDBRANCH   5   6
ENDBRANCH   4   5
ENDBRANCH   3   4
ENDBRANCH   2   3
ENDBRANCH   1   2
BRANCH   1  24
ATOM     24  C   UNL A   1      32.838  36.319  31.065  1.00  0.00     0.188 C 
BRANCH  24  25
ATOM     25  O   UNL A   1      32.714  35.194  30.206  1.00  0.00    -0.376 OA
BRANCH  25  26
ATOM     26  C   UNL A   1      33.656  35.149  29.137  1.00  0.00     0.202 C 
BRANCH  26  27
ATOM     27  C   UNL A   1      33.654  33.830  28.350  1.00  0.00     0.261 C 
BRANCH  27  28
ATOM     28  O   UNL A   1      34.668  32.895  28.758  1.00  0.00    -0.460 OA
BRANCH  28  29
ATOM     29  C   UNL A   1      34.737  31.723  28.085  1.00  0.00     0.338 C 
ATOM     30  O   UNL A   1      34.058  31.395  27.127  1.00  0.00    -0.246 OA
BRANCH  29  31
ATOM     31  C   UNL A   1      35.989  31.042  28.513  1.00  0.00     0.060 A 
ATOM     32  C   UNL A   1      35.903  29.709  28.941  1.00  0.00     0.016 A 
ATOM     33  C   UNL A   1      37.239  31.650  28.361  1.00  0.00     0.016 A 
ATOM     34  C   UNL A   1      37.063  28.990  29.237  1.00  0.00     0.010 A 
ATOM     35  C   UNL A   1      38.401  30.935  28.671  1.00  0.00     0.010 A 
ATOM     36  C   UNL A   1      38.313  29.615  29.145  1.00  0.00    -0.014 A 
BRANCH  36  37
ATOM     37  C   UNL A   1      39.474  29.001  29.832  1.00  0.00     0.031 A 
ATOM     38  C   UNL A   1      39.849  29.578  31.173  1.00  0.00     0.074 A 
ATOM     39  C   UNL A   1      40.169  27.971  29.316  1.00  0.00     0.049 A 
ATOM     40  N   UNL A   1      40.784  29.208  32.006  1.00  0.00    -0.248 NA
ATOM     41  C   UNL A   1      39.053  30.731  31.634  1.00  0.00     0.031 C 
ATOM     42  C   UNL A   1      39.922  27.336  28.024  1.00  0.00     0.029 A 
ATOM     43  N   UNL A   1      41.249  27.291  29.825  1.00  0.00    -0.354 N 
ATOM     44  C   UNL A   1      40.687  30.078  33.085  1.00  0.00     0.074 A 
ATOM     45  C   UNL A   1      39.627  31.013  32.791  1.00  0.00     0.031 C 
ATOM     46  C   UNL A   1      40.848  26.378  27.826  1.00  0.00     0.029 A 
ATOM     47  C   UNL A   1      41.752  26.334  28.975  1.00  0.00     0.049 A 
ATOM     48  H   UNL A   1      41.629  27.473  30.715  1.00  0.00     0.167 HD
ATOM     49  C   UNL A   1      41.394  30.084  34.237  1.00  0.00     0.034 A 
ATOM     50  C   UNL A   1      42.824  25.524  29.113  1.00  0.00     0.034 A 
ATOM     51  C   UNL A   1      42.458  29.170  34.529  1.00  0.00     0.049 A 
ATOM     52  C   UNL A   1      43.618  25.568  30.397  1.00  0.00     0.074 A 
ATOM     53  C   UNL A   1      43.241  29.094  35.667  1.00  0.00     0.029 A 
ATOM     54  N   UNL A   1      42.901  28.179  33.668  1.00  0.00    -0.354 N 
ATOM     55  N   UNL A   1      43.428  26.305  31.466  1.00  0.00    -0.248 NA
ATOM     56  C   UNL A   1      44.751  24.635  30.513  1.00  0.00     0.031 C 
ATOM     57  C   UNL A   1      44.166  28.059  35.488  1.00  0.00     0.029 A 
ATOM     58  C   UNL A   1      43.945  27.482  34.248  1.00  0.00     0.049 A 
ATOM     59  H   UNL A   1      42.527  27.996  32.775  1.00  0.00     0.167 HD
ATOM     60  C   UNL A   1      44.391  25.904  32.388  1.00  0.00     0.074 A 
ATOM     61  C   UNL A   1      45.146  24.839  31.762  1.00  0.00     0.031 C 
ATOM     62  C   UNL A   1      44.643  26.383  33.632  1.00  0.00     0.034 A 
BRANCH  49  63
ATOM     63  C   UNL A   1      40.996  31.095  35.275  1.00  0.00     0.023 A 
ATOM     64  C   UNL A   1      41.905  32.117  35.620  1.00  0.00     0.012 A 
ATOM     65  C   UNL A   1      39.736  31.048  35.897  1.00  0.00     0.148 A 
ATOM     66  C   UNL A   1      41.577  33.061  36.590  1.00  0.00     0.002 A 
ATOM     67  C   UNL A   1      39.400  32.016  36.836  1.00  0.00     0.091 A 
ATOM     68  F   UNL A   1      38.902  30.047  35.578  1.00  0.00    -0.205 F 
ATOM     69  C   UNL A   1      40.322  33.016  37.191  1.00  0.00     0.022 A 
BRANCH  67  70
ATOM     70  S   UNL A   1      37.787  32.084  37.621  1.00  0.00     0.127 S 
ATOM     71  O   UNL A   1      38.073  32.884  38.812  1.00  0.00    -0.237 OA
ATOM     72  O   UNL A   1      36.981  32.765  36.608  1.00  0.00    -0.237 OA
ATOM     73  O   UNL A   1      37.405  30.702  37.875  1.00  0.00    -0.744 OA
ENDBRANCH  67  70
ENDBRANCH  49  63
BRANCH  50  74
ATOM     74  C   UNL A   1      43.196  24.571  28.028  1.00  0.00     0.023 A 
ATOM     75  C   UNL A   1      42.456  23.384  27.853  1.00  0.00     0.012 A 
ATOM     76  C   UNL A   1      44.294  24.822  27.181  1.00  0.00     0.148 A 
ATOM     77  C   UNL A   1      42.823  22.450  26.882  1.00  0.00     0.002 A 
ATOM     78  C   UNL A   1      44.622  23.912  26.181  1.00  0.00     0.091 A 
ATOM     79  F   UNL A   1      45.005  25.941  27.376  1.00  0.00    -0.205 F 
ATOM     80  C   UNL A   1      43.899  22.718  26.041  1.00  0.00     0.022 A 
BRANCH  78  81
ATOM     81  S   UNL A   1      45.921  24.234  24.982  1.00  0.00     0.127 S 
ATOM     82  O   UNL A   1      47.120  23.880  25.736  1.00  0.00    -0.237 OA
ATOM     83  O   UNL A   1      45.576  23.308  23.903  1.00  0.00    -0.237 OA
ATOM     84  O   UNL A   1      45.781  25.641  24.629  1.00  0.00    -0.744 OA
ENDBRANCH  78  81
ENDBRANCH  50  74
BRANCH  62  85
ATOM     85  C   UNL A   1      45.758  25.744  34.418  1.00  0.00     0.023 A 
ATOM     86  C   UNL A   1      47.060  26.276  34.343  1.00  0.00     0.012 A 
ATOM     87  C   UNL A   1      45.498  24.671  35.293  1.00  0.00     0.148 A 
ATOM     88  C   UNL A   1      48.095  25.726  35.100  1.00  0.00     0.002 A 
ATOM     89  C   UNL A   1      46.524  24.159  36.079  1.00  0.00     0.091 A 
ATOM     90  F   UNL A   1      44.256  24.167  35.339  1.00  0.00    -0.205 F 
ATOM     91  C   UNL A   1      47.825  24.678  35.976  1.00  0.00     0.022 A 
BRANCH  89  92
ATOM     92  S   UNL A   1      46.238  22.874  37.303  1.00  0.00     0.127 S 
ATOM     93  O   UNL A   1      45.743  21.777  36.473  1.00  0.00    -0.237 OA
ATOM     94  O   UNL A   1      47.576  22.664  37.857  1.00  0.00    -0.237 OA
ATOM     95  O   UNL A   1      45.279  23.434  38.247  1.00  0.00    -0.744 OA
ENDBRANCH  89  92
ENDBRANCH  62  85
ENDBRANCH  36  37
ENDBRANCH  29  31
ENDBRANCH  28  29
ENDBRANCH  27  28
ENDBRANCH  26  27
ENDBRANCH  25  26
ENDBRANCH  24  25
ENDBRANCH   1  24
TORSDOF 24
ENDMDL
MODEL 3
REMARK VINA RESULT:      -8.7      5.201     10.342
REMARK SMILES C[C@H](C[N@H+](C)[C@H]1CC[C@H]([NH3+])CC1)C(=O)OCCOCCOCCOC(=O)c1ccc(-c2c3nc(c(-c4cccc(S(=O)(=O)[O-])c4F)c4ccc([nH]4)c(-c4cccc(S(=O)(=O)[O-])c4F)c4nc(c(-c5cccc(S(=O)(=O)[O-])c5F)c5ccc2[nH]5)C=C4)C=C3)cc1
REMARK SMILES IDX 19 1 18 2 17 3 16 4 15 5 13 6 14 7 2 8 1 9 3 10 4 11 5 12
REMARK SMILES IDX 6 14 7 15 12 16 8 17 11 18 9 19 10 20 20 24 21 25 22 26
REMARK SMILES IDX 23 27 24 28 25 29 26 30 27 31 28 32 89 33 29 34 88 35 30 36
REMARK SMILES IDX 31 37 32 38 82 39 33 40 87 41 81 42 83 43 34 44 86 45 80 46
REMARK SMILES IDX 79 47 35 49 67 50 47 51 66 52 48 53 51 54 65 55 84 56 49 57
REMARK SMILES IDX 50 58 64 60 85 61 52 62 36 63 37 64 45 65 38 66 40 67 46 68
REMARK SMILES IDX 39 69 41 70 42 71 43 72 44 73 68 74 69 75 77 76 70 77 72 78
REMARK SMILES IDX 78 79 71 80 73 81 74 82 75 83 76 84 53 85 54 86 62 87 55 88
REMARK SMILES IDX 57 89 63 90 56 91 58 92 59 93 60 94 61 95
REMARK H PARENT 4 13 10 21 10 22 10 23 83 48 51 59
REMARK Flexibility Score: inf
ROOT
ATOM      1  C   UNL A   1      33.993  34.464  32.853  1.00  0.00     0.188 C 
ENDROOT
BRANCH   1   2
ATOM      2  O   UNL A   1      35.341  34.236  33.247  1.00  0.00    -0.376 OA
BRANCH   2   3
ATOM      3  C   UNL A   1      35.883  32.943  32.990  1.00  0.00     0.202 C 
BRANCH   3   4
ATOM      4  C   UNL A   1      37.408  32.862  32.849  1.00  0.00     0.261 C 
BRANCH   4   5
ATOM      5  O   UNL A   1      37.874  33.760  31.817  1.00  0.00    -0.463 OA
BRANCH   5   6
ATOM      6  C   UNL A   1      39.139  34.232  31.937  1.00  0.00     0.314 C 
ATOM      7  O   UNL A   1      39.669  34.454  33.018  1.00  0.00    -0.252 OA
BRANCH   6   8
ATOM      8  C   UNL A   1      39.859  34.344  30.582  1.00  0.00     0.151 C 
ATOM      9  C   UNL A   1      38.856  34.116  29.452  1.00  0.00     0.026 C 
BRANCH   8  10
ATOM     10  C   UNL A   1      41.178  33.557  30.337  1.00  0.00     0.277 C 
BRANCH  10  11
ATOM     11  N   UNL A   1      42.469  34.179  30.016  1.00  0.00    -0.334 N 
ATOM     12  C   UNL A   1      42.848  35.292  30.860  1.00  0.00     0.332 C 
ATOM     13  H   UNL A   1      43.172  33.499  30.305  1.00  0.00     0.348 HD
BRANCH  11  14
ATOM     14  C   UNL A   1      42.738  34.284  28.587  1.00  0.00     0.184 C 
ATOM     15  C   UNL A   1      44.092  33.679  28.194  1.00  0.00     0.071 C 
ATOM     16  C   UNL A   1      42.645  35.700  28.006  1.00  0.00     0.071 C 
ATOM     17  C   UNL A   1      44.124  33.520  26.668  1.00  0.00     0.071 C 
ATOM     18  C   UNL A   1      42.669  35.641  26.483  1.00  0.00     0.071 C 
ATOM     19  C   UNL A   1      43.855  34.840  25.929  1.00  0.00     0.181 C 
BRANCH  19  20
ATOM     20  N   UNL A   1      43.618  34.576  24.507  1.00  0.00    -0.355 N 
ATOM     21  H   UNL A   1      42.773  34.015  24.401  1.00  0.00     0.344 HD
ATOM     22  H   UNL A   1      44.413  34.070  24.118  1.00  0.00     0.344 HD
ATOM     23  H   UNL A   1      43.504  35.461  24.012  1.00  0.00     0.344 HD
ENDBRANCH  19  20
ENDBRANCH  11  14
ENDBRANCH  10  11
ENDBRANCH   8  10
ENDBRANCH   6   8
ENDBRANCH   5   6
ENDBRANCH   4   5
ENDBRANCH   3   4
ENDBRANCH   2   3
ENDBRANCH   1   2
BRANCH   1  24
ATOM     24  C   UNL A   1      33.762  35.302  31.586  1.00  0.00     0.188 C 
BRANCH  24  25
ATOM     25  O   UNL A   1      33.325  34.569  30.450  1.00  0.00    -0.376 OA
BRANCH  25  26
ATOM     26  C   UNL A   1      34.357  34.216  29.531  1.00  0.00     0.202 C 
BRANCH  26  27
ATOM     27  C   UNL A   1      33.942  33.162  28.494  1.00  0.00     0.261 C 
BRANCH  27  28
ATOM     28  O   UNL A   1      35.036  32.396  27.958  1.00  0.00    -0.460 OA
BRANCH  28  29
ATOM     29  C   UNL A   1      34.866  31.056  27.865  1.00  0.00     0.338 C 
ATOM     30  O   UNL A   1      33.970  30.477  27.276  1.00  0.00    -0.246 OA
BRANCH  29  31
ATOM     31  C   UNL A   1      36.128  30.420  28.331  1.00  0.00     0.060 A 
ATOM     32  C   UNL A   1      36.094  29.680  29.523  1.00  0.00     0.016 A 
ATOM     33  C   UNL A   1      37.284  30.427  27.544  1.00  0.00     0.016 A 
ATOM     34  C   UNL A   1      37.219  28.965  29.937  1.00  0.00     0.010 A 
ATOM     35  C   UNL A   1      38.416  29.723  27.966  1.00  0.00     0.010 A 
ATOM     36  C   UNL A   1      38.398  29.020  29.183  1.00  0.00    -0.014 A 
BRANCH  36  37
ATOM     37  C   UNL A   1      39.675  28.612  29.816  1.00  0.00     0.031 A 
ATOM     38  C   UNL A   1      40.384  27.430  29.207  1.00  0.00     0.074 A 
ATOM     39  C   UNL A   1      40.205  29.253  30.874  1.00  0.00     0.049 A 
ATOM     40  N   UNL A   1      41.529  26.892  29.529  1.00  0.00    -0.248 NA
ATOM     41  C   UNL A   1      39.704  26.770  28.078  1.00  0.00     0.031 C 
ATOM     42  C   UNL A   1      39.610  30.394  31.566  1.00  0.00     0.029 A 
ATOM     43  N   UNL A   1      41.368  29.010  31.562  1.00  0.00    -0.354 N 
ATOM     44  C   UNL A   1      41.706  25.836  28.643  1.00  0.00     0.074 A 
ATOM     45  C   UNL A   1      40.540  25.786  27.793  1.00  0.00     0.031 C 
ATOM     46  C   UNL A   1      40.400  30.732  32.605  1.00  0.00     0.029 A 
ATOM     47  C   UNL A   1      41.551  29.832  32.650  1.00  0.00     0.049 A 
ATOM     48  H   UNL A   1      42.011  28.311  31.302  1.00  0.00     0.167 HD
ATOM     49  C   UNL A   1      42.758  24.996  28.522  1.00  0.00     0.034 A 
ATOM     50  C   UNL A   1      42.535  29.844  33.575  1.00  0.00     0.034 A 
ATOM     51  C   UNL A   1      43.911  25.027  29.373  1.00  0.00     0.049 A 
ATOM     52  C   UNL A   1      43.687  28.876  33.437  1.00  0.00     0.074 A 
ATOM     53  C   UNL A   1      45.031  24.217  29.336  1.00  0.00     0.029 A 
ATOM     54  N   UNL A   1      44.086  25.909  30.426  1.00  0.00    -0.354 N 
ATOM     55  N   UNL A   1      43.904  27.972  32.512  1.00  0.00    -0.248 NA
ATOM     56  C   UNL A   1      44.753  28.961  34.448  1.00  0.00     0.031 C 
ATOM     57  C   UNL A   1      45.881  24.605  30.377  1.00  0.00     0.029 A 
ATOM     58  C   UNL A   1      45.296  25.668  31.048  1.00  0.00     0.049 A 
ATOM     59  H   UNL A   1      43.443  26.607  30.693  1.00  0.00     0.167 HD
ATOM     60  C   UNL A   1      45.142  27.406  32.809  1.00  0.00     0.074 A 
ATOM     61  C   UNL A   1      45.638  28.089  33.985  1.00  0.00     0.031 C 
ATOM     62  C   UNL A   1      45.801  26.400  32.180  1.00  0.00     0.034 A 
BRANCH  49  63
ATOM     63  C   UNL A   1      42.710  24.002  27.396  1.00  0.00     0.023 A 
ATOM     64  C   UNL A   1      43.275  24.348  26.151  1.00  0.00     0.012 A 
ATOM     65  C   UNL A   1      42.125  22.734  27.564  1.00  0.00     0.148 A 
ATOM     66  C   UNL A   1      43.232  23.458  25.080  1.00  0.00     0.002 A 
ATOM     67  C   UNL A   1      42.121  21.836  26.504  1.00  0.00     0.091 A 
ATOM     68  F   UNL A   1      41.564  22.440  28.747  1.00  0.00    -0.205 F 
ATOM     69  C   UNL A   1      42.664  22.199  25.259  1.00  0.00     0.022 A 
BRANCH  67  70
ATOM     70  S   UNL A   1      41.470  20.169  26.649  1.00  0.00     0.127 S 
ATOM     71  O   UNL A   1      40.043  20.426  26.842  1.00  0.00    -0.237 OA
ATOM     72  O   UNL A   1      41.815  19.591  25.350  1.00  0.00    -0.237 OA
ATOM     73  O   UNL A   1      42.156  19.568  27.784  1.00  0.00    -0.744 OA
ENDBRANCH  67  70
ENDBRANCH  49  63
BRANCH  50  74
ATOM     74  C   UNL A   1      42.505  30.827  34.697  1.00  0.00     0.023 A 
ATOM     75  C   UNL A   1      42.059  30.421  35.971  1.00  0.00     0.012 A 
ATOM     76  C   UNL A   1      42.896  32.166  34.504  1.00  0.00     0.148 A 
ATOM     77  C   UNL A   1      41.968  31.338  37.020  1.00  0.00     0.002 A 
ATOM     78  C   UNL A   1      42.852  33.062  35.568  1.00  0.00     0.091 A 
ATOM     79  F   UNL A   1      43.292  32.544  33.281  1.00  0.00    -0.205 F 
ATOM     80  C   UNL A   1      42.372  32.656  36.822  1.00  0.00     0.022 A 
BRANCH  78  81
ATOM     81  S   UNL A   1      43.463  34.746  35.426  1.00  0.00     0.127 S 
ATOM     82  O   UNL A   1      44.879  34.529  35.146  1.00  0.00    -0.237 OA
ATOM     83  O   UNL A   1      42.684  35.259  34.298  1.00  0.00    -0.237 OA
ATOM     84  O   UNL A   1      43.153  35.379  36.701  1.00  0.00    -0.744 OA
ENDBRANCH  78  81
ENDBRANCH  50  74
BRANCH  62  85
ATOM     85  C   UNL A   1      47.145  25.994  32.725  1.00  0.00     0.023 A 
ATOM     86  C   UNL A   1      48.288  26.752  32.404  1.00  0.00     0.012 A 
ATOM     87  C   UNL A   1      47.262  24.912  33.620  1.00  0.00     0.148 A 
ATOM     88  C   UNL A   1      49.533  26.418  32.937  1.00  0.00     0.002 A 
ATOM     89  C   UNL A   1      48.497  24.615  34.185  1.00  0.00     0.091 A 
ATOM     90  F   UNL A   1      46.166  24.192  33.902  1.00  0.00    -0.205 F 
ATOM     91  C   UNL A   1      49.635  25.359  33.836  1.00  0.00     0.022 A 
BRANCH  89  92
ATOM     92  S   UNL A   1      48.694  23.329  35.425  1.00  0.00     0.127 S 
ATOM     93  O   UNL A   1      48.193  22.152  34.717  1.00  0.00    -0.237 OA
ATOM     94  O   UNL A   1      50.140  23.333  35.655  1.00  0.00    -0.237 OA
ATOM     95  O   UNL A   1      47.904  23.761  36.571  1.00  0.00    -0.744 OA
ENDBRANCH  89  92
ENDBRANCH  62  85
ENDBRANCH  36  37
ENDBRANCH  29  31
ENDBRANCH  28  29
ENDBRANCH  27  28
ENDBRANCH  26  27
ENDBRANCH  25  26
ENDBRANCH  24  25
ENDBRANCH   1  24
TORSDOF 24
ENDMDL
