MODEL 1
REMARK VINA RESULT:      -8.4      0.000      0.000
REMARK SMILES CC(C)=CC[C@@]1(C(=O)OCCOCCOCCOC(=O)c2ccc(-c3c4nc(c(-c5cccc(S(=O)(=O)[O-])c5F)c5ccc([nH]5)c(-c5cccc(S(=O)(=O)[O-])c5F)c5nc(c(-c6cccc(S(=O)(=O)[O-])c6F)c6ccc3[nH]6)C=C5)C=C4)cc2)CCC[C@H](C)C1
REMARK SMILES IDX 14 1 13 2 12 3 11 4 10 5 9 6 7 7 8 8 6 9 84 10 89 11 85 12
REMARK SMILES IDX 87 13 86 14 88 15 5 16 4 17 1 18 2 19 3 20 15 21 16 22 17 23
REMARK SMILES IDX 18 24 19 25 20 26 21 27 22 28 83 29 23 30 82 31 24 32 25 33
REMARK SMILES IDX 26 34 76 35 27 36 81 37 75 38 77 39 28 40 80 41 74 42 73 43
REMARK SMILES IDX 29 45 61 46 41 47 60 48 42 49 45 50 59 51 78 52 43 53 44 54
REMARK SMILES IDX 58 56 79 57 46 58 30 59 31 60 39 61 32 62 34 63 40 64 33 65
REMARK SMILES IDX 35 66 36 67 37 68 38 69 62 70 63 71 71 72 64 73 66 74 72 75
REMARK SMILES IDX 65 76 67 77 68 78 69 79 70 80 47 81 48 82 56 83 49 84 51 85
REMARK SMILES IDX 57 86 50 87 52 88 53 89 54 90 55 91
REMARK H PARENT 77 44 45 55
REMARK Flexibility Score: inf
ROOT
ATOM      1  C   UNL A   1      35.518  31.052  27.397  1.00  0.00     0.188 C 
ENDROOT
BRANCH   1   2
ATOM      2  C   UNL A   1      34.893  29.842  28.102  1.00  0.00     0.188 C 
BRANCH   2   3
ATOM      3  O   UNL A   1      33.802  29.333  27.339  1.00  0.00    -0.376 OA
BRANCH   3   4
ATOM      4  C   UNL A   1      34.094  29.067  25.973  1.00  0.00     0.202 C 
BRANCH   4   5
ATOM      5  C   UNL A   1      32.809  29.146  25.154  1.00  0.00     0.261 C 
BRANCH   5   6
ATOM      6  O   UNL A   1      32.739  28.057  24.211  1.00  0.00    -0.463 OA
BRANCH   6   7
ATOM      7  C   UNL A   1      31.643  27.257  24.292  1.00  0.00     0.312 C 
ATOM      8  O   UNL A   1      30.501  27.690  24.383  1.00  0.00    -0.252 OA
BRANCH   7   9
ATOM      9  C   UNL A   1      32.017  25.765  24.360  1.00  0.00     0.072 C 
ATOM     10  C   UNL A   1      30.938  25.097  23.460  1.00  0.00     0.019 C 
ATOM     11  C   UNL A   1      31.937  25.135  25.778  1.00  0.00     0.022 C 
ATOM     12  C   UNL A   1      30.929  23.572  23.489  1.00  0.00     0.001 C 
ATOM     13  C   UNL A   1      32.017  23.594  25.766  1.00  0.00    -0.013 C 
ATOM     14  C   UNL A   1      30.886  23.021  24.908  1.00  0.00     0.003 C 
ATOM     15  C   UNL A   1      31.975  23.018  27.187  1.00  0.00     0.007 C 
BRANCH   9  16
ATOM     16  C   UNL A   1      33.441  25.591  23.744  1.00  0.00     0.046 C 
BRANCH  16  17
ATOM     17  C   UNL A   1      34.621  25.165  24.596  1.00  0.00    -0.027 C 
ATOM     18  C   UNL A   1      35.179  22.828  23.764  1.00  0.00     0.039 C 
ATOM     19  C   UNL A   1      35.333  24.022  24.648  1.00  0.00    -0.080 C 
ATOM     20  C   UNL A   1      36.419  23.840  25.669  1.00  0.00     0.039 C 
ENDBRANCH  16  17
ENDBRANCH   9  16
ENDBRANCH   7   9
ENDBRANCH   6   7
ENDBRANCH   5   6
ENDBRANCH   4   5
ENDBRANCH   3   4
ENDBRANCH   2   3
ENDBRANCH   1   2
BRANCH   1  21
ATOM     21  O   UNL A   1      34.829  32.297  27.472  1.00  0.00    -0.376 OA
BRANCH  21  22
ATOM     22  C   UNL A   1      33.990  32.534  28.596  1.00  0.00     0.202 C 
BRANCH  22  23
ATOM     23  C   UNL A   1      34.136  33.906  29.256  1.00  0.00     0.261 C 
BRANCH  23  24
ATOM     24  O   UNL A   1      35.131  33.946  30.302  1.00  0.00    -0.460 OA
BRANCH  24  25
ATOM     25  C   UNL A   1      35.195  32.842  31.079  1.00  0.00     0.338 C 
ATOM     26  O   UNL A   1      34.411  32.529  31.970  1.00  0.00    -0.246 OA
BRANCH  25  27
ATOM     27  C   UNL A   1      36.314  31.957  30.695  1.00  0.00     0.060 A 
ATOM     28  C   UNL A   1      36.325  30.653  31.207  1.00  0.00     0.016 A 
ATOM     29  C   UNL A   1      37.438  32.462  30.037  1.00  0.00     0.016 A 
ATOM     30  C   UNL A   1      37.494  29.888  31.152  1.00  0.00     0.010 A 
ATOM     31  C   UNL A   1      38.612  31.694  29.989  1.00  0.00     0.010 A 
ATOM     32  C   UNL A   1      38.666  30.431  30.606  1.00  0.00    -0.014 A 
BRANCH  32  33
ATOM     33  C   UNL A   1      39.981  29.787  30.888  1.00  0.00     0.031 A 
ATOM     34  C   UNL A   1      40.725  30.176  32.136  1.00  0.00     0.074 A 
ATOM     35  C   UNL A   1      40.519  28.866  30.070  1.00  0.00     0.049 A 
ATOM     36  N   UNL A   1      41.885  29.757  32.572  1.00  0.00    -0.248 NA
ATOM     37  C   UNL A   1      40.085  31.184  32.995  1.00  0.00     0.031 C 
ATOM     38  C   UNL A   1      39.922  28.425  28.821  1.00  0.00     0.029 A 
ATOM     39  N   UNL A   1      41.682  28.141  30.156  1.00  0.00    -0.354 N 
ATOM     40  C   UNL A   1      42.140  30.487  33.725  1.00  0.00     0.074 A 
ATOM     41  C   UNL A   1      41.011  31.372  33.923  1.00  0.00     0.031 C 
ATOM     42  C   UNL A   1      40.688  27.469  28.271  1.00  0.00     0.029 A 
ATOM     43  C   UNL A   1      41.873  27.275  29.102  1.00  0.00     0.049 A 
ATOM     44  H   UNL A   1      42.320  28.231  30.900  1.00  0.00     0.167 HD
ATOM     45  C   UNL A   1      43.212  30.426  34.550  1.00  0.00     0.034 A 
ATOM     46  C   UNL A   1      42.893  26.435  28.829  1.00  0.00     0.034 A 
ATOM     47  C   UNL A   1      44.327  29.536  34.371  1.00  0.00     0.049 A 
ATOM     48  C   UNL A   1      44.070  26.382  29.767  1.00  0.00     0.074 A 
ATOM     49  C   UNL A   1      45.445  29.386  35.172  1.00  0.00     0.029 A 
ATOM     50  N   UNL A   1      44.471  28.649  33.315  1.00  0.00    -0.354 N 
ATOM     51  N   UNL A   1      44.252  27.011  30.903  1.00  0.00    -0.248 NA
ATOM     52  C   UNL A   1      45.182  25.495  29.389  1.00  0.00     0.031 C 
ATOM     53  C   UNL A   1      46.274  28.418  34.592  1.00  0.00     0.029 A 
ATOM     54  C   UNL A   1      45.661  27.950  33.442  1.00  0.00     0.049 A 
ATOM     55  H   UNL A   1      43.823  28.533  32.584  1.00  0.00     0.167 HD
ATOM     56  C   UNL A   1      45.478  26.572  31.391  1.00  0.00     0.074 A 
ATOM     57  C   UNL A   1      45.987  25.609  30.437  1.00  0.00     0.031 C 
ATOM     58  C   UNL A   1      46.131  26.949  32.518  1.00  0.00     0.034 A 
BRANCH  45  59
ATOM     59  C   UNL A   1      43.215  31.356  35.734  1.00  0.00     0.023 A 
ATOM     60  C   UNL A   1      42.642  30.936  36.952  1.00  0.00     0.012 A 
ATOM     61  C   UNL A   1      43.783  32.641  35.643  1.00  0.00     0.148 A 
ATOM     62  C   UNL A   1      42.597  31.796  38.049  1.00  0.00     0.002 A 
ATOM     63  C   UNL A   1      43.774  33.476  36.754  1.00  0.00     0.091 A 
ATOM     64  F   UNL A   1      44.294  33.034  34.468  1.00  0.00    -0.205 F 
ATOM     65  C   UNL A   1      43.170  33.061  37.952  1.00  0.00     0.022 A 
BRANCH  63  66
ATOM     66  S   UNL A   1      44.554  35.094  36.737  1.00  0.00     0.127 S 
ATOM     67  O   UNL A   1      43.743  35.804  35.750  1.00  0.00    -0.237 OA
ATOM     68  O   UNL A   1      44.367  35.545  38.118  1.00  0.00    -0.237 OA
ATOM     69  O   UNL A   1      45.942  34.857  36.365  1.00  0.00    -0.744 OA
ENDBRANCH  63  66
ENDBRANCH  45  59
BRANCH  46  70
ATOM     70  C   UNL A   1      42.831  25.534  27.641  1.00  0.00     0.023 A 
ATOM     71  C   UNL A   1      43.376  25.975  26.419  1.00  0.00     0.012 A 
ATOM     72  C   UNL A   1      42.254  24.251  27.709  1.00  0.00     0.148 A 
ATOM     73  C   UNL A   1      43.328  25.169  25.282  1.00  0.00     0.002 A 
ATOM     74  C   UNL A   1      42.260  23.429  26.587  1.00  0.00     0.091 A 
ATOM     75  F   UNL A   1      41.719  23.856  28.872  1.00  0.00    -0.205 F 
ATOM     76  C   UNL A   1      42.781  23.892  25.368  1.00  0.00     0.022 A 
BRANCH  74  77
ATOM     77  S   UNL A   1      41.692  21.726  26.637  1.00  0.00     0.127 S 
ATOM     78  O   UNL A   1      40.243  21.891  26.599  1.00  0.00    -0.237 OA
ATOM     79  O   UNL A   1      42.283  21.177  25.415  1.00  0.00    -0.237 OA
ATOM     80  O   UNL A   1      42.235  21.168  27.868  1.00  0.00    -0.744 OA
ENDBRANCH  74  77
ENDBRANCH  46  70
BRANCH  58  81
ATOM     81  C   UNL A   1      47.452  26.288  32.815  1.00  0.00     0.023 A 
ATOM     82  C   UNL A   1      47.494  25.124  33.609  1.00  0.00     0.012 A 
ATOM     83  C   UNL A   1      48.645  26.780  32.250  1.00  0.00     0.148 A 
ATOM     84  C   UNL A   1      48.706  24.481  33.861  1.00  0.00     0.002 A 
ATOM     85  C   UNL A   1      49.842  26.108  32.467  1.00  0.00     0.091 A 
ATOM     86  F   UNL A   1      48.591  27.901  31.515  1.00  0.00    -0.205 F 
ATOM     87  C   UNL A   1      49.876  24.964  33.281  1.00  0.00     0.022 A 
BRANCH  85  88
ATOM     88  S   UNL A   1      51.378  26.611  31.681  1.00  0.00     0.127 S 
ATOM     89  O   UNL A   1      51.000  26.632  30.270  1.00  0.00    -0.237 OA
ATOM     90  O   UNL A   1      51.614  27.931  32.269  1.00  0.00    -0.237 OA
ATOM     91  O   UNL A   1      52.362  25.604  32.056  1.00  0.00    -0.744 OA
ENDBRANCH  85  88
ENDBRANCH  58  81
ENDBRANCH  32  33
ENDBRANCH  25  27
ENDBRANCH  24  25
ENDBRANCH  23  24
ENDBRANCH  22  23
ENDBRANCH  21  22
ENDBRANCH   1  21
TORSDOF 22
ENDMDL
MODEL 2
REMARK VINA RESULT:      -8.3      3.537     10.339
REMARK SMILES CC(C)=CC[C@@]1(C(=O)OCCOCCOCCOC(=O)c2ccc(-c3c4nc(c(-c5cccc(S(=O)(=O)[O-])c5F)c5ccc([nH]5)c(-c5cccc(S(=O)(=O)[O-])c5F)c5nc(c(-c6cccc(S(=O)(=O)[O-])c6F)c6ccc3[nH]6)C=C5)C=C4)cc2)CCC[C@H](C)C1
REMARK SMILES IDX 14 1 13 2 12 3 11 4 10 5 9 6 7 7 8 8 6 9 84 10 89 11 85 12
REMARK SMILES IDX 87 13 86 14 88 15 5 16 4 17 1 18 2 19 3 20 15 21 16 22 17 23
REMARK SMILES IDX 18 24 19 25 20 26 21 27 22 28 83 29 23 30 82 31 24 32 25 33
REMARK SMILES IDX 26 34 76 35 27 36 81 37 75 38 77 39 28 40 80 41 74 42 73 43
REMARK SMILES IDX 29 45 61 46 41 47 60 48 42 49 45 50 59 51 78 52 43 53 44 54
REMARK SMILES IDX 58 56 79 57 46 58 30 59 31 60 39 61 32 62 34 63 40 64 33 65
REMARK SMILES IDX 35 66 36 67 37 68 38 69 62 70 63 71 71 72 64 73 66 74 72 75
REMARK SMILES IDX 65 76 67 77 68 78 69 79 70 80 47 81 48 82 56 83 49 84 51 85
REMARK SMILES IDX 57 86 50 87 52 88 53 89 54 90 55 91
REMARK H PARENT 77 44 45 55
REMARK Flexibility Score: inf
ROOT
ATOM      1  C   UNL A   1      35.891  34.217  31.815  1.00  0.00     0.188 C 
ENDROOT
BRANCH   1   2
ATOM      2  C   UNL A   1      36.713  32.943  32.035  1.00  0.00     0.188 C 
BRANCH   2   3
ATOM      3  O   UNL A   1      38.085  33.178  31.723  1.00  0.00    -0.376 OA
BRANCH   3   4
ATOM      4  C   UNL A   1      38.313  34.129  30.692  1.00  0.00     0.202 C 
BRANCH   4   5
ATOM      5  C   UNL A   1      39.577  33.754  29.924  1.00  0.00     0.261 C 
BRANCH   5   6
ATOM      6  O   UNL A   1      40.424  34.906  29.742  1.00  0.00    -0.463 OA
BRANCH   6   7
ATOM      7  C   UNL A   1      41.718  34.772  30.134  1.00  0.00     0.312 C 
ATOM      8  O   UNL A   1      42.046  34.433  31.266  1.00  0.00    -0.252 OA
BRANCH   7   9
ATOM      9  C   UNL A   1      42.706  35.193  29.032  1.00  0.00     0.072 C 
ATOM     10  C   UNL A   1      41.828  36.077  28.100  1.00  0.00     0.019 C 
ATOM     11  C   UNL A   1      43.291  34.022  28.195  1.00  0.00     0.022 C 
ATOM     12  C   UNL A   1      42.491  36.488  26.789  1.00  0.00     0.001 C 
ATOM     13  C   UNL A   1      44.027  34.488  26.922  1.00  0.00    -0.013 C 
ATOM     14  C   UNL A   1      43.073  35.297  26.038  1.00  0.00     0.003 C 
ATOM     15  C   UNL A   1      44.620  33.304  26.149  1.00  0.00     0.007 C 
BRANCH   9  16
ATOM     16  C   UNL A   1      43.842  36.038  29.692  1.00  0.00     0.046 C 
BRANCH  16  17
ATOM     17  C   UNL A   1      45.018  35.375  30.381  1.00  0.00    -0.027 C 
ATOM     18  C   UNL A   1      46.933  35.623  28.727  1.00  0.00     0.039 C 
ATOM     19  C   UNL A   1      46.291  35.160  29.993  1.00  0.00    -0.080 C 
ATOM     20  C   UNL A   1      47.238  34.385  30.864  1.00  0.00     0.039 C 
ENDBRANCH  16  17
ENDBRANCH   9  16
ENDBRANCH   7   9
ENDBRANCH   6   7
ENDBRANCH   5   6
ENDBRANCH   4   5
ENDBRANCH   3   4
ENDBRANCH   2   3
ENDBRANCH   1   2
BRANCH   1  21
ATOM     21  O   UNL A   1      34.569  34.078  31.300  1.00  0.00    -0.376 OA
BRANCH  21  22
ATOM     22  C   UNL A   1      34.333  34.442  29.946  1.00  0.00     0.202 C 
BRANCH  22  23
ATOM     23  C   UNL A   1      34.143  33.281  28.969  1.00  0.00     0.261 C 
BRANCH  23  24
ATOM     24  O   UNL A   1      35.250  32.355  28.944  1.00  0.00    -0.460 OA
BRANCH  24  25
ATOM     25  C   UNL A   1      34.993  31.164  28.358  1.00  0.00     0.338 C 
ATOM     26  O   UNL A   1      33.981  30.860  27.734  1.00  0.00    -0.246 OA
BRANCH  25  27
ATOM     27  C   UNL A   1      36.131  30.229  28.478  1.00  0.00     0.060 A 
ATOM     28  C   UNL A   1      36.298  29.549  29.692  1.00  0.00     0.016 A 
ATOM     29  C   UNL A   1      37.137  30.192  27.509  1.00  0.00     0.016 A 
ATOM     30  C   UNL A   1      37.511  28.917  29.981  1.00  0.00     0.010 A 
ATOM     31  C   UNL A   1      38.356  29.561  27.804  1.00  0.00     0.010 A 
ATOM     32  C   UNL A   1      38.573  28.980  29.067  1.00  0.00    -0.014 A 
BRANCH  32  33
ATOM     33  C   UNL A   1      39.957  28.654  29.516  1.00  0.00     0.031 A 
ATOM     34  C   UNL A   1      40.700  27.544  28.825  1.00  0.00     0.074 A 
ATOM     35  C   UNL A   1      40.565  29.324  30.511  1.00  0.00     0.049 A 
ATOM     36  N   UNL A   1      41.901  27.082  29.059  1.00  0.00    -0.248 NA
ATOM     37  C   UNL A   1      39.986  26.851  27.741  1.00  0.00     0.031 C 
ATOM     38  C   UNL A   1      39.951  30.393  31.279  1.00  0.00     0.029 A 
ATOM     39  N   UNL A   1      41.823  29.207  31.051  1.00  0.00    -0.354 N 
ATOM     40  C   UNL A   1      42.068  26.012  28.190  1.00  0.00     0.074 A 
ATOM     41  C   UNL A   1      40.846  25.896  27.422  1.00  0.00     0.031 C 
ATOM     42  C   UNL A   1      40.839  30.877  32.163  1.00  0.00     0.029 A 
ATOM     43  C   UNL A   1      42.073  30.102  32.067  1.00  0.00     0.049 A 
ATOM     44  H   UNL A   1      42.483  28.546  30.741  1.00  0.00     0.167 HD
ATOM     45  C   UNL A   1      43.141  25.199  28.038  1.00  0.00     0.034 A 
ATOM     46  C   UNL A   1      43.165  30.267  32.842  1.00  0.00     0.034 A 
ATOM     47  C   UNL A   1      44.365  25.320  28.783  1.00  0.00     0.049 A 
ATOM     48  C   UNL A   1      44.347  29.355  32.648  1.00  0.00     0.074 A 
ATOM     49  C   UNL A   1      45.515  24.558  28.678  1.00  0.00     0.029 A 
ATOM     50  N   UNL A   1      44.598  26.258  29.778  1.00  0.00    -0.354 N 
ATOM     51  N   UNL A   1      44.524  28.408  31.758  1.00  0.00    -0.248 NA
ATOM     52  C   UNL A   1      45.486  29.539  33.562  1.00  0.00     0.031 C 
ATOM     53  C   UNL A   1      46.439  25.026  29.620  1.00  0.00     0.029 A 
ATOM     54  C   UNL A   1      45.872  26.094  30.296  1.00  0.00     0.049 A 
ATOM     55  H   UNL A   1      43.952  26.941  30.071  1.00  0.00     0.167 HD
ATOM     56  C   UNL A   1      45.803  27.908  31.982  1.00  0.00     0.074 A 
ATOM     57  C   UNL A   1      46.364  28.669  33.078  1.00  0.00     0.031 C 
ATOM     58  C   UNL A   1      46.444  26.896  31.347  1.00  0.00     0.034 A 
BRANCH  45  59
ATOM     59  C   UNL A   1      43.028  24.106  27.010  1.00  0.00     0.023 A 
ATOM     60  C   UNL A   1      43.583  24.295  25.727  1.00  0.00     0.012 A 
ATOM     61  C   UNL A   1      42.377  22.895  27.310  1.00  0.00     0.148 A 
ATOM     62  C   UNL A   1      43.454  23.312  24.747  1.00  0.00     0.002 A 
ATOM     63  C   UNL A   1      42.292  21.902  26.342  1.00  0.00     0.091 A 
ATOM     64  F   UNL A   1      41.829  22.745  28.525  1.00  0.00    -0.205 F 
ATOM     65  C   UNL A   1      42.816  22.114  25.057  1.00  0.00     0.022 A 
BRANCH  63  66
ATOM     66  S   UNL A   1      41.551  20.301  26.680  1.00  0.00     0.127 S 
ATOM     67  O   UNL A   1      41.812  19.582  25.435  1.00  0.00    -0.237 OA
ATOM     68  O   UNL A   1      42.330  19.832  27.829  1.00  0.00    -0.237 OA
ATOM     69  O   UNL A   1      40.150  20.570  26.975  1.00  0.00    -0.744 OA
ENDBRANCH  63  66
ENDBRANCH  45  59
BRANCH  46  70
ATOM     70  C   UNL A   1      43.219  31.373  33.843  1.00  0.00     0.023 A 
ATOM     71  C   UNL A   1      43.848  32.584  33.489  1.00  0.00     0.012 A 
ATOM     72  C   UNL A   1      42.651  31.247  35.125  1.00  0.00     0.148 A 
ATOM     73  C   UNL A   1      43.931  33.638  34.399  1.00  0.00     0.002 A 
ATOM     74  C   UNL A   1      42.687  32.321  36.007  1.00  0.00     0.091 A 
ATOM     75  F   UNL A   1      42.077  30.081  35.453  1.00  0.00    -0.205 F 
ATOM     76  C   UNL A   1      43.341  33.511  35.653  1.00  0.00     0.022 A 
BRANCH  74  77
ATOM     77  S   UNL A   1      41.844  32.294  37.593  1.00  0.00     0.127 S 
ATOM     78  O   UNL A   1      42.571  31.245  38.301  1.00  0.00    -0.237 OA
ATOM     79  O   UNL A   1      42.086  33.651  38.085  1.00  0.00    -0.237 OA
ATOM     80  O   UNL A   1      40.449  32.005  37.291  1.00  0.00    -0.744 OA
ENDBRANCH  74  77
ENDBRANCH  46  70
BRANCH  58  81
ATOM     81  C   UNL A   1      47.850  26.575  31.787  1.00  0.00     0.023 A 
ATOM     82  C   UNL A   1      48.937  27.289  31.246  1.00  0.00     0.012 A 
ATOM     83  C   UNL A   1      48.086  25.612  32.788  1.00  0.00     0.148 A 
ATOM     84  C   UNL A   1      50.240  27.027  31.671  1.00  0.00     0.002 A 
ATOM     85  C   UNL A   1      49.382  25.390  33.241  1.00  0.00     0.091 A 
ATOM     86  F   UNL A   1      47.043  24.925  33.276  1.00  0.00    -0.205 F 
ATOM     87  C   UNL A   1      50.461  26.088  32.675  1.00  0.00     0.022 A 
BRANCH  85  88
ATOM     88  S   UNL A   1      49.742  24.265  34.595  1.00  0.00     0.127 S 
ATOM     89  O   UNL A   1      50.616  23.288  33.949  1.00  0.00    -0.237 OA
ATOM     90  O   UNL A   1      50.412  25.138  35.560  1.00  0.00    -0.237 OA
ATOM     91  O   UNL A   1      48.451  23.757  35.041  1.00  0.00    -0.744 OA
ENDBRANCH  85  88
ENDBRANCH  58  81
ENDBRANCH  32  33
ENDBRANCH  25  27
ENDBRANCH  24  25
ENDBRANCH  23  24
ENDBRANCH  22  23
ENDBRANCH  21  22
ENDBRANCH   1  21
TORSDOF 22
ENDMDL
MODEL 3
REMARK VINA RESULT:      -8.2      3.289     10.966
REMARK SMILES CC(C)=CC[C@@]1(C(=O)OCCOCCOCCOC(=O)c2ccc(-c3c4nc(c(-c5cccc(S(=O)(=O)[O-])c5F)c5ccc([nH]5)c(-c5cccc(S(=O)(=O)[O-])c5F)c5nc(c(-c6cccc(S(=O)(=O)[O-])c6F)c6ccc3[nH]6)C=C5)C=C4)cc2)CCC[C@H](C)C1
REMARK SMILES IDX 14 1 13 2 12 3 11 4 10 5 9 6 7 7 8 8 6 9 84 10 89 11 85 12
REMARK SMILES IDX 87 13 86 14 88 15 5 16 4 17 1 18 2 19 3 20 15 21 16 22 17 23
REMARK SMILES IDX 18 24 19 25 20 26 21 27 22 28 83 29 23 30 82 31 24 32 25 33
REMARK SMILES IDX 26 34 76 35 27 36 81 37 75 38 77 39 28 40 80 41 74 42 73 43
REMARK SMILES IDX 29 45 61 46 41 47 60 48 42 49 45 50 59 51 78 52 43 53 44 54
REMARK SMILES IDX 58 56 79 57 46 58 30 59 31 60 39 61 32 62 34 63 40 64 33 65
REMARK SMILES IDX 35 66 36 67 37 68 38 69 62 70 63 71 71 72 64 73 66 74 72 75
REMARK SMILES IDX 65 76 67 77 68 78 69 79 70 80 47 81 48 82 56 83 49 84 51 85
REMARK SMILES IDX 57 86 50 87 52 88 53 89 54 90 55 91
REMARK H PARENT 77 44 45 55
REMARK Flexibility Score: inf
ROOT
ATOM      1  C   UNL A   1      34.860  34.657  32.202  1.00  0.00     0.188 C 
ENDROOT
BRANCH   1   2
ATOM      2  C   UNL A   1      35.737  33.449  32.547  1.00  0.00     0.188 C 
BRANCH   2   3
ATOM      3  O   UNL A   1      35.485  33.020  33.884  1.00  0.00    -0.376 OA
BRANCH   3   4
ATOM      4  C   UNL A   1      35.815  33.965  34.892  1.00  0.00     0.202 C 
BRANCH   4   5
ATOM      5  C   UNL A   1      37.004  33.455  35.700  1.00  0.00     0.261 C 
BRANCH   5   6
ATOM      6  O   UNL A   1      36.668  33.361  37.098  1.00  0.00    -0.463 OA
BRANCH   6   7
ATOM      7  C   UNL A   1      37.270  32.365  37.800  1.00  0.00     0.312 C 
ATOM      8  O   UNL A   1      37.793  31.391  37.269  1.00  0.00    -0.252 OA
BRANCH   7   9
ATOM      9  C   UNL A   1      37.127  32.556  39.320  1.00  0.00     0.072 C 
ATOM     10  C   UNL A   1      37.272  31.106  39.866  1.00  0.00     0.019 C 
ATOM     11  C   UNL A   1      35.756  33.123  39.782  1.00  0.00     0.022 C 
ATOM     12  C   UNL A   1      36.975  30.945  41.354  1.00  0.00     0.001 C 
ATOM     13  C   UNL A   1      35.533  33.017  41.304  1.00  0.00    -0.013 C 
ATOM     14  C   UNL A   1      35.634  31.553  41.743  1.00  0.00     0.003 C 
ATOM     15  C   UNL A   1      34.187  33.623  41.720  1.00  0.00     0.007 C 
BRANCH   9  16
ATOM     16  C   UNL A   1      38.305  33.457  39.811  1.00  0.00     0.046 C 
BRANCH  16  17
ATOM     17  C   UNL A   1      39.049  34.371  38.858  1.00  0.00    -0.027 C 
ATOM     18  C   UNL A   1      38.931  36.657  39.965  1.00  0.00     0.039 C 
ATOM     19  C   UNL A   1      39.291  35.697  38.880  1.00  0.00    -0.080 C 
ATOM     20  C   UNL A   1      39.997  36.366  37.736  1.00  0.00     0.039 C 
ENDBRANCH  16  17
ENDBRANCH   9  16
ENDBRANCH   7   9
ENDBRANCH   6   7
ENDBRANCH   5   6
ENDBRANCH   4   5
ENDBRANCH   3   4
ENDBRANCH   2   3
ENDBRANCH   1   2
BRANCH   1  21
ATOM     21  O   UNL A   1      33.789  34.463  31.281  1.00  0.00    -0.376 OA
BRANCH  21  22
ATOM     22  C   UNL A   1      33.990  34.847  29.926  1.00  0.00     0.202 C 
BRANCH  22  23
ATOM     23  C   UNL A   1      33.879  33.724  28.894  1.00  0.00     0.261 C 
BRANCH  23  24
ATOM     24  O   UNL A   1      34.794  32.631  29.122  1.00  0.00    -0.460 OA
BRANCH  24  25
ATOM     25  C   UNL A   1      34.684  31.596  28.259  1.00  0.00     0.338 C 
ATOM     26  O   UNL A   1      33.811  31.443  27.410  1.00  0.00    -0.246 OA
BRANCH  25  27
ATOM     27  C   UNL A   1      35.809  30.647  28.384  1.00  0.00     0.060 A 
ATOM     28  C   UNL A   1      35.770  29.717  29.431  1.00  0.00     0.016 A 
ATOM     29  C   UNL A   1      36.977  30.812  27.636  1.00  0.00     0.016 A 
ATOM     30  C   UNL A   1      36.928  29.024  29.798  1.00  0.00     0.010 A 
ATOM     31  C   UNL A   1      38.139  30.121  28.010  1.00  0.00     0.010 A 
ATOM     32  C   UNL A   1      38.138  29.276  29.135  1.00  0.00    -0.014 A 
BRANCH  32  33
ATOM     33  C   UNL A   1      39.425  28.846  29.754  1.00  0.00     0.031 A 
ATOM     34  C   UNL A   1      40.209  27.741  29.100  1.00  0.00     0.074 A 
ATOM     35  C   UNL A   1      39.911  29.418  30.869  1.00  0.00     0.049 A 
ATOM     36  N   UNL A   1      41.340  27.199  29.470  1.00  0.00    -0.248 NA
ATOM     37  C   UNL A   1      39.630  27.158  27.880  1.00  0.00     0.031 C 
ATOM     38  C   UNL A   1      39.242  30.470  31.614  1.00  0.00     0.029 A 
ATOM     39  N   UNL A   1      41.070  29.198  31.573  1.00  0.00    -0.354 N 
ATOM     40  C   UNL A   1      41.583  26.177  28.562  1.00  0.00     0.074 A 
ATOM     41  C   UNL A   1      40.483  26.178  27.621  1.00  0.00     0.031 C 
ATOM     42  C   UNL A   1      40.012  30.848  32.647  1.00  0.00     0.029 A 
ATOM     43  C   UNL A   1      41.210  30.013  32.674  1.00  0.00     0.049 A 
ATOM     44  H   UNL A   1      41.737  28.521  31.316  1.00  0.00     0.167 HD
ATOM     45  C   UNL A   1      42.628  25.317  28.509  1.00  0.00     0.034 A 
ATOM     46  C   UNL A   1      42.184  30.068  33.607  1.00  0.00     0.034 A 
ATOM     47  C   UNL A   1      43.734  25.323  29.427  1.00  0.00     0.049 A 
ATOM     48  C   UNL A   1      43.338  29.105  33.521  1.00  0.00     0.074 A 
ATOM     49  C   UNL A   1      44.851  24.507  29.435  1.00  0.00     0.029 A 
ATOM     50  N   UNL A   1      43.862  26.184  30.508  1.00  0.00    -0.354 N 
ATOM     51  N   UNL A   1      43.599  28.208  32.602  1.00  0.00    -0.248 NA
ATOM     52  C   UNL A   1      44.338  29.169  34.598  1.00  0.00     0.031 C 
ATOM     53  C   UNL A   1      45.648  24.863  30.529  1.00  0.00     0.029 A 
ATOM     54  C   UNL A   1      45.039  25.917  31.190  1.00  0.00     0.049 A 
ATOM     55  H   UNL A   1      43.213  26.882  30.753  1.00  0.00     0.167 HD
ATOM     56  C   UNL A   1      44.807  27.624  32.970  1.00  0.00     0.074 A 
ATOM     57  C   UNL A   1      45.236  28.283  34.186  1.00  0.00     0.031 C 
ATOM     58  C   UNL A   1      45.487  26.619  32.365  1.00  0.00     0.034 A 
BRANCH  45  59
ATOM     59  C   UNL A   1      42.617  24.299  27.401  1.00  0.00     0.023 A 
ATOM     60  C   UNL A   1      43.346  24.544  26.220  1.00  0.00     0.012 A 
ATOM     61  C   UNL A   1      41.889  23.100  27.528  1.00  0.00     0.148 A 
ATOM     62  C   UNL A   1      43.316  23.632  25.165  1.00  0.00     0.002 A 
ATOM     63  C   UNL A   1      41.900  22.176  26.491  1.00  0.00     0.091 A 
ATOM     64  F   UNL A   1      41.176  22.898  28.646  1.00  0.00    -0.205 F 
ATOM     65  C   UNL A   1      42.600  22.446  25.304  1.00  0.00     0.022 A 
BRANCH  63  66
ATOM     66  S   UNL A   1      41.064  20.591  26.617  1.00  0.00     0.127 S 
ATOM     67  O   UNL A   1      42.065  19.682  26.065  1.00  0.00    -0.237 OA
ATOM     68  O   UNL A   1      40.854  20.462  28.061  1.00  0.00    -0.237 OA
ATOM     69  O   UNL A   1      39.838  20.731  25.842  1.00  0.00    -0.744 OA
ENDBRANCH  63  66
ENDBRANCH  45  59
BRANCH  46  70
ATOM     70  C   UNL A   1      42.142  31.105  34.680  1.00  0.00     0.023 A 
ATOM     71  C   UNL A   1      41.417  30.840  35.859  1.00  0.00     0.012 A 
ATOM     72  C   UNL A   1      42.814  32.336  34.553  1.00  0.00     0.148 A 
ATOM     73  C   UNL A   1      41.343  31.787  36.881  1.00  0.00     0.002 A 
ATOM     74  C   UNL A   1      42.784  33.252  35.599  1.00  0.00     0.091 A 
ATOM     75  F   UNL A   1      43.479  32.582  33.416  1.00  0.00    -0.205 F 
ATOM     76  C   UNL A   1      42.035  32.987  36.756  1.00  0.00     0.022 A 
BRANCH  74  77
ATOM     77  S   UNL A   1      43.747  34.769  35.579  1.00  0.00     0.127 S 
ATOM     78  O   UNL A   1      45.112  34.258  35.653  1.00  0.00    -0.237 OA
ATOM     79  O   UNL A   1      43.373  35.345  34.287  1.00  0.00    -0.237 OA
ATOM     80  O   UNL A   1      43.293  35.536  36.732  1.00  0.00    -0.744 OA
ENDBRANCH  74  77
ENDBRANCH  46  70
BRANCH  58  81
ATOM     81  C   UNL A   1      46.797  26.193  32.978  1.00  0.00     0.023 A 
ATOM     82  C   UNL A   1      46.828  25.135  33.907  1.00  0.00     0.012 A 
ATOM     83  C   UNL A   1      48.006  26.797  32.579  1.00  0.00     0.148 A 
ATOM     84  C   UNL A   1      48.037  24.706  34.454  1.00  0.00     0.002 A 
ATOM     85  C   UNL A   1      49.212  26.333  33.092  1.00  0.00     0.091 A 
ATOM     86  F   UNL A   1      47.957  27.818  31.710  1.00  0.00    -0.205 F 
ATOM     87  C   UNL A   1      49.229  25.295  34.039  1.00  0.00     0.022 A 
BRANCH  85  88
ATOM     88  S   UNL A   1      50.797  26.975  32.539  1.00  0.00     0.127 S 
ATOM     89  O   UNL A   1      50.724  26.753  31.097  1.00  0.00    -0.237 OA
ATOM     90  O   UNL A   1      50.726  28.380  32.944  1.00  0.00    -0.237 OA
ATOM     91  O   UNL A   1      51.807  26.199  33.247  1.00  0.00    -0.744 OA
ENDBRANCH  85  88
ENDBRANCH  58  81
ENDBRANCH  32  33
ENDBRANCH  25  27
ENDBRANCH  24  25
ENDBRANCH  23  24
ENDBRANCH  22  23
ENDBRANCH  21  22
ENDBRANCH   1  21
TORSDOF 22
ENDMDL
