MODEL 1
REMARK VINA RESULT:     -11.5      0.000      0.000
REMARK SMILES O=C(OCCOCCOCCOC(=O)c1ccc(-c2c3nc(c(-c4cccc(S(=O)(=O)[O-])c4F)c4ccc([nH]4)c(-c4cccc(S(=O)(=O)[O-])c4F)c4nc(c(-c5cccc(S(=O)(=O)[O-])c5F)c5ccc2[nH]5)C=C4)C=C3)cc1)C1=Cc2ccc(Cl)c(Cl)c2O[C@@H]1C(F)(F)F
REMARK SMILES IDX 8 1 7 2 6 3 5 4 4 5 3 6 2 7 1 8 78 9 79 10 89 11 80 12 88 13
REMARK SMILES IDX 81 14 87 15 82 16 85 17 83 18 86 19 84 20 90 21 91 22 92 23
REMARK SMILES IDX 93 24 9 25 10 26 11 27 12 28 13 29 14 30 15 31 16 32 77 33
REMARK SMILES IDX 17 34 76 35 18 36 19 37 20 38 70 39 21 40 75 41 69 42 71 43
REMARK SMILES IDX 22 44 74 45 68 46 67 47 23 49 55 50 35 51 54 52 36 53 39 54
REMARK SMILES IDX 53 55 72 56 37 57 38 58 52 60 73 61 40 62 24 63 25 64 33 65
REMARK SMILES IDX 26 66 28 67 34 68 27 69 29 70 30 71 31 72 32 73 56 74 57 75
REMARK SMILES IDX 65 76 58 77 60 78 66 79 59 80 61 81 62 82 63 83 64 84 41 85
REMARK SMILES IDX 42 86 50 87 43 88 45 89 51 90 44 91 46 92 47 93 48 94 49 95
REMARK H PARENT 71 48 39 59
REMARK Flexibility Score: inf
ROOT
ATOM      1  C   UNL A   1      40.322  21.358  26.717  1.00  0.00     0.188 C 
ENDROOT
BRANCH   1   2
ATOM      2  C   UNL A   1      40.501  22.608  27.594  1.00  0.00     0.188 C 
BRANCH   2   3
ATOM      3  O   UNL A   1      39.469  23.688  27.621  1.00  0.00    -0.376 OA
BRANCH   3   4
ATOM      4  C   UNL A   1      38.422  24.190  26.333  1.00  0.00     0.202 C 
BRANCH   4   5
ATOM      5  C   UNL A   1      37.357  22.809  25.033  1.00  0.00     0.261 C 
BRANCH   5   6
ATOM      6  O   UNL A   1      35.921  22.359  25.185  1.00  0.00    -0.460 OA
BRANCH   6   7
ATOM      7  C   UNL A   1      35.082  23.132  24.475  1.00  0.00     0.338 C 
ATOM      8  O   UNL A   1      35.130  23.352  23.289  1.00  0.00    -0.246 OA
BRANCH   7   9
ATOM      9  C   UNL A   1      34.607  23.947  25.587  1.00  0.00     0.087 C 
ATOM     10  C   UNL A   1      34.743  25.392  25.459  1.00  0.00     0.027 C 
ATOM     11  C   UNL A   1      32.937  23.012  25.653  1.00  0.00     0.316 C 
ATOM     12  C   UNL A   1      33.398  26.500  25.022  1.00  0.00     0.019 A 
ATOM     13  O   UNL A   1      31.487  24.141  24.985  1.00  0.00    -0.474 OA
ATOM     14  C   UNL A   1      33.662  27.829  24.849  1.00  0.00     0.013 A 
ATOM     15  C   UNL A   1      31.791  25.929  24.711  1.00  0.00     0.148 A 
ATOM     16  C   UNL A   1      32.555  28.606  24.462  1.00  0.00     0.023 A 
ATOM     17  C   UNL A   1      30.775  26.755  24.302  1.00  0.00     0.102 A 
ATOM     18  C   UNL A   1      31.199  28.110  24.204  1.00  0.00     0.063 A 
ATOM     19  Cl  UNL A   1      29.215  26.215  23.881  1.00  0.00    -0.079 Cl
ATOM     20  Cl  UNL A   1      30.074  29.357  23.730  1.00  0.00    -0.083 Cl
BRANCH  11  21
ATOM     21  C   UNL A   1      33.257  22.385  27.195  1.00  0.00     0.430 C 
ATOM     22  F   UNL A   1      34.348  22.761  27.874  1.00  0.00    -0.167 F 
ATOM     23  F   UNL A   1      32.185  22.584  27.998  1.00  0.00    -0.167 F 
ATOM     24  F   UNL A   1      33.407  21.026  27.131  1.00  0.00    -0.167 F 
ENDBRANCH  11  21
ENDBRANCH   7   9
ENDBRANCH   6   7
ENDBRANCH   5   6
ENDBRANCH   4   5
ENDBRANCH   3   4
ENDBRANCH   2   3
ENDBRANCH   1   2
BRANCH   1  25
ATOM     25  O   UNL A   1      41.451  20.799  26.094  1.00  0.00    -0.376 OA
BRANCH  25  26
ATOM     26  C   UNL A   1      41.960  19.620  26.705  1.00  0.00     0.202 C 
BRANCH  26  27
ATOM     27  C   UNL A   1      42.799  18.670  25.834  1.00  0.00     0.261 C 
BRANCH  27  28
ATOM     28  O   UNL A   1      43.323  19.259  24.623  1.00  0.00    -0.460 OA
BRANCH  28  29
ATOM     29  C   UNL A   1      44.661  19.488  24.562  1.00  0.00     0.338 C 
ATOM     30  O   UNL A   1      45.531  18.699  24.233  1.00  0.00    -0.246 OA
BRANCH  29  31
ATOM     31  C   UNL A   1      44.924  20.918  24.831  1.00  0.00     0.060 A 
ATOM     32  C   UNL A   1      45.237  21.352  26.128  1.00  0.00     0.016 A 
ATOM     33  C   UNL A   1      44.824  21.837  23.790  1.00  0.00     0.016 A 
ATOM     34  C   UNL A   1      45.517  22.703  26.371  1.00  0.00     0.010 A 
ATOM     35  C   UNL A   1      45.054  23.192  24.043  1.00  0.00     0.010 A 
ATOM     36  C   UNL A   1      45.406  23.635  25.331  1.00  0.00    -0.014 A 
BRANCH  36  37
ATOM     37  C   UNL A   1      45.489  25.094  25.593  1.00  0.00     0.031 A 
ATOM     38  C   UNL A   1      46.846  25.736  25.602  1.00  0.00     0.074 A 
ATOM     39  C   UNL A   1      44.398  25.818  25.909  1.00  0.00     0.049 A 
ATOM     40  N   UNL A   1      47.184  26.947  25.953  1.00  0.00    -0.248 NA
ATOM     41  C   UNL A   1      47.974  24.893  25.171  1.00  0.00     0.031 C 
ATOM     42  C   UNL A   1      43.029  25.309  25.931  1.00  0.00     0.029 A 
ATOM     43  N   UNL A   1      44.274  27.126  26.317  1.00  0.00    -0.354 N 
ATOM     44  C   UNL A   1      48.567  26.999  25.839  1.00  0.00     0.074 A 
ATOM     45  C   UNL A   1      49.004  25.706  25.359  1.00  0.00     0.031 C 
ATOM     46  C   UNL A   1      42.207  26.278  26.369  1.00  0.00     0.029 A 
ATOM     47  C   UNL A   1      42.996  27.461  26.709  1.00  0.00     0.049 A 
ATOM     48  H   UNL A   1      45.026  27.761  26.328  1.00  0.00     0.167 HD
ATOM     49  C   UNL A   1      49.397  28.025  26.128  1.00  0.00     0.034 A 
ATOM     50  C   UNL A   1      42.529  28.569  27.324  1.00  0.00     0.034 A 
ATOM     51  C   UNL A   1      48.963  29.305  26.612  1.00  0.00     0.049 A 
ATOM     52  C   UNL A   1      43.490  29.685  27.659  1.00  0.00     0.074 A 
ATOM     53  C   UNL A   1      49.731  30.427  26.869  1.00  0.00     0.029 A 
ATOM     54  N   UNL A   1      47.659  29.622  26.953  1.00  0.00    -0.354 N 
ATOM     55  N   UNL A   1      44.777  29.770  27.420  1.00  0.00    -0.248 NA
ATOM     56  C   UNL A   1      42.936  30.866  28.342  1.00  0.00     0.031 C 
ATOM     57  C   UNL A   1      48.903  31.400  27.432  1.00  0.00     0.029 A 
ATOM     58  C   UNL A   1      47.607  30.911  27.457  1.00  0.00     0.049 A 
ATOM     59  H   UNL A   1      46.885  29.023  26.852  1.00  0.00     0.167 HD
ATOM     60  C   UNL A   1      45.175  31.016  27.895  1.00  0.00     0.074 A 
ATOM     61  C   UNL A   1      43.990  31.667  28.407  1.00  0.00     0.031 C 
ATOM     62  C   UNL A   1      46.414  31.564  27.924  1.00  0.00     0.034 A 
BRANCH  49  63
ATOM     63  C   UNL A   1      50.876  27.809  25.966  1.00  0.00     0.023 A 
ATOM     64  C   UNL A   1      51.673  27.480  27.078  1.00  0.00     0.012 A 
ATOM     65  C   UNL A   1      51.450  27.833  24.679  1.00  0.00     0.148 A 
ATOM     66  C   UNL A   1      53.027  27.187  26.912  1.00  0.00     0.002 A 
ATOM     67  C   UNL A   1      52.784  27.491  24.516  1.00  0.00     0.091 A 
ATOM     68  F   UNL A   1      50.673  28.173  23.640  1.00  0.00    -0.205 F 
ATOM     69  C   UNL A   1      53.578  27.178  25.632  1.00  0.00     0.022 A 
BRANCH  67  70
ATOM     70  S   UNL A   1      53.561  27.365  22.902  1.00  0.00     0.127 S 
ATOM     71  O   UNL A   1      52.578  26.575  22.163  1.00  0.00    -0.237 OA
ATOM     72  O   UNL A   1      53.647  28.768  22.498  1.00  0.00    -0.237 OA
ATOM     73  O   UNL A   1      54.843  26.708  23.119  1.00  0.00    -0.744 OA
ENDBRANCH  67  70
ENDBRANCH  49  63
BRANCH  50  74
ATOM     74  C   UNL A   1      41.092  28.678  27.721  1.00  0.00     0.023 A 
ATOM     75  C   UNL A   1      40.131  29.113  26.785  1.00  0.00     0.012 A 
ATOM     76  C   UNL A   1      40.679  28.406  29.041  1.00  0.00     0.148 A 
ATOM     77  C   UNL A   1      38.806  29.327  27.168  1.00  0.00     0.002 A 
ATOM     78  C   UNL A   1      39.345  28.553  29.398  1.00  0.00     0.091 A 
ATOM     79  F   UNL A   1      41.606  28.018  29.929  1.00  0.00    -0.205 F 
ATOM     80  C   UNL A   1      38.411  29.040  28.473  1.00  0.00     0.022 A 
BRANCH  78  81
ATOM     81  S   UNL A   1      38.726  28.080  31.018  1.00  0.00     0.127 S 
ATOM     82  O   UNL A   1      38.598  26.632  30.880  1.00  0.00    -0.237 OA
ATOM     83  O   UNL A   1      39.810  28.523  31.896  1.00  0.00    -0.237 OA
ATOM     84  O   UNL A   1      37.479  28.811  31.195  1.00  0.00    -0.744 OA
ENDBRANCH  78  81
ENDBRANCH  50  74
BRANCH  62  85
ATOM     85  C   UNL A   1      46.561  32.956  28.488  1.00  0.00     0.023 A 
ATOM     86  C   UNL A   1      46.988  33.141  29.818  1.00  0.00     0.012 A 
ATOM     87  C   UNL A   1      46.359  34.081  27.664  1.00  0.00     0.148 A 
ATOM     88  C   UNL A   1      47.179  34.424  30.328  1.00  0.00     0.002 A 
ATOM     89  C   UNL A   1      46.605  35.354  28.161  1.00  0.00     0.091 A 
ATOM     90  F   UNL A   1      45.946  33.883  26.403  1.00  0.00    -0.205 F 
ATOM     91  C   UNL A   1      47.000  35.528  29.497  1.00  0.00     0.022 A 
BRANCH  89  92
ATOM     92  S   UNL A   1      46.494  36.829  27.143  1.00  0.00     0.127 S 
ATOM     93  O   UNL A   1      47.303  36.453  25.985  1.00  0.00    -0.237 OA
ATOM     94  O   UNL A   1      45.058  36.914  26.881  1.00  0.00    -0.237 OA
ATOM     95  O   UNL A   1      47.034  37.919  27.945  1.00  0.00    -0.744 OA
ENDBRANCH  89  92
ENDBRANCH  62  85
ENDBRANCH  36  37
ENDBRANCH  29  31
ENDBRANCH  28  29
ENDBRANCH  27  28
ENDBRANCH  26  27
ENDBRANCH  25  26
ENDBRANCH   1  25
TORSDOF 21
ENDMDL
MODEL 2
REMARK VINA RESULT:     -10.7      3.940     10.257
REMARK SMILES O=C(OCCOCCOCCOC(=O)c1ccc(-c2c3nc(c(-c4cccc(S(=O)(=O)[O-])c4F)c4ccc([nH]4)c(-c4cccc(S(=O)(=O)[O-])c4F)c4nc(c(-c5cccc(S(=O)(=O)[O-])c5F)c5ccc2[nH]5)C=C4)C=C3)cc1)C1=Cc2ccc(Cl)c(Cl)c2O[C@@H]1C(F)(F)F
REMARK SMILES IDX 8 1 7 2 6 3 5 4 4 5 3 6 2 7 1 8 78 9 79 10 89 11 80 12 88 13
REMARK SMILES IDX 81 14 87 15 82 16 85 17 83 18 86 19 84 20 90 21 91 22 92 23
REMARK SMILES IDX 93 24 9 25 10 26 11 27 12 28 13 29 14 30 15 31 16 32 77 33
REMARK SMILES IDX 17 34 76 35 18 36 19 37 20 38 70 39 21 40 75 41 69 42 71 43
REMARK SMILES IDX 22 44 74 45 68 46 67 47 23 49 55 50 35 51 54 52 36 53 39 54
REMARK SMILES IDX 53 55 72 56 37 57 38 58 52 60 73 61 40 62 24 63 25 64 33 65
REMARK SMILES IDX 26 66 28 67 34 68 27 69 29 70 30 71 31 72 32 73 56 74 57 75
REMARK SMILES IDX 65 76 58 77 60 78 66 79 59 80 61 81 62 82 63 83 64 84 41 85
REMARK SMILES IDX 42 86 50 87 43 88 45 89 51 90 44 91 46 92 47 93 48 94 49 95
REMARK H PARENT 71 48 39 59
REMARK Flexibility Score: inf
ROOT
ATOM      1  C   UNL A   1      32.943  35.184  30.045  1.00  0.00     0.188 C 
ENDROOT
BRANCH   1   2
ATOM      2  C   UNL A   1      33.318  34.209  28.917  1.00  0.00     0.188 C 
BRANCH   2   3
ATOM      3  O   UNL A   1      32.509  34.130  27.664  1.00  0.00    -0.376 OA
BRANCH   3   4
ATOM      4  C   UNL A   1      31.721  32.739  26.993  1.00  0.00     0.202 C 
BRANCH   4   5
ATOM      5  C   UNL A   1      32.595  30.749  26.968  1.00  0.00     0.261 C 
BRANCH   5   6
ATOM      6  O   UNL A   1      32.578  29.773  25.811  1.00  0.00    -0.460 OA
BRANCH   6   7
ATOM      7  C   UNL A   1      32.274  28.529  26.217  1.00  0.00     0.338 C 
ATOM      8  O   UNL A   1      32.316  28.107  27.346  1.00  0.00    -0.246 OA
BRANCH   7   9
ATOM      9  C   UNL A   1      32.481  27.868  24.933  1.00  0.00     0.087 C 
ATOM     10  C   UNL A   1      33.689  27.067  24.783  1.00  0.00     0.027 C 
ATOM     11  C   UNL A   1      30.701  27.165  24.927  1.00  0.00     0.316 C 
ATOM     12  C   UNL A   1      33.734  25.274  24.890  1.00  0.00     0.019 A 
ATOM     13  O   UNL A   1      30.719  25.237  25.247  1.00  0.00    -0.474 OA
ATOM     14  C   UNL A   1      34.939  24.634  24.818  1.00  0.00     0.013 A 
ATOM     15  C   UNL A   1      32.311  24.328  25.185  1.00  0.00     0.148 A 
ATOM     16  C   UNL A   1      34.875  23.236  24.959  1.00  0.00     0.023 A 
ATOM     17  C   UNL A   1      32.345  22.967  25.346  1.00  0.00     0.102 A 
ATOM     18  C   UNL A   1      33.663  22.448  25.207  1.00  0.00     0.063 A 
ATOM     19  Cl  UNL A   1      30.988  22.018  25.746  1.00  0.00    -0.079 Cl
ATOM     20  Cl  UNL A   1      33.957  20.732  25.339  1.00  0.00    -0.083 Cl
BRANCH  11  21
ATOM     21  C   UNL A   1      30.259  28.076  23.567  1.00  0.00     0.430 C 
ATOM     22  F   UNL A   1      31.065  28.147  22.499  1.00  0.00    -0.167 F 
ATOM     23  F   UNL A   1      29.038  27.684  23.134  1.00  0.00    -0.167 F 
ATOM     24  F   UNL A   1      30.109  29.393  23.909  1.00  0.00    -0.167 F 
ENDBRANCH  11  21
ENDBRANCH   7   9
ENDBRANCH   6   7
ENDBRANCH   5   6
ENDBRANCH   4   5
ENDBRANCH   3   4
ENDBRANCH   2   3
ENDBRANCH   1   2
BRANCH   1  25
ATOM     25  O   UNL A   1      33.772  35.262  31.178  1.00  0.00    -0.376 OA
BRANCH  25  26
ATOM     26  C   UNL A   1      34.623  34.142  31.385  1.00  0.00     0.202 C 
BRANCH  26  27
ATOM     27  C   UNL A   1      34.345  33.251  32.607  1.00  0.00     0.261 C 
BRANCH  27  28
ATOM     28  O   UNL A   1      35.102  32.020  32.646  1.00  0.00    -0.460 OA
BRANCH  28  29
ATOM     29  C   UNL A   1      36.312  32.043  33.264  1.00  0.00     0.338 C 
ATOM     30  O   UNL A   1      36.541  32.337  34.425  1.00  0.00    -0.246 OA
BRANCH  29  31
ATOM     31  C   UNL A   1      37.340  31.515  32.343  1.00  0.00     0.060 A 
ATOM     32  C   UNL A   1      38.190  30.474  32.747  1.00  0.00     0.016 A 
ATOM     33  C   UNL A   1      37.480  32.084  31.079  1.00  0.00     0.016 A 
ATOM     34  C   UNL A   1      39.141  29.956  31.858  1.00  0.00     0.010 A 
ATOM     35  C   UNL A   1      38.463  31.600  30.211  1.00  0.00     0.010 A 
ATOM     36  C   UNL A   1      39.297  30.532  30.590  1.00  0.00    -0.014 A 
BRANCH  36  37
ATOM     37  C   UNL A   1      40.426  30.151  29.705  1.00  0.00     0.031 A 
ATOM     38  C   UNL A   1      40.352  28.834  28.989  1.00  0.00     0.074 A 
ATOM     39  C   UNL A   1      41.535  30.910  29.610  1.00  0.00     0.049 A 
ATOM     40  N   UNL A   1      41.269  28.220  28.292  1.00  0.00    -0.248 NA
ATOM     41  C   UNL A   1      39.075  28.105  29.085  1.00  0.00     0.031 C 
ATOM     42  C   UNL A   1      41.724  32.206  30.255  1.00  0.00     0.029 A 
ATOM     43  N   UNL A   1      42.732  30.677  28.971  1.00  0.00    -0.354 N 
ATOM     44  C   UNL A   1      40.704  27.011  27.911  1.00  0.00     0.074 A 
ATOM     45  C   UNL A   1      39.354  26.988  28.430  1.00  0.00     0.031 C 
ATOM     46  C   UNL A   1      42.974  32.638  30.013  1.00  0.00     0.029 A 
ATOM     47  C   UNL A   1      43.693  31.626  29.242  1.00  0.00     0.049 A 
ATOM     48  H   UNL A   1      42.885  29.906  28.378  1.00  0.00     0.167 HD
ATOM     49  C   UNL A   1      41.268  26.003  27.209  1.00  0.00     0.034 A 
ATOM     50  C   UNL A   1      45.012  31.646  28.951  1.00  0.00     0.034 A 
ATOM     51  C   UNL A   1      42.611  26.024  26.701  1.00  0.00     0.049 A 
ATOM     52  C   UNL A   1      45.616  30.489  28.190  1.00  0.00     0.074 A 
ATOM     53  C   UNL A   1      43.245  25.072  25.921  1.00  0.00     0.029 A 
ATOM     54  N   UNL A   1      43.539  27.019  26.955  1.00  0.00    -0.354 N 
ATOM     55  N   UNL A   1      45.033  29.413  27.720  1.00  0.00    -0.248 NA
ATOM     56  C   UNL A   1      47.060  30.551  27.910  1.00  0.00     0.031 C 
ATOM     57  C   UNL A   1      44.577  25.459  25.762  1.00  0.00     0.029 A 
ATOM     58  C   UNL A   1      44.753  26.685  26.380  1.00  0.00     0.049 A 
ATOM     59  H   UNL A   1      43.363  27.842  27.466  1.00  0.00     0.167 HD
ATOM     60  C   UNL A   1      46.028  28.690  27.070  1.00  0.00     0.074 A 
ATOM     61  C   UNL A   1      47.245  29.463  27.176  1.00  0.00     0.031 C 
ATOM     62  C   UNL A   1      45.947  27.484  26.457  1.00  0.00     0.034 A 
BRANCH  49  63
ATOM     63  C   UNL A   1      40.453  24.762  26.969  1.00  0.00     0.023 A 
ATOM     64  C   UNL A   1      39.154  24.857  26.435  1.00  0.00     0.012 A 
ATOM     65  C   UNL A   1      41.030  23.495  27.179  1.00  0.00     0.148 A 
ATOM     66  C   UNL A   1      38.435  23.703  26.124  1.00  0.00     0.002 A 
ATOM     67  C   UNL A   1      40.330  22.353  26.820  1.00  0.00     0.091 A 
ATOM     68  F   UNL A   1      42.260  23.433  27.710  1.00  0.00    -0.205 F 
ATOM     69  C   UNL A   1      39.028  22.454  26.302  1.00  0.00     0.022 A 
BRANCH  67  70
ATOM     70  S   UNL A   1      41.039  20.707  26.928  1.00  0.00     0.127 S 
ATOM     71  O   UNL A   1      41.151  20.529  28.375  1.00  0.00    -0.237 OA
ATOM     72  O   UNL A   1      40.006  19.891  26.291  1.00  0.00    -0.237 OA
ATOM     73  O   UNL A   1      42.307  20.763  26.214  1.00  0.00    -0.744 OA
ENDBRANCH  67  70
ENDBRANCH  49  63
BRANCH  50  74
ATOM     74  C   UNL A   1      45.882  32.769  29.417  1.00  0.00     0.023 A 
ATOM     75  C   UNL A   1      46.121  33.875  28.576  1.00  0.00     0.012 A 
ATOM     76  C   UNL A   1      46.523  32.719  30.672  1.00  0.00     0.148 A 
ATOM     77  C   UNL A   1      47.019  34.877  28.950  1.00  0.00     0.002 A 
ATOM     78  C   UNL A   1      47.361  33.754  31.068  1.00  0.00     0.091 A 
ATOM     79  F   UNL A   1      46.309  31.650  31.452  1.00  0.00    -0.205 F 
ATOM     80  C   UNL A   1      47.632  34.820  30.199  1.00  0.00     0.022 A 
BRANCH  78  81
ATOM     81  S   UNL A   1      48.088  33.826  32.710  1.00  0.00     0.127 S 
ATOM     82  O   UNL A   1      49.492  33.539  32.430  1.00  0.00    -0.237 OA
ATOM     83  O   UNL A   1      47.807  35.207  33.104  1.00  0.00    -0.237 OA
ATOM     84  O   UNL A   1      47.384  32.825  33.501  1.00  0.00    -0.744 OA
ENDBRANCH  78  81
ENDBRANCH  50  74
BRANCH  62  85
ATOM     85  C   UNL A   1      47.193  26.932  25.809  1.00  0.00     0.023 A 
ATOM     86  C   UNL A   1      47.415  27.113  24.430  1.00  0.00     0.012 A 
ATOM     87  C   UNL A   1      48.185  26.311  26.594  1.00  0.00     0.148 A 
ATOM     88  C   UNL A   1      48.590  26.655  23.836  1.00  0.00     0.002 A 
ATOM     89  C   UNL A   1      49.376  25.906  26.006  1.00  0.00     0.091 A 
ATOM     90  F   UNL A   1      47.951  26.142  27.904  1.00  0.00    -0.205 F 
ATOM     91  C   UNL A   1      49.575  26.064  24.625  1.00  0.00     0.022 A 
BRANCH  89  92
ATOM     92  S   UNL A   1      50.740  25.222  26.954  1.00  0.00     0.127 S 
ATOM     93  O   UNL A   1      50.091  24.109  27.648  1.00  0.00    -0.237 OA
ATOM     94  O   UNL A   1      51.675  24.823  25.903  1.00  0.00    -0.237 OA
ATOM     95  O   UNL A   1      51.214  26.295  27.818  1.00  0.00    -0.744 OA
ENDBRANCH  89  92
ENDBRANCH  62  85
ENDBRANCH  36  37
ENDBRANCH  29  31
ENDBRANCH  28  29
ENDBRANCH  27  28
ENDBRANCH  26  27
ENDBRANCH  25  26
ENDBRANCH   1  25
TORSDOF 21
ENDMDL
MODEL 3
REMARK VINA RESULT:     -10.6      1.833      2.206
REMARK SMILES O=C(OCCOCCOCCOC(=O)c1ccc(-c2c3nc(c(-c4cccc(S(=O)(=O)[O-])c4F)c4ccc([nH]4)c(-c4cccc(S(=O)(=O)[O-])c4F)c4nc(c(-c5cccc(S(=O)(=O)[O-])c5F)c5ccc2[nH]5)C=C4)C=C3)cc1)C1=Cc2ccc(Cl)c(Cl)c2O[C@@H]1C(F)(F)F
REMARK SMILES IDX 8 1 7 2 6 3 5 4 4 5 3 6 2 7 1 8 78 9 79 10 89 11 80 12 88 13
REMARK SMILES IDX 81 14 87 15 82 16 85 17 83 18 86 19 84 20 90 21 91 22 92 23
REMARK SMILES IDX 93 24 9 25 10 26 11 27 12 28 13 29 14 30 15 31 16 32 77 33
REMARK SMILES IDX 17 34 76 35 18 36 19 37 20 38 70 39 21 40 75 41 69 42 71 43
REMARK SMILES IDX 22 44 74 45 68 46 67 47 23 49 55 50 35 51 54 52 36 53 39 54
REMARK SMILES IDX 53 55 72 56 37 57 38 58 52 60 73 61 40 62 24 63 25 64 33 65
REMARK SMILES IDX 26 66 28 67 34 68 27 69 29 70 30 71 31 72 32 73 56 74 57 75
REMARK SMILES IDX 65 76 58 77 60 78 66 79 59 80 61 81 62 82 63 83 64 84 41 85
REMARK SMILES IDX 42 86 50 87 43 88 45 89 51 90 44 91 46 92 47 93 48 94 49 95
REMARK H PARENT 71 48 39 59
REMARK Flexibility Score: inf
ROOT
ATOM      1  C   UNL A   1      40.733  20.986  26.236  1.00  0.00     0.188 C 
ENDROOT
BRANCH   1   2
ATOM      2  C   UNL A   1      39.966  22.135  26.909  1.00  0.00     0.188 C 
BRANCH   2   3
ATOM      3  O   UNL A   1      38.899  22.883  26.179  1.00  0.00    -0.376 OA
BRANCH   3   4
ATOM      4  C   UNL A   1      37.462  22.244  25.450  1.00  0.00     0.202 C 
BRANCH   4   5
ATOM      5  C   UNL A   1      35.451  22.706  26.134  1.00  0.00     0.261 C 
BRANCH   5   6
ATOM      6  O   UNL A   1      34.229  22.907  25.264  1.00  0.00    -0.460 OA
BRANCH   6   7
ATOM      7  C   UNL A   1      34.130  24.175  24.833  1.00  0.00     0.338 C 
ATOM      8  O   UNL A   1      35.039  24.910  24.534  1.00  0.00    -0.246 OA
BRANCH   7   9
ATOM      9  C   UNL A   1      32.814  24.452  25.397  1.00  0.00     0.087 C 
ATOM     10  C   UNL A   1      32.746  25.412  26.492  1.00  0.00     0.027 C 
ATOM     11  C   UNL A   1      32.049  24.725  23.663  1.00  0.00     0.316 C 
ATOM     12  C   UNL A   1      32.226  27.121  26.309  1.00  0.00     0.019 A 
ATOM     13  O   UNL A   1      31.663  26.618  23.368  1.00  0.00    -0.474 OA
ATOM     14  C   UNL A   1      32.283  27.953  27.391  1.00  0.00     0.013 A 
ATOM     15  C   UNL A   1      31.747  27.786  24.781  1.00  0.00     0.148 A 
ATOM     16  C   UNL A   1      31.900  29.282  27.137  1.00  0.00     0.023 A 
ATOM     17  C   UNL A   1      31.423  29.108  24.614  1.00  0.00     0.102 A 
ATOM     18  C   UNL A   1      31.495  29.830  25.838  1.00  0.00     0.063 A 
ATOM     19  Cl  UNL A   1      31.055  29.819  23.110  1.00  0.00    -0.079 Cl
ATOM     20  Cl  UNL A   1      31.096  31.529  25.887  1.00  0.00    -0.083 Cl
BRANCH  11  21
ATOM     21  C   UNL A   1      31.030  23.378  23.812  1.00  0.00     0.430 C 
ATOM     22  F   UNL A   1      31.501  22.139  23.616  1.00  0.00    -0.167 F 
ATOM     23  F   UNL A   1      30.421  23.399  25.020  1.00  0.00    -0.167 F 
ATOM     24  F   UNL A   1      30.013  23.452  22.899  1.00  0.00    -0.167 F 
ENDBRANCH  11  21
ENDBRANCH   7   9
ENDBRANCH   6   7
ENDBRANCH   5   6
ENDBRANCH   4   5
ENDBRANCH   3   4
ENDBRANCH   2   3
ENDBRANCH   1   2
BRANCH   1  25
ATOM     25  O   UNL A   1      42.009  20.647  26.720  1.00  0.00    -0.376 OA
BRANCH  25  26
ATOM     26  C   UNL A   1      42.250  19.254  26.874  1.00  0.00     0.202 C 
BRANCH  26  27
ATOM     27  C   UNL A   1      43.143  18.563  25.830  1.00  0.00     0.261 C 
BRANCH  27  28
ATOM     28  O   UNL A   1      43.459  19.369  24.673  1.00  0.00    -0.460 OA
BRANCH  28  29
ATOM     29  C   UNL A   1      44.767  19.650  24.438  1.00  0.00     0.338 C 
ATOM     30  O   UNL A   1      45.604  18.912  23.946  1.00  0.00    -0.246 OA
BRANCH  29  31
ATOM     31  C   UNL A   1      45.023  21.072  24.748  1.00  0.00     0.060 A 
ATOM     32  C   UNL A   1      45.353  21.467  26.054  1.00  0.00     0.016 A 
ATOM     33  C   UNL A   1      44.902  22.023  23.738  1.00  0.00     0.016 A 
ATOM     34  C   UNL A   1      45.627  22.812  26.335  1.00  0.00     0.010 A 
ATOM     35  C   UNL A   1      45.125  23.372  24.031  1.00  0.00     0.010 A 
ATOM     36  C   UNL A   1      45.494  23.776  25.327  1.00  0.00    -0.014 A 
BRANCH  36  37
ATOM     37  C   UNL A   1      45.570  25.227  25.634  1.00  0.00     0.031 A 
ATOM     38  C   UNL A   1      46.926  25.867  25.698  1.00  0.00     0.074 A 
ATOM     39  C   UNL A   1      44.471  25.942  25.942  1.00  0.00     0.049 A 
ATOM     40  N   UNL A   1      47.256  27.067  26.092  1.00  0.00    -0.248 NA
ATOM     41  C   UNL A   1      48.065  25.036  25.271  1.00  0.00     0.031 C 
ATOM     42  C   UNL A   1      43.102  25.434  25.914  1.00  0.00     0.029 A 
ATOM     43  N   UNL A   1      44.337  27.238  26.386  1.00  0.00    -0.354 N 
ATOM     44  C   UNL A   1      48.641  27.120  26.016  1.00  0.00     0.074 A 
ATOM     45  C   UNL A   1      49.090  25.842  25.510  1.00  0.00     0.031 C 
ATOM     46  C   UNL A   1      42.269  26.390  26.358  1.00  0.00     0.029 A 
ATOM     47  C   UNL A   1      43.049  27.562  26.753  1.00  0.00     0.049 A 
ATOM     48  H   UNL A   1      45.088  27.872  26.435  1.00  0.00     0.167 HD
ATOM     49  C   UNL A   1      49.463  28.136  26.357  1.00  0.00     0.034 A 
ATOM     50  C   UNL A   1      42.567  28.652  27.389  1.00  0.00     0.034 A 
ATOM     51  C   UNL A   1      49.017  29.402  26.867  1.00  0.00     0.049 A 
ATOM     52  C   UNL A   1      43.519  29.757  27.781  1.00  0.00     0.074 A 
ATOM     53  C   UNL A   1      49.778  30.516  27.177  1.00  0.00     0.029 A 
ATOM     54  N   UNL A   1      47.704  29.711  27.183  1.00  0.00    -0.354 N 
ATOM     55  N   UNL A   1      44.811  29.847  27.578  1.00  0.00    -0.248 NA
ATOM     56  C   UNL A   1      42.947  30.918  28.483  1.00  0.00     0.031 C 
ATOM     57  C   UNL A   1      48.935  31.472  27.746  1.00  0.00     0.029 A 
ATOM     58  C   UNL A   1      47.640  30.984  27.723  1.00  0.00     0.049 A 
ATOM     59  H   UNL A   1      46.933  29.116  27.044  1.00  0.00     0.167 HD
ATOM     60  C   UNL A   1      45.197  31.078  28.100  1.00  0.00     0.074 A 
ATOM     61  C   UNL A   1      43.999  31.715  28.599  1.00  0.00     0.031 C 
ATOM     62  C   UNL A   1      46.435  31.625  28.178  1.00  0.00     0.034 A 
BRANCH  49  63
ATOM     63  C   UNL A   1      50.946  27.924  26.227  1.00  0.00     0.023 A 
ATOM     64  C   UNL A   1      51.718  27.590  27.356  1.00  0.00     0.012 A 
ATOM     65  C   UNL A   1      51.549  27.957  24.955  1.00  0.00     0.148 A 
ATOM     66  C   UNL A   1      53.076  27.301  27.219  1.00  0.00     0.002 A 
ATOM     67  C   UNL A   1      52.887  27.618  24.820  1.00  0.00     0.091 A 
ATOM     68  F   UNL A   1      50.796  28.301  23.900  1.00  0.00    -0.205 F 
ATOM     69  C   UNL A   1      53.656  27.299  25.952  1.00  0.00     0.022 A 
BRANCH  67  70
ATOM     70  S   UNL A   1      53.701  27.503  23.224  1.00  0.00     0.127 S 
ATOM     71  O   UNL A   1      54.638  26.403  23.449  1.00  0.00    -0.237 OA
ATOM     72  O   UNL A   1      52.583  27.181  22.338  1.00  0.00    -0.237 OA
ATOM     73  O   UNL A   1      54.318  28.801  22.988  1.00  0.00    -0.744 OA
ENDBRANCH  67  70
ENDBRANCH  49  63
BRANCH  50  74
ATOM     74  C   UNL A   1      41.119  28.750  27.750  1.00  0.00     0.023 A 
ATOM     75  C   UNL A   1      40.172  29.137  26.779  1.00  0.00     0.012 A 
ATOM     76  C   UNL A   1      40.682  28.518  29.070  1.00  0.00     0.148 A 
ATOM     77  C   UNL A   1      38.835  29.342  27.127  1.00  0.00     0.002 A 
ATOM     78  C   UNL A   1      39.338  28.655  29.393  1.00  0.00     0.091 A 
ATOM     79  F   UNL A   1      41.595  28.176  29.991  1.00  0.00    -0.205 F 
ATOM     80  C   UNL A   1      38.417  29.093  28.432  1.00  0.00     0.022 A 
BRANCH  78  81
ATOM     81  S   UNL A   1      38.692  28.229  31.015  1.00  0.00     0.127 S 
ATOM     82  O   UNL A   1      37.382  28.873  30.996  1.00  0.00    -0.237 OA
ATOM     83  O   UNL A   1      38.662  26.767  30.954  1.00  0.00    -0.237 OA
ATOM     84  O   UNL A   1      39.646  28.766  31.976  1.00  0.00    -0.744 OA
ENDBRANCH  78  81
ENDBRANCH  50  74
BRANCH  62  85
ATOM     85  C   UNL A   1      46.567  32.999  28.786  1.00  0.00     0.023 A 
ATOM     86  C   UNL A   1      46.435  34.147  27.979  1.00  0.00     0.012 A 
ATOM     87  C   UNL A   1      46.734  33.147  30.177  1.00  0.00     0.148 A 
ATOM     88  C   UNL A   1      46.500  35.420  28.543  1.00  0.00     0.002 A 
ATOM     89  C   UNL A   1      46.743  34.417  30.739  1.00  0.00     0.091 A 
ATOM     90  F   UNL A   1      46.865  32.042  30.926  1.00  0.00    -0.205 F 
ATOM     91  C   UNL A   1      46.642  35.555  29.923  1.00  0.00     0.022 A 
BRANCH  89  92
ATOM     92  S   UNL A   1      46.825  34.689  32.513  1.00  0.00     0.127 S 
ATOM     93  O   UNL A   1      46.649  36.139  32.599  1.00  0.00    -0.237 OA
ATOM     94  O   UNL A   1      45.688  33.907  32.997  1.00  0.00    -0.237 OA
ATOM     95  O   UNL A   1      48.130  34.200  32.940  1.00  0.00    -0.744 OA
ENDBRANCH  89  92
ENDBRANCH  62  85
ENDBRANCH  36  37
ENDBRANCH  29  31
ENDBRANCH  28  29
ENDBRANCH  27  28
ENDBRANCH  26  27
ENDBRANCH  25  26
ENDBRANCH   1  25
TORSDOF 21
ENDMDL
