MODEL 1
REMARK VINA RESULT:     -10.3      0.000      0.000
REMARK SMILES CC(=O)NCCNC(=O)C[N@H+]1CC[C@@H](C(=O)OCCOCCOCCOC(=O)c2ccc(-c3c4nc(c(-c5cccc(S(=O)(=O)[O-])c5F)c5ccc([nH]5)c(-c5cccc(S(=O)(=O)[O-])c5F)c5nc(c(-c6cccc(S(=O)(=O)[O-])c6F)c6ccc3[nH]6)C=C5)C=C4)cc2)[C@H]1C
REMARK SMILES IDX 21 1 20 2 19 3 18 4 17 5 15 6 16 7 14 8 11 9 12 10 92 11
REMARK SMILES IDX 13 13 93 14 10 15 8 16 7 17 9 19 6 20 5 21 4 22 1 23 2 24
REMARK SMILES IDX 3 25 22 27 23 28 24 29 25 30 26 31 27 32 28 33 29 34 30 35
REMARK SMILES IDX 91 36 31 37 90 38 32 39 33 40 34 41 84 42 35 43 89 44 83 45
REMARK SMILES IDX 85 46 36 47 88 48 82 49 81 50 37 52 69 53 49 54 68 55 50 56
REMARK SMILES IDX 53 57 67 58 86 59 51 60 52 61 66 63 87 64 54 65 38 66 39 67
REMARK SMILES IDX 47 68 40 69 42 70 48 71 41 72 43 73 44 74 45 75 46 76 70 77
REMARK SMILES IDX 71 78 79 79 72 80 74 81 80 82 73 83 75 84 76 85 77 86 78 87
REMARK SMILES IDX 55 88 56 89 64 90 57 91 59 92 65 93 58 94 60 95 61 96 62 97
REMARK SMILES IDX 63 98
REMARK H PARENT 11 12 7 18 4 26 85 51 53 62
REMARK Flexibility Score: inf
ROOT
ATOM      1  C   UNL A   1      33.425  29.310  25.850  1.00  0.00     0.188 C 
ENDROOT
BRANCH   1   2
ATOM      2  O   UNL A   1      33.331  28.895  24.500  1.00  0.00    -0.376 OA
BRANCH   2   3
ATOM      3  C   UNL A   1      32.034  28.899  23.923  1.00  0.00     0.202 C 
BRANCH   3   4
ATOM      4  C   UNL A   1      31.526  27.588  23.303  1.00  0.00     0.261 C 
BRANCH   4   5
ATOM      5  O   UNL A   1      32.492  26.514  23.155  1.00  0.00    -0.463 OA
BRANCH   5   6
ATOM      6  C   UNL A   1      32.196  25.538  22.265  1.00  0.00     0.315 C 
ATOM      7  O   UNL A   1      32.076  25.750  21.061  1.00  0.00    -0.252 OA
BRANCH   6   8
ATOM      8  C   UNL A   1      32.083  24.126  22.837  1.00  0.00     0.162 C 
ATOM      9  N   UNL A   1      32.632  23.043  24.889  1.00  0.00    -0.324 N 
ATOM     10  C   UNL A   1      31.189  23.041  24.841  1.00  0.00     0.264 C 
ATOM     11  C   UNL A   1      33.193  23.320  23.572  1.00  0.00     0.195 C 
ATOM     12  H   UNL A   1      33.107  22.157  25.064  1.00  0.00     0.348 HD
ATOM     13  C   UNL A   1      30.918  24.154  23.858  1.00  0.00     0.083 C 
ATOM     14  C   UNL A   1      34.683  23.667  23.510  1.00  0.00     0.076 C 
BRANCH   9  15
ATOM     15  C   UNL A   1      33.302  23.177  26.167  1.00  0.00     0.363 C 
BRANCH  15  16
ATOM     16  C   UNL A   1      33.385  21.921  27.055  1.00  0.00     0.275 C 
ATOM     17  N   UNL A   1      33.427  20.634  26.611  1.00  0.00    -0.349 N 
ATOM     18  H   UNL A   1      33.467  19.967  27.334  1.00  0.00     0.163 HD
ATOM     19  O   UNL A   1      33.324  22.050  28.287  1.00  0.00    -0.269 OA
BRANCH  17  20
ATOM     20  C   UNL A   1      33.425  20.055  25.283  1.00  0.00     0.137 C 
BRANCH  20  21
ATOM     21  C   UNL A   1      32.724  18.690  25.204  1.00  0.00     0.137 C 
BRANCH  21  22
ATOM     22  N   UNL A   1      33.456  17.660  24.495  1.00  0.00    -0.355 N 
ATOM     23  C   UNL A   1      32.327  18.041  22.314  1.00  0.00     0.114 C 
ATOM     24  C   UNL A   1      33.389  17.379  23.156  1.00  0.00     0.216 C 
ATOM     25  O   UNL A   1      34.168  16.557  22.675  1.00  0.00    -0.275 OA
ATOM     26  H   UNL A   1      34.065  17.103  25.032  1.00  0.00     0.163 HD
ENDBRANCH  21  22
ENDBRANCH  20  21
ENDBRANCH  17  20
ENDBRANCH  15  16
ENDBRANCH   9  15
ENDBRANCH   6   8
ENDBRANCH   5   6
ENDBRANCH   4   5
ENDBRANCH   3   4
ENDBRANCH   2   3
ENDBRANCH   1   2
BRANCH   1  27
ATOM     27  C   UNL A   1      32.189  29.106  26.737  1.00  0.00     0.188 C 
BRANCH  27  28
ATOM     28  O   UNL A   1      31.399  30.255  26.998  1.00  0.00    -0.376 OA
BRANCH  28  29
ATOM     29  C   UNL A   1      31.731  31.436  26.271  1.00  0.00     0.202 C 
BRANCH  29  30
ATOM     30  C   UNL A   1      31.769  32.717  27.128  1.00  0.00     0.261 C 
BRANCH  30  31
ATOM     31  O   UNL A   1      32.979  33.497  27.053  1.00  0.00    -0.460 OA
BRANCH  31  32
ATOM     32  C   UNL A   1      33.453  34.065  28.196  1.00  0.00     0.338 C 
ATOM     33  O   UNL A   1      32.881  34.884  28.883  1.00  0.00    -0.246 OA
BRANCH  32  34
ATOM     34  C   UNL A   1      34.615  33.233  28.651  1.00  0.00     0.060 A 
ATOM     35  C   UNL A   1      34.419  31.851  28.838  1.00  0.00     0.016 A 
ATOM     36  C   UNL A   1      35.908  33.760  28.711  1.00  0.00     0.016 A 
ATOM     37  C   UNL A   1      35.501  31.010  29.126  1.00  0.00     0.010 A 
ATOM     38  C   UNL A   1      36.985  32.923  29.021  1.00  0.00     0.010 A 
ATOM     39  C   UNL A   1      36.783  31.553  29.269  1.00  0.00    -0.014 A 
BRANCH  39  40
ATOM     40  C   UNL A   1      37.860  30.788  29.950  1.00  0.00     0.031 A 
ATOM     41  C   UNL A   1      38.151  31.153  31.383  1.00  0.00     0.074 A 
ATOM     42  C   UNL A   1      38.601  29.848  29.334  1.00  0.00     0.049 A 
ATOM     43  N   UNL A   1      39.116  30.752  32.168  1.00  0.00    -0.248 NA
ATOM     44  C   UNL A   1      37.231  32.119  32.007  1.00  0.00     0.031 C 
ATOM     45  C   UNL A   1      38.419  29.383  27.962  1.00  0.00     0.029 A 
ATOM     46  N   UNL A   1      39.691  29.143  29.787  1.00  0.00    -0.354 N 
ATOM     47  C   UNL A   1      38.943  31.447  33.358  1.00  0.00     0.074 A 
ATOM     48  C   UNL A   1      37.788  32.299  33.193  1.00  0.00     0.031 C 
ATOM     49  C   UNL A   1      39.391  28.498  27.671  1.00  0.00     0.029 A 
ATOM     50  C   UNL A   1      40.284  28.362  28.822  1.00  0.00     0.049 A 
ATOM     51  H   UNL A   1      40.017  29.193  30.715  1.00  0.00     0.167 HD
ATOM     52  C   UNL A   1      39.675  31.382  34.494  1.00  0.00     0.034 A 
ATOM     53  C   UNL A   1      41.432  27.652  28.854  1.00  0.00     0.034 A 
ATOM     54  C   UNL A   1      40.819  30.534  34.666  1.00  0.00     0.049 A 
ATOM     55  C   UNL A   1      42.259  27.627  30.119  1.00  0.00     0.074 A 
ATOM     56  C   UNL A   1      41.600  30.366  35.796  1.00  0.00     0.029 A 
ATOM     57  N   UNL A   1      41.360  29.727  33.679  1.00  0.00    -0.354 N 
ATOM     58  N   UNL A   1      42.026  28.208  31.273  1.00  0.00    -0.248 NA
ATOM     59  C   UNL A   1      43.496  26.829  30.095  1.00  0.00     0.031 C 
ATOM     60  C   UNL A   1      42.640  29.487  35.479  1.00  0.00     0.029 A 
ATOM     61  C   UNL A   1      42.475  29.069  34.168  1.00  0.00     0.049 A 
ATOM     62  H   UNL A   1      41.004  29.634  32.766  1.00  0.00     0.167 HD
ATOM     63  C   UNL A   1      43.059  27.809  32.119  1.00  0.00     0.074 A 
ATOM     64  C   UNL A   1      43.912  26.928  31.350  1.00  0.00     0.031 C 
ATOM     65  C   UNL A   1      43.285  28.149  33.412  1.00  0.00     0.034 A 
BRANCH  52  66
ATOM     66  C   UNL A   1      39.253  32.259  35.643  1.00  0.00     0.023 A 
ATOM     67  C   UNL A   1      38.364  31.761  36.617  1.00  0.00     0.012 A 
ATOM     68  C   UNL A   1      39.769  33.562  35.776  1.00  0.00     0.148 A 
ATOM     69  C   UNL A   1      37.969  32.560  37.689  1.00  0.00     0.002 A 
ATOM     70  C   UNL A   1      39.411  34.333  36.873  1.00  0.00     0.091 A 
ATOM     71  F   UNL A   1      40.593  34.024  34.824  1.00  0.00    -0.205 F 
ATOM     72  C   UNL A   1      38.500  33.840  37.822  1.00  0.00     0.022 A 
BRANCH  70  73
ATOM     73  S   UNL A   1      40.102  35.961  37.180  1.00  0.00     0.127 S 
ATOM     74  O   UNL A   1      39.692  36.687  35.980  1.00  0.00    -0.237 OA
ATOM     75  O   UNL A   1      39.407  36.363  38.403  1.00  0.00    -0.237 OA
ATOM     76  O   UNL A   1      41.538  35.768  37.332  1.00  0.00    -0.744 OA
ENDBRANCH  70  73
ENDBRANCH  52  66
BRANCH  53  77
ATOM     77  C   UNL A   1      41.881  26.888  27.652  1.00  0.00     0.023 A 
ATOM     78  C   UNL A   1      42.493  27.570  26.581  1.00  0.00     0.012 A 
ATOM     79  C   UNL A   1      41.690  25.496  27.556  1.00  0.00     0.148 A 
ATOM     80  C   UNL A   1      42.874  26.888  25.425  1.00  0.00     0.002 A 
ATOM     81  C   UNL A   1      42.122  24.813  26.425  1.00  0.00     0.091 A 
ATOM     82  F   UNL A   1      41.087  24.867  28.574  1.00  0.00    -0.205 F 
ATOM     83  C   UNL A   1      42.697  25.509  25.350  1.00  0.00     0.022 A 
BRANCH  81  84
ATOM     84  S   UNL A   1      42.043  23.024  26.285  1.00  0.00     0.127 S 
ATOM     85  O   UNL A   1      40.605  22.780  26.368  1.00  0.00    -0.237 OA
ATOM     86  O   UNL A   1      42.631  22.802  24.964  1.00  0.00    -0.237 OA
ATOM     87  O   UNL A   1      42.833  22.506  27.392  1.00  0.00    -0.744 OA
ENDBRANCH  81  84
ENDBRANCH  53  77
BRANCH  65  88
ATOM     88  C   UNL A   1      44.464  27.526  34.119  1.00  0.00     0.023 A 
ATOM     89  C   UNL A   1      45.703  28.194  34.158  1.00  0.00     0.012 A 
ATOM     90  C   UNL A   1      44.308  26.318  34.830  1.00  0.00     0.148 A 
ATOM     91  C   UNL A   1      46.776  27.655  34.868  1.00  0.00     0.002 A 
ATOM     92  C   UNL A   1      45.365  25.815  35.578  1.00  0.00     0.091 A 
ATOM     93  F   UNL A   1      43.124  25.691  34.771  1.00  0.00    -0.205 F 
ATOM     94  C   UNL A   1      46.604  26.474  35.588  1.00  0.00     0.022 A 
BRANCH  92  95
ATOM     95  S   UNL A   1      45.205  24.358  36.618  1.00  0.00     0.127 S 
ATOM     96  O   UNL A   1      44.460  23.451  35.745  1.00  0.00    -0.237 OA
ATOM     97  O   UNL A   1      46.602  23.982  36.837  1.00  0.00    -0.237 OA
ATOM     98  O   UNL A   1      44.498  24.790  37.816  1.00  0.00    -0.744 OA
ENDBRANCH  92  95
ENDBRANCH  65  88
ENDBRANCH  39  40
ENDBRANCH  32  34
ENDBRANCH  31  32
ENDBRANCH  30  31
ENDBRANCH  29  30
ENDBRANCH  28  29
ENDBRANCH  27  28
ENDBRANCH   1  27
TORSDOF 25
ENDMDL
MODEL 2
REMARK VINA RESULT:     -10.1      1.921      2.644
REMARK SMILES CC(=O)NCCNC(=O)C[N@H+]1CC[C@@H](C(=O)OCCOCCOCCOC(=O)c2ccc(-c3c4nc(c(-c5cccc(S(=O)(=O)[O-])c5F)c5ccc([nH]5)c(-c5cccc(S(=O)(=O)[O-])c5F)c5nc(c(-c6cccc(S(=O)(=O)[O-])c6F)c6ccc3[nH]6)C=C5)C=C4)cc2)[C@H]1C
REMARK SMILES IDX 21 1 20 2 19 3 18 4 17 5 15 6 16 7 14 8 11 9 12 10 92 11
REMARK SMILES IDX 13 13 93 14 10 15 8 16 7 17 9 19 6 20 5 21 4 22 1 23 2 24
REMARK SMILES IDX 3 25 22 27 23 28 24 29 25 30 26 31 27 32 28 33 29 34 30 35
REMARK SMILES IDX 91 36 31 37 90 38 32 39 33 40 34 41 84 42 35 43 89 44 83 45
REMARK SMILES IDX 85 46 36 47 88 48 82 49 81 50 37 52 69 53 49 54 68 55 50 56
REMARK SMILES IDX 53 57 67 58 86 59 51 60 52 61 66 63 87 64 54 65 38 66 39 67
REMARK SMILES IDX 47 68 40 69 42 70 48 71 41 72 43 73 44 74 45 75 46 76 70 77
REMARK SMILES IDX 71 78 79 79 72 80 74 81 80 82 73 83 75 84 76 85 77 86 78 87
REMARK SMILES IDX 55 88 56 89 64 90 57 91 59 92 65 93 58 94 60 95 61 96 62 97
REMARK SMILES IDX 63 98
REMARK H PARENT 11 12 7 18 4 26 85 51 53 62
REMARK Flexibility Score: inf
ROOT
ATOM      1  C   UNL A   1      33.525  27.915  26.584  1.00  0.00     0.188 C 
ENDROOT
BRANCH   1   2
ATOM      2  O   UNL A   1      33.814  27.817  25.201  1.00  0.00    -0.376 OA
BRANCH   2   3
ATOM      3  C   UNL A   1      33.866  26.508  24.654  1.00  0.00     0.202 C 
BRANCH   3   4
ATOM      4  C   UNL A   1      34.360  25.373  25.565  1.00  0.00     0.261 C 
BRANCH   4   5
ATOM      5  O   UNL A   1      35.047  24.267  24.921  1.00  0.00    -0.463 OA
BRANCH   5   6
ATOM      6  C   UNL A   1      36.100  23.729  25.581  1.00  0.00     0.315 C 
ATOM      7  O   UNL A   1      37.094  24.381  25.890  1.00  0.00    -0.252 OA
BRANCH   6   8
ATOM      8  C   UNL A   1      35.953  22.264  25.987  1.00  0.00     0.162 C 
ATOM      9  N   UNL A   1      34.257  20.594  25.854  1.00  0.00    -0.324 N 
ATOM     10  C   UNL A   1      35.292  20.146  24.953  1.00  0.00     0.264 C 
ATOM     11  C   UNL A   1      34.766  21.618  26.759  1.00  0.00     0.195 C 
ATOM     12  H   UNL A   1      33.917  19.938  26.558  1.00  0.00     0.348 HD
ATOM     13  C   UNL A   1      36.033  21.433  24.682  1.00  0.00     0.083 C 
ATOM     14  C   UNL A   1      33.732  22.416  27.558  1.00  0.00     0.076 C 
BRANCH   9  15
ATOM     15  C   UNL A   1      32.869  20.326  25.536  1.00  0.00     0.363 C 
BRANCH  15  16
ATOM     16  C   UNL A   1      32.380  20.712  24.126  1.00  0.00     0.275 C 
ATOM     17  N   UNL A   1      32.236  19.860  23.074  1.00  0.00    -0.349 N 
ATOM     18  H   UNL A   1      31.922  20.298  22.250  1.00  0.00     0.163 HD
ATOM     19  O   UNL A   1      32.174  21.907  23.867  1.00  0.00    -0.269 OA
BRANCH  17  20
ATOM     20  C   UNL A   1      32.452  18.435  22.930  1.00  0.00     0.137 C 
BRANCH  20  21
ATOM     21  C   UNL A   1      32.400  17.663  24.257  1.00  0.00     0.137 C 
BRANCH  21  22
ATOM     22  N   UNL A   1      33.607  16.940  24.600  1.00  0.00    -0.355 N 
ATOM     23  C   UNL A   1      32.432  15.036  25.681  1.00  0.00     0.114 C 
ATOM     24  C   UNL A   1      33.687  15.695  25.164  1.00  0.00     0.216 C 
ATOM     25  O   UNL A   1      34.786  15.156  25.279  1.00  0.00    -0.275 OA
ATOM     26  H   UNL A   1      34.461  17.392  24.407  1.00  0.00     0.163 HD
ENDBRANCH  21  22
ENDBRANCH  20  21
ENDBRANCH  17  20
ENDBRANCH  15  16
ENDBRANCH   9  15
ENDBRANCH   6   8
ENDBRANCH   5   6
ENDBRANCH   4   5
ENDBRANCH   3   4
ENDBRANCH   2   3
ENDBRANCH   1   2
BRANCH   1  27
ATOM     27  C   UNL A   1      32.482  28.958  27.012  1.00  0.00     0.188 C 
BRANCH  27  28
ATOM     28  O   UNL A   1      31.697  29.530  25.979  1.00  0.00    -0.376 OA
BRANCH  28  29
ATOM     29  C   UNL A   1      31.540  30.947  26.008  1.00  0.00     0.202 C 
BRANCH  29  30
ATOM     30  C   UNL A   1      32.193  31.630  27.226  1.00  0.00     0.261 C 
BRANCH  30  31
ATOM     31  O   UNL A   1      33.453  32.290  26.986  1.00  0.00    -0.460 OA
BRANCH  31  32
ATOM     32  C   UNL A   1      34.018  32.994  28.005  1.00  0.00     0.338 C 
ATOM     33  O   UNL A   1      33.498  33.892  28.633  1.00  0.00    -0.246 OA
BRANCH  32  34
ATOM     34  C   UNL A   1      35.223  32.225  28.456  1.00  0.00     0.060 A 
ATOM     35  C   UNL A   1      35.095  30.838  28.664  1.00  0.00     0.016 A 
ATOM     36  C   UNL A   1      36.490  32.814  28.492  1.00  0.00     0.016 A 
ATOM     37  C   UNL A   1      36.220  30.053  28.949  1.00  0.00     0.010 A 
ATOM     38  C   UNL A   1      37.609  32.033  28.800  1.00  0.00     0.010 A 
ATOM     39  C   UNL A   1      37.476  30.658  29.069  1.00  0.00    -0.014 A 
BRANCH  39  40
ATOM     40  C   UNL A   1      38.596  29.955  29.746  1.00  0.00     0.031 A 
ATOM     41  C   UNL A   1      38.949  30.418  31.136  1.00  0.00     0.074 A 
ATOM     42  C   UNL A   1      39.323  28.986  29.158  1.00  0.00     0.049 A 
ATOM     43  N   UNL A   1      39.956  30.083  31.898  1.00  0.00    -0.248 NA
ATOM     44  C   UNL A   1      38.043  31.412  31.739  1.00  0.00     0.031 C 
ATOM     45  C   UNL A   1      39.084  28.429  27.830  1.00  0.00     0.029 A 
ATOM     46  N   UNL A   1      40.445  28.327  29.603  1.00  0.00    -0.354 N 
ATOM     47  C   UNL A   1      39.829  30.854  33.046  1.00  0.00     0.074 A 
ATOM     48  C   UNL A   1      38.653  31.678  32.882  1.00  0.00     0.031 C 
ATOM     49  C   UNL A   1      40.056  27.539  27.551  1.00  0.00     0.029 A 
ATOM     50  C   UNL A   1      41.004  27.492  28.664  1.00  0.00     0.049 A 
ATOM     51  H   UNL A   1      40.814  28.443  30.509  1.00  0.00     0.167 HD
ATOM     52  C   UNL A   1      40.614  30.875  34.147  1.00  0.00     0.034 A 
ATOM     53  C   UNL A   1      42.164  26.801  28.687  1.00  0.00     0.034 A 
ATOM     54  C   UNL A   1      41.779  30.055  34.320  1.00  0.00     0.049 A 
ATOM     55  C   UNL A   1      43.051  26.872  29.910  1.00  0.00     0.074 A 
ATOM     56  C   UNL A   1      42.615  29.974  35.419  1.00  0.00     0.029 A 
ATOM     57  N   UNL A   1      42.286  29.192  33.363  1.00  0.00    -0.354 N 
ATOM     58  N   UNL A   1      42.863  27.525  31.032  1.00  0.00    -0.248 NA
ATOM     59  C   UNL A   1      44.298  26.090  29.879  1.00  0.00     0.031 C 
ATOM     60  C   UNL A   1      43.653  29.089  35.111  1.00  0.00     0.029 A 
ATOM     61  C   UNL A   1      43.434  28.583  33.840  1.00  0.00     0.049 A 
ATOM     62  H   UNL A   1      41.889  29.033  32.477  1.00  0.00     0.167 HD
ATOM     63  C   UNL A   1      43.941  27.197  31.852  1.00  0.00     0.074 A 
ATOM     64  C   UNL A   1      44.771  26.279  31.103  1.00  0.00     0.031 C 
ATOM     65  C   UNL A   1      44.223  27.625  33.108  1.00  0.00     0.034 A 
BRANCH  52  66
ATOM     66  C   UNL A   1      40.232  31.820  35.255  1.00  0.00     0.023 A 
ATOM     67  C   UNL A   1      40.830  33.095  35.328  1.00  0.00     0.012 A 
ATOM     68  C   UNL A   1      39.252  31.458  36.198  1.00  0.00     0.148 A 
ATOM     69  C   UNL A   1      40.483  33.982  36.346  1.00  0.00     0.002 A 
ATOM     70  C   UNL A   1      38.874  32.367  37.178  1.00  0.00     0.091 A 
ATOM     71  F   UNL A   1      38.715  30.232  36.126  1.00  0.00    -0.205 F 
ATOM     72  C   UNL A   1      39.498  33.623  37.262  1.00  0.00     0.022 A 
BRANCH  70  73
ATOM     73  S   UNL A   1      37.559  32.032  38.354  1.00  0.00     0.127 S 
ATOM     74  O   UNL A   1      37.252  30.633  38.062  1.00  0.00    -0.237 OA
ATOM     75  O   UNL A   1      38.231  32.256  39.634  1.00  0.00    -0.237 OA
ATOM     76  O   UNL A   1      36.496  32.980  38.051  1.00  0.00    -0.744 OA
ENDBRANCH  70  73
ENDBRANCH  52  66
BRANCH  53  77
ATOM     77  C   UNL A   1      42.569  25.965  27.518  1.00  0.00     0.023 A 
ATOM     78  C   UNL A   1      43.330  26.540  26.480  1.00  0.00     0.012 A 
ATOM     79  C   UNL A   1      42.189  24.613  27.419  1.00  0.00     0.148 A 
ATOM     80  C   UNL A   1      43.676  25.794  25.352  1.00  0.00     0.002 A 
ATOM     81  C   UNL A   1      42.585  23.860  26.319  1.00  0.00     0.091 A 
ATOM     82  F   UNL A   1      41.448  24.089  28.405  1.00  0.00    -0.205 F 
ATOM     83  C   UNL A   1      43.312  24.453  25.276  1.00  0.00     0.022 A 
BRANCH  81  84
ATOM     84  S   UNL A   1      42.262  22.097  26.186  1.00  0.00     0.127 S 
ATOM     85  O   UNL A   1      42.708  21.612  27.489  1.00  0.00    -0.237 OA
ATOM     86  O   UNL A   1      40.814  22.075  25.981  1.00  0.00    -0.237 OA
ATOM     87  O   UNL A   1      43.041  21.639  25.045  1.00  0.00    -0.744 OA
ENDBRANCH  81  84
ENDBRANCH  53  77
BRANCH  65  88
ATOM     88  C   UNL A   1      45.443  27.067  33.797  1.00  0.00     0.023 A 
ATOM     89  C   UNL A   1      46.662  27.773  33.765  1.00  0.00     0.012 A 
ATOM     90  C   UNL A   1      45.349  25.885  34.559  1.00  0.00     0.148 A 
ATOM     91  C   UNL A   1      47.775  27.295  34.458  1.00  0.00     0.002 A 
ATOM     92  C   UNL A   1      46.447  25.444  35.289  1.00  0.00     0.091 A 
ATOM     93  F   UNL A   1      44.184  25.220  34.567  1.00  0.00    -0.205 F 
ATOM     94  C   UNL A   1      47.664  26.139  35.229  1.00  0.00     0.022 A 
BRANCH  92  95
ATOM     95  S   UNL A   1      46.368  24.025  36.390  1.00  0.00     0.127 S 
ATOM     96  O   UNL A   1      47.553  24.230  37.223  1.00  0.00    -0.237 OA
ATOM     97  O   UNL A   1      45.095  24.240  37.078  1.00  0.00    -0.237 OA
ATOM     98  O   UNL A   1      46.406  22.846  35.535  1.00  0.00    -0.744 OA
ENDBRANCH  92  95
ENDBRANCH  65  88
ENDBRANCH  39  40
ENDBRANCH  32  34
ENDBRANCH  31  32
ENDBRANCH  30  31
ENDBRANCH  29  30
ENDBRANCH  28  29
ENDBRANCH  27  28
ENDBRANCH   1  27
TORSDOF 25
ENDMDL
MODEL 3
REMARK VINA RESULT:      -9.9      1.883      7.799
REMARK SMILES CC(=O)NCCNC(=O)C[N@H+]1CC[C@@H](C(=O)OCCOCCOCCOC(=O)c2ccc(-c3c4nc(c(-c5cccc(S(=O)(=O)[O-])c5F)c5ccc([nH]5)c(-c5cccc(S(=O)(=O)[O-])c5F)c5nc(c(-c6cccc(S(=O)(=O)[O-])c6F)c6ccc3[nH]6)C=C5)C=C4)cc2)[C@H]1C
REMARK SMILES IDX 21 1 20 2 19 3 18 4 17 5 15 6 16 7 14 8 11 9 12 10 92 11
REMARK SMILES IDX 13 13 93 14 10 15 8 16 7 17 9 19 6 20 5 21 4 22 1 23 2 24
REMARK SMILES IDX 3 25 22 27 23 28 24 29 25 30 26 31 27 32 28 33 29 34 30 35
REMARK SMILES IDX 91 36 31 37 90 38 32 39 33 40 34 41 84 42 35 43 89 44 83 45
REMARK SMILES IDX 85 46 36 47 88 48 82 49 81 50 37 52 69 53 49 54 68 55 50 56
REMARK SMILES IDX 53 57 67 58 86 59 51 60 52 61 66 63 87 64 54 65 38 66 39 67
REMARK SMILES IDX 47 68 40 69 42 70 48 71 41 72 43 73 44 74 45 75 46 76 70 77
REMARK SMILES IDX 71 78 79 79 72 80 74 81 80 82 73 83 75 84 76 85 77 86 78 87
REMARK SMILES IDX 55 88 56 89 64 90 57 91 59 92 65 93 58 94 60 95 61 96 62 97
REMARK SMILES IDX 63 98
REMARK H PARENT 11 12 7 18 4 26 85 51 53 62
REMARK Flexibility Score: inf
ROOT
ATOM      1  C   UNL A   1      32.325  27.241  23.618  1.00  0.00     0.188 C 
ENDROOT
BRANCH   1   2
ATOM      2  O   UNL A   1      30.985  26.785  23.641  1.00  0.00    -0.376 OA
BRANCH   2   3
ATOM      3  C   UNL A   1      30.382  26.649  24.919  1.00  0.00     0.202 C 
BRANCH   3   4
ATOM      4  C   UNL A   1      30.028  25.231  25.393  1.00  0.00     0.261 C 
BRANCH   4   5
ATOM      5  O   UNL A   1      31.067  24.222  25.278  1.00  0.00    -0.463 OA
BRANCH   5   6
ATOM      6  C   UNL A   1      32.108  24.309  26.139  1.00  0.00     0.315 C 
ATOM      7  O   UNL A   1      31.989  24.741  27.283  1.00  0.00    -0.252 OA
BRANCH   6   8
ATOM      8  C   UNL A   1      33.442  23.771  25.627  1.00  0.00     0.162 C 
ATOM      9  N   UNL A   1      34.286  21.672  24.875  1.00  0.00    -0.324 N 
ATOM     10  C   UNL A   1      34.280  22.513  23.702  1.00  0.00     0.264 C 
ATOM     11  C   UNL A   1      34.170  22.474  26.087  1.00  0.00     0.195 C 
ATOM     12  H   UNL A   1      35.151  21.184  25.110  1.00  0.00     0.348 HD
ATOM     13  C   UNL A   1      33.285  23.576  24.099  1.00  0.00     0.083 C 
ATOM     14  C   UNL A   1      33.848  21.729  27.386  1.00  0.00     0.076 C 
BRANCH   9  15
ATOM     15  C   UNL A   1      34.013  20.255  24.739  1.00  0.00     0.363 C 
BRANCH  15  16
ATOM     16  C   UNL A   1      32.541  19.834  24.564  1.00  0.00     0.275 C 
ATOM     17  N   UNL A   1      32.074  18.936  23.653  1.00  0.00    -0.349 N 
ATOM     18  H   UNL A   1      31.098  18.808  23.689  1.00  0.00     0.163 HD
ATOM     19  O   UNL A   1      31.669  20.404  25.237  1.00  0.00    -0.269 OA
BRANCH  17  20
ATOM     20  C   UNL A   1      32.731  18.133  22.643  1.00  0.00     0.137 C 
BRANCH  20  21
ATOM     21  C   UNL A   1      33.796  17.180  23.206  1.00  0.00     0.137 C 
BRANCH  21  22
ATOM     22  N   UNL A   1      33.282  16.041  23.938  1.00  0.00    -0.355 N 
ATOM     23  C   UNL A   1      35.305  15.748  25.352  1.00  0.00     0.114 C 
ATOM     24  C   UNL A   1      33.882  15.403  24.992  1.00  0.00     0.216 C 
ATOM     25  O   UNL A   1      33.263  14.528  25.596  1.00  0.00    -0.275 OA
ATOM     26  H   UNL A   1      32.410  15.687  23.648  1.00  0.00     0.163 HD
ENDBRANCH  21  22
ENDBRANCH  20  21
ENDBRANCH  17  20
ENDBRANCH  15  16
ENDBRANCH   9  15
ENDBRANCH   6   8
ENDBRANCH   5   6
ENDBRANCH   4   5
ENDBRANCH   3   4
ENDBRANCH   2   3
ENDBRANCH   1   2
BRANCH   1  27
ATOM     27  C   UNL A   1      32.597  28.653  24.157  1.00  0.00     0.188 C 
BRANCH  27  28
ATOM     28  O   UNL A   1      31.475  29.513  24.275  1.00  0.00    -0.376 OA
BRANCH  28  29
ATOM     29  C   UNL A   1      31.421  30.333  25.441  1.00  0.00     0.202 C 
BRANCH  29  30
ATOM     30  C   UNL A   1      32.164  29.749  26.659  1.00  0.00     0.261 C 
BRANCH  30  31
ATOM     31  O   UNL A   1      33.566  30.070  26.762  1.00  0.00    -0.460 OA
BRANCH  31  32
ATOM     32  C   UNL A   1      33.917  31.254  27.335  1.00  0.00     0.338 C 
ATOM     33  O   UNL A   1      33.197  32.216  27.494  1.00  0.00    -0.246 OA
BRANCH  32  34
ATOM     34  C   UNL A   1      35.209  31.025  28.063  1.00  0.00     0.060 A 
ATOM     35  C   UNL A   1      35.497  29.726  28.523  1.00  0.00     0.016 A 
ATOM     36  C   UNL A   1      36.193  32.014  28.127  1.00  0.00     0.016 A 
ATOM     37  C   UNL A   1      36.746  29.430  29.084  1.00  0.00     0.010 A 
ATOM     38  C   UNL A   1      37.432  31.724  28.707  1.00  0.00     0.010 A 
ATOM     39  C   UNL A   1      37.701  30.443  29.225  1.00  0.00    -0.014 A 
BRANCH  39  40
ATOM     40  C   UNL A   1      38.852  30.278  30.150  1.00  0.00     0.031 A 
ATOM     41  C   UNL A   1      39.912  29.285  29.747  1.00  0.00     0.074 A 
ATOM     42  C   UNL A   1      38.951  30.922  31.328  1.00  0.00     0.049 A 
ATOM     43  N   UNL A   1      40.942  28.843  30.418  1.00  0.00    -0.248 NA
ATOM     44  C   UNL A   1      39.776  28.701  28.401  1.00  0.00     0.031 C 
ATOM     45  C   UNL A   1      38.012  31.918  31.836  1.00  0.00     0.029 A 
ATOM     46  N   UNL A   1      39.882  30.793  32.332  1.00  0.00    -0.354 N 
ATOM     47  C   UNL A   1      41.548  27.901  29.597  1.00  0.00     0.074 A 
ATOM     48  C   UNL A   1      40.770  27.829  28.381  1.00  0.00     0.031 C 
ATOM     49  C   UNL A   1      38.394  32.282  33.076  1.00  0.00     0.029 A 
ATOM     50  C   UNL A   1      39.581  31.518  33.462  1.00  0.00     0.049 A 
ATOM     51  H   UNL A   1      40.689  30.234  32.250  1.00  0.00     0.167 HD
ATOM     52  C   UNL A   1      42.657  27.162  29.826  1.00  0.00     0.034 A 
ATOM     53  C   UNL A   1      40.172  31.534  34.676  1.00  0.00     0.034 A 
ATOM     54  C   UNL A   1      43.437  27.233  31.028  1.00  0.00     0.049 A 
ATOM     55  C   UNL A   1      41.385  30.667  34.926  1.00  0.00     0.074 A 
ATOM     56  C   UNL A   1      44.603  26.554  31.335  1.00  0.00     0.029 A 
ATOM     57  N   UNL A   1      43.122  28.012  32.129  1.00  0.00    -0.354 N 
ATOM     58  N   UNL A   1      42.010  29.859  34.102  1.00  0.00    -0.248 NA
ATOM     59  C   UNL A   1      41.991  30.734  36.266  1.00  0.00     0.031 C 
ATOM     60  C   UNL A   1      44.971  26.893  32.641  1.00  0.00     0.029 A 
ATOM     61  C   UNL A   1      44.063  27.819  33.126  1.00  0.00     0.049 A 
ATOM     62  H   UNL A   1      42.345  28.613  32.193  1.00  0.00     0.167 HD
ATOM     63  C   UNL A   1      43.101  29.359  34.810  1.00  0.00     0.074 A 
ATOM     64  C   UNL A   1      43.060  29.964  36.124  1.00  0.00     0.031 C 
ATOM     65  C   UNL A   1      44.046  28.471  34.410  1.00  0.00     0.034 A 
BRANCH  52  66
ATOM     66  C   UNL A   1      43.092  26.209  28.745  1.00  0.00     0.023 A 
ATOM     67  C   UNL A   1      42.512  24.926  28.664  1.00  0.00     0.012 A 
ATOM     68  C   UNL A   1      44.046  26.601  27.786  1.00  0.00     0.148 A 
ATOM     69  C   UNL A   1      42.902  24.035  27.665  1.00  0.00     0.002 A 
ATOM     70  C   UNL A   1      44.391  25.726  26.764  1.00  0.00     0.091 A 
ATOM     71  F   UNL A   1      44.603  27.815  27.897  1.00  0.00    -0.205 F 
ATOM     72  C   UNL A   1      43.831  24.439  26.711  1.00  0.00     0.022 A 
BRANCH  70  73
ATOM     73  S   UNL A   1      45.515  26.180  25.440  1.00  0.00     0.127 S 
ATOM     74  O   UNL A   1      46.791  26.252  26.149  1.00  0.00    -0.237 OA
ATOM     75  O   UNL A   1      45.387  25.043  24.529  1.00  0.00    -0.237 OA
ATOM     76  O   UNL A   1      45.024  27.444  24.909  1.00  0.00    -0.744 OA
ENDBRANCH  70  73
ENDBRANCH  52  66
BRANCH  53  77
ATOM     77  C   UNL A   1      39.639  32.406  35.764  1.00  0.00     0.023 A 
ATOM     78  C   UNL A   1      38.687  31.892  36.666  1.00  0.00     0.012 A 
ATOM     79  C   UNL A   1      40.055  33.745  35.899  1.00  0.00     0.148 A 
ATOM     80  C   UNL A   1      38.134  32.702  37.660  1.00  0.00     0.002 A 
ATOM     81  C   UNL A   1      39.542  34.530  36.925  1.00  0.00     0.091 A 
ATOM     82  F   UNL A   1      40.945  34.224  35.019  1.00  0.00    -0.205 F 
ATOM     83  C   UNL A   1      38.568  34.017  37.795  1.00  0.00     0.022 A 
BRANCH  81  84
ATOM     84  S   UNL A   1      40.124  36.199  37.250  1.00  0.00     0.127 S 
ATOM     85  O   UNL A   1      39.878  36.857  35.970  1.00  0.00    -0.237 OA
ATOM     86  O   UNL A   1      39.239  36.615  38.338  1.00  0.00    -0.237 OA
ATOM     87  O   UNL A   1      41.523  36.062  37.628  1.00  0.00    -0.744 OA
ENDBRANCH  81  84
ENDBRANCH  53  77
BRANCH  65  88
ATOM     88  C   UNL A   1      45.162  28.136  35.368  1.00  0.00     0.023 A 
ATOM     89  C   UNL A   1      46.359  28.880  35.353  1.00  0.00     0.012 A 
ATOM     90  C   UNL A   1      44.979  27.141  36.351  1.00  0.00     0.148 A 
ATOM     91  C   UNL A   1      47.366  28.618  36.283  1.00  0.00     0.002 A 
ATOM     92  C   UNL A   1      45.965  26.923  37.305  1.00  0.00     0.091 A 
ATOM     93  F   UNL A   1      43.838  26.436  36.341  1.00  0.00    -0.205 F 
ATOM     94  C   UNL A   1      47.164  27.650  37.265  1.00  0.00     0.022 A 
BRANCH  92  95
ATOM     95  S   UNL A   1      45.752  25.771  38.668  1.00  0.00     0.127 S 
ATOM     96  O   UNL A   1      45.965  24.484  38.006  1.00  0.00    -0.237 OA
ATOM     97  O   UNL A   1      46.823  26.172  39.581  1.00  0.00    -0.237 OA
ATOM     98  O   UNL A   1      44.405  25.992  39.178  1.00  0.00    -0.744 OA
ENDBRANCH  92  95
ENDBRANCH  65  88
ENDBRANCH  39  40
ENDBRANCH  32  34
ENDBRANCH  31  32
ENDBRANCH  30  31
ENDBRANCH  29  30
ENDBRANCH  28  29
ENDBRANCH  27  28
ENDBRANCH   1  27
TORSDOF 25
ENDMDL
