MODEL 1
REMARK VINA RESULT:      -9.7      0.000      0.000
REMARK SMILES C[NH2+][C@@]1(C(=O)OCCOCCOCCOC(=O)c2ccc(-c3c4nc(c(-c5cccc(S(=O)(=O)[O-])c5F)c5ccc([nH]5)c(-c5cccc(S(=O)(=O)[O-])c5F)c5nc(c(-c6cccc(S(=O)(=O)[O-])c6F)c6ccc3[nH]6)C=C5)C=C4)cc2)CCC[C@@H]([N@@H+](C)C2CC[NH+](C)CC2)C1
REMARK SMILES IDX 11 1 10 2 9 3 8 4 7 5 6 6 4 7 5 8 3 9 81 10 94 11 82 12
REMARK SMILES IDX 84 13 83 14 2 15 1 16 85 19 86 20 87 22 88 23 93 24 89 25
REMARK SMILES IDX 92 26 90 27 91 28 12 30 13 31 14 32 15 33 16 34 17 35 18 36
REMARK SMILES IDX 19 37 80 38 20 39 79 40 21 41 22 42 23 43 73 44 24 45 78 46
REMARK SMILES IDX 72 47 74 48 25 49 77 50 71 51 70 52 26 54 58 55 38 56 57 57
REMARK SMILES IDX 39 58 42 59 56 60 75 61 40 62 41 63 55 65 76 66 43 67 27 68
REMARK SMILES IDX 28 69 36 70 29 71 31 72 37 73 30 74 32 75 33 76 34 77 35 78
REMARK SMILES IDX 59 79 60 80 68 81 61 82 63 83 69 84 62 85 64 86 65 87 66 88
REMARK SMILES IDX 67 89 44 90 45 91 53 92 46 93 48 94 54 95 47 96 49 97 50 98
REMARK SMILES IDX 51 99 52 100
REMARK H PARENT 2 17 2 18 85 21 90 29 74 53 42 64
REMARK Flexibility Score: inf
ROOT
ATOM      1  C   UNL A   1      38.674  22.863  26.198  1.00  0.00     0.188 C 
ENDROOT
BRANCH   1   2
ATOM      2  C   UNL A   1      37.459  22.276  25.481  1.00  0.00     0.188 C 
BRANCH   2   3
ATOM      3  O   UNL A   1      36.179  22.587  26.009  1.00  0.00    -0.376 OA
BRANCH   3   4
ATOM      4  C   UNL A   1      35.239  21.527  26.127  1.00  0.00     0.202 C 
BRANCH   4   5
ATOM      5  C   UNL A   1      33.999  21.767  27.003  1.00  0.00     0.261 C 
BRANCH   5   6
ATOM      6  O   UNL A   1      32.770  22.009  26.289  1.00  0.00    -0.459 OA
BRANCH   6   7
ATOM      7  C   UNL A   1      32.225  23.236  26.506  1.00  0.00     0.368 C 
ATOM      8  O   UNL A   1      31.951  23.674  27.623  1.00  0.00    -0.245 OA
BRANCH   7   9
ATOM      9  C   UNL A   1      31.970  24.079  25.210  1.00  0.00     0.199 C 
ATOM     10  C   UNL A   1      33.378  24.390  24.682  1.00  0.00     0.081 C 
ATOM     11  C   UNL A   1      31.185  25.397  25.404  1.00  0.00     0.146 C 
ATOM     12  C   UNL A   1      34.174  25.252  25.652  1.00  0.00     0.013 C 
ATOM     13  C   UNL A   1      31.953  26.617  25.964  1.00  0.00     0.190 C 
ATOM     14  C   UNL A   1      33.487  26.541  26.079  1.00  0.00     0.065 C 
BRANCH   9  15
ATOM     15  N   UNL A   1      31.354  23.122  24.230  1.00  0.00    -0.334 N 
ATOM     16  C   UNL A   1      32.084  22.684  23.059  1.00  0.00     0.331 C 
ATOM     17  H   UNL A   1      31.117  22.281  24.756  1.00  0.00     0.347 HD
ATOM     18  H   UNL A   1      30.593  23.669  23.830  1.00  0.00     0.347 HD
ENDBRANCH   9  15
BRANCH  13  19
ATOM     19  N   UNL A   1      31.423  27.938  25.512  1.00  0.00    -0.332 N 
ATOM     20  C   UNL A   1      31.834  29.012  26.433  1.00  0.00     0.333 C 
ATOM     21  H   UNL A   1      30.435  27.685  25.538  1.00  0.00     0.348 HD
BRANCH  19  22
ATOM     22  C   UNL A   1      31.464  28.426  24.098  1.00  0.00     0.195 C 
ATOM     23  C   UNL A   1      30.425  27.870  23.106  1.00  0.00     0.126 C 
ATOM     24  C   UNL A   1      32.814  28.589  23.370  1.00  0.00     0.126 C 
ATOM     25  C   UNL A   1      30.919  26.722  22.231  1.00  0.00     0.268 C 
ATOM     26  C   UNL A   1      33.230  27.384  22.530  1.00  0.00     0.268 C 
ATOM     27  N   UNL A   1      32.200  26.977  21.567  1.00  0.00    -0.337 N 
ATOM     28  C   UNL A   1      32.640  25.760  20.862  1.00  0.00     0.332 C 
ATOM     29  H   UNL A   1      32.069  27.738  20.901  1.00  0.00     0.347 HD
ENDBRANCH  19  22
ENDBRANCH  13  19
ENDBRANCH   7   9
ENDBRANCH   6   7
ENDBRANCH   5   6
ENDBRANCH   4   5
ENDBRANCH   3   4
ENDBRANCH   2   3
ENDBRANCH   1   2
BRANCH   1  30
ATOM     30  O   UNL A   1      39.710  21.936  26.508  1.00  0.00    -0.376 OA
BRANCH  30  31
ATOM     31  C   UNL A   1      39.522  20.606  26.011  1.00  0.00     0.202 C 
BRANCH  31  32
ATOM     32  C   UNL A   1      40.665  19.610  26.292  1.00  0.00     0.261 C 
BRANCH  32  33
ATOM     33  O   UNL A   1      41.654  19.541  25.244  1.00  0.00    -0.460 OA
BRANCH  33  34
ATOM     34  C   UNL A   1      42.950  19.700  25.608  1.00  0.00     0.338 C 
ATOM     35  O   UNL A   1      43.845  18.887  25.447  1.00  0.00    -0.246 OA
BRANCH  34  36
ATOM     36  C   UNL A   1      43.165  21.122  25.997  1.00  0.00     0.060 A 
ATOM     37  C   UNL A   1      43.252  22.080  24.975  1.00  0.00     0.016 A 
ATOM     38  C   UNL A   1      43.199  21.531  27.334  1.00  0.00     0.016 A 
ATOM     39  C   UNL A   1      43.437  23.431  25.287  1.00  0.00     0.010 A 
ATOM     40  C   UNL A   1      43.386  22.883  27.645  1.00  0.00     0.010 A 
ATOM     41  C   UNL A   1      43.552  23.835  26.623  1.00  0.00    -0.014 A 
BRANCH  41  42
ATOM     42  C   UNL A   1      44.065  25.192  26.949  1.00  0.00     0.031 A 
ATOM     43  C   UNL A   1      43.094  26.199  27.512  1.00  0.00     0.074 A 
ATOM     44  C   UNL A   1      45.351  25.543  26.763  1.00  0.00     0.049 A 
ATOM     45  N   UNL A   1      43.290  27.447  27.845  1.00  0.00    -0.248 NA
ATOM     46  C   UNL A   1      41.713  25.730  27.722  1.00  0.00     0.031 C 
ATOM     47  C   UNL A   1      46.403  24.678  26.237  1.00  0.00     0.029 A 
ATOM     48  N   UNL A   1      45.981  26.747  26.981  1.00  0.00    -0.354 N 
ATOM     49  C   UNL A   1      42.058  27.920  28.281  1.00  0.00     0.074 A 
ATOM     50  C   UNL A   1      41.116  26.830  28.153  1.00  0.00     0.031 C 
ATOM     51  C   UNL A   1      47.544  25.387  26.145  1.00  0.00     0.029 A 
ATOM     52  C   UNL A   1      47.298  26.761  26.584  1.00  0.00     0.049 A 
ATOM     53  H   UNL A   1      45.532  27.525  27.382  1.00  0.00     0.167 HD
ATOM     54  C   UNL A   1      41.735  29.143  28.763  1.00  0.00     0.034 A 
ATOM     55  C   UNL A   1      48.194  27.770  26.557  1.00  0.00     0.034 A 
ATOM     56  C   UNL A   1      42.662  30.230  28.910  1.00  0.00     0.049 A 
ATOM     57  C   UNL A   1      47.800  29.138  27.063  1.00  0.00     0.074 A 
ATOM     58  C   UNL A   1      42.426  31.494  29.424  1.00  0.00     0.029 A 
ATOM     59  N   UNL A   1      43.993  30.194  28.530  1.00  0.00    -0.354 N 
ATOM     60  N   UNL A   1      46.663  29.534  27.583  1.00  0.00    -0.248 NA
ATOM     61  C   UNL A   1      48.828  30.192  27.008  1.00  0.00     0.031 C 
ATOM     62  C   UNL A   1      43.612  32.231  29.330  1.00  0.00     0.029 A 
ATOM     63  C   UNL A   1      44.591  31.415  28.787  1.00  0.00     0.049 A 
ATOM     64  H   UNL A   1      44.446  29.414  28.136  1.00  0.00     0.167 HD
ATOM     65  C   UNL A   1      46.851  30.865  27.950  1.00  0.00     0.074 A 
ATOM     66  C   UNL A   1      48.216  31.204  27.610  1.00  0.00     0.031 C 
ATOM     67  C   UNL A   1      45.967  31.731  28.505  1.00  0.00     0.034 A 
BRANCH  54  68
ATOM     68  C   UNL A   1      40.310  29.361  29.193  1.00  0.00     0.023 A 
ATOM     69  C   UNL A   1      39.321  29.617  28.221  1.00  0.00     0.012 A 
ATOM     70  C   UNL A   1      39.943  29.272  30.550  1.00  0.00     0.148 A 
ATOM     71  C   UNL A   1      37.993  29.813  28.596  1.00  0.00     0.002 A 
ATOM     72  C   UNL A   1      38.610  29.423  30.910  1.00  0.00     0.091 A 
ATOM     73  F   UNL A   1      40.903  29.053  31.458  1.00  0.00    -0.205 F 
ATOM     74  C   UNL A   1      37.636  29.705  29.937  1.00  0.00     0.022 A 
BRANCH  72  75
ATOM     75  S   UNL A   1      38.040  29.227  32.602  1.00  0.00     0.127 S 
ATOM     76  O   UNL A   1      36.591  29.336  32.438  1.00  0.00    -0.237 OA
ATOM     77  O   UNL A   1      38.517  27.885  32.933  1.00  0.00    -0.237 OA
ATOM     78  O   UNL A   1      38.666  30.299  33.363  1.00  0.00    -0.744 OA
ENDBRANCH  72  75
ENDBRANCH  54  68
BRANCH  55  79
ATOM     79  C   UNL A   1      49.576  27.533  26.048  1.00  0.00     0.023 A 
ATOM     80  C   UNL A   1      49.808  27.473  24.659  1.00  0.00     0.012 A 
ATOM     81  C   UNL A   1      50.657  27.349  26.932  1.00  0.00     0.148 A 
ATOM     82  C   UNL A   1      51.083  27.202  24.162  1.00  0.00     0.002 A 
ATOM     83  C   UNL A   1      51.935  27.132  26.429  1.00  0.00     0.091 A 
ATOM     84  F   UNL A   1      50.412  27.385  28.249  1.00  0.00    -0.205 F 
ATOM     85  C   UNL A   1      52.148  27.042  25.045  1.00  0.00     0.022 A 
BRANCH  83  86
ATOM     86  S   UNL A   1      53.382  27.026  27.487  1.00  0.00     0.127 S 
ATOM     87  O   UNL A   1      54.404  26.565  26.550  1.00  0.00    -0.237 OA
ATOM     88  O   UNL A   1      53.534  28.412  27.929  1.00  0.00    -0.237 OA
ATOM     89  O   UNL A   1      53.028  26.091  28.546  1.00  0.00    -0.744 OA
ENDBRANCH  83  86
ENDBRANCH  55  79
BRANCH  67  90
ATOM     90  C   UNL A   1      46.443  33.126  28.829  1.00  0.00     0.023 A 
ATOM     91  C   UNL A   1      47.126  33.373  30.037  1.00  0.00     0.012 A 
ATOM     92  C   UNL A   1      46.294  34.172  27.896  1.00  0.00     0.148 A 
ATOM     93  C   UNL A   1      47.625  34.645  30.322  1.00  0.00     0.002 A 
ATOM     94  C   UNL A   1      46.835  35.423  28.166  1.00  0.00     0.091 A 
ATOM     95  F   UNL A   1      45.628  33.924  26.758  1.00  0.00    -0.205 F 
ATOM     96  C   UNL A   1      47.491  35.665  29.384  1.00  0.00     0.022 A 
BRANCH  94  97
ATOM     97  S   UNL A   1      46.796  36.771  26.976  1.00  0.00     0.127 S 
ATOM     98  O   UNL A   1      47.462  37.841  27.715  1.00  0.00    -0.237 OA
ATOM     99  O   UNL A   1      47.573  36.224  25.862  1.00  0.00    -0.237 OA
ATOM    100  O   UNL A   1      45.389  36.999  26.675  1.00  0.00    -0.744 OA
ENDBRANCH  94  97
ENDBRANCH  67  90
ENDBRANCH  41  42
ENDBRANCH  34  36
ENDBRANCH  33  34
ENDBRANCH  32  33
ENDBRANCH  31  32
ENDBRANCH  30  31
ENDBRANCH   1  30
TORSDOF 23
ENDMDL
MODEL 2
REMARK VINA RESULT:      -9.2      3.436      8.950
REMARK SMILES C[NH2+][C@@]1(C(=O)OCCOCCOCCOC(=O)c2ccc(-c3c4nc(c(-c5cccc(S(=O)(=O)[O-])c5F)c5ccc([nH]5)c(-c5cccc(S(=O)(=O)[O-])c5F)c5nc(c(-c6cccc(S(=O)(=O)[O-])c6F)c6ccc3[nH]6)C=C5)C=C4)cc2)CCC[C@@H]([N@@H+](C)C2CC[NH+](C)CC2)C1
REMARK SMILES IDX 11 1 10 2 9 3 8 4 7 5 6 6 4 7 5 8 3 9 81 10 94 11 82 12
REMARK SMILES IDX 84 13 83 14 2 15 1 16 85 19 86 20 87 22 88 23 93 24 89 25
REMARK SMILES IDX 92 26 90 27 91 28 12 30 13 31 14 32 15 33 16 34 17 35 18 36
REMARK SMILES IDX 19 37 80 38 20 39 79 40 21 41 22 42 23 43 73 44 24 45 78 46
REMARK SMILES IDX 72 47 74 48 25 49 77 50 71 51 70 52 26 54 58 55 38 56 57 57
REMARK SMILES IDX 39 58 42 59 56 60 75 61 40 62 41 63 55 65 76 66 43 67 27 68
REMARK SMILES IDX 28 69 36 70 29 71 31 72 37 73 30 74 32 75 33 76 34 77 35 78
REMARK SMILES IDX 59 79 60 80 68 81 61 82 63 83 69 84 62 85 64 86 65 87 66 88
REMARK SMILES IDX 67 89 44 90 45 91 53 92 46 93 48 94 54 95 47 96 49 97 50 98
REMARK SMILES IDX 51 99 52 100
REMARK H PARENT 2 17 2 18 85 21 90 29 74 53 42 64
REMARK Flexibility Score: inf
ROOT
ATOM      1  C   UNL A   1      40.690  20.011  26.547  1.00  0.00     0.188 C 
ENDROOT
BRANCH   1   2
ATOM      2  C   UNL A   1      40.056  21.295  26.013  1.00  0.00     0.188 C 
BRANCH   2   3
ATOM      3  O   UNL A   1      39.745  22.308  26.957  1.00  0.00    -0.376 OA
BRANCH   3   4
ATOM      4  C   UNL A   1      39.112  23.485  26.474  1.00  0.00     0.202 C 
BRANCH   4   5
ATOM      5  C   UNL A   1      37.586  23.590  26.631  1.00  0.00     0.261 C 
BRANCH   5   6
ATOM      6  O   UNL A   1      36.859  23.934  25.435  1.00  0.00    -0.459 OA
BRANCH   6   7
ATOM      7  C   UNL A   1      36.244  22.883  24.828  1.00  0.00     0.368 C 
ATOM      8  O   UNL A   1      36.821  21.843  24.515  1.00  0.00    -0.245 OA
BRANCH   7   9
ATOM      9  C   UNL A   1      34.714  23.086  24.554  1.00  0.00     0.199 C 
ATOM     10  C   UNL A   1      34.090  23.163  25.954  1.00  0.00     0.081 C 
ATOM     11  C   UNL A   1      34.021  21.974  23.735  1.00  0.00     0.146 C 
ATOM     12  C   UNL A   1      34.258  21.862  26.727  1.00  0.00     0.013 C 
ATOM     13  C   UNL A   1      33.645  20.665  24.472  1.00  0.00     0.190 C 
ATOM     14  C   UNL A   1      33.759  20.618  26.006  1.00  0.00     0.065 C 
BRANCH   9  15
ATOM     15  N   UNL A   1      34.597  24.463  23.964  1.00  0.00    -0.334 N 
ATOM     16  C   UNL A   1      34.045  25.557  24.734  1.00  0.00     0.331 C 
ATOM     17  H   UNL A   1      35.540  24.744  23.694  1.00  0.00     0.347 HD
ATOM     18  H   UNL A   1      33.905  24.333  23.227  1.00  0.00     0.347 HD
ENDBRANCH   9  15
BRANCH  13  19
ATOM     19  N   UNL A   1      32.453  19.963  23.908  1.00  0.00    -0.332 N 
ATOM     20  C   UNL A   1      32.037  20.575  22.635  1.00  0.00     0.333 C 
ATOM     21  H   UNL A   1      31.834  20.124  24.702  1.00  0.00     0.348 HD
BRANCH  19  22
ATOM     22  C   UNL A   1      32.303  18.476  23.840  1.00  0.00     0.195 C 
ATOM     23  C   UNL A   1      32.144  17.700  25.161  1.00  0.00     0.126 C 
ATOM     24  C   UNL A   1      33.177  17.649  22.876  1.00  0.00     0.126 C 
ATOM     25  C   UNL A   1      33.427  17.076  25.702  1.00  0.00     0.268 C 
ATOM     26  C   UNL A   1      34.446  17.077  23.504  1.00  0.00     0.268 C 
ATOM     27  N   UNL A   1      34.180  16.294  24.716  1.00  0.00    -0.337 N 
ATOM     28  C   UNL A   1      35.456  15.855  25.307  1.00  0.00     0.332 C 
ATOM     29  H   UNL A   1      33.618  15.484  24.456  1.00  0.00     0.347 HD
ENDBRANCH  19  22
ENDBRANCH  13  19
ENDBRANCH   7   9
ENDBRANCH   6   7
ENDBRANCH   5   6
ENDBRANCH   4   5
ENDBRANCH   3   4
ENDBRANCH   2   3
ENDBRANCH   1   2
BRANCH   1  30
ATOM     30  O   UNL A   1      41.562  19.337  25.646  1.00  0.00    -0.376 OA
BRANCH  30  31
ATOM     31  C   UNL A   1      42.941  19.294  26.030  1.00  0.00     0.202 C 
BRANCH  31  32
ATOM     32  C   UNL A   1      43.839  20.412  25.463  1.00  0.00     0.261 C 
BRANCH  32  33
ATOM     33  O   UNL A   1      43.536  21.725  25.979  1.00  0.00    -0.460 OA
BRANCH  33  34
ATOM     34  C   UNL A   1      43.485  22.741  25.084  1.00  0.00     0.338 C 
ATOM     35  O   UNL A   1      43.407  22.627  23.872  1.00  0.00    -0.246 OA
BRANCH  34  36
ATOM     36  C   UNL A   1      43.274  24.017  25.824  1.00  0.00     0.060 A 
ATOM     37  C   UNL A   1      43.040  25.182  25.078  1.00  0.00     0.016 A 
ATOM     38  C   UNL A   1      43.223  24.067  27.221  1.00  0.00     0.016 A 
ATOM     39  C   UNL A   1      42.820  26.403  25.724  1.00  0.00     0.010 A 
ATOM     40  C   UNL A   1      43.004  25.289  27.867  1.00  0.00     0.010 A 
ATOM     41  C   UNL A   1      42.846  26.473  27.123  1.00  0.00    -0.014 A 
BRANCH  41  42
ATOM     42  C   UNL A   1      42.937  27.793  27.802  1.00  0.00     0.031 A 
ATOM     43  C   UNL A   1      44.300  28.422  27.944  1.00  0.00     0.074 A 
ATOM     44  C   UNL A   1      41.856  28.434  28.284  1.00  0.00     0.049 A 
ATOM     45  N   UNL A   1      44.641  29.545  28.520  1.00  0.00    -0.248 NA
ATOM     46  C   UNL A   1      45.429  27.678  27.360  1.00  0.00     0.031 C 
ATOM     47  C   UNL A   1      40.479  27.954  28.213  1.00  0.00     0.029 A 
ATOM     48  N   UNL A   1      41.763  29.632  28.955  1.00  0.00    -0.354 N 
ATOM     49  C   UNL A   1      46.022  29.633  28.388  1.00  0.00     0.074 A 
ATOM     50  C   UNL A   1      46.458  28.440  27.694  1.00  0.00     0.031 C 
ATOM     51  C   UNL A   1      39.679  28.835  28.843  1.00  0.00     0.029 A 
ATOM     52  C   UNL A   1      40.490  29.929  29.381  1.00  0.00     0.049 A 
ATOM     53  H   UNL A   1      42.536  30.219  29.117  1.00  0.00     0.167 HD
ATOM     54  C   UNL A   1      46.857  30.620  28.788  1.00  0.00     0.034 A 
ATOM     55  C   UNL A   1      40.034  30.952  30.135  1.00  0.00     0.034 A 
ATOM     56  C   UNL A   1      46.437  31.815  29.465  1.00  0.00     0.049 A 
ATOM     57  C   UNL A   1      40.991  32.023  30.605  1.00  0.00     0.074 A 
ATOM     58  C   UNL A   1      47.214  32.885  29.876  1.00  0.00     0.029 A 
ATOM     59  N   UNL A   1      45.136  32.095  29.846  1.00  0.00    -0.354 N 
ATOM     60  N   UNL A   1      42.275  32.149  30.369  1.00  0.00    -0.248 NA
ATOM     61  C   UNL A   1      40.426  33.111  31.421  1.00  0.00     0.031 C 
ATOM     62  C   UNL A   1      46.383  33.801  30.529  1.00  0.00     0.029 A 
ATOM     63  C   UNL A   1      45.086  33.316  30.497  1.00  0.00     0.049 A 
ATOM     64  H   UNL A   1      44.361  31.512  29.678  1.00  0.00     0.167 HD
ATOM     65  C   UNL A   1      42.660  33.344  30.972  1.00  0.00     0.074 A 
ATOM     66  C   UNL A   1      41.472  33.914  31.568  1.00  0.00     0.031 C 
ATOM     67  C   UNL A   1      43.891  33.911  31.036  1.00  0.00     0.034 A 
BRANCH  54  68
ATOM     68  C   UNL A   1      48.320  30.454  28.479  1.00  0.00     0.023 A 
ATOM     69  C   UNL A   1      48.851  31.017  27.301  1.00  0.00     0.012 A 
ATOM     70  C   UNL A   1      49.175  29.778  29.372  1.00  0.00     0.148 A 
ATOM     71  C   UNL A   1      50.205  30.883  27.000  1.00  0.00     0.002 A 
ATOM     72  C   UNL A   1      50.531  29.689  29.086  1.00  0.00     0.091 A 
ATOM     73  F   UNL A   1      48.644  29.229  30.473  1.00  0.00    -0.205 F 
ATOM     74  C   UNL A   1      51.046  30.230  27.897  1.00  0.00     0.022 A 
BRANCH  72  75
ATOM     75  S   UNL A   1      51.707  28.933  30.215  1.00  0.00     0.127 S 
ATOM     76  O   UNL A   1      51.253  27.543  30.222  1.00  0.00    -0.237 OA
ATOM     77  O   UNL A   1      52.978  29.155  29.527  1.00  0.00    -0.237 OA
ATOM     78  O   UNL A   1      51.566  29.644  31.477  1.00  0.00    -0.744 OA
ENDBRANCH  72  75
ENDBRANCH  54  68
BRANCH  55  79
ATOM     79  C   UNL A   1      38.587  31.037  30.488  1.00  0.00     0.023 A 
ATOM     80  C   UNL A   1      38.092  30.309  31.588  1.00  0.00     0.012 A 
ATOM     81  C   UNL A   1      37.698  31.822  29.728  1.00  0.00     0.148 A 
ATOM     82  C   UNL A   1      36.734  30.335  31.905  1.00  0.00     0.002 A 
ATOM     83  C   UNL A   1      36.354  31.885  30.083  1.00  0.00     0.091 A 
ATOM     84  F   UNL A   1      38.183  32.488  28.671  1.00  0.00    -0.205 F 
ATOM     85  C   UNL A   1      35.867  31.129  31.160  1.00  0.00     0.022 A 
BRANCH  83  86
ATOM     86  S   UNL A   1      35.188  32.967  29.250  1.00  0.00     0.127 S 
ATOM     87  O   UNL A   1      35.975  34.187  29.090  1.00  0.00    -0.237 OA
ATOM     88  O   UNL A   1      34.931  32.234  28.009  1.00  0.00    -0.237 OA
ATOM     89  O   UNL A   1      34.040  33.068  30.139  1.00  0.00    -0.744 OA
ENDBRANCH  83  86
ENDBRANCH  55  79
BRANCH  67  90
ATOM     90  C   UNL A   1      44.029  35.239  31.738  1.00  0.00     0.023 A 
ATOM     91  C   UNL A   1      43.944  36.437  31.000  1.00  0.00     0.012 A 
ATOM     92  C   UNL A   1      44.151  35.302  33.141  1.00  0.00     0.148 A 
ATOM     93  C   UNL A   1      44.009  37.674  31.644  1.00  0.00     0.002 A 
ATOM     94  C   UNL A   1      44.168  36.537  33.780  1.00  0.00     0.091 A 
ATOM     95  F   UNL A   1      44.247  34.153  33.827  1.00  0.00    -0.205 F 
ATOM     96  C   UNL A   1      44.108  37.724  33.032  1.00  0.00     0.022 A 
BRANCH  94  97
ATOM     97  S   UNL A   1      44.195  36.698  35.570  1.00  0.00     0.127 S 
ATOM     98  O   UNL A   1      43.019  35.922  35.958  1.00  0.00    -0.237 OA
ATOM     99  O   UNL A   1      45.476  36.080  35.918  1.00  0.00    -0.237 OA
ATOM    100  O   UNL A   1      44.120  38.127  35.845  1.00  0.00    -0.744 OA
ENDBRANCH  94  97
ENDBRANCH  67  90
ENDBRANCH  41  42
ENDBRANCH  34  36
ENDBRANCH  33  34
ENDBRANCH  32  33
ENDBRANCH  31  32
ENDBRANCH  30  31
ENDBRANCH   1  30
TORSDOF 23
ENDMDL
MODEL 3
REMARK VINA RESULT:      -9.1      2.758      8.170
REMARK SMILES C[NH2+][C@@]1(C(=O)OCCOCCOCCOC(=O)c2ccc(-c3c4nc(c(-c5cccc(S(=O)(=O)[O-])c5F)c5ccc([nH]5)c(-c5cccc(S(=O)(=O)[O-])c5F)c5nc(c(-c6cccc(S(=O)(=O)[O-])c6F)c6ccc3[nH]6)C=C5)C=C4)cc2)CCC[C@@H]([N@@H+](C)C2CC[NH+](C)CC2)C1
REMARK SMILES IDX 11 1 10 2 9 3 8 4 7 5 6 6 4 7 5 8 3 9 81 10 94 11 82 12
REMARK SMILES IDX 84 13 83 14 2 15 1 16 85 19 86 20 87 22 88 23 93 24 89 25
REMARK SMILES IDX 92 26 90 27 91 28 12 30 13 31 14 32 15 33 16 34 17 35 18 36
REMARK SMILES IDX 19 37 80 38 20 39 79 40 21 41 22 42 23 43 73 44 24 45 78 46
REMARK SMILES IDX 72 47 74 48 25 49 77 50 71 51 70 52 26 54 58 55 38 56 57 57
REMARK SMILES IDX 39 58 42 59 56 60 75 61 40 62 41 63 55 65 76 66 43 67 27 68
REMARK SMILES IDX 28 69 36 70 29 71 31 72 37 73 30 74 32 75 33 76 34 77 35 78
REMARK SMILES IDX 59 79 60 80 68 81 61 82 63 83 69 84 62 85 64 86 65 87 66 88
REMARK SMILES IDX 67 89 44 90 45 91 53 92 46 93 48 94 54 95 47 96 49 97 50 98
REMARK SMILES IDX 51 99 52 100
REMARK H PARENT 2 17 2 18 85 21 90 29 74 53 42 64
REMARK Flexibility Score: inf
ROOT
ATOM      1  C   UNL A   1      40.186  21.332  26.459  1.00  0.00     0.188 C 
ENDROOT
BRANCH   1   2
ATOM      2  C   UNL A   1      39.253  22.541  26.515  1.00  0.00     0.188 C 
BRANCH   2   3
ATOM      3  O   UNL A   1      38.129  22.534  25.648  1.00  0.00    -0.376 OA
BRANCH   3   4
ATOM      4  C   UNL A   1      37.241  23.643  25.713  1.00  0.00     0.202 C 
BRANCH   4   5
ATOM      5  C   UNL A   1      36.020  23.635  24.778  1.00  0.00     0.261 C 
BRANCH   5   6
ATOM      6  O   UNL A   1      34.824  24.239  25.310  1.00  0.00    -0.459 OA
BRANCH   6   7
ATOM      7  C   UNL A   1      33.843  23.355  25.635  1.00  0.00     0.368 C 
ATOM      8  O   UNL A   1      34.059  22.232  26.088  1.00  0.00    -0.245 OA
BRANCH   7   9
ATOM      9  C   UNL A   1      32.384  23.876  25.397  1.00  0.00     0.199 C 
ATOM     10  C   UNL A   1      31.765  22.836  24.453  1.00  0.00     0.081 C 
ATOM     11  C   UNL A   1      32.263  25.284  24.771  1.00  0.00     0.146 C 
ATOM     12  C   UNL A   1      32.473  22.793  23.106  1.00  0.00     0.013 C 
ATOM     13  C   UNL A   1      32.487  25.415  23.245  1.00  0.00     0.190 C 
ATOM     14  C   UNL A   1      32.583  24.135  22.395  1.00  0.00     0.065 C 
BRANCH   9  15
ATOM     15  N   UNL A   1      31.687  23.716  26.717  1.00  0.00    -0.334 N 
ATOM     16  C   UNL A   1      30.429  23.005  26.812  1.00  0.00     0.331 C 
ATOM     17  H   UNL A   1      32.341  23.235  27.334  1.00  0.00     0.347 HD
ATOM     18  H   UNL A   1      31.423  24.673  26.949  1.00  0.00     0.347 HD
ENDBRANCH   9  15
BRANCH  13  19
ATOM     19  N   UNL A   1      31.733  26.536  22.608  1.00  0.00    -0.332 N 
ATOM     20  C   UNL A   1      30.297  26.450  22.923  1.00  0.00     0.333 C 
ATOM     21  H   UNL A   1      31.990  26.321  21.645  1.00  0.00     0.348 HD
BRANCH  19  22
ATOM     22  C   UNL A   1      32.179  27.966  22.615  1.00  0.00     0.195 C 
ATOM     23  C   UNL A   1      33.643  28.269  22.983  1.00  0.00     0.126 C 
ATOM     24  C   UNL A   1      31.274  29.059  23.218  1.00  0.00     0.126 C 
ATOM     25  C   UNL A   1      33.873  28.679  24.434  1.00  0.00     0.268 C 
ATOM     26  C   UNL A   1      31.570  29.392  24.678  1.00  0.00     0.268 C 
ATOM     27  N   UNL A   1      32.977  29.737  24.911  1.00  0.00    -0.337 N 
ATOM     28  C   UNL A   1      33.197  29.955  26.351  1.00  0.00     0.332 C 
ATOM     29  H   UNL A   1      33.186  30.590  24.392  1.00  0.00     0.347 HD
ENDBRANCH  19  22
ENDBRANCH  13  19
ENDBRANCH   7   9
ENDBRANCH   6   7
ENDBRANCH   5   6
ENDBRANCH   4   5
ENDBRANCH   3   4
ENDBRANCH   2   3
ENDBRANCH   1   2
BRANCH   1  30
ATOM     30  O   UNL A   1      41.005  21.138  27.608  1.00  0.00    -0.376 OA
BRANCH  30  31
ATOM     31  C   UNL A   1      42.184  20.350  27.405  1.00  0.00     0.202 C 
BRANCH  31  32
ATOM     32  C   UNL A   1      42.979  20.639  26.116  1.00  0.00     0.261 C 
BRANCH  32  33
ATOM     33  O   UNL A   1      43.755  21.854  26.166  1.00  0.00    -0.460 OA
BRANCH  33  34
ATOM     34  C   UNL A   1      43.467  22.808  25.247  1.00  0.00     0.338 C 
ATOM     35  O   UNL A   1      43.218  22.616  24.068  1.00  0.00    -0.246 OA
BRANCH  34  36
ATOM     36  C   UNL A   1      43.243  24.099  25.955  1.00  0.00     0.060 A 
ATOM     37  C   UNL A   1      43.020  25.247  25.180  1.00  0.00     0.016 A 
ATOM     38  C   UNL A   1      43.169  24.180  27.349  1.00  0.00     0.016 A 
ATOM     39  C   UNL A   1      42.789  26.482  25.795  1.00  0.00     0.010 A 
ATOM     40  C   UNL A   1      42.939  25.417  27.964  1.00  0.00     0.010 A 
ATOM     41  C   UNL A   1      42.793  26.583  27.192  1.00  0.00    -0.014 A 
BRANCH  41  42
ATOM     42  C   UNL A   1      42.872  27.918  27.842  1.00  0.00     0.031 A 
ATOM     43  C   UNL A   1      44.232  28.550  27.997  1.00  0.00     0.074 A 
ATOM     44  C   UNL A   1      41.782  28.571  28.288  1.00  0.00     0.049 A 
ATOM     45  N   UNL A   1      44.563  29.684  28.554  1.00  0.00    -0.248 NA
ATOM     46  C   UNL A   1      45.372  27.792  27.452  1.00  0.00     0.031 C 
ATOM     47  C   UNL A   1      40.406  28.091  28.201  1.00  0.00     0.029 A 
ATOM     48  N   UNL A   1      41.677  29.783  28.931  1.00  0.00    -0.354 N 
ATOM     49  C   UNL A   1      45.946  29.769  28.448  1.00  0.00     0.074 A 
ATOM     50  C   UNL A   1      46.395  28.560  27.790  1.00  0.00     0.031 C 
ATOM     51  C   UNL A   1      39.595  28.986  28.795  1.00  0.00     0.029 A 
ATOM     52  C   UNL A   1      40.396  30.091  29.325  1.00  0.00     0.049 A 
ATOM     53  H   UNL A   1      42.447  30.374  29.094  1.00  0.00     0.167 HD
ATOM     54  C   UNL A   1      46.774  30.764  28.842  1.00  0.00     0.034 A 
ATOM     55  C   UNL A   1      39.927  31.131  30.046  1.00  0.00     0.034 A 
ATOM     56  C   UNL A   1      46.343  31.975  29.483  1.00  0.00     0.049 A 
ATOM     57  C   UNL A   1      40.876  32.211  30.510  1.00  0.00     0.074 A 
ATOM     58  C   UNL A   1      47.112  33.053  29.885  1.00  0.00     0.029 A 
ATOM     59  N   UNL A   1      45.034  32.264  29.832  1.00  0.00    -0.354 N 
ATOM     60  N   UNL A   1      42.163  32.332  30.297  1.00  0.00    -0.248 NA
ATOM     61  C   UNL A   1      40.296  33.318  31.290  1.00  0.00     0.031 C 
ATOM     62  C   UNL A   1      46.270  33.984  30.500  1.00  0.00     0.029 A 
ATOM     63  C   UNL A   1      44.974  33.499  30.454  1.00  0.00     0.049 A 
ATOM     64  H   UNL A   1      44.263  31.678  29.661  1.00  0.00     0.167 HD
ATOM     65  C   UNL A   1      42.538  33.540  30.880  1.00  0.00     0.074 A 
ATOM     66  C   UNL A   1      41.339  34.124  31.440  1.00  0.00     0.031 C 
ATOM     67  C   UNL A   1      43.769  34.107  30.956  1.00  0.00     0.034 A 
BRANCH  54  68
ATOM     68  C   UNL A   1      48.243  30.590  28.566  1.00  0.00     0.023 A 
ATOM     69  C   UNL A   1      48.790  31.091  27.366  1.00  0.00     0.012 A 
ATOM     70  C   UNL A   1      49.087  29.971  29.508  1.00  0.00     0.148 A 
ATOM     71  C   UNL A   1      50.149  30.948  27.094  1.00  0.00     0.002 A 
ATOM     72  C   UNL A   1      50.448  29.874  29.249  1.00  0.00     0.091 A 
ATOM     73  F   UNL A   1      48.541  29.480  30.629  1.00  0.00    -0.205 F 
ATOM     74  C   UNL A   1      50.979  30.351  28.039  1.00  0.00     0.022 A 
BRANCH  72  75
ATOM     75  S   UNL A   1      51.609  29.189  30.436  1.00  0.00     0.127 S 
ATOM     76  O   UNL A   1      50.884  28.010  30.909  1.00  0.00    -0.237 OA
ATOM     77  O   UNL A   1      52.769  28.894  29.595  1.00  0.00    -0.237 OA
ATOM     78  O   UNL A   1      51.828  30.230  31.429  1.00  0.00    -0.744 OA
ENDBRANCH  72  75
ENDBRANCH  54  68
BRANCH  55  79
ATOM     79  C   UNL A   1      38.473  31.225  30.368  1.00  0.00     0.023 A 
ATOM     80  C   UNL A   1      37.955  30.519  31.472  1.00  0.00     0.012 A 
ATOM     81  C   UNL A   1      37.600  31.996  29.575  1.00  0.00     0.148 A 
ATOM     82  C   UNL A   1      36.591  30.554  31.762  1.00  0.00     0.002 A 
ATOM     83  C   UNL A   1      36.250  32.068  29.902  1.00  0.00     0.091 A 
ATOM     84  F   UNL A   1      38.108  32.640  28.516  1.00  0.00    -0.205 F 
ATOM     85  C   UNL A   1      35.740  31.334  30.984  1.00  0.00     0.022 A 
BRANCH  83  86
ATOM     86  S   UNL A   1      35.103  33.135  29.025  1.00  0.00     0.127 S 
ATOM     87  O   UNL A   1      33.886  32.983  29.820  1.00  0.00    -0.237 OA
ATOM     88  O   UNL A   1      35.755  34.440  29.143  1.00  0.00    -0.237 OA
ATOM     89  O   UNL A   1      35.040  32.614  27.666  1.00  0.00    -0.744 OA
ENDBRANCH  83  86
ENDBRANCH  55  79
BRANCH  67  90
ATOM     90  C   UNL A   1      43.894  35.451  31.630  1.00  0.00     0.023 A 
ATOM     91  C   UNL A   1      44.086  35.524  33.024  1.00  0.00     0.012 A 
ATOM     92  C   UNL A   1      43.913  36.638  30.869  1.00  0.00     0.148 A 
ATOM     93  C   UNL A   1      44.264  36.758  33.652  1.00  0.00     0.002 A 
ATOM     94  C   UNL A   1      44.138  37.858  31.495  1.00  0.00     0.091 A 
ATOM     95  F   UNL A   1      43.713  36.552  29.545  1.00  0.00    -0.205 F 
ATOM     96  C   UNL A   1      44.302  37.922  32.887  1.00  0.00     0.022 A 
BRANCH  94  97
ATOM     97  S   UNL A   1      44.299  39.398  30.580  1.00  0.00     0.127 S 
ATOM     98  O   UNL A   1      45.431  39.106  29.703  1.00  0.00    -0.237 OA
ATOM     99  O   UNL A   1      43.007  39.492  29.899  1.00  0.00    -0.237 OA
ATOM    100  O   UNL A   1      44.532  40.434  31.578  1.00  0.00    -0.744 OA
ENDBRANCH  94  97
ENDBRANCH  67  90
ENDBRANCH  41  42
ENDBRANCH  34  36
ENDBRANCH  33  34
ENDBRANCH  32  33
ENDBRANCH  31  32
ENDBRANCH  30  31
ENDBRANCH   1  30
TORSDOF 23
ENDMDL
