MODEL 1
REMARK VINA RESULT:     -10.2      0.000      0.000
REMARK SMILES Cc1cc(NC(=O)COc2cc(C)c(Cl)c(C)c2)cc(C(=O)OCCOCCOCCOC(=O)c2ccc(-c3c4nc(c(-c5cccc(S(=O)(=O)[O-])c5F)c5ccc([nH]5)c(-c5cccc(S(=O)(=O)[O-])c5F)c5nc(c(-c6cccc(S(=O)(=O)[O-])c6F)c6ccc3[nH]6)C=C5)C=C4)cc2)c1O
REMARK SMILES IDX 27 1 26 2 25 3 24 4 23 5 21 6 22 7 20 8 1 9 2 10 3 11 98 12
REMARK SMILES IDX 4 13 19 14 99 15 5 17 6 18 7 20 8 21 9 22 10 23 11 24 18 25
REMARK SMILES IDX 12 26 16 27 13 28 14 29 17 30 15 31 28 32 29 33 30 34 31 35
REMARK SMILES IDX 32 36 33 37 34 38 35 39 36 40 97 41 37 42 96 43 38 44 39 45
REMARK SMILES IDX 40 46 90 47 41 48 95 49 89 50 91 51 42 52 94 53 88 54 87 55
REMARK SMILES IDX 43 57 75 58 55 59 74 60 56 61 59 62 73 63 92 64 57 65 58 66
REMARK SMILES IDX 72 68 93 69 60 70 44 71 45 72 53 73 46 74 48 75 54 76 47 77
REMARK SMILES IDX 49 78 50 79 51 80 52 81 76 82 77 83 85 84 78 85 80 86 86 87
REMARK SMILES IDX 79 88 81 89 82 90 83 91 84 92 61 93 62 94 70 95 63 96 65 97
REMARK SMILES IDX 71 98 64 99 66 100 67 101 68 102 69 103
REMARK H PARENT 99 16 5 19 91 56 59 67
REMARK Flexibility Score: inf
ROOT
ATOM      1  C   UNL A   1      35.519  19.058  24.875  1.00  0.00     0.188 C 
ENDROOT
BRANCH   1   2
ATOM      2  O   UNL A   1      34.854  17.976  24.242  1.00  0.00    -0.376 OA
BRANCH   2   3
ATOM      3  C   UNL A   1      33.523  17.706  24.649  1.00  0.00     0.202 C 
BRANCH   3   4
ATOM      4  C   UNL A   1      32.406  18.296  23.783  1.00  0.00     0.261 C 
BRANCH   4   5
ATOM      5  O   UNL A   1      32.558  19.689  23.481  1.00  0.00    -0.460 OA
BRANCH   5   6
ATOM      6  C   UNL A   1      32.262  20.587  24.455  1.00  0.00     0.342 C 
ATOM      7  O   UNL A   1      31.600  20.392  25.444  1.00  0.00    -0.246 OA
BRANCH   6   8
ATOM      8  C   UNL A   1      32.909  21.865  24.055  1.00  0.00     0.104 A 
ATOM      9  C   UNL A   1      35.112  24.650  25.481  1.00  0.00     0.048 C 
ATOM     10  C   UNL A   1      34.256  23.819  24.565  1.00  0.00    -0.006 A 
ATOM     11  C   UNL A   1      34.032  24.269  23.249  1.00  0.00     0.033 A 
ATOM     12  C   UNL A   1      33.698  22.593  24.955  1.00  0.00     0.133 A 
ATOM     13  C   UNL A   1      33.291  23.518  22.324  1.00  0.00     0.042 A 
ATOM     14  C   UNL A   1      32.719  22.322  22.739  1.00  0.00     0.045 A 
BRANCH  12  15
ATOM     15  O   UNL A   1      33.947  22.056  26.186  1.00  0.00    -0.507 OA
ATOM     16  H   UNL A   1      34.750  22.250  26.628  1.00  0.00     0.293 HD
ENDBRANCH  12  15
BRANCH  13  17
ATOM     17  N   UNL A   1      33.112  24.084  21.053  1.00  0.00    -0.323 N 
ATOM     18  C   UNL A   1      32.673  25.303  20.626  1.00  0.00     0.262 C 
ATOM     19  H   UNL A   1      33.354  23.476  20.317  1.00  0.00     0.170 HD
ATOM     20  O   UNL A   1      32.844  25.585  19.433  1.00  0.00    -0.271 OA
BRANCH  18  21
ATOM     21  C   UNL A   1      31.917  26.275  21.535  1.00  0.00     0.329 C 
BRANCH  21  22
ATOM     22  O   UNL A   1      32.651  27.332  22.130  1.00  0.00    -0.484 OA
BRANCH  22  23
ATOM     23  C   UNL A   1      32.438  27.554  23.464  1.00  0.00     0.120 A 
ATOM     24  C   UNL A   1      32.954  28.628  24.184  1.00  0.00     0.051 A 
ATOM     25  C   UNL A   1      31.570  26.665  24.098  1.00  0.00     0.051 A 
ATOM     26  C   UNL A   1      32.618  28.821  25.536  1.00  0.00    -0.029 A 
ATOM     27  C   UNL A   1      31.217  26.823  25.448  1.00  0.00    -0.029 A 
ATOM     28  C   UNL A   1      33.178  30.016  26.257  1.00  0.00     0.046 C 
ATOM     29  C   UNL A   1      31.753  27.907  26.166  1.00  0.00     0.047 A 
ATOM     30  C   UNL A   1      30.264  25.844  26.076  1.00  0.00     0.046 C 
ATOM     31  Cl  UNL A   1      31.343  28.124  27.838  1.00  0.00    -0.084 Cl
ENDBRANCH  22  23
ENDBRANCH  21  22
ENDBRANCH  18  21
ENDBRANCH  13  17
ENDBRANCH   6   8
ENDBRANCH   5   6
ENDBRANCH   4   5
ENDBRANCH   3   4
ENDBRANCH   2   3
ENDBRANCH   1   2
BRANCH   1  32
ATOM     32  C   UNL A   1      37.046  18.859  24.946  1.00  0.00     0.188 C 
BRANCH  32  33
ATOM     33  O   UNL A   1      37.909  19.963  24.685  1.00  0.00    -0.376 OA
BRANCH  33  34
ATOM     34  C   UNL A   1      37.383  21.281  24.663  1.00  0.00     0.202 C 
BRANCH  34  35
ATOM     35  C   UNL A   1      37.631  22.177  25.878  1.00  0.00     0.261 C 
BRANCH  35  36
ATOM     36  O   UNL A   1      38.459  23.316  25.608  1.00  0.00    -0.460 OA
BRANCH  36  37
ATOM     37  C   UNL A   1      39.599  23.387  26.339  1.00  0.00     0.338 C 
ATOM     38  O   UNL A   1      40.515  22.582  26.361  1.00  0.00    -0.246 OA
BRANCH  37  39
ATOM     39  C   UNL A   1      39.673  24.697  27.017  1.00  0.00     0.060 A 
ATOM     40  C   UNL A   1      40.362  25.735  26.375  1.00  0.00     0.016 A 
ATOM     41  C   UNL A   1      39.127  24.887  28.289  1.00  0.00     0.016 A 
ATOM     42  C   UNL A   1      40.535  26.960  27.017  1.00  0.00     0.010 A 
ATOM     43  C   UNL A   1      39.318  26.110  28.938  1.00  0.00     0.010 A 
ATOM     44  C   UNL A   1      40.048  27.141  28.317  1.00  0.00    -0.014 A 
BRANCH  44  45
ATOM     45  C   UNL A   1      40.439  28.342  29.093  1.00  0.00     0.031 A 
ATOM     46  C   UNL A   1      41.774  28.350  29.786  1.00  0.00     0.074 A 
ATOM     47  C   UNL A   1      39.615  29.399  29.194  1.00  0.00     0.049 A 
ATOM     48  N   UNL A   1      42.304  29.269  30.550  1.00  0.00    -0.248 NA
ATOM     49  C   UNL A   1      42.624  27.162  29.595  1.00  0.00     0.031 C 
ATOM     50  C   UNL A   1      38.295  29.507  28.574  1.00  0.00     0.029 A 
ATOM     51  N   UNL A   1      39.759  30.576  29.888  1.00  0.00    -0.354 N 
ATOM     52  C   UNL A   1      43.535  28.764  30.949  1.00  0.00     0.074 A 
ATOM     53  C   UNL A   1      43.672  27.455  30.350  1.00  0.00     0.031 C 
ATOM     54  C   UNL A   1      37.731  30.670  28.950  1.00  0.00     0.029 A 
ATOM     55  C   UNL A   1      38.642  31.377  29.850  1.00  0.00     0.049 A 
ATOM     56  H   UNL A   1      40.582  30.821  30.369  1.00  0.00     0.167 HD
ATOM     57  C   UNL A   1      44.477  29.344  31.730  1.00  0.00     0.034 A 
ATOM     58  C   UNL A   1      38.379  32.535  30.489  1.00  0.00     0.034 A 
ATOM     59  C   UNL A   1      44.347  30.648  32.318  1.00  0.00     0.049 A 
ATOM     60  C   UNL A   1      39.435  33.146  31.376  1.00  0.00     0.074 A 
ATOM     61  C   UNL A   1      45.263  31.336  33.095  1.00  0.00     0.029 A 
ATOM     62  N   UNL A   1      43.227  31.456  32.209  1.00  0.00    -0.354 N 
ATOM     63  N   UNL A   1      40.647  32.719  31.634  1.00  0.00    -0.248 NA
ATOM     64  C   UNL A   1      39.098  34.420  32.031  1.00  0.00     0.031 C 
ATOM     65  C   UNL A   1      44.688  32.555  33.469  1.00  0.00     0.029 A 
ATOM     66  C   UNL A   1      43.424  32.634  32.908  1.00  0.00     0.049 A 
ATOM     67  H   UNL A   1      42.411  31.226  31.708  1.00  0.00     0.167 HD
ATOM     68  C   UNL A   1      41.227  33.684  32.451  1.00  0.00     0.074 A 
ATOM     69  C   UNL A   1      40.241  34.730  32.626  1.00  0.00     0.031 C 
ATOM     70  C   UNL A   1      42.458  33.696  33.020  1.00  0.00     0.034 A 
BRANCH  57  71
ATOM     71  C   UNL A   1      45.754  28.583  31.964  1.00  0.00     0.023 A 
ATOM     72  C   UNL A   1      45.872  27.770  33.110  1.00  0.00     0.012 A 
ATOM     73  C   UNL A   1      46.808  28.623  31.031  1.00  0.00     0.148 A 
ATOM     74  C   UNL A   1      47.029  27.026  33.336  1.00  0.00     0.002 A 
ATOM     75  C   UNL A   1      47.942  27.848  31.243  1.00  0.00     0.091 A 
ATOM     76  F   UNL A   1      46.684  29.421  29.962  1.00  0.00    -0.205 F 
ATOM     77  C   UNL A   1      48.058  27.058  32.398  1.00  0.00     0.022 A 
BRANCH  75  78
ATOM     78  S   UNL A   1      49.292  27.764  30.061  1.00  0.00     0.127 S 
ATOM     79  O   UNL A   1      48.594  28.000  28.798  1.00  0.00    -0.237 OA
ATOM     80  O   UNL A   1      50.152  28.865  30.498  1.00  0.00    -0.237 OA
ATOM     81  O   UNL A   1      49.877  26.440  30.214  1.00  0.00    -0.744 OA
ENDBRANCH  75  78
ENDBRANCH  57  71
BRANCH  58  82
ATOM     82  C   UNL A   1      37.067  33.216  30.295  1.00  0.00     0.023 A 
ATOM     83  C   UNL A   1      36.685  33.632  29.004  1.00  0.00     0.012 A 
ATOM     84  C   UNL A   1      36.201  33.457  31.379  1.00  0.00     0.148 A 
ATOM     85  C   UNL A   1      35.479  34.304  28.803  1.00  0.00     0.002 A 
ATOM     86  C   UNL A   1      34.978  34.082  31.163  1.00  0.00     0.091 A 
ATOM     87  F   UNL A   1      36.592  33.074  32.603  1.00  0.00    -0.205 F 
ATOM     88  C   UNL A   1      34.622  34.521  29.879  1.00  0.00     0.022 A 
BRANCH  86  89
ATOM     89  S   UNL A   1      33.766  34.293  32.471  1.00  0.00     0.127 S 
ATOM     90  O   UNL A   1      34.479  35.164  33.400  1.00  0.00    -0.237 OA
ATOM     91  O   UNL A   1      32.657  34.927  31.759  1.00  0.00    -0.237 OA
ATOM     92  O   UNL A   1      33.477  32.949  32.951  1.00  0.00    -0.744 OA
ENDBRANCH  86  89
ENDBRANCH  58  82
BRANCH  70  93
ATOM     93  C   UNL A   1      42.837  34.893  33.853  1.00  0.00     0.023 A 
ATOM     94  C   UNL A   1      43.273  36.075  33.223  1.00  0.00     0.012 A 
ATOM     95  C   UNL A   1      42.675  34.875  35.254  1.00  0.00     0.148 A 
ATOM     96  C   UNL A   1      43.570  37.211  33.976  1.00  0.00     0.002 A 
ATOM     97  C   UNL A   1      42.928  36.026  35.992  1.00  0.00     0.091 A 
ATOM     98  F   UNL A   1      42.276  33.736  35.836  1.00  0.00    -0.205 F 
ATOM     99  C   UNL A   1      43.386  37.190  35.356  1.00  0.00     0.022 A 
BRANCH  97 100
ATOM    100  S   UNL A   1      42.628  36.116  37.761  1.00  0.00     0.127 S 
ATOM    101  O   UNL A   1      42.982  37.503  38.054  1.00  0.00    -0.237 OA
ATOM    102  O   UNL A   1      41.198  35.819  37.850  1.00  0.00    -0.237 OA
ATOM    103  O   UNL A   1      43.490  35.108  38.363  1.00  0.00    -0.744 OA
ENDBRANCH  97 100
ENDBRANCH  70  93
ENDBRANCH  44  45
ENDBRANCH  37  39
ENDBRANCH  36  37
ENDBRANCH  35  36
ENDBRANCH  34  35
ENDBRANCH  33  34
ENDBRANCH  32  33
ENDBRANCH   1  32
TORSDOF 25
ENDMDL
MODEL 2
REMARK VINA RESULT:      -9.9      3.750      5.569
REMARK SMILES Cc1cc(NC(=O)COc2cc(C)c(Cl)c(C)c2)cc(C(=O)OCCOCCOCCOC(=O)c2ccc(-c3c4nc(c(-c5cccc(S(=O)(=O)[O-])c5F)c5ccc([nH]5)c(-c5cccc(S(=O)(=O)[O-])c5F)c5nc(c(-c6cccc(S(=O)(=O)[O-])c6F)c6ccc3[nH]6)C=C5)C=C4)cc2)c1O
REMARK SMILES IDX 27 1 26 2 25 3 24 4 23 5 21 6 22 7 20 8 1 9 2 10 3 11 98 12
REMARK SMILES IDX 4 13 19 14 99 15 5 17 6 18 7 20 8 21 9 22 10 23 11 24 18 25
REMARK SMILES IDX 12 26 16 27 13 28 14 29 17 30 15 31 28 32 29 33 30 34 31 35
REMARK SMILES IDX 32 36 33 37 34 38 35 39 36 40 97 41 37 42 96 43 38 44 39 45
REMARK SMILES IDX 40 46 90 47 41 48 95 49 89 50 91 51 42 52 94 53 88 54 87 55
REMARK SMILES IDX 43 57 75 58 55 59 74 60 56 61 59 62 73 63 92 64 57 65 58 66
REMARK SMILES IDX 72 68 93 69 60 70 44 71 45 72 53 73 46 74 48 75 54 76 47 77
REMARK SMILES IDX 49 78 50 79 51 80 52 81 76 82 77 83 85 84 78 85 80 86 86 87
REMARK SMILES IDX 79 88 81 89 82 90 83 91 84 92 61 93 62 94 70 95 63 96 65 97
REMARK SMILES IDX 71 98 64 99 66 100 67 101 68 102 69 103
REMARK H PARENT 99 16 5 19 91 56 59 67
REMARK Flexibility Score: inf
ROOT
ATOM      1  C   UNL A   1      36.877  22.021  25.587  1.00  0.00     0.188 C 
ENDROOT
BRANCH   1   2
ATOM      2  O   UNL A   1      36.237  22.304  24.352  1.00  0.00    -0.376 OA
BRANCH   2   3
ATOM      3  C   UNL A   1      35.056  23.086  24.399  1.00  0.00     0.202 C 
BRANCH   3   4
ATOM      4  C   UNL A   1      34.676  23.836  23.118  1.00  0.00     0.261 C 
BRANCH   4   5
ATOM      5  O   UNL A   1      33.998  25.079  23.334  1.00  0.00    -0.460 OA
BRANCH   5   6
ATOM      6  C   UNL A   1      33.099  25.484  22.401  1.00  0.00     0.342 C 
ATOM      7  O   UNL A   1      33.281  25.576  21.212  1.00  0.00    -0.246 OA
BRANCH   6   8
ATOM      8  C   UNL A   1      31.847  25.804  23.137  1.00  0.00     0.104 A 
ATOM      9  C   UNL A   1      28.921  28.269  23.083  1.00  0.00     0.048 C 
ATOM     10  C   UNL A   1      29.861  27.160  23.467  1.00  0.00    -0.006 A 
ATOM     11  C   UNL A   1      29.560  26.375  24.597  1.00  0.00     0.033 A 
ATOM     12  C   UNL A   1      31.010  26.851  22.726  1.00  0.00     0.133 A 
ATOM     13  C   UNL A   1      30.362  25.290  24.982  1.00  0.00     0.042 A 
ATOM     14  C   UNL A   1      31.514  25.019  24.254  1.00  0.00     0.045 A 
BRANCH  12  15
ATOM     15  O   UNL A   1      31.314  27.514  21.572  1.00  0.00    -0.507 OA
ATOM     16  H   UNL A   1      30.633  27.750  20.974  1.00  0.00     0.293 HD
ENDBRANCH  12  15
BRANCH  13  17
ATOM     17  N   UNL A   1      29.976  24.600  26.141  1.00  0.00    -0.323 N 
ATOM     18  C   UNL A   1      30.192  23.329  26.588  1.00  0.00     0.262 C 
ATOM     19  H   UNL A   1      29.439  25.146  26.760  1.00  0.00     0.170 HD
ATOM     20  O   UNL A   1      29.911  23.084  27.768  1.00  0.00    -0.271 OA
BRANCH  18  21
ATOM     21  C   UNL A   1      30.679  22.203  25.673  1.00  0.00     0.329 C 
BRANCH  21  22
ATOM     22  O   UNL A   1      32.037  21.808  25.775  1.00  0.00    -0.484 OA
BRANCH  22  23
ATOM     23  C   UNL A   1      32.391  20.652  25.134  1.00  0.00     0.120 A 
ATOM     24  C   UNL A   1      32.854  19.501  25.766  1.00  0.00     0.051 A 
ATOM     25  C   UNL A   1      32.183  20.632  23.755  1.00  0.00     0.051 A 
ATOM     26  C   UNL A   1      33.118  18.329  25.034  1.00  0.00    -0.029 A 
ATOM     27  C   UNL A   1      32.442  19.481  22.991  1.00  0.00    -0.029 A 
ATOM     28  C   UNL A   1      33.585  17.105  25.773  1.00  0.00     0.046 C 
ATOM     29  C   UNL A   1      32.917  18.330  23.642  1.00  0.00     0.047 A 
ATOM     30  C   UNL A   1      32.183  19.512  21.510  1.00  0.00     0.046 C 
ATOM     31  Cl  UNL A   1      33.255  16.895  22.725  1.00  0.00    -0.084 Cl
ENDBRANCH  22  23
ENDBRANCH  21  22
ENDBRANCH  18  21
ENDBRANCH  13  17
ENDBRANCH   6   8
ENDBRANCH   5   6
ENDBRANCH   4   5
ENDBRANCH   3   4
ENDBRANCH   2   3
ENDBRANCH   1   2
BRANCH   1  32
ATOM     32  C   UNL A   1      38.152  21.171  25.415  1.00  0.00     0.188 C 
BRANCH  32  33
ATOM     33  O   UNL A   1      39.354  21.574  26.065  1.00  0.00    -0.376 OA
BRANCH  33  34
ATOM     34  C   UNL A   1      40.423  20.652  26.211  1.00  0.00     0.202 C 
BRANCH  34  35
ATOM     35  C   UNL A   1      41.845  21.206  26.313  1.00  0.00     0.261 C 
BRANCH  35  36
ATOM     36  O   UNL A   1      41.911  22.631  26.460  1.00  0.00    -0.460 OA
BRANCH  36  37
ATOM     37  C   UNL A   1      42.749  23.261  25.602  1.00  0.00     0.338 C 
ATOM     38  O   UNL A   1      43.108  22.876  24.501  1.00  0.00    -0.246 OA
BRANCH  37  39
ATOM     39  C   UNL A   1      43.065  24.609  26.115  1.00  0.00     0.060 A 
ATOM     40  C   UNL A   1      43.520  24.723  27.436  1.00  0.00     0.016 A 
ATOM     41  C   UNL A   1      42.859  25.750  25.335  1.00  0.00     0.016 A 
ATOM     42  C   UNL A   1      43.743  25.982  27.992  1.00  0.00     0.010 A 
ATOM     43  C   UNL A   1      43.066  27.011  25.901  1.00  0.00     0.010 A 
ATOM     44  C   UNL A   1      43.480  27.133  27.240  1.00  0.00    -0.014 A 
BRANCH  44  45
ATOM     45  C   UNL A   1      43.477  28.461  27.898  1.00  0.00     0.031 A 
ATOM     46  C   UNL A   1      44.769  29.229  27.980  1.00  0.00     0.074 A 
ATOM     47  C   UNL A   1      42.351  28.968  28.430  1.00  0.00     0.049 A 
ATOM     48  N   UNL A   1      45.011  30.383  28.543  1.00  0.00    -0.248 NA
ATOM     49  C   UNL A   1      45.944  28.610  27.343  1.00  0.00     0.031 C 
ATOM     50  C   UNL A   1      41.042  28.317  28.420  1.00  0.00     0.029 A 
ATOM     51  N   UNL A   1      42.140  30.140  29.114  1.00  0.00    -0.354 N 
ATOM     52  C   UNL A   1      46.366  30.620  28.350  1.00  0.00     0.074 A 
ATOM     53  C   UNL A   1      46.897  29.486  27.626  1.00  0.00     0.031 C 
ATOM     54  C   UNL A   1      40.171  29.082  29.104  1.00  0.00     0.029 A 
ATOM     55  C   UNL A   1      40.866  30.264  29.614  1.00  0.00     0.049 A 
ATOM     56  H   UNL A   1      42.836  30.827  29.234  1.00  0.00     0.167 HD
ATOM     57  C   UNL A   1      47.102  31.692  28.727  1.00  0.00     0.034 A 
ATOM     58  C   UNL A   1      40.332  31.209  30.413  1.00  0.00     0.034 A 
ATOM     59  C   UNL A   1      46.575  32.822  29.440  1.00  0.00     0.049 A 
ATOM     60  C   UNL A   1      41.180  32.380  30.842  1.00  0.00     0.074 A 
ATOM     61  C   UNL A   1      47.234  33.973  29.835  1.00  0.00     0.029 A 
ATOM     62  N   UNL A   1      45.267  32.940  29.878  1.00  0.00    -0.354 N 
ATOM     63  N   UNL A   1      42.426  32.654  30.538  1.00  0.00    -0.248 NA
ATOM     64  C   UNL A   1      40.538  33.390  31.698  1.00  0.00     0.031 C 
ATOM     65  C   UNL A   1      46.325  34.781  30.527  1.00  0.00     0.029 A 
ATOM     66  C   UNL A   1      45.096  34.141  30.544  1.00  0.00     0.049 A 
ATOM     67  H   UNL A   1      44.561  32.268  29.737  1.00  0.00     0.167 HD
ATOM     68  C   UNL A   1      42.705  33.880  31.133  1.00  0.00     0.074 A 
ATOM     69  C   UNL A   1      41.490  34.307  31.797  1.00  0.00     0.031 C 
ATOM     70  C   UNL A   1      43.865  34.583  31.145  1.00  0.00     0.034 A 
BRANCH  57  71
ATOM     71  C   UNL A   1      48.557  31.709  28.342  1.00  0.00     0.023 A 
ATOM     72  C   UNL A   1      49.467  30.893  29.046  1.00  0.00     0.012 A 
ATOM     73  C   UNL A   1      49.013  32.481  27.256  1.00  0.00     0.148 A 
ATOM     74  C   UNL A   1      50.814  30.863  28.690  1.00  0.00     0.002 A 
ATOM     75  C   UNL A   1      50.350  32.415  26.882  1.00  0.00     0.091 A 
ATOM     76  F   UNL A   1      48.136  33.267  26.618  1.00  0.00    -0.205 F 
ATOM     77  C   UNL A   1      51.252  31.615  27.603  1.00  0.00     0.022 A 
BRANCH  75  78
ATOM     78  S   UNL A   1      51.000  33.289  25.454  1.00  0.00     0.127 S 
ATOM     79  O   UNL A   1      49.853  34.104  25.060  1.00  0.00    -0.237 OA
ATOM     80  O   UNL A   1      52.112  34.042  26.034  1.00  0.00    -0.237 OA
ATOM     81  O   UNL A   1      51.395  32.262  24.500  1.00  0.00    -0.744 OA
ENDBRANCH  75  78
ENDBRANCH  57  71
BRANCH  58  82
ATOM     82  C   UNL A   1      38.907  31.111  30.841  1.00  0.00     0.023 A 
ATOM     83  C   UNL A   1      38.569  30.313  31.951  1.00  0.00     0.012 A 
ATOM     84  C   UNL A   1      37.888  31.798  30.153  1.00  0.00     0.148 A 
ATOM     85  C   UNL A   1      37.239  30.175  32.348  1.00  0.00     0.002 A 
ATOM     86  C   UNL A   1      36.571  31.697  30.586  1.00  0.00     0.091 A 
ATOM     87  F   UNL A   1      38.227  32.535  29.085  1.00  0.00    -0.205 F 
ATOM     88  C   UNL A   1      36.242  30.874  31.673  1.00  0.00     0.022 A 
BRANCH  86  89
ATOM     89  S   UNL A   1      35.244  32.656  29.847  1.00  0.00     0.127 S 
ATOM     90  O   UNL A   1      34.901  31.843  28.683  1.00  0.00    -0.237 OA
ATOM     91  O   UNL A   1      34.241  32.659  30.912  1.00  0.00    -0.237 OA
ATOM     92  O   UNL A   1      35.821  33.963  29.564  1.00  0.00    -0.744 OA
ENDBRANCH  86  89
ENDBRANCH  58  82
BRANCH  70  93
ATOM     93  C   UNL A   1      43.878  35.909  31.860  1.00  0.00     0.023 A 
ATOM     94  C   UNL A   1      44.075  35.951  33.254  1.00  0.00     0.012 A 
ATOM     95  C   UNL A   1      43.784  37.116  31.138  1.00  0.00     0.148 A 
ATOM     96  C   UNL A   1      44.149  37.172  33.923  1.00  0.00     0.002 A 
ATOM     97  C   UNL A   1      43.906  38.330  31.805  1.00  0.00     0.091 A 
ATOM     98  F   UNL A   1      43.579  37.056  29.815  1.00  0.00    -0.205 F 
ATOM     99  C   UNL A   1      44.078  38.360  33.198  1.00  0.00     0.022 A 
BRANCH  97 100
ATOM    100  S   UNL A   1      43.920  39.904  30.939  1.00  0.00     0.127 S 
ATOM    101  O   UNL A   1      42.798  40.599  31.565  1.00  0.00    -0.237 OA
ATOM    102  O   UNL A   1      45.238  40.438  31.284  1.00  0.00    -0.237 OA
ATOM    103  O   UNL A   1      43.752  39.584  29.528  1.00  0.00    -0.744 OA
ENDBRANCH  97 100
ENDBRANCH  70  93
ENDBRANCH  44  45
ENDBRANCH  37  39
ENDBRANCH  36  37
ENDBRANCH  35  36
ENDBRANCH  34  35
ENDBRANCH  33  34
ENDBRANCH  32  33
ENDBRANCH   1  32
TORSDOF 25
ENDMDL
MODEL 3
REMARK VINA RESULT:      -9.8      4.196      8.454
REMARK SMILES Cc1cc(NC(=O)COc2cc(C)c(Cl)c(C)c2)cc(C(=O)OCCOCCOCCOC(=O)c2ccc(-c3c4nc(c(-c5cccc(S(=O)(=O)[O-])c5F)c5ccc([nH]5)c(-c5cccc(S(=O)(=O)[O-])c5F)c5nc(c(-c6cccc(S(=O)(=O)[O-])c6F)c6ccc3[nH]6)C=C5)C=C4)cc2)c1O
REMARK SMILES IDX 27 1 26 2 25 3 24 4 23 5 21 6 22 7 20 8 1 9 2 10 3 11 98 12
REMARK SMILES IDX 4 13 19 14 99 15 5 17 6 18 7 20 8 21 9 22 10 23 11 24 18 25
REMARK SMILES IDX 12 26 16 27 13 28 14 29 17 30 15 31 28 32 29 33 30 34 31 35
REMARK SMILES IDX 32 36 33 37 34 38 35 39 36 40 97 41 37 42 96 43 38 44 39 45
REMARK SMILES IDX 40 46 90 47 41 48 95 49 89 50 91 51 42 52 94 53 88 54 87 55
REMARK SMILES IDX 43 57 75 58 55 59 74 60 56 61 59 62 73 63 92 64 57 65 58 66
REMARK SMILES IDX 72 68 93 69 60 70 44 71 45 72 53 73 46 74 48 75 54 76 47 77
REMARK SMILES IDX 49 78 50 79 51 80 52 81 76 82 77 83 85 84 78 85 80 86 86 87
REMARK SMILES IDX 79 88 81 89 82 90 83 91 84 92 61 93 62 94 70 95 63 96 65 97
REMARK SMILES IDX 71 98 64 99 66 100 67 101 68 102 69 103
REMARK H PARENT 99 16 5 19 91 56 59 67
REMARK Flexibility Score: inf
ROOT
ATOM      1  C   UNL A   1      37.343  29.250  28.527  1.00  0.00     0.188 C 
ENDROOT
BRANCH   1   2
ATOM      2  O   UNL A   1      38.630  29.445  27.963  1.00  0.00    -0.376 OA
BRANCH   2   3
ATOM      3  C   UNL A   1      39.467  28.307  27.848  1.00  0.00     0.202 C 
BRANCH   3   4
ATOM      4  C   UNL A   1      40.567  28.367  26.785  1.00  0.00     0.261 C 
BRANCH   4   5
ATOM      5  O   UNL A   1      40.945  27.095  26.245  1.00  0.00    -0.460 OA
BRANCH   5   6
ATOM      6  C   UNL A   1      42.022  27.048  25.421  1.00  0.00     0.342 C 
ATOM      7  O   UNL A   1      42.376  27.896  24.640  1.00  0.00    -0.246 OA
BRANCH   6   8
ATOM      8  C   UNL A   1      42.676  25.733  25.663  1.00  0.00     0.104 A 
ATOM      9  C   UNL A   1      45.931  23.859  24.931  1.00  0.00     0.048 C 
ATOM     10  C   UNL A   1      44.546  24.208  25.402  1.00  0.00    -0.006 A 
ATOM     11  C   UNL A   1      43.803  23.239  26.105  1.00  0.00     0.033 A 
ATOM     12  C   UNL A   1      43.973  25.471  25.200  1.00  0.00     0.133 A 
ATOM     13  C   UNL A   1      42.528  23.513  26.622  1.00  0.00     0.042 A 
ATOM     14  C   UNL A   1      41.964  24.760  26.384  1.00  0.00     0.045 A 
BRANCH  12  15
ATOM     15  O   UNL A   1      44.670  26.483  24.604  1.00  0.00    -0.507 OA
ATOM     16  H   UNL A   1      44.432  27.374  24.766  1.00  0.00     0.293 HD
ENDBRANCH  12  15
BRANCH  13  17
ATOM     17  N   UNL A   1      41.875  22.459  27.280  1.00  0.00    -0.323 N 
ATOM     18  C   UNL A   1      40.713  21.786  27.041  1.00  0.00     0.262 C 
ATOM     19  H   UNL A   1      42.354  22.140  28.078  1.00  0.00     0.170 HD
ATOM     20  O   UNL A   1      40.516  20.744  27.678  1.00  0.00    -0.271 OA
BRANCH  18  21
ATOM     21  C   UNL A   1      39.631  22.314  26.094  1.00  0.00     0.329 C 
BRANCH  21  22
ATOM     22  O   UNL A   1      38.757  21.370  25.497  1.00  0.00    -0.484 OA
BRANCH  22  23
ATOM     23  C   UNL A   1      37.434  21.715  25.429  1.00  0.00     0.120 A 
ATOM     24  C   UNL A   1      36.946  23.016  25.505  1.00  0.00     0.051 A 
ATOM     25  C   UNL A   1      36.545  20.668  25.182  1.00  0.00     0.051 A 
ATOM     26  C   UNL A   1      35.574  23.285  25.345  1.00  0.00    -0.029 A 
ATOM     27  C   UNL A   1      35.168  20.899  25.023  1.00  0.00    -0.029 A 
ATOM     28  C   UNL A   1      35.106  24.713  25.405  1.00  0.00     0.046 C 
ATOM     29  C   UNL A   1      34.688  22.217  25.112  1.00  0.00     0.047 A 
ATOM     30  C   UNL A   1      34.258  19.736  24.742  1.00  0.00     0.046 C 
ATOM     31  Cl  UNL A   1      32.991  22.534  24.929  1.00  0.00    -0.084 Cl
ENDBRANCH  22  23
ENDBRANCH  21  22
ENDBRANCH  18  21
ENDBRANCH  13  17
ENDBRANCH   6   8
ENDBRANCH   5   6
ENDBRANCH   4   5
ENDBRANCH   3   4
ENDBRANCH   2   3
ENDBRANCH   1   2
BRANCH   1  32
ATOM     32  C   UNL A   1      36.204  29.641  27.564  1.00  0.00     0.188 C 
BRANCH  32  33
ATOM     33  O   UNL A   1      34.888  29.832  28.078  1.00  0.00    -0.376 OA
BRANCH  33  34
ATOM     34  C   UNL A   1      33.870  30.352  27.237  1.00  0.00     0.202 C 
BRANCH  34  35
ATOM     35  C   UNL A   1      33.466  31.817  27.415  1.00  0.00     0.261 C 
BRANCH  35  36
ATOM     36  O   UNL A   1      33.775  32.358  28.707  1.00  0.00    -0.460 OA
BRANCH  36  37
ATOM     37  C   UNL A   1      34.600  33.435  28.699  1.00  0.00     0.338 C 
ATOM     38  O   UNL A   1      34.499  34.437  28.011  1.00  0.00    -0.246 OA
BRANCH  37  39
ATOM     39  C   UNL A   1      35.589  33.310  29.787  1.00  0.00     0.060 A 
ATOM     40  C   UNL A   1      36.754  34.086  29.712  1.00  0.00     0.016 A 
ATOM     41  C   UNL A   1      35.406  32.404  30.834  1.00  0.00     0.016 A 
ATOM     42  C   UNL A   1      37.756  33.935  30.670  1.00  0.00     0.010 A 
ATOM     43  C   UNL A   1      36.421  32.241  31.781  1.00  0.00     0.010 A 
ATOM     44  C   UNL A   1      37.612  32.983  31.686  1.00  0.00    -0.014 A 
BRANCH  44  45
ATOM     45  C   UNL A   1      38.767  32.646  32.553  1.00  0.00     0.031 A 
ATOM     46  C   UNL A   1      39.853  31.766  31.997  1.00  0.00     0.074 A 
ATOM     47  C   UNL A   1      38.839  33.099  33.816  1.00  0.00     0.049 A 
ATOM     48  N   UNL A   1      40.928  31.309  32.584  1.00  0.00    -0.248 NA
ATOM     49  C   UNL A   1      39.705  31.342  30.594  1.00  0.00     0.031 C 
ATOM     50  C   UNL A   1      37.847  33.952  34.469  1.00  0.00     0.029 A 
ATOM     51  N   UNL A   1      39.782  32.873  34.789  1.00  0.00    -0.354 N 
ATOM     52  C   UNL A   1      41.573  30.527  31.633  1.00  0.00     0.074 A 
ATOM     53  C   UNL A   1      40.765  30.564  30.434  1.00  0.00     0.031 C 
ATOM     54  C   UNL A   1      38.214  34.144  35.749  1.00  0.00     0.029 A 
ATOM     55  C   UNL A   1      39.454  33.414  36.009  1.00  0.00     0.049 A 
ATOM     56  H   UNL A   1      40.613  32.371  34.628  1.00  0.00     0.167 HD
ATOM     57  C   UNL A   1      42.742  29.853  31.741  1.00  0.00     0.034 A 
ATOM     58  C   UNL A   1      40.072  33.308  37.203  1.00  0.00     0.034 A 
ATOM     59  C   UNL A   1      43.549  29.821  32.928  1.00  0.00     0.049 A 
ATOM     60  C   UNL A   1      41.358  32.527  37.303  1.00  0.00     0.074 A 
ATOM     61  C   UNL A   1      44.768  29.195  33.124  1.00  0.00     0.029 A 
ATOM     62  N   UNL A   1      43.215  30.429  34.127  1.00  0.00    -0.354 N 
ATOM     63  N   UNL A   1      42.024  31.906  36.361  1.00  0.00    -0.248 NA
ATOM     64  C   UNL A   1      41.997  32.463  38.628  1.00  0.00     0.031 C 
ATOM     65  C   UNL A   1      45.162  29.412  34.448  1.00  0.00     0.029 A 
ATOM     66  C   UNL A   1      44.200  30.191  35.070  1.00  0.00     0.049 A 
ATOM     67  H   UNL A   1      42.398  30.955  34.286  1.00  0.00     0.167 HD
ATOM     68  C   UNL A   1      43.173  31.408  36.967  1.00  0.00     0.074 A 
ATOM     69  C   UNL A   1      43.124  31.820  38.354  1.00  0.00     0.031 C 
ATOM     70  C   UNL A   1      44.170  30.662  36.430  1.00  0.00     0.034 A 
BRANCH  57  71
ATOM     71  C   UNL A   1      43.237  29.118  30.525  1.00  0.00     0.023 A 
ATOM     72  C   UNL A   1      42.950  27.744  30.384  1.00  0.00     0.012 A 
ATOM     73  C   UNL A   1      43.931  29.790  29.500  1.00  0.00     0.148 A 
ATOM     74  C   UNL A   1      43.366  27.045  29.252  1.00  0.00     0.002 A 
ATOM     75  C   UNL A   1      44.308  29.095  28.357  1.00  0.00     0.091 A 
ATOM     76  F   UNL A   1      44.214  31.089  29.666  1.00  0.00    -0.205 F 
ATOM     77  C   UNL A   1      44.035  27.723  28.236  1.00  0.00     0.022 A 
BRANCH  75  78
ATOM     78  S   UNL A   1      45.111  29.891  26.961  1.00  0.00     0.127 S 
ATOM     79  O   UNL A   1      46.347  30.379  27.570  1.00  0.00    -0.237 OA
ATOM     80  O   UNL A   1      45.288  28.775  26.031  1.00  0.00    -0.237 OA
ATOM     81  O   UNL A   1      44.191  30.922  26.503  1.00  0.00    -0.744 OA
ENDBRANCH  75  78
ENDBRANCH  57  71
BRANCH  58  82
ATOM     82  C   UNL A   1      39.502  33.984  38.404  1.00  0.00     0.023 A 
ATOM     83  C   UNL A   1      39.913  35.292  38.726  1.00  0.00     0.012 A 
ATOM     84  C   UNL A   1      38.561  33.337  39.228  1.00  0.00     0.148 A 
ATOM     85  C   UNL A   1      39.422  35.931  39.865  1.00  0.00     0.002 A 
ATOM     86  C   UNL A   1      38.037  33.999  40.333  1.00  0.00     0.091 A 
ATOM     87  F   UNL A   1      38.199  32.084  38.919  1.00  0.00    -0.205 F 
ATOM     88  C   UNL A   1      38.478  35.289  40.662  1.00  0.00     0.022 A 
BRANCH  86  89
ATOM     89  S   UNL A   1      36.732  33.292  41.344  1.00  0.00     0.127 S 
ATOM     90  O   UNL A   1      35.760  32.884  40.334  1.00  0.00    -0.237 OA
ATOM     91  O   UNL A   1      37.426  32.191  42.011  1.00  0.00    -0.237 OA
ATOM     92  O   UNL A   1      36.311  34.363  42.238  1.00  0.00    -0.744 OA
ENDBRANCH  86  89
ENDBRANCH  58  82
BRANCH  70  93
ATOM     93  C   UNL A   1      45.318  30.273  37.324  1.00  0.00     0.023 A 
ATOM     94  C   UNL A   1      46.403  31.155  37.495  1.00  0.00     0.012 A 
ATOM     95  C   UNL A   1      45.280  29.073  38.064  1.00  0.00     0.148 A 
ATOM     96  C   UNL A   1      47.445  30.837  38.365  1.00  0.00     0.002 A 
ATOM     97  C   UNL A   1      46.299  28.785  38.964  1.00  0.00     0.091 A 
ATOM     98  F   UNL A   1      44.249  28.238  37.874  1.00  0.00    -0.205 F 
ATOM     99  C   UNL A   1      47.387  29.660  39.108  1.00  0.00     0.022 A 
BRANCH  97 100
ATOM    100  S   UNL A   1      46.258  27.339  40.029  1.00  0.00     0.127 S 
ATOM    101  O   UNL A   1      44.830  27.032  40.062  1.00  0.00    -0.237 OA
ATOM    102  O   UNL A   1      47.071  26.378  39.281  1.00  0.00    -0.237 OA
ATOM    103  O   UNL A   1      46.840  27.759  41.296  1.00  0.00    -0.744 OA
ENDBRANCH  97 100
ENDBRANCH  70  93
ENDBRANCH  44  45
ENDBRANCH  37  39
ENDBRANCH  36  37
ENDBRANCH  35  36
ENDBRANCH  34  35
ENDBRANCH  33  34
ENDBRANCH  32  33
ENDBRANCH   1  32
TORSDOF 25
ENDMDL
