MODEL 1
REMARK VINA RESULT:     -10.6      0.000      0.000
REMARK SMILES O=C(OCCOCCOCCOC(=O)[C@@H](Cc1ccccc1)NC(=O)c1ccccc1[N+](=O)[O-])c1ccc(-c2c3nc(c(-c4cccc(S(=O)(=O)[O-])c4F)c4ccc([nH]4)c(-c4cccc(S(=O)(=O)[O-])c4F)c4nc(c(-c5cccc(S(=O)(=O)[O-])c5F)c5ccc2[nH]5)C=C4)C=C3)cc1
REMARK SMILES IDX 7 1 6 2 5 3 4 4 3 5 2 6 1 7 35 8 36 9 97 10 37 11 96 12
REMARK SMILES IDX 38 13 39 14 40 15 90 16 41 17 95 18 89 19 91 20 42 21 94 22
REMARK SMILES IDX 88 23 87 24 43 26 75 27 55 28 74 29 56 30 59 31 73 32 92 33
REMARK SMILES IDX 57 34 58 35 72 37 93 38 60 39 44 40 45 41 53 42 46 43 48 44
REMARK SMILES IDX 54 45 47 46 49 47 50 48 51 49 52 50 76 51 77 52 85 53 78 54
REMARK SMILES IDX 80 55 86 56 79 57 81 58 82 59 83 60 84 61 61 62 62 63 70 64
REMARK SMILES IDX 63 65 65 66 71 67 64 68 66 69 67 70 68 71 69 72 8 73 9 74
REMARK SMILES IDX 10 75 11 76 12 77 13 78 14 79 15 80 16 81 17 82 18 83 22 84
REMARK SMILES IDX 19 85 21 86 20 87 23 88 24 89 25 91 26 92 27 93 31 94 28 95
REMARK SMILES IDX 30 96 29 97 32 98 33 99 34 100
REMARK H PARENT 91 25 59 36 23 90
REMARK Flexibility Score: inf
ROOT
ATOM      1  C   UNL A   1      34.494  18.258  24.653  1.00  0.00     0.188 C 
ENDROOT
BRANCH   1   2
ATOM      2  O   UNL A   1      35.051  19.565  24.491  1.00  0.00    -0.376 OA
BRANCH   2   3
ATOM      3  C   UNL A   1      36.372  19.730  24.990  1.00  0.00     0.202 C 
BRANCH   3   4
ATOM      4  C   UNL A   1      36.812  21.141  25.398  1.00  0.00     0.261 C 
BRANCH   4   5
ATOM      5  O   UNL A   1      38.189  21.494  25.187  1.00  0.00    -0.460 OA
BRANCH   5   6
ATOM      6  C   UNL A   1      39.252  21.563  26.019  1.00  0.00     0.338 C 
ATOM      7  O   UNL A   1      39.803  20.507  26.332  1.00  0.00    -0.246 OA
BRANCH   6   8
ATOM      8  C   UNL A   1      39.780  22.831  26.605  1.00  0.00     0.060 A 
ATOM      9  C   UNL A   1      39.398  24.108  26.208  1.00  0.00     0.016 A 
ATOM     10  C   UNL A   1      40.789  22.717  27.587  1.00  0.00     0.016 A 
ATOM     11  C   UNL A   1      39.965  25.232  26.803  1.00  0.00     0.010 A 
ATOM     12  C   UNL A   1      41.382  23.847  28.169  1.00  0.00     0.010 A 
ATOM     13  C   UNL A   1      40.961  25.117  27.785  1.00  0.00    -0.014 A 
BRANCH  13  14
ATOM     14  C   UNL A   1      41.577  26.379  28.262  1.00  0.00     0.031 A 
ATOM     15  C   UNL A   1      42.887  26.774  27.658  1.00  0.00     0.074 A 
ATOM     16  C   UNL A   1      40.902  27.235  29.051  1.00  0.00     0.049 A 
ATOM     17  N   UNL A   1      43.467  27.940  27.631  1.00  0.00    -0.248 NA
ATOM     18  C   UNL A   1      43.622  25.707  26.956  1.00  0.00     0.031 C 
ATOM     19  C   UNL A   1      39.630  26.944  29.695  1.00  0.00     0.029 A 
ATOM     20  N   UNL A   1      41.149  28.544  29.388  1.00  0.00    -0.354 N 
ATOM     21  C   UNL A   1      44.644  27.748  26.924  1.00  0.00     0.074 A 
ATOM     22  C   UNL A   1      44.667  26.369  26.487  1.00  0.00     0.031 C 
ATOM     23  C   UNL A   1      39.139  28.068  30.243  1.00  0.00     0.029 A 
ATOM     24  C   UNL A   1      40.100  29.146  30.054  1.00  0.00     0.049 A 
ATOM     25  H   UNL A   1      41.991  29.006  29.174  1.00  0.00     0.167 HD
ATOM     26  C   UNL A   1      45.642  28.630  26.703  1.00  0.00     0.034 A 
ATOM     27  C   UNL A   1      39.943  30.425  30.455  1.00  0.00     0.034 A 
ATOM     28  C   UNL A   1      45.666  29.954  27.252  1.00  0.00     0.049 A 
ATOM     29  C   UNL A   1      41.081  31.383  30.205  1.00  0.00     0.074 A 
ATOM     30  C   UNL A   1      46.695  30.876  27.234  1.00  0.00     0.029 A 
ATOM     31  N   UNL A   1      44.620  30.529  27.960  1.00  0.00    -0.354 N 
ATOM     32  N   UNL A   1      42.170  31.208  29.495  1.00  0.00    -0.248 NA
ATOM     33  C   UNL A   1      40.981  32.710  30.829  1.00  0.00     0.031 C 
ATOM     34  C   UNL A   1      46.281  31.999  27.960  1.00  0.00     0.029 A 
ATOM     35  C   UNL A   1      44.979  31.792  28.391  1.00  0.00     0.049 A 
ATOM     36  H   UNL A   1      43.750  30.100  28.130  1.00  0.00     0.167 HD
ATOM     37  C   UNL A   1      42.892  32.390  29.604  1.00  0.00     0.074 A 
ATOM     38  C   UNL A   1      42.084  33.301  30.389  1.00  0.00     0.031 C 
ATOM     39  C   UNL A   1      44.132  32.685  29.140  1.00  0.00     0.034 A 
BRANCH  26  40
ATOM     40  C   UNL A   1      46.818  28.121  25.923  1.00  0.00     0.023 A 
ATOM     41  C   UNL A   1      46.782  28.128  24.515  1.00  0.00     0.012 A 
ATOM     42  C   UNL A   1      47.925  27.567  26.592  1.00  0.00     0.148 A 
ATOM     43  C   UNL A   1      47.821  27.557  23.781  1.00  0.00     0.002 A 
ATOM     44  C   UNL A   1      48.970  27.030  25.854  1.00  0.00     0.091 A 
ATOM     45  F   UNL A   1      47.913  27.540  27.932  1.00  0.00    -0.205 F 
ATOM     46  C   UNL A   1      48.915  27.013  24.451  1.00  0.00     0.022 A 
BRANCH  44  47
ATOM     47  S   UNL A   1      50.433  26.328  26.621  1.00  0.00     0.127 S 
ATOM     48  O   UNL A   1      50.688  27.285  27.697  1.00  0.00    -0.237 OA
ATOM     49  O   UNL A   1      49.943  25.023  27.067  1.00  0.00    -0.237 OA
ATOM     50  O   UNL A   1      51.450  26.277  25.582  1.00  0.00    -0.744 OA
ENDBRANCH  44  47
ENDBRANCH  26  40
BRANCH  27  51
ATOM     51  C   UNL A   1      38.689  30.896  31.126  1.00  0.00     0.023 A 
ATOM     52  C   UNL A   1      38.522  30.683  32.511  1.00  0.00     0.012 A 
ATOM     53  C   UNL A   1      37.639  31.502  30.407  1.00  0.00     0.148 A 
ATOM     54  C   UNL A   1      37.328  31.025  33.153  1.00  0.00     0.002 A 
ATOM     55  C   UNL A   1      36.473  31.893  31.064  1.00  0.00     0.091 A 
ATOM     56  F   UNL A   1      37.775  31.656  29.083  1.00  0.00    -0.205 F 
ATOM     57  C   UNL A   1      36.309  31.641  32.432  1.00  0.00     0.022 A 
BRANCH  55  58
ATOM     58  S   UNL A   1      35.162  32.767  30.197  1.00  0.00     0.127 S 
ATOM     59  O   UNL A   1      35.864  33.961  29.722  1.00  0.00    -0.237 OA
ATOM     60  O   UNL A   1      34.801  31.821  29.135  1.00  0.00    -0.237 OA
ATOM     61  O   UNL A   1      34.128  32.984  31.187  1.00  0.00    -0.744 OA
ENDBRANCH  55  58
ENDBRANCH  27  51
BRANCH  39  62
ATOM     62  C   UNL A   1      44.696  34.039  29.476  1.00  0.00     0.023 A 
ATOM     63  C   UNL A   1      45.371  34.228  30.699  1.00  0.00     0.012 A 
ATOM     64  C   UNL A   1      44.650  35.088  28.539  1.00  0.00     0.148 A 
ATOM     65  C   UNL A   1      45.970  35.451  30.994  1.00  0.00     0.002 A 
ATOM     66  C   UNL A   1      45.293  36.286  28.818  1.00  0.00     0.091 A 
ATOM     67  F   UNL A   1      43.985  34.890  27.391  1.00  0.00    -0.205 F 
ATOM     68  C   UNL A   1      45.944  36.474  30.048  1.00  0.00     0.022 A 
BRANCH  66  69
ATOM     69  S   UNL A   1      45.400  37.616  27.616  1.00  0.00     0.127 S 
ATOM     70  O   UNL A   1      46.238  38.586  28.320  1.00  0.00    -0.237 OA
ATOM     71  O   UNL A   1      46.049  36.959  26.481  1.00  0.00    -0.237 OA
ATOM     72  O   UNL A   1      44.030  38.040  27.365  1.00  0.00    -0.744 OA
ENDBRANCH  66  69
ENDBRANCH  39  62
ENDBRANCH  13  14
ENDBRANCH   6   8
ENDBRANCH   5   6
ENDBRANCH   4   5
ENDBRANCH   3   4
ENDBRANCH   2   3
ENDBRANCH   1   2
BRANCH   1  73
ATOM     73  C   UNL A   1      32.976  18.269  24.447  1.00  0.00     0.188 C 
BRANCH  73  74
ATOM     74  O   UNL A   1      32.232  19.024  25.411  1.00  0.00    -0.376 OA
BRANCH  74  75
ATOM     75  C   UNL A   1      32.479  20.427  25.473  1.00  0.00     0.202 C 
BRANCH  75  76
ATOM     76  C   UNL A   1      33.118  20.932  26.765  1.00  0.00     0.261 C 
BRANCH  76  77
ATOM     77  O   UNL A   1      32.722  22.277  27.041  1.00  0.00    -0.462 OA
BRANCH  77  78
ATOM     78  C   UNL A   1      33.633  23.258  26.792  1.00  0.00     0.329 C 
ATOM     79  O   UNL A   1      34.773  23.280  27.245  1.00  0.00    -0.250 OA
BRANCH  78  80
ATOM     80  C   UNL A   1      33.098  24.272  25.768  1.00  0.00     0.197 C 
BRANCH  80  81
ATOM     81  C   UNL A   1      33.867  25.598  25.740  1.00  0.00     0.072 C 
BRANCH  81  82
ATOM     82  C   UNL A   1      33.165  26.940  25.785  1.00  0.00    -0.045 A 
ATOM     83  C   UNL A   1      33.579  27.886  24.835  1.00  0.00     0.004 A 
ATOM     84  C   UNL A   1      32.184  27.325  26.699  1.00  0.00     0.004 A 
ATOM     85  C   UNL A   1      33.068  29.180  24.799  1.00  0.00     0.000 A 
ATOM     86  C   UNL A   1      31.650  28.621  26.659  1.00  0.00     0.000 A 
ATOM     87  C   UNL A   1      32.094  29.548  25.716  1.00  0.00     0.000 A 
ENDBRANCH  81  82
ENDBRANCH  80  81
BRANCH  80  88
ATOM     88  N   UNL A   1      32.997  23.680  24.430  1.00  0.00    -0.338 N 
ATOM     89  C   UNL A   1      32.136  23.947  23.404  1.00  0.00     0.258 C 
ATOM     90  H   UNL A   1      33.658  22.975  24.241  1.00  0.00     0.164 HD
ATOM     91  O   UNL A   1      31.887  23.054  22.597  1.00  0.00    -0.269 OA
BRANCH  89  92
ATOM     92  C   UNL A   1      31.425  25.235  23.266  1.00  0.00     0.117 A 
ATOM     93  C   UNL A   1      30.323  25.424  24.116  1.00  0.00     0.021 A 
ATOM     94  C   UNL A   1      31.684  26.215  22.305  1.00  0.00     0.282 A 
ATOM     95  C   UNL A   1      29.530  26.574  24.028  1.00  0.00     0.001 A 
ATOM     96  C   UNL A   1      30.897  27.379  22.213  1.00  0.00     0.086 A 
ATOM     97  C   UNL A   1      29.820  27.553  23.078  1.00  0.00     0.007 A 
BRANCH  94  98
ATOM     98  N   UNL A   1      32.775  26.089  21.367  1.00  0.00     0.063 N 
ATOM     99  O   UNL A   1      33.886  26.481  21.763  1.00  0.00    -0.258 OA
ATOM    100  O   UNL A   1      32.546  25.600  20.263  1.00  0.00    -0.258 OA
ENDBRANCH  94  98
ENDBRANCH  89  92
ENDBRANCH  80  88
ENDBRANCH  78  80
ENDBRANCH  77  78
ENDBRANCH  76  77
ENDBRANCH  75  76
ENDBRANCH  74  75
ENDBRANCH  73  74
ENDBRANCH   1  73
TORSDOF 25
ENDMDL
MODEL 2
REMARK VINA RESULT:     -10.0      2.210      2.601
REMARK SMILES O=C(OCCOCCOCCOC(=O)[C@@H](Cc1ccccc1)NC(=O)c1ccccc1[N+](=O)[O-])c1ccc(-c2c3nc(c(-c4cccc(S(=O)(=O)[O-])c4F)c4ccc([nH]4)c(-c4cccc(S(=O)(=O)[O-])c4F)c4nc(c(-c5cccc(S(=O)(=O)[O-])c5F)c5ccc2[nH]5)C=C4)C=C3)cc1
REMARK SMILES IDX 7 1 6 2 5 3 4 4 3 5 2 6 1 7 35 8 36 9 97 10 37 11 96 12
REMARK SMILES IDX 38 13 39 14 40 15 90 16 41 17 95 18 89 19 91 20 42 21 94 22
REMARK SMILES IDX 88 23 87 24 43 26 75 27 55 28 74 29 56 30 59 31 73 32 92 33
REMARK SMILES IDX 57 34 58 35 72 37 93 38 60 39 44 40 45 41 53 42 46 43 48 44
REMARK SMILES IDX 54 45 47 46 49 47 50 48 51 49 52 50 76 51 77 52 85 53 78 54
REMARK SMILES IDX 80 55 86 56 79 57 81 58 82 59 83 60 84 61 61 62 62 63 70 64
REMARK SMILES IDX 63 65 65 66 71 67 64 68 66 69 67 70 68 71 69 72 8 73 9 74
REMARK SMILES IDX 10 75 11 76 12 77 13 78 14 79 15 80 16 81 17 82 18 83 22 84
REMARK SMILES IDX 19 85 21 86 20 87 23 88 24 89 25 91 26 92 27 93 31 94 28 95
REMARK SMILES IDX 30 96 29 97 32 98 33 99 34 100
REMARK H PARENT 91 25 59 36 23 90
REMARK Flexibility Score: inf
ROOT
ATOM      1  C   UNL A   1      33.445  18.455  24.952  1.00  0.00     0.188 C 
ENDROOT
BRANCH   1   2
ATOM      2  O   UNL A   1      34.816  18.372  24.555  1.00  0.00    -0.376 OA
BRANCH   2   3
ATOM      3  C   UNL A   1      35.628  19.475  24.936  1.00  0.00     0.202 C 
BRANCH   3   4
ATOM      4  C   UNL A   1      37.149  19.283  24.922  1.00  0.00     0.261 C 
BRANCH   4   5
ATOM      5  O   UNL A   1      37.964  20.402  25.309  1.00  0.00    -0.460 OA
BRANCH   5   6
ATOM      6  C   UNL A   1      37.868  21.728  25.067  1.00  0.00     0.338 C 
ATOM      7  O   UNL A   1      37.162  22.089  24.125  1.00  0.00    -0.246 OA
BRANCH   6   8
ATOM      8  C   UNL A   1      38.587  22.779  25.847  1.00  0.00     0.060 A 
ATOM      9  C   UNL A   1      38.209  24.115  25.915  1.00  0.00     0.016 A 
ATOM     10  C   UNL A   1      39.775  22.394  26.507  1.00  0.00     0.016 A 
ATOM     11  C   UNL A   1      38.958  25.026  26.655  1.00  0.00     0.010 A 
ATOM     12  C   UNL A   1      40.548  23.314  27.230  1.00  0.00     0.010 A 
ATOM     13  C   UNL A   1      40.134  24.640  27.317  1.00  0.00    -0.014 A 
BRANCH  13  14
ATOM     14  C   UNL A   1      40.916  25.716  27.973  1.00  0.00     0.031 A 
ATOM     15  C   UNL A   1      42.305  25.955  27.476  1.00  0.00     0.074 A 
ATOM     16  C   UNL A   1      40.341  26.574  28.836  1.00  0.00     0.049 A 
ATOM     17  N   UNL A   1      43.066  27.003  27.619  1.00  0.00    -0.248 NA
ATOM     18  C   UNL A   1      42.900  24.871  26.674  1.00  0.00     0.031 C 
ATOM     19  C   UNL A   1      39.002  26.425  29.388  1.00  0.00     0.029 A 
ATOM     20  N   UNL A   1      40.774  27.774  29.345  1.00  0.00    -0.354 N 
ATOM     21  C   UNL A   1      44.236  26.702  26.941  1.00  0.00     0.074 A 
ATOM     22  C   UNL A   1      44.064  25.400  26.334  1.00  0.00     0.031 C 
ATOM     23  C   UNL A   1      38.666  27.543  30.054  1.00  0.00     0.029 A 
ATOM     24  C   UNL A   1      39.798  28.460  30.040  1.00  0.00     0.049 A 
ATOM     25  H   UNL A   1      41.691  28.111  29.224  1.00  0.00     0.167 HD
ATOM     26  C   UNL A   1      45.375  27.426  26.872  1.00  0.00     0.034 A 
ATOM     27  C   UNL A   1      39.824  29.691  30.593  1.00  0.00     0.034 A 
ATOM     28  C   UNL A   1      45.578  28.653  27.585  1.00  0.00     0.049 A 
ATOM     29  C   UNL A   1      41.114  30.468  30.510  1.00  0.00     0.074 A 
ATOM     30  C   UNL A   1      46.742  29.386  27.724  1.00  0.00     0.029 A 
ATOM     31  N   UNL A   1      44.598  29.306  28.317  1.00  0.00    -0.354 N 
ATOM     32  N   UNL A   1      42.202  30.199  29.827  1.00  0.00    -0.248 NA
ATOM     33  C   UNL A   1      41.192  31.711  31.292  1.00  0.00     0.031 C 
ATOM     34  C   UNL A   1      46.470  30.468  28.568  1.00  0.00     0.029 A 
ATOM     35  C   UNL A   1      45.129  30.432  28.918  1.00  0.00     0.049 A 
ATOM     36  H   UNL A   1      43.662  29.012  28.397  1.00  0.00     0.167 HD
ATOM     37  C   UNL A   1      43.097  31.223  30.113  1.00  0.00     0.074 A 
ATOM     38  C   UNL A   1      42.399  32.157  30.974  1.00  0.00     0.031 C 
ATOM     39  C   UNL A   1      44.393  31.360  29.739  1.00  0.00     0.034 A 
BRANCH  26  40
ATOM     40  C   UNL A   1      46.498  26.823  26.082  1.00  0.00     0.023 A 
ATOM     41  C   UNL A   1      47.237  25.751  26.619  1.00  0.00     0.012 A 
ATOM     42  C   UNL A   1      46.863  27.372  24.839  1.00  0.00     0.148 A 
ATOM     43  C   UNL A   1      48.351  25.254  25.942  1.00  0.00     0.002 A 
ATOM     44  C   UNL A   1      47.953  26.851  24.156  1.00  0.00     0.091 A 
ATOM     45  F   UNL A   1      46.164  28.416  24.372  1.00  0.00    -0.205 F 
ATOM     46  C   UNL A   1      48.705  25.802  24.710  1.00  0.00     0.022 A 
BRANCH  44  47
ATOM     47  S   UNL A   1      48.474  27.470  22.554  1.00  0.00     0.127 S 
ATOM     48  O   UNL A   1      49.691  28.200  22.903  1.00  0.00    -0.237 OA
ATOM     49  O   UNL A   1      48.697  26.230  21.809  1.00  0.00    -0.237 OA
ATOM     50  O   UNL A   1      47.377  28.290  22.061  1.00  0.00    -0.744 OA
ENDBRANCH  44  47
ENDBRANCH  26  40
BRANCH  27  51
ATOM     51  C   UNL A   1      38.624  30.282  31.268  1.00  0.00     0.023 A 
ATOM     52  C   UNL A   1      38.416  30.046  32.643  1.00  0.00     0.012 A 
ATOM     53  C   UNL A   1      37.660  31.028  30.559  1.00  0.00     0.148 A 
ATOM     54  C   UNL A   1      37.262  30.503  33.285  1.00  0.00     0.002 A 
ATOM     55  C   UNL A   1      36.539  31.529  31.218  1.00  0.00     0.091 A 
ATOM     56  F   UNL A   1      37.830  31.207  29.242  1.00  0.00    -0.205 F 
ATOM     57  C   UNL A   1      36.330  31.255  32.576  1.00  0.00     0.022 A 
BRANCH  55  58
ATOM     58  S   UNL A   1      35.348  32.575  30.369  1.00  0.00     0.127 S 
ATOM     59  O   UNL A   1      34.895  31.694  29.290  1.00  0.00    -0.237 OA
ATOM     60  O   UNL A   1      34.342  32.817  31.409  1.00  0.00    -0.237 OA
ATOM     61  O   UNL A   1      36.091  33.751  29.966  1.00  0.00    -0.744 OA
ENDBRANCH  55  58
ENDBRANCH  27  51
BRANCH  39  62
ATOM     62  C   UNL A   1      45.146  32.551  30.266  1.00  0.00     0.023 A 
ATOM     63  C   UNL A   1      45.155  33.752  29.527  1.00  0.00     0.012 A 
ATOM     64  C   UNL A   1      45.750  32.513  31.537  1.00  0.00     0.148 A 
ATOM     65  C   UNL A   1      45.777  34.890  30.036  1.00  0.00     0.002 A 
ATOM     66  C   UNL A   1      46.324  33.664  32.058  1.00  0.00     0.091 A 
ATOM     67  F   UNL A   1      45.746  31.354  32.212  1.00  0.00    -0.205 F 
ATOM     68  C   UNL A   1      46.348  34.850  31.307  1.00  0.00     0.022 A 
BRANCH  66  69
ATOM     69  S   UNL A   1      46.986  33.731  33.726  1.00  0.00     0.127 S 
ATOM     70  O   UNL A   1      47.737  32.479  33.799  1.00  0.00    -0.237 OA
ATOM     71  O   UNL A   1      47.812  34.938  33.685  1.00  0.00    -0.237 OA
ATOM     72  O   UNL A   1      45.833  33.820  34.611  1.00  0.00    -0.744 OA
ENDBRANCH  66  69
ENDBRANCH  39  62
ENDBRANCH  13  14
ENDBRANCH   6   8
ENDBRANCH   5   6
ENDBRANCH   4   5
ENDBRANCH   3   4
ENDBRANCH   2   3
ENDBRANCH   1   2
BRANCH   1  73
ATOM     73  C   UNL A   1      32.664  19.425  24.059  1.00  0.00     0.188 C 
BRANCH  73  74
ATOM     74  O   UNL A   1      32.441  20.727  24.616  1.00  0.00    -0.376 OA
BRANCH  74  75
ATOM     75  C   UNL A   1      32.467  20.840  26.038  1.00  0.00     0.202 C 
BRANCH  75  76
ATOM     76  C   UNL A   1      33.399  21.911  26.601  1.00  0.00     0.261 C 
BRANCH  76  77
ATOM     77  O   UNL A   1      32.705  22.769  27.509  1.00  0.00    -0.462 OA
BRANCH  77  78
ATOM     78  C   UNL A   1      31.520  23.290  27.090  1.00  0.00     0.329 C 
ATOM     79  O   UNL A   1      30.428  23.016  27.578  1.00  0.00    -0.250 OA
BRANCH  78  80
ATOM     80  C   UNL A   1      31.731  24.365  26.011  1.00  0.00     0.197 C 
BRANCH  80  81
ATOM     81  C   UNL A   1      32.966  25.246  26.239  1.00  0.00     0.072 C 
BRANCH  81  82
ATOM     82  C   UNL A   1      32.916  26.755  26.108  1.00  0.00    -0.045 A 
ATOM     83  C   UNL A   1      31.924  27.407  26.856  1.00  0.00     0.004 A 
ATOM     84  C   UNL A   1      33.732  27.537  25.291  1.00  0.00     0.004 A 
ATOM     85  C   UNL A   1      31.720  28.782  26.784  1.00  0.00     0.000 A 
ATOM     86  C   UNL A   1      33.545  28.926  25.226  1.00  0.00     0.000 A 
ATOM     87  C   UNL A   1      32.539  29.546  25.966  1.00  0.00     0.000 A 
ENDBRANCH  81  82
ENDBRANCH  80  81
BRANCH  80  88
ATOM     88  N   UNL A   1      31.729  23.781  24.666  1.00  0.00    -0.338 N 
ATOM     89  C   UNL A   1      31.273  24.285  23.481  1.00  0.00     0.258 C 
ATOM     90  H   UNL A   1      32.120  22.879  24.608  1.00  0.00     0.164 HD
ATOM     91  O   UNL A   1      30.909  23.499  22.609  1.00  0.00    -0.269 OA
BRANCH  89  92
ATOM     92  C   UNL A   1      31.117  25.732  23.230  1.00  0.00     0.117 A 
ATOM     93  C   UNL A   1      30.002  26.345  23.824  1.00  0.00     0.021 A 
ATOM     94  C   UNL A   1      31.910  26.505  22.377  1.00  0.00     0.282 A 
ATOM     95  C   UNL A   1      29.713  27.696  23.599  1.00  0.00     0.001 A 
ATOM     96  C   UNL A   1      31.632  27.866  22.150  1.00  0.00     0.086 A 
ATOM     97  C   UNL A   1      30.530  28.457  22.764  1.00  0.00     0.007 A 
BRANCH  94  98
ATOM     98  N   UNL A   1      33.057  25.951  21.695  1.00  0.00     0.063 N 
ATOM     99  O   UNL A   1      34.090  25.827  22.375  1.00  0.00    -0.258 OA
ATOM    100  O   UNL A   1      32.938  25.630  20.515  1.00  0.00    -0.258 OA
ENDBRANCH  94  98
ENDBRANCH  89  92
ENDBRANCH  80  88
ENDBRANCH  78  80
ENDBRANCH  77  78
ENDBRANCH  76  77
ENDBRANCH  75  76
ENDBRANCH  74  75
ENDBRANCH  73  74
ENDBRANCH   1  73
TORSDOF 25
ENDMDL
MODEL 3
REMARK VINA RESULT:      -9.9      2.357      7.770
REMARK SMILES O=C(OCCOCCOCCOC(=O)[C@@H](Cc1ccccc1)NC(=O)c1ccccc1[N+](=O)[O-])c1ccc(-c2c3nc(c(-c4cccc(S(=O)(=O)[O-])c4F)c4ccc([nH]4)c(-c4cccc(S(=O)(=O)[O-])c4F)c4nc(c(-c5cccc(S(=O)(=O)[O-])c5F)c5ccc2[nH]5)C=C4)C=C3)cc1
REMARK SMILES IDX 7 1 6 2 5 3 4 4 3 5 2 6 1 7 35 8 36 9 97 10 37 11 96 12
REMARK SMILES IDX 38 13 39 14 40 15 90 16 41 17 95 18 89 19 91 20 42 21 94 22
REMARK SMILES IDX 88 23 87 24 43 26 75 27 55 28 74 29 56 30 59 31 73 32 92 33
REMARK SMILES IDX 57 34 58 35 72 37 93 38 60 39 44 40 45 41 53 42 46 43 48 44
REMARK SMILES IDX 54 45 47 46 49 47 50 48 51 49 52 50 76 51 77 52 85 53 78 54
REMARK SMILES IDX 80 55 86 56 79 57 81 58 82 59 83 60 84 61 61 62 62 63 70 64
REMARK SMILES IDX 63 65 65 66 71 67 64 68 66 69 67 70 68 71 69 72 8 73 9 74
REMARK SMILES IDX 10 75 11 76 12 77 13 78 14 79 15 80 16 81 17 82 18 83 22 84
REMARK SMILES IDX 19 85 21 86 20 87 23 88 24 89 25 91 26 92 27 93 31 94 28 95
REMARK SMILES IDX 30 96 29 97 32 98 33 99 34 100
REMARK H PARENT 91 25 59 36 23 90
REMARK Flexibility Score: inf
ROOT
ATOM      1  C   UNL A   1      38.713  22.632  26.396  1.00  0.00     0.188 C 
ENDROOT
BRANCH   1   2
ATOM      2  O   UNL A   1      39.216  21.429  25.810  1.00  0.00    -0.376 OA
BRANCH   2   3
ATOM      3  C   UNL A   1      40.265  20.795  26.530  1.00  0.00     0.202 C 
BRANCH   3   4
ATOM      4  C   UNL A   1      40.670  19.379  26.105  1.00  0.00     0.261 C 
BRANCH   4   5
ATOM      5  O   UNL A   1      41.905  19.228  25.385  1.00  0.00    -0.460 OA
BRANCH   5   6
ATOM      6  C   UNL A   1      43.124  19.792  25.535  1.00  0.00     0.338 C 
ATOM      7  O   UNL A   1      44.104  19.047  25.526  1.00  0.00    -0.246 OA
BRANCH   6   8
ATOM      8  C   UNL A   1      43.356  21.252  25.743  1.00  0.00     0.060 A 
ATOM      9  C   UNL A   1      43.356  22.207  24.732  1.00  0.00     0.016 A 
ATOM     10  C   UNL A   1      43.663  21.678  27.054  1.00  0.00     0.016 A 
ATOM     11  C   UNL A   1      43.604  23.546  25.024  1.00  0.00     0.010 A 
ATOM     12  C   UNL A   1      43.940  23.021  27.348  1.00  0.00     0.010 A 
ATOM     13  C   UNL A   1      43.900  23.968  26.329  1.00  0.00    -0.014 A 
BRANCH  13  14
ATOM     14  C   UNL A   1      44.264  25.396  26.503  1.00  0.00     0.031 A 
ATOM     15  C   UNL A   1      43.259  26.283  27.165  1.00  0.00     0.074 A 
ATOM     16  C   UNL A   1      45.513  25.835  26.265  1.00  0.00     0.049 A 
ATOM     17  N   UNL A   1      43.428  27.444  27.733  1.00  0.00    -0.248 NA
ATOM     18  C   UNL A   1      41.879  25.768  27.222  1.00  0.00     0.031 C 
ATOM     19  C   UNL A   1      46.559  25.056  25.618  1.00  0.00     0.029 A 
ATOM     20  N   UNL A   1      46.140  27.010  26.601  1.00  0.00    -0.354 N 
ATOM     21  C   UNL A   1      42.176  27.807  28.203  1.00  0.00     0.074 A 
ATOM     22  C   UNL A   1      41.269  26.719  27.908  1.00  0.00     0.031 C 
ATOM     23  C   UNL A   1      47.727  25.711  25.712  1.00  0.00     0.029 A 
ATOM     24  C   UNL A   1      47.500  26.995  26.361  1.00  0.00     0.049 A 
ATOM     25  H   UNL A   1      45.665  27.786  26.976  1.00  0.00     0.167 HD
ATOM     26  C   UNL A   1      41.803  28.969  28.783  1.00  0.00     0.034 A 
ATOM     27  C   UNL A   1      48.444  27.916  26.645  1.00  0.00     0.034 A 
ATOM     28  C   UNL A   1      42.683  30.088  28.952  1.00  0.00     0.049 A 
ATOM     29  C   UNL A   1      47.995  29.207  27.281  1.00  0.00     0.074 A 
ATOM     30  C   UNL A   1      42.377  31.369  29.373  1.00  0.00     0.029 A 
ATOM     31  N   UNL A   1      44.040  30.070  28.662  1.00  0.00    -0.354 N 
ATOM     32  N   UNL A   1      46.818  29.527  27.766  1.00  0.00    -0.248 NA
ATOM     33  C   UNL A   1      48.997  30.277  27.392  1.00  0.00     0.031 C 
ATOM     34  C   UNL A   1      43.547  32.134  29.308  1.00  0.00     0.029 A 
ATOM     35  C   UNL A   1      44.588  31.319  28.889  1.00  0.00     0.049 A 
ATOM     36  H   UNL A   1      44.539  29.285  28.343  1.00  0.00     0.167 HD
ATOM     37  C   UNL A   1      46.933  30.836  28.218  1.00  0.00     0.074 A 
ATOM     38  C   UNL A   1      48.313  31.227  28.015  1.00  0.00     0.031 C 
ATOM     39  C   UNL A   1      45.976  31.661  28.711  1.00  0.00     0.034 A 
BRANCH  26  40
ATOM     40  C   UNL A   1      40.357  29.088  29.161  1.00  0.00     0.023 A 
ATOM     41  C   UNL A   1      39.406  29.455  28.189  1.00  0.00     0.012 A 
ATOM     42  C   UNL A   1      39.958  28.908  30.498  1.00  0.00     0.148 A 
ATOM     43  C   UNL A   1      38.077  29.676  28.551  1.00  0.00     0.002 A 
ATOM     44  C   UNL A   1      38.627  29.097  30.845  1.00  0.00     0.091 A 
ATOM     45  F   UNL A   1      40.892  28.597  31.407  1.00  0.00    -0.205 F 
ATOM     46  C   UNL A   1      37.689  29.493  29.878  1.00  0.00     0.022 A 
BRANCH  44  47
ATOM     47  S   UNL A   1      38.023  28.863  32.518  1.00  0.00     0.127 S 
ATOM     48  O   UNL A   1      38.881  29.778  33.271  1.00  0.00    -0.237 OA
ATOM     49  O   UNL A   1      36.629  29.292  32.399  1.00  0.00    -0.237 OA
ATOM     50  O   UNL A   1      38.205  27.451  32.820  1.00  0.00    -0.744 OA
ENDBRANCH  44  47
ENDBRANCH  26  40
BRANCH  27  51
ATOM     51  C   UNL A   1      49.894  27.682  26.346  1.00  0.00     0.023 A 
ATOM     52  C   UNL A   1      50.770  27.329  27.395  1.00  0.00     0.012 A 
ATOM     53  C   UNL A   1      50.427  27.855  25.053  1.00  0.00     0.148 A 
ATOM     54  C   UNL A   1      52.142  27.194  27.171  1.00  0.00     0.002 A 
ATOM     55  C   UNL A   1      51.789  27.663  24.825  1.00  0.00     0.091 A 
ATOM     56  F   UNL A   1      49.606  28.242  24.068  1.00  0.00    -0.205 F 
ATOM     57  C   UNL A   1      52.650  27.349  25.884  1.00  0.00     0.022 A 
BRANCH  55  58
ATOM     58  S   UNL A   1      52.482  27.769  23.169  1.00  0.00     0.127 S 
ATOM     59  O   UNL A   1      52.195  29.162  22.816  1.00  0.00    -0.237 OA
ATOM     60  O   UNL A   1      53.903  27.490  23.402  1.00  0.00    -0.237 OA
ATOM     61  O   UNL A   1      51.788  26.758  22.399  1.00  0.00    -0.744 OA
ENDBRANCH  55  58
ENDBRANCH  27  51
BRANCH  39  62
ATOM     62  C   UNL A   1      46.382  33.068  29.055  1.00  0.00     0.023 A 
ATOM     63  C   UNL A   1      46.924  33.345  30.327  1.00  0.00     0.012 A 
ATOM     64  C   UNL A   1      46.326  34.088  28.087  1.00  0.00     0.148 A 
ATOM     65  C   UNL A   1      47.382  34.625  30.636  1.00  0.00     0.002 A 
ATOM     66  C   UNL A   1      46.830  35.346  28.385  1.00  0.00     0.091 A 
ATOM     67  F   UNL A   1      45.788  33.804  26.891  1.00  0.00    -0.205 F 
ATOM     68  C   UNL A   1      47.348  35.621  29.662  1.00  0.00     0.022 A 
BRANCH  66  69
ATOM     69  S   UNL A   1      46.924  36.654  27.158  1.00  0.00     0.127 S 
ATOM     70  O   UNL A   1      47.587  37.719  27.909  1.00  0.00    -0.237 OA
ATOM     71  O   UNL A   1      47.745  36.042  26.113  1.00  0.00    -0.237 OA
ATOM     72  O   UNL A   1      45.551  36.931  26.762  1.00  0.00    -0.744 OA
ENDBRANCH  66  69
ENDBRANCH  39  62
ENDBRANCH  13  14
ENDBRANCH   6   8
ENDBRANCH   5   6
ENDBRANCH   4   5
ENDBRANCH   3   4
ENDBRANCH   2   3
ENDBRANCH   1   2
BRANCH   1  73
ATOM     73  C   UNL A   1      37.622  23.263  25.523  1.00  0.00     0.188 C 
BRANCH  73  74
ATOM     74  O   UNL A   1      36.296  23.203  26.061  1.00  0.00    -0.376 OA
BRANCH  74  75
ATOM     75  C   UNL A   1      35.640  21.936  26.039  1.00  0.00     0.202 C 
BRANCH  75  76
ATOM     76  C   UNL A   1      34.373  21.831  26.886  1.00  0.00     0.261 C 
BRANCH  76  77
ATOM     77  O   UNL A   1      33.856  23.126  27.199  1.00  0.00    -0.462 OA
BRANCH  77  78
ATOM     78  C   UNL A   1      32.519  23.319  27.034  1.00  0.00     0.329 C 
ATOM     79  O   UNL A   1      31.648  22.716  27.653  1.00  0.00    -0.250 OA
BRANCH  78  80
ATOM     80  C   UNL A   1      32.236  24.478  26.064  1.00  0.00     0.197 C 
BRANCH  80  81
ATOM     81  C   UNL A   1      33.303  25.579  26.077  1.00  0.00     0.072 C 
BRANCH  81  82
ATOM     82  C   UNL A   1      32.960  27.031  26.341  1.00  0.00    -0.045 A 
ATOM     83  C   UNL A   1      33.902  27.977  25.906  1.00  0.00     0.004 A 
ATOM     84  C   UNL A   1      31.826  27.503  27.003  1.00  0.00     0.004 A 
ATOM     85  C   UNL A   1      33.750  29.341  26.138  1.00  0.00     0.000 A 
ATOM     86  C   UNL A   1      31.657  28.877  27.224  1.00  0.00     0.000 A 
ATOM     87  C   UNL A   1      32.618  29.793  26.799  1.00  0.00     0.000 A 
ENDBRANCH  81  82
ENDBRANCH  80  81
BRANCH  80  88
ATOM     88  N   UNL A   1      31.984  23.989  24.705  1.00  0.00    -0.338 N 
ATOM     89  C   UNL A   1      31.338  24.578  23.655  1.00  0.00     0.258 C 
ATOM     90  H   UNL A   1      32.340  23.090  24.517  1.00  0.00     0.164 HD
ATOM     91  O   UNL A   1      30.810  23.859  22.810  1.00  0.00    -0.269 OA
BRANCH  89  92
ATOM     92  C   UNL A   1      31.172  26.042  23.533  1.00  0.00     0.117 A 
ATOM     93  C   UNL A   1      29.957  26.565  24.005  1.00  0.00     0.021 A 
ATOM     94  C   UNL A   1      32.057  26.917  22.899  1.00  0.00     0.282 A 
ATOM     95  C   UNL A   1      29.658  27.927  23.878  1.00  0.00     0.001 A 
ATOM     96  C   UNL A   1      31.769  28.289  22.773  1.00  0.00     0.086 A 
ATOM     97  C   UNL A   1      30.566  28.788  23.265  1.00  0.00     0.007 A 
BRANCH  94  98
ATOM     98  N   UNL A   1      33.315  26.461  22.353  1.00  0.00     0.063 N 
ATOM     99  O   UNL A   1      33.907  27.258  21.605  1.00  0.00    -0.258 OA
ATOM    100  O   UNL A   1      33.719  25.343  22.665  1.00  0.00    -0.258 OA
ENDBRANCH  94  98
ENDBRANCH  89  92
ENDBRANCH  80  88
ENDBRANCH  78  80
ENDBRANCH  77  78
ENDBRANCH  76  77
ENDBRANCH  75  76
ENDBRANCH  74  75
ENDBRANCH  73  74
ENDBRANCH   1  73
TORSDOF 25
ENDMDL
