MODEL 1
REMARK VINA RESULT:     -11.3      0.000      0.000
REMARK SMILES CC(C)Cc1cc2c(cc1Cl)C=C(C(=O)OCCOCCOCCOC(=O)c1ccc(-c3c4nc(c(-c5cccc(S(=O)(=O)[O-])c5F)c5ccc([nH]5)c(-c5cccc(S(=O)(=O)[O-])c5F)c5nc(c(-c6cccc(S(=O)(=O)[O-])c6F)c6ccc3[nH]6)C=C5)C=C4)cc1)[C@H](C(F)(F)F)O2
REMARK SMILES IDX 21 1 20 2 19 3 18 4 17 5 16 6 14 7 15 8 13 9 5 10 6 11 10 12
REMARK SMILES IDX 7 13 9 14 11 15 8 16 96 17 12 18 91 19 4 20 2 21 1 22 3 23
REMARK SMILES IDX 92 24 93 25 94 26 95 27 22 28 23 29 24 30 25 31 26 32 27 33
REMARK SMILES IDX 28 34 29 35 90 36 30 37 89 38 31 39 32 40 33 41 83 42 34 43
REMARK SMILES IDX 88 44 82 45 84 46 35 47 87 48 81 49 80 50 36 52 68 53 48 54
REMARK SMILES IDX 67 55 49 56 52 57 66 58 85 59 50 60 51 61 65 63 86 64 53 65
REMARK SMILES IDX 37 66 38 67 46 68 39 69 41 70 47 71 40 72 42 73 43 74 44 75
REMARK SMILES IDX 45 76 69 77 70 78 78 79 71 80 73 81 79 82 72 83 74 84 75 85
REMARK SMILES IDX 76 86 77 87 54 88 55 89 63 90 56 91 58 92 64 93 57 94 59 95
REMARK SMILES IDX 60 96 61 97 62 98
REMARK H PARENT 84 51 52 62
REMARK Flexibility Score: inf
ROOT
ATOM      1  C   UNL A   1      38.675  21.298  25.883  1.00  0.00     0.188 C 
ENDROOT
BRANCH   1   2
ATOM      2  C   UNL A   1      37.414  22.089  25.480  1.00  0.00     0.188 C 
BRANCH   2   3
ATOM      3  O   UNL A   1      36.401  21.289  24.914  1.00  0.00    -0.376 OA
BRANCH   3   4
ATOM      4  C   UNL A   1      35.316  21.891  24.234  1.00  0.00     0.202 C 
BRANCH   4   5
ATOM      5  C   UNL A   1      33.906  22.064  24.834  1.00  0.00     0.261 C 
BRANCH   5   6
ATOM      6  O   UNL A   1      33.034  22.972  24.156  1.00  0.00    -0.460 OA
BRANCH   6   7
ATOM      7  C   UNL A   1      31.931  23.370  24.822  1.00  0.00     0.338 C 
ATOM      8  O   UNL A   1      31.328  22.741  25.674  1.00  0.00    -0.246 OA
BRANCH   7   9
ATOM      9  C   UNL A   1      31.594  24.756  24.455  1.00  0.00     0.087 C 
ATOM     10  C   UNL A   1      28.975  28.716  22.720  1.00  0.00    -0.025 A 
ATOM     11  C   UNL A   1      30.328  28.297  22.670  1.00  0.00     0.052 A 
ATOM     12  C   UNL A   1      28.082  27.897  23.432  1.00  0.00     0.045 A 
ATOM     13  C   UNL A   1      30.770  27.125  23.292  1.00  0.00     0.128 A 
ATOM     14  C   UNL A   1      28.540  26.748  24.098  1.00  0.00     0.032 A 
ATOM     15  Cl  UNL A   1      26.376  28.135  23.503  1.00  0.00    -0.084 Cl
ATOM     16  C   UNL A   1      29.875  26.352  24.019  1.00  0.00     0.019 A 
ATOM     17  O   UNL A   1      32.070  26.769  23.066  1.00  0.00    -0.475 OA
ATOM     18  C   UNL A   1      30.301  25.082  24.577  1.00  0.00     0.027 C 
ATOM     19  C   UNL A   1      32.624  25.636  23.799  1.00  0.00     0.316 C 
BRANCH  10  20
ATOM     20  C   UNL A   1      28.651  29.941  21.878  1.00  0.00     0.040 C 
BRANCH  20  21
ATOM     21  C   UNL A   1      28.098  31.251  22.472  1.00  0.00    -0.013 C 
ATOM     22  C   UNL A   1      28.719  31.591  23.827  1.00  0.00     0.008 C 
ATOM     23  C   UNL A   1      28.351  32.411  21.499  1.00  0.00     0.008 C 
ENDBRANCH  20  21
ENDBRANCH  10  20
BRANCH  19  24
ATOM     24  C   UNL A   1      33.733  26.174  24.720  1.00  0.00     0.430 C 
ATOM     25  F   UNL A   1      33.303  26.380  25.981  1.00  0.00    -0.167 F 
ATOM     26  F   UNL A   1      34.805  25.354  24.760  1.00  0.00    -0.167 F 
ATOM     27  F   UNL A   1      34.194  27.367  24.257  1.00  0.00    -0.167 F 
ENDBRANCH  19  24
ENDBRANCH   7   9
ENDBRANCH   6   7
ENDBRANCH   5   6
ENDBRANCH   4   5
ENDBRANCH   3   4
ENDBRANCH   2   3
ENDBRANCH   1   2
BRANCH   1  28
ATOM     28  O   UNL A   1      39.950  21.928  25.847  1.00  0.00    -0.376 OA
BRANCH  28  29
ATOM     29  C   UNL A   1      41.080  21.234  26.363  1.00  0.00     0.202 C 
BRANCH  29  30
ATOM     30  C   UNL A   1      42.456  21.451  25.719  1.00  0.00     0.261 C 
BRANCH  30  31
ATOM     31  O   UNL A   1      42.655  22.765  25.179  1.00  0.00    -0.460 OA
BRANCH  31  32
ATOM     32  C   UNL A   1      43.640  23.493  25.765  1.00  0.00     0.338 C 
ATOM     33  O   UNL A   1      44.834  23.455  25.516  1.00  0.00    -0.246 OA
BRANCH  32  34
ATOM     34  C   UNL A   1      43.019  24.513  26.632  1.00  0.00     0.060 A 
ATOM     35  C   UNL A   1      42.118  24.146  27.631  1.00  0.00     0.016 A 
ATOM     36  C   UNL A   1      43.355  25.860  26.431  1.00  0.00     0.016 A 
ATOM     37  C   UNL A   1      41.569  25.134  28.452  1.00  0.00     0.010 A 
ATOM     38  C   UNL A   1      42.789  26.847  27.237  1.00  0.00     0.010 A 
ATOM     39  C   UNL A   1      41.909  26.487  28.267  1.00  0.00    -0.014 A 
BRANCH  39  40
ATOM     40  C   UNL A   1      41.494  27.488  29.276  1.00  0.00     0.031 A 
ATOM     41  C   UNL A   1      40.236  28.287  29.138  1.00  0.00     0.074 A 
ATOM     42  C   UNL A   1      42.301  27.674  30.337  1.00  0.00     0.049 A 
ATOM     43  N   UNL A   1      39.688  29.098  30.005  1.00  0.00    -0.248 NA
ATOM     44  C   UNL A   1      39.501  28.173  27.869  1.00  0.00     0.031 C 
ATOM     45  C   UNL A   1      43.587  27.002  30.536  1.00  0.00     0.029 A 
ATOM     46  N   UNL A   1      42.166  28.475  31.440  1.00  0.00    -0.354 N 
ATOM     47  C   UNL A   1      38.543  29.592  29.397  1.00  0.00     0.074 A 
ATOM     48  C   UNL A   1      38.484  29.006  28.074  1.00  0.00     0.031 C 
ATOM     49  C   UNL A   1      44.116  27.407  31.700  1.00  0.00     0.029 A 
ATOM     50  C   UNL A   1      43.210  28.366  32.325  1.00  0.00     0.049 A 
ATOM     51  H   UNL A   1      41.396  29.071  31.583  1.00  0.00     0.167 HD
ATOM     52  C   UNL A   1      37.617  30.435  29.912  1.00  0.00     0.034 A 
ATOM     53  C   UNL A   1      43.411  28.955  33.519  1.00  0.00     0.034 A 
ATOM     54  C   UNL A   1      37.680  31.003  31.234  1.00  0.00     0.049 A 
ATOM     55  C   UNL A   1      42.358  29.865  34.076  1.00  0.00     0.074 A 
ATOM     56  C   UNL A   1      36.745  31.803  31.869  1.00  0.00     0.029 A 
ATOM     57  N   UNL A   1      38.738  30.850  32.116  1.00  0.00    -0.354 N 
ATOM     58  N   UNL A   1      41.198  30.189  33.558  1.00  0.00    -0.248 NA
ATOM     59  C   UNL A   1      42.621  30.465  35.392  1.00  0.00     0.031 C 
ATOM     60  C   UNL A   1      37.245  32.146  33.129  1.00  0.00     0.029 A 
ATOM     61  C   UNL A   1      38.486  31.549  33.284  1.00  0.00     0.049 A 
ATOM     62  H   UNL A   1      39.549  30.320  31.939  1.00  0.00     0.167 HD
ATOM     63  C   UNL A   1      40.584  31.016  34.490  1.00  0.00     0.074 A 
ATOM     64  C   UNL A   1      41.493  31.131  35.612  1.00  0.00     0.031 C 
ATOM     65  C   UNL A   1      39.379  31.631  34.411  1.00  0.00     0.034 A 
BRANCH  52  66
ATOM     66  C   UNL A   1      36.403  30.751  29.082  1.00  0.00     0.023 A 
ATOM     67  C   UNL A   1      35.680  29.688  28.505  1.00  0.00     0.012 A 
ATOM     68  C   UNL A   1      35.906  32.065  28.981  1.00  0.00     0.148 A 
ATOM     69  C   UNL A   1      34.483  29.927  27.832  1.00  0.00     0.002 A 
ATOM     70  C   UNL A   1      34.697  32.292  28.331  1.00  0.00     0.091 A 
ATOM     71  F   UNL A   1      36.615  33.059  29.531  1.00  0.00    -0.205 F 
ATOM     72  C   UNL A   1      33.987  31.225  27.755  1.00  0.00     0.022 A 
BRANCH  70  73
ATOM     73  S   UNL A   1      33.939  33.916  28.221  1.00  0.00     0.127 S 
ATOM     74  O   UNL A   1      34.856  34.608  27.315  1.00  0.00    -0.237 OA
ATOM     75  O   UNL A   1      32.631  33.607  27.644  1.00  0.00    -0.237 OA
ATOM     76  O   UNL A   1      33.901  34.438  29.581  1.00  0.00    -0.744 OA
ENDBRANCH  70  73
ENDBRANCH  52  66
BRANCH  53  77
ATOM     77  C   UNL A   1      44.631  28.606  34.293  1.00  0.00     0.023 A 
ATOM     78  C   UNL A   1      45.767  29.429  34.187  1.00  0.00     0.012 A 
ATOM     79  C   UNL A   1      44.630  27.536  35.206  1.00  0.00     0.148 A 
ATOM     80  C   UNL A   1      46.890  29.190  34.979  1.00  0.00     0.002 A 
ATOM     81  C   UNL A   1      45.737  27.324  36.019  1.00  0.00     0.091 A 
ATOM     82  F   UNL A   1      43.530  26.774  35.287  1.00  0.00    -0.205 F 
ATOM     83  C   UNL A   1      46.871  28.146  35.901  1.00  0.00     0.022 A 
BRANCH  81  84
ATOM     84  S   UNL A   1      45.770  26.075  37.309  1.00  0.00     0.127 S 
ATOM     85  O   UNL A   1      47.147  25.594  37.221  1.00  0.00    -0.237 OA
ATOM     86  O   UNL A   1      45.468  26.870  38.499  1.00  0.00    -0.237 OA
ATOM     87  O   UNL A   1      44.746  25.104  36.949  1.00  0.00    -0.744 OA
ENDBRANCH  81  84
ENDBRANCH  53  77
BRANCH  65  88
ATOM     88  C   UNL A   1      38.954  32.499  35.563  1.00  0.00     0.023 A 
ATOM     89  C   UNL A   1      38.107  31.964  36.551  1.00  0.00     0.012 A 
ATOM     90  C   UNL A   1      39.489  33.791  35.728  1.00  0.00     0.148 A 
ATOM     91  C   UNL A   1      37.790  32.708  37.688  1.00  0.00     0.002 A 
ATOM     92  C   UNL A   1      39.196  34.514  36.879  1.00  0.00     0.091 A 
ATOM     93  F   UNL A   1      40.286  34.280  34.766  1.00  0.00    -0.205 F 
ATOM     94  C   UNL A   1      38.344  33.975  37.857  1.00  0.00     0.022 A 
BRANCH  92  95
ATOM     95  S   UNL A   1      39.914  36.124  37.224  1.00  0.00     0.127 S 
ATOM     96  O   UNL A   1      39.020  36.632  38.263  1.00  0.00    -0.237 OA
ATOM     97  O   UNL A   1      41.254  35.768  37.693  1.00  0.00    -0.237 OA
ATOM     98  O   UNL A   1      39.884  36.859  35.967  1.00  0.00    -0.744 OA
ENDBRANCH  92  95
ENDBRANCH  65  88
ENDBRANCH  39  40
ENDBRANCH  32  34
ENDBRANCH  31  32
ENDBRANCH  30  31
ENDBRANCH  29  30
ENDBRANCH  28  29
ENDBRANCH   1  28
TORSDOF 23
ENDMDL
MODEL 2
REMARK VINA RESULT:     -11.3      5.138      7.081
REMARK SMILES CC(C)Cc1cc2c(cc1Cl)C=C(C(=O)OCCOCCOCCOC(=O)c1ccc(-c3c4nc(c(-c5cccc(S(=O)(=O)[O-])c5F)c5ccc([nH]5)c(-c5cccc(S(=O)(=O)[O-])c5F)c5nc(c(-c6cccc(S(=O)(=O)[O-])c6F)c6ccc3[nH]6)C=C5)C=C4)cc1)[C@H](C(F)(F)F)O2
REMARK SMILES IDX 21 1 20 2 19 3 18 4 17 5 16 6 14 7 15 8 13 9 5 10 6 11 10 12
REMARK SMILES IDX 7 13 9 14 11 15 8 16 96 17 12 18 91 19 4 20 2 21 1 22 3 23
REMARK SMILES IDX 92 24 93 25 94 26 95 27 22 28 23 29 24 30 25 31 26 32 27 33
REMARK SMILES IDX 28 34 29 35 90 36 30 37 89 38 31 39 32 40 33 41 83 42 34 43
REMARK SMILES IDX 88 44 82 45 84 46 35 47 87 48 81 49 80 50 36 52 68 53 48 54
REMARK SMILES IDX 67 55 49 56 52 57 66 58 85 59 50 60 51 61 65 63 86 64 53 65
REMARK SMILES IDX 37 66 38 67 46 68 39 69 41 70 47 71 40 72 42 73 43 74 44 75
REMARK SMILES IDX 45 76 69 77 70 78 78 79 71 80 73 81 79 82 72 83 74 84 75 85
REMARK SMILES IDX 76 86 77 87 54 88 55 89 63 90 56 91 58 92 64 93 57 94 59 95
REMARK SMILES IDX 60 96 61 97 62 98
REMARK H PARENT 84 51 52 62
REMARK Flexibility Score: inf
ROOT
ATOM      1  C   UNL A   1      37.501  23.438  25.480  1.00  0.00     0.188 C 
ENDROOT
BRANCH   1   2
ATOM      2  C   UNL A   1      35.973  23.623  25.367  1.00  0.00     0.188 C 
BRANCH   2   3
ATOM      3  O   UNL A   1      35.231  22.619  26.021  1.00  0.00    -0.376 OA
BRANCH   3   4
ATOM      4  C   UNL A   1      34.497  22.928  27.191  1.00  0.00     0.202 C 
BRANCH   4   5
ATOM      5  C   UNL A   1      33.093  22.373  27.504  1.00  0.00     0.261 C 
BRANCH   5   6
ATOM      6  O   UNL A   1      32.014  23.310  27.456  1.00  0.00    -0.460 OA
BRANCH   6   7
ATOM      7  C   UNL A   1      31.067  23.102  26.518  1.00  0.00     0.338 C 
ATOM      8  O   UNL A   1      30.210  22.235  26.527  1.00  0.00    -0.246 OA
BRANCH   7   9
ATOM      9  C   UNL A   1      31.132  24.159  25.494  1.00  0.00     0.087 C 
ATOM     10  C   UNL A   1      30.637  28.675  23.278  1.00  0.00    -0.025 A 
ATOM     11  C   UNL A   1      30.485  27.325  22.871  1.00  0.00     0.052 A 
ATOM     12  C   UNL A   1      31.050  28.896  24.602  1.00  0.00     0.045 A 
ATOM     13  C   UNL A   1      30.730  26.253  23.735  1.00  0.00     0.128 A 
ATOM     14  C   UNL A   1      31.344  27.816  25.451  1.00  0.00     0.032 A 
ATOM     15  Cl  UNL A   1      31.160  30.446  25.349  1.00  0.00    -0.084 Cl
ATOM     16  C   UNL A   1      31.172  26.498  25.028  1.00  0.00     0.019 A 
ATOM     17  O   UNL A   1      30.429  25.008  23.259  1.00  0.00    -0.475 OA
ATOM     18  C   UNL A   1      31.325  25.398  25.962  1.00  0.00     0.027 C 
ATOM     19  C   UNL A   1      30.792  23.845  24.062  1.00  0.00     0.316 C 
BRANCH  10  20
ATOM     20  C   UNL A   1      30.200  29.708  22.249  1.00  0.00     0.040 C 
BRANCH  20  21
ATOM     21  C   UNL A   1      28.831  30.415  22.293  1.00  0.00    -0.013 C 
ATOM     22  C   UNL A   1      28.344  30.840  20.907  1.00  0.00     0.008 C 
ATOM     23  C   UNL A   1      27.787  29.489  22.931  1.00  0.00     0.008 C 
ENDBRANCH  20  21
ENDBRANCH  10  20
BRANCH  19  24
ATOM     24  C   UNL A   1      31.853  23.052  23.278  1.00  0.00     0.430 C 
ATOM     25  F   UNL A   1      32.423  23.780  22.296  1.00  0.00    -0.167 F 
ATOM     26  F   UNL A   1      32.829  22.573  24.080  1.00  0.00    -0.167 F 
ATOM     27  F   UNL A   1      31.289  21.963  22.688  1.00  0.00    -0.167 F 
ENDBRANCH  19  24
ENDBRANCH   7   9
ENDBRANCH   6   7
ENDBRANCH   5   6
ENDBRANCH   4   5
ENDBRANCH   3   4
ENDBRANCH   2   3
ENDBRANCH   1   2
BRANCH   1  28
ATOM     28  O   UNL A   1      38.029  22.325  26.192  1.00  0.00    -0.376 OA
BRANCH  28  29
ATOM     29  C   UNL A   1      38.628  21.259  25.464  1.00  0.00     0.202 C 
BRANCH  29  30
ATOM     30  C   UNL A   1      39.389  20.163  26.222  1.00  0.00     0.261 C 
BRANCH  30  31
ATOM     31  O   UNL A   1      40.534  19.650  25.526  1.00  0.00    -0.460 OA
BRANCH  31  32
ATOM     32  C   UNL A   1      41.676  19.577  26.257  1.00  0.00     0.338 C 
ATOM     33  O   UNL A   1      42.294  18.570  26.563  1.00  0.00    -0.246 OA
BRANCH  32  34
ATOM     34  C   UNL A   1      42.190  20.944  26.467  1.00  0.00     0.060 A 
ATOM     35  C   UNL A   1      42.507  21.760  25.380  1.00  0.00     0.016 A 
ATOM     36  C   UNL A   1      42.352  21.407  27.780  1.00  0.00     0.016 A 
ATOM     37  C   UNL A   1      42.966  23.058  25.613  1.00  0.00     0.010 A 
ATOM     38  C   UNL A   1      42.831  22.696  28.011  1.00  0.00     0.010 A 
ATOM     39  C   UNL A   1      43.120  23.537  26.927  1.00  0.00    -0.014 A 
BRANCH  39  40
ATOM     40  C   UNL A   1      43.395  24.975  27.153  1.00  0.00     0.031 A 
ATOM     41  C   UNL A   1      42.380  25.897  27.752  1.00  0.00     0.074 A 
ATOM     42  C   UNL A   1      44.602  25.443  26.785  1.00  0.00     0.049 A 
ATOM     43  N   UNL A   1      42.532  27.141  28.125  1.00  0.00    -0.248 NA
ATOM     44  C   UNL A   1      41.024  25.367  27.956  1.00  0.00     0.031 C 
ATOM     45  C   UNL A   1      45.640  24.649  26.124  1.00  0.00     0.029 A 
ATOM     46  N   UNL A   1      45.159  26.688  26.909  1.00  0.00    -0.354 N 
ATOM     47  C   UNL A   1      41.297  27.549  28.610  1.00  0.00     0.074 A 
ATOM     48  C   UNL A   1      40.397  26.423  28.465  1.00  0.00     0.031 C 
ATOM     49  C   UNL A   1      46.715  25.423  25.915  1.00  0.00     0.029 A 
ATOM     50  C   UNL A   1      46.442  26.763  26.424  1.00  0.00     0.049 A 
ATOM     51  H   UNL A   1      44.686  27.454  27.307  1.00  0.00     0.167 HD
ATOM     52  C   UNL A   1      40.962  28.744  29.150  1.00  0.00     0.034 A 
ATOM     53  C   UNL A   1      47.313  27.790  26.407  1.00  0.00     0.034 A 
ATOM     54  C   UNL A   1      41.869  29.853  29.300  1.00  0.00     0.049 A 
ATOM     55  C   UNL A   1      46.923  29.095  27.033  1.00  0.00     0.074 A 
ATOM     56  C   UNL A   1      41.637  31.074  29.909  1.00  0.00     0.029 A 
ATOM     57  N   UNL A   1      43.170  29.886  28.823  1.00  0.00    -0.354 N 
ATOM     58  N   UNL A   1      45.806  29.409  27.642  1.00  0.00    -0.248 NA
ATOM     59  C   UNL A   1      47.920  30.175  27.004  1.00  0.00     0.031 C 
ATOM     60  C   UNL A   1      42.793  31.851  29.787  1.00  0.00     0.029 A 
ATOM     61  C   UNL A   1      43.749  31.109  29.113  1.00  0.00     0.049 A 
ATOM     62  H   UNL A   1      43.617  29.148  28.349  1.00  0.00     0.167 HD
ATOM     63  C   UNL A   1      45.968  30.717  28.083  1.00  0.00     0.074 A 
ATOM     64  C   UNL A   1      47.299  31.130  27.687  1.00  0.00     0.031 C 
ATOM     65  C   UNL A   1      45.086  31.502  28.747  1.00  0.00     0.034 A 
BRANCH  52  66
ATOM     66  C   UNL A   1      39.570  28.912  29.696  1.00  0.00     0.023 A 
ATOM     67  C   UNL A   1      39.278  28.405  30.978  1.00  0.00     0.012 A 
ATOM     68  C   UNL A   1      38.602  29.673  29.013  1.00  0.00     0.148 A 
ATOM     69  C   UNL A   1      38.040  28.646  31.571  1.00  0.00     0.002 A 
ATOM     70  C   UNL A   1      37.378  29.931  29.622  1.00  0.00     0.091 A 
ATOM     71  F   UNL A   1      38.900  30.137  27.792  1.00  0.00    -0.205 F 
ATOM     72  C   UNL A   1      37.096  29.416  30.899  1.00  0.00     0.022 A 
BRANCH  70  73
ATOM     73  S   UNL A   1      36.111  30.958  28.870  1.00  0.00     0.127 S 
ATOM     74  O   UNL A   1      36.902  32.080  28.367  1.00  0.00    -0.237 OA
ATOM     75  O   UNL A   1      35.577  30.075  27.832  1.00  0.00    -0.237 OA
ATOM     76  O   UNL A   1      35.174  31.288  29.935  1.00  0.00    -0.744 OA
ENDBRANCH  70  73
ENDBRANCH  52  66
BRANCH  53  77
ATOM     77  C   UNL A   1      48.672  27.565  25.852  1.00  0.00     0.023 A 
ATOM     78  C   UNL A   1      49.691  27.099  26.703  1.00  0.00     0.012 A 
ATOM     79  C   UNL A   1      48.927  27.708  24.475  1.00  0.00     0.148 A 
ATOM     80  C   UNL A   1      50.948  26.779  26.191  1.00  0.00     0.002 A 
ATOM     81  C   UNL A   1      50.170  27.353  23.965  1.00  0.00     0.091 A 
ATOM     82  F   UNL A   1      47.934  28.150  23.690  1.00  0.00    -0.205 F 
ATOM     83  C   UNL A   1      51.184  26.895  24.823  1.00  0.00     0.022 A 
BRANCH  81  84
ATOM     84  S   UNL A   1      50.537  27.366  22.207  1.00  0.00     0.127 S 
ATOM     85  O   UNL A   1      49.476  26.514  21.676  1.00  0.00    -0.237 OA
ATOM     86  O   UNL A   1      50.406  28.787  21.887  1.00  0.00    -0.237 OA
ATOM     87  O   UNL A   1      51.887  26.834  22.079  1.00  0.00    -0.744 OA
ENDBRANCH  81  84
ENDBRANCH  53  77
BRANCH  65  88
ATOM     88  C   UNL A   1      45.510  32.903  29.093  1.00  0.00     0.023 A 
ATOM     89  C   UNL A   1      46.173  33.139  30.311  1.00  0.00     0.012 A 
ATOM     90  C   UNL A   1      45.362  33.951  28.164  1.00  0.00     0.148 A 
ATOM     91  C   UNL A   1      46.679  34.405  30.606  1.00  0.00     0.002 A 
ATOM     92  C   UNL A   1      45.897  35.202  28.450  1.00  0.00     0.091 A 
ATOM     93  F   UNL A   1      44.717  33.700  27.015  1.00  0.00    -0.205 F 
ATOM     94  C   UNL A   1      46.552  35.431  29.671  1.00  0.00     0.022 A 
BRANCH  92  95
ATOM     95  S   UNL A   1      45.850  36.568  27.285  1.00  0.00     0.127 S 
ATOM     96  O   UNL A   1      44.412  36.794  27.149  1.00  0.00    -0.237 OA
ATOM     97  O   UNL A   1      46.567  37.617  28.011  1.00  0.00    -0.237 OA
ATOM     98  O   UNL A   1      46.518  36.096  26.080  1.00  0.00    -0.744 OA
ENDBRANCH  92  95
ENDBRANCH  65  88
ENDBRANCH  39  40
ENDBRANCH  32  34
ENDBRANCH  31  32
ENDBRANCH  30  31
ENDBRANCH  29  30
ENDBRANCH  28  29
ENDBRANCH   1  28
TORSDOF 23
ENDMDL
MODEL 3
REMARK VINA RESULT:     -10.0      6.350      8.059
REMARK SMILES CC(C)Cc1cc2c(cc1Cl)C=C(C(=O)OCCOCCOCCOC(=O)c1ccc(-c3c4nc(c(-c5cccc(S(=O)(=O)[O-])c5F)c5ccc([nH]5)c(-c5cccc(S(=O)(=O)[O-])c5F)c5nc(c(-c6cccc(S(=O)(=O)[O-])c6F)c6ccc3[nH]6)C=C5)C=C4)cc1)[C@H](C(F)(F)F)O2
REMARK SMILES IDX 21 1 20 2 19 3 18 4 17 5 16 6 14 7 15 8 13 9 5 10 6 11 10 12
REMARK SMILES IDX 7 13 9 14 11 15 8 16 96 17 12 18 91 19 4 20 2 21 1 22 3 23
REMARK SMILES IDX 92 24 93 25 94 26 95 27 22 28 23 29 24 30 25 31 26 32 27 33
REMARK SMILES IDX 28 34 29 35 90 36 30 37 89 38 31 39 32 40 33 41 83 42 34 43
REMARK SMILES IDX 88 44 82 45 84 46 35 47 87 48 81 49 80 50 36 52 68 53 48 54
REMARK SMILES IDX 67 55 49 56 52 57 66 58 85 59 50 60 51 61 65 63 86 64 53 65
REMARK SMILES IDX 37 66 38 67 46 68 39 69 41 70 47 71 40 72 42 73 43 74 44 75
REMARK SMILES IDX 45 76 69 77 70 78 78 79 71 80 73 81 79 82 72 83 74 84 75 85
REMARK SMILES IDX 76 86 77 87 54 88 55 89 63 90 56 91 58 92 64 93 57 94 59 95
REMARK SMILES IDX 60 96 61 97 62 98
REMARK H PARENT 84 51 52 62
REMARK Flexibility Score: inf
ROOT
ATOM      1  C   UNL A   1      44.001  21.324  24.920  1.00  0.00     0.188 C 
ENDROOT
BRANCH   1   2
ATOM      2  C   UNL A   1      43.943  19.787  25.042  1.00  0.00     0.188 C 
BRANCH   2   3
ATOM      3  O   UNL A   1      42.666  19.295  25.382  1.00  0.00    -0.376 OA
BRANCH   3   4
ATOM      4  C   UNL A   1      42.266  19.237  26.738  1.00  0.00     0.202 C 
BRANCH   4   5
ATOM      5  C   UNL A   1      41.249  20.201  27.383  1.00  0.00     0.261 C 
BRANCH   5   6
ATOM      6  O   UNL A   1      41.743  21.489  27.757  1.00  0.00    -0.460 OA
BRANCH   6   7
ATOM      7  C   UNL A   1      41.192  22.555  27.141  1.00  0.00     0.338 C 
ATOM      8  O   UNL A   1      40.481  22.538  26.151  1.00  0.00    -0.246 OA
BRANCH   7   9
ATOM      9  C   UNL A   1      41.481  23.782  27.904  1.00  0.00     0.087 C 
ATOM     10  C   UNL A   1      41.331  28.614  29.380  1.00  0.00    -0.025 A 
ATOM     11  C   UNL A   1      42.339  27.625  29.252  1.00  0.00     0.052 A 
ATOM     12  C   UNL A   1      40.018  28.226  29.063  1.00  0.00     0.045 A 
ATOM     13  C   UNL A   1      42.057  26.322  28.830  1.00  0.00     0.128 A 
ATOM     14  C   UNL A   1      39.731  26.903  28.688  1.00  0.00     0.032 A 
ATOM     15  Cl  UNL A   1      38.666  29.295  29.009  1.00  0.00    -0.084 Cl
ATOM     16  C   UNL A   1      40.746  25.955  28.557  1.00  0.00     0.019 A 
ATOM     17  O   UNL A   1      43.132  25.502  28.630  1.00  0.00    -0.475 OA
ATOM     18  C   UNL A   1      40.459  24.639  28.017  1.00  0.00     0.027 C 
ATOM     19  C   UNL A   1      42.892  24.096  28.324  1.00  0.00     0.316 C 
BRANCH  10  20
ATOM     20  C   UNL A   1      41.838  30.007  29.723  1.00  0.00     0.040 C 
BRANCH  20  21
ATOM     21  C   UNL A   1      41.699  30.634  31.124  1.00  0.00    -0.013 C 
ATOM     22  C   UNL A   1      40.493  31.567  31.234  1.00  0.00     0.008 C 
ATOM     23  C   UNL A   1      41.576  29.526  32.179  1.00  0.00     0.008 C 
ENDBRANCH  20  21
ENDBRANCH  10  20
BRANCH  19  24
ATOM     24  C   UNL A   1      43.445  23.264  29.496  1.00  0.00     0.430 C 
ATOM     25  F   UNL A   1      44.110  24.018  30.396  1.00  0.00    -0.167 F 
ATOM     26  F   UNL A   1      42.474  22.582  30.141  1.00  0.00    -0.167 F 
ATOM     27  F   UNL A   1      44.318  22.327  29.039  1.00  0.00    -0.167 F 
ENDBRANCH  19  24
ENDBRANCH   7   9
ENDBRANCH   6   7
ENDBRANCH   5   6
ENDBRANCH   4   5
ENDBRANCH   3   4
ENDBRANCH   2   3
ENDBRANCH   1   2
BRANCH   1  28
ATOM     28  O   UNL A   1      44.655  22.091  25.924  1.00  0.00    -0.376 OA
BRANCH  28  29
ATOM     29  C   UNL A   1      45.950  22.617  25.658  1.00  0.00     0.202 C 
BRANCH  29  30
ATOM     30  C   UNL A   1      46.225  23.295  24.308  1.00  0.00     0.261 C 
BRANCH  30  31
ATOM     31  O   UNL A   1      45.933  24.699  24.282  1.00  0.00    -0.460 OA
BRANCH  31  32
ATOM     32  C   UNL A   1      46.997  25.519  24.480  1.00  0.00     0.338 C 
ATOM     33  O   UNL A   1      48.045  25.532  23.855  1.00  0.00    -0.246 OA
BRANCH  32  34
ATOM     34  C   UNL A   1      46.617  26.558  25.456  1.00  0.00     0.060 A 
ATOM     35  C   UNL A   1      45.300  26.667  25.904  1.00  0.00     0.016 A 
ATOM     36  C   UNL A   1      47.606  27.433  25.926  1.00  0.00     0.016 A 
ATOM     37  C   UNL A   1      44.978  27.645  26.848  1.00  0.00     0.010 A 
ATOM     38  C   UNL A   1      47.279  28.423  26.853  1.00  0.00     0.010 A 
ATOM     39  C   UNL A   1      45.967  28.520  27.336  1.00  0.00    -0.014 A 
BRANCH  39  40
ATOM     40  C   UNL A   1      45.660  29.397  28.488  1.00  0.00     0.031 A 
ATOM     41  C   UNL A   1      45.279  30.834  28.319  1.00  0.00     0.074 A 
ATOM     42  C   UNL A   1      45.748  28.861  29.720  1.00  0.00     0.049 A 
ATOM     43  N   UNL A   1      44.859  31.677  29.227  1.00  0.00    -0.248 NA
ATOM     44  C   UNL A   1      45.384  31.406  26.968  1.00  0.00     0.031 C 
ATOM     45  C   UNL A   1      46.182  27.491  30.005  1.00  0.00     0.029 A 
ATOM     46  N   UNL A   1      45.483  29.393  30.954  1.00  0.00    -0.354 N 
ATOM     47  C   UNL A   1      44.646  32.878  28.565  1.00  0.00     0.074 A 
ATOM     48  C   UNL A   1      45.004  32.662  27.178  1.00  0.00     0.031 C 
ATOM     49  C   UNL A   1      46.138  27.286  31.329  1.00  0.00     0.029 A 
ATOM     50  C   UNL A   1      45.676  28.506  31.984  1.00  0.00     0.049 A 
ATOM     51  H   UNL A   1      45.184  30.321  31.088  1.00  0.00     0.167 HD
ATOM     52  C   UNL A   1      44.171  34.041  29.071  1.00  0.00     0.034 A 
ATOM     53  C   UNL A   1      45.484  28.648  33.309  1.00  0.00     0.034 A 
ATOM     54  C   UNL A   1      43.807  34.240  30.450  1.00  0.00     0.049 A 
ATOM     55  C   UNL A   1      44.934  29.939  33.838  1.00  0.00     0.074 A 
ATOM     56  C   UNL A   1      43.240  35.360  31.033  1.00  0.00     0.029 A 
ATOM     57  N   UNL A   1      43.988  33.312  31.462  1.00  0.00    -0.354 N 
ATOM     58  N   UNL A   1      44.577  31.010  33.173  1.00  0.00    -0.248 NA
ATOM     59  C   UNL A   1      44.726  30.031  35.290  1.00  0.00     0.031 C 
ATOM     60  C   UNL A   1      43.094  35.114  32.402  1.00  0.00     0.029 A 
ATOM     61  C   UNL A   1      43.557  33.836  32.668  1.00  0.00     0.049 A 
ATOM     62  H   UNL A   1      44.367  32.411  31.342  1.00  0.00     0.167 HD
ATOM     63  C   UNL A   1      44.087  31.899  34.121  1.00  0.00     0.074 A 
ATOM     64  C   UNL A   1      44.177  31.235  35.405  1.00  0.00     0.031 C 
ATOM     65  C   UNL A   1      43.617  33.157  33.937  1.00  0.00     0.034 A 
BRANCH  52  66
ATOM     66  C   UNL A   1      43.937  35.185  28.122  1.00  0.00     0.023 A 
ATOM     67  C   UNL A   1      42.652  35.356  27.568  1.00  0.00     0.012 A 
ATOM     68  C   UNL A   1      44.931  36.153  27.884  1.00  0.00     0.148 A 
ATOM     69  C   UNL A   1      42.361  36.471  26.784  1.00  0.00     0.002 A 
ATOM     70  C   UNL A   1      44.626  37.276  27.122  1.00  0.00     0.091 A 
ATOM     71  F   UNL A   1      46.146  35.964  28.414  1.00  0.00    -0.205 F 
ATOM     72  C   UNL A   1      43.343  37.434  26.570  1.00  0.00     0.022 A 
BRANCH  70  73
ATOM     73  S   UNL A   1      45.797  38.606  26.829  1.00  0.00     0.127 S 
ATOM     74  O   UNL A   1      46.147  38.995  28.195  1.00  0.00    -0.237 OA
ATOM     75  O   UNL A   1      46.864  37.921  26.099  1.00  0.00    -0.237 OA
ATOM     76  O   UNL A   1      45.080  39.615  26.062  1.00  0.00    -0.744 OA
ENDBRANCH  70  73
ENDBRANCH  52  66
BRANCH  53  77
ATOM     77  C   UNL A   1      45.735  27.484  34.197  1.00  0.00     0.023 A 
ATOM     78  C   UNL A   1      46.935  27.427  34.930  1.00  0.00     0.012 A 
ATOM     79  C   UNL A   1      44.750  26.499  34.399  1.00  0.00     0.148 A 
ATOM     80  C   UNL A   1      47.153  26.402  35.850  1.00  0.00     0.002 A 
ATOM     81  C   UNL A   1      44.958  25.502  35.343  1.00  0.00     0.091 A 
ATOM     82  F   UNL A   1      43.616  26.584  33.689  1.00  0.00    -0.205 F 
ATOM     83  C   UNL A   1      46.162  25.447  36.065  1.00  0.00     0.022 A 
BRANCH  81  84
ATOM     84  S   UNL A   1      43.702  24.291  35.768  1.00  0.00     0.127 S 
ATOM     85  O   UNL A   1      43.380  23.725  34.459  1.00  0.00    -0.237 OA
ATOM     86  O   UNL A   1      44.440  23.398  36.661  1.00  0.00    -0.237 OA
ATOM     87  O   UNL A   1      42.627  25.038  36.405  1.00  0.00    -0.744 OA
ENDBRANCH  81  84
ENDBRANCH  53  77
BRANCH  65  88
ATOM     88  C   UNL A   1      43.161  33.923  35.149  1.00  0.00     0.023 A 
ATOM     89  C   UNL A   1      44.122  34.501  35.998  1.00  0.00     0.012 A 
ATOM     90  C   UNL A   1      41.793  34.170  35.373  1.00  0.00     0.148 A 
ATOM     91  C   UNL A   1      43.728  35.311  37.063  1.00  0.00     0.002 A 
ATOM     92  C   UNL A   1      41.409  35.006  36.416  1.00  0.00     0.091 A 
ATOM     93  F   UNL A   1      40.898  33.600  34.554  1.00  0.00    -0.205 F 
ATOM     94  C   UNL A   1      42.375  35.573  37.263  1.00  0.00     0.022 A 
BRANCH  92  95
ATOM     95  S   UNL A   1      39.697  35.463  36.714  1.00  0.00     0.127 S 
ATOM     96  O   UNL A   1      39.255  35.849  35.375  1.00  0.00    -0.237 OA
ATOM     97  O   UNL A   1      39.126  34.209  37.208  1.00  0.00    -0.237 OA
ATOM     98  O   UNL A   1      39.730  36.543  37.690  1.00  0.00    -0.744 OA
ENDBRANCH  92  95
ENDBRANCH  65  88
ENDBRANCH  39  40
ENDBRANCH  32  34
ENDBRANCH  31  32
ENDBRANCH  30  31
ENDBRANCH  29  30
ENDBRANCH  28  29
ENDBRANCH   1  28
TORSDOF 23
ENDMDL
