MODEL 1
REMARK VINA RESULT:      -9.7      0.000      0.000
REMARK SMILES O=C(CNC(=O)OCc1ccccc1)NCC(=O)OCCOCCOCCOC(=O)c1ccc(-c2c3nc(c(-c4cccc(S(=O)(=O)[O-])c4F)c4ccc([nH]4)c(-c4cccc(S(=O)(=O)[O-])c4F)c4nc(c(-c5cccc(S(=O)(=O)[O-])c5F)c5ccc2[nH]5)C=C4)C=C3)cc1
REMARK SMILES IDX 22 1 21 2 20 3 19 4 17 5 18 6 16 7 15 8 1 9 2 10 3 12 4 13
REMARK SMILES IDX 5 14 6 16 7 17 8 18 9 19 10 20 14 21 11 22 13 23 12 24 23 25
REMARK SMILES IDX 24 26 25 27 26 28 27 29 28 30 29 31 30 32 31 33 32 34 93 35
REMARK SMILES IDX 33 36 92 37 34 38 35 39 36 40 86 41 37 42 91 43 85 44 87 45
REMARK SMILES IDX 38 46 90 47 84 48 83 49 39 51 71 52 51 53 70 54 52 55 55 56
REMARK SMILES IDX 69 57 88 58 53 59 54 60 68 62 89 63 56 64 40 65 41 66 49 67
REMARK SMILES IDX 42 68 44 69 50 70 43 71 45 72 46 73 47 74 48 75 72 76 73 77
REMARK SMILES IDX 81 78 74 79 76 80 82 81 75 82 77 83 78 84 79 85 80 86 57 87
REMARK SMILES IDX 58 88 66 89 59 90 61 91 67 92 60 93 62 94 63 95 64 96 65 97
REMARK H PARENT 15 11 4 15 87 50 55 61
REMARK Flexibility Score: inf
ROOT
ATOM      1  O   UNL A   1      33.107  21.433  23.841  1.00  0.00    -0.376 OA
ENDROOT
BRANCH   1   2
ATOM      2  C   UNL A   1      31.693  21.616  23.863  1.00  0.00     0.202 C 
BRANCH   2   3
ATOM      3  C   UNL A   1      31.034  22.234  25.111  1.00  0.00     0.261 C 
BRANCH   3   4
ATOM      4  O   UNL A   1      31.225  23.662  25.237  1.00  0.00    -0.462 OA
BRANCH   4   5
ATOM      5  C   UNL A   1      31.077  24.166  26.492  1.00  0.00     0.325 C 
ATOM      6  O   UNL A   1      30.143  23.882  27.237  1.00  0.00    -0.250 OA
BRANCH   5   7
ATOM      7  C   UNL A   1      32.277  24.989  26.992  1.00  0.00     0.238 C 
BRANCH   7   8
ATOM      8  N   UNL A   1      33.064  25.848  26.118  1.00  0.00    -0.344 N 
ATOM      9  O   UNL A   1      31.499  27.497  25.885  1.00  0.00    -0.273 OA
ATOM     10  C   UNL A   1      32.640  27.086  25.696  1.00  0.00     0.240 C 
ATOM     11  H   UNL A   1      33.944  25.527  25.815  1.00  0.00     0.164 HD
BRANCH  10  12
ATOM     12  C   UNL A   1      33.671  27.855  24.849  1.00  0.00     0.219 C 
BRANCH  12  13
ATOM     13  N   UNL A   1      33.927  27.186  23.579  1.00  0.00    -0.312 N 
ATOM     14  C   UNL A   1      33.178  27.250  22.444  1.00  0.00     0.407 C 
ATOM     15  H   UNL A   1      34.734  26.624  23.538  1.00  0.00     0.167 HD
ATOM     16  O   UNL A   1      33.478  26.566  21.472  1.00  0.00    -0.225 OA
BRANCH  14  17
ATOM     17  O   UNL A   1      32.126  28.094  22.529  1.00  0.00    -0.445 OA
BRANCH  17  18
ATOM     18  C   UNL A   1      30.832  27.472  22.438  1.00  0.00     0.270 C 
BRANCH  18  19
ATOM     19  C   UNL A   1      29.729  28.503  22.510  1.00  0.00    -0.011 A 
ATOM     20  C   UNL A   1      28.487  28.169  23.072  1.00  0.00     0.007 A 
ATOM     21  C   UNL A   1      29.914  29.795  22.002  1.00  0.00     0.007 A 
ATOM     22  C   UNL A   1      27.455  29.107  23.126  1.00  0.00     0.000 A 
ATOM     23  C   UNL A   1      28.881  30.735  22.061  1.00  0.00     0.000 A 
ATOM     24  C   UNL A   1      27.651  30.390  22.620  1.00  0.00     0.000 A 
ENDBRANCH  18  19
ENDBRANCH  17  18
ENDBRANCH  14  17
ENDBRANCH  12  13
ENDBRANCH  10  12
ENDBRANCH   7   8
ENDBRANCH   5   7
ENDBRANCH   4   5
ENDBRANCH   3   4
ENDBRANCH   2   3
ENDBRANCH   1   2
BRANCH   1  25
ATOM     25  C   UNL A   1      33.893  22.160  24.773  1.00  0.00     0.188 C 
BRANCH  25  26
ATOM     26  C   UNL A   1      34.498  21.389  25.956  1.00  0.00     0.188 C 
BRANCH  26  27
ATOM     27  O   UNL A   1      35.401  20.363  25.632  1.00  0.00    -0.376 OA
BRANCH  27  28
ATOM     28  C   UNL A   1      36.394  20.560  24.641  1.00  0.00     0.202 C 
BRANCH  28  29
ATOM     29  C   UNL A   1      37.651  21.437  24.807  1.00  0.00     0.261 C 
BRANCH  29  30
ATOM     30  O   UNL A   1      38.085  21.765  26.129  1.00  0.00    -0.460 OA
BRANCH  30  31
ATOM     31  C   UNL A   1      39.394  21.558  26.413  1.00  0.00     0.338 C 
ATOM     32  O   UNL A   1      40.065  20.591  26.103  1.00  0.00    -0.246 OA
BRANCH  31  33
ATOM     33  C   UNL A   1      39.927  22.834  26.944  1.00  0.00     0.060 A 
ATOM     34  C   UNL A   1      39.359  24.039  26.504  1.00  0.00     0.016 A 
ATOM     35  C   UNL A   1      40.948  22.838  27.896  1.00  0.00     0.016 A 
ATOM     36  C   UNL A   1      39.823  25.255  27.008  1.00  0.00     0.010 A 
ATOM     37  C   UNL A   1      41.431  24.058  28.375  1.00  0.00     0.010 A 
ATOM     38  C   UNL A   1      40.889  25.271  27.915  1.00  0.00    -0.014 A 
BRANCH  38  39
ATOM     39  C   UNL A   1      41.571  26.549  28.235  1.00  0.00     0.031 A 
ATOM     40  C   UNL A   1      40.766  27.635  28.892  1.00  0.00     0.074 A 
ATOM     41  C   UNL A   1      42.865  26.754  27.929  1.00  0.00     0.049 A 
ATOM     42  N   UNL A   1      41.114  28.858  29.193  1.00  0.00    -0.248 NA
ATOM     43  C   UNL A   1      39.378  27.297  29.249  1.00  0.00     0.031 C 
ATOM     44  C   UNL A   1      43.754  25.778  27.304  1.00  0.00     0.029 A 
ATOM     45  N   UNL A   1      43.644  27.875  28.079  1.00  0.00    -0.354 N 
ATOM     46  C   UNL A   1      39.980  29.446  29.741  1.00  0.00     0.074 A 
ATOM     47  C   UNL A   1      38.933  28.449  29.725  1.00  0.00     0.031 C 
ATOM     48  C   UNL A   1      44.950  26.355  27.089  1.00  0.00     0.029 A 
ATOM     49  C   UNL A   1      44.900  27.747  27.533  1.00  0.00     0.049 A 
ATOM     50  H   UNL A   1      43.334  28.692  28.534  1.00  0.00     0.167 HD
ATOM     51  C   UNL A   1      39.826  30.701  30.224  1.00  0.00     0.034 A 
ATOM     52  C   UNL A   1      45.881  28.659  27.382  1.00  0.00     0.034 A 
ATOM     53  C   UNL A   1      40.871  31.688  30.251  1.00  0.00     0.049 A 
ATOM     54  C   UNL A   1      45.675  30.062  27.898  1.00  0.00     0.074 A 
ATOM     55  C   UNL A   1      40.825  32.972  30.762  1.00  0.00     0.029 A 
ATOM     56  N   UNL A   1      42.141  31.508  29.731  1.00  0.00    -0.354 N 
ATOM     57  N   UNL A   1      44.636  30.573  28.514  1.00  0.00    -0.248 NA
ATOM     58  C   UNL A   1      46.790  31.007  27.725  1.00  0.00     0.031 C 
ATOM     59  C   UNL A   1      42.059  33.582  30.519  1.00  0.00     0.029 A 
ATOM     60  C   UNL A   1      42.887  32.663  29.895  1.00  0.00     0.049 A 
ATOM     61  H   UNL A   1      42.467  30.681  29.307  1.00  0.00     0.167 HD
ATOM     62  C   UNL A   1      44.987  31.880  28.841  1.00  0.00     0.074 A 
ATOM     63  C   UNL A   1      46.340  32.079  28.364  1.00  0.00     0.031 C 
ATOM     64  C   UNL A   1      44.252  32.831  29.469  1.00  0.00     0.034 A 
BRANCH  51  65
ATOM     65  C   UNL A   1      38.475  31.075  30.772  1.00  0.00     0.023 A 
ATOM     66  C   UNL A   1      38.187  30.869  32.136  1.00  0.00     0.012 A 
ATOM     67  C   UNL A   1      37.506  31.674  29.943  1.00  0.00     0.148 A 
ATOM     68  C   UNL A   1      36.944  31.221  32.661  1.00  0.00     0.002 A 
ATOM     69  C   UNL A   1      36.287  32.066  30.483  1.00  0.00     0.091 A 
ATOM     70  F   UNL A   1      37.789  31.837  28.643  1.00  0.00    -0.205 F 
ATOM     71  C   UNL A   1      36.000  31.830  31.837  1.00  0.00     0.022 A 
BRANCH  69  72
ATOM     72  S   UNL A   1      35.038  32.930  29.526  1.00  0.00     0.127 S 
ATOM     73  O   UNL A   1      34.030  33.214  30.546  1.00  0.00    -0.237 OA
ATOM     74  O   UNL A   1      35.772  34.102  29.050  1.00  0.00    -0.237 OA
ATOM     75  O   UNL A   1      34.623  32.007  28.479  1.00  0.00    -0.744 OA
ENDBRANCH  69  72
ENDBRANCH  51  65
BRANCH  52  76
ATOM     76  C   UNL A   1      47.165  28.275  26.729  1.00  0.00     0.023 A 
ATOM     77  C   UNL A   1      48.312  28.061  27.518  1.00  0.00     0.012 A 
ATOM     78  C   UNL A   1      47.254  28.117  25.332  1.00  0.00     0.148 A 
ATOM     79  C   UNL A   1      49.532  27.730  26.927  1.00  0.00     0.002 A 
ATOM     80  C   UNL A   1      48.458  27.733  24.754  1.00  0.00     0.091 A 
ATOM     81  F   UNL A   1      46.156  28.341  24.597  1.00  0.00    -0.205 F 
ATOM     82  C   UNL A   1      49.602  27.555  25.547  1.00  0.00     0.022 A 
BRANCH  80  83
ATOM     83  S   UNL A   1      48.615  27.367  23.002  1.00  0.00     0.127 S 
ATOM     84  O   UNL A   1      50.034  27.627  22.769  1.00  0.00    -0.237 OA
ATOM     85  O   UNL A   1      48.230  25.956  22.955  1.00  0.00    -0.237 OA
ATOM     86  O   UNL A   1      47.690  28.267  22.327  1.00  0.00    -0.744 OA
ENDBRANCH  80  83
ENDBRANCH  52  76
BRANCH  64  87
ATOM     87  C   UNL A   1      44.904  34.164  29.741  1.00  0.00     0.023 A 
ATOM     88  C   UNL A   1      45.631  34.369  30.930  1.00  0.00     0.012 A 
ATOM     89  C   UNL A   1      44.868  35.184  28.768  1.00  0.00     0.148 A 
ATOM     90  C   UNL A   1      46.284  35.580  31.161  1.00  0.00     0.002 A 
ATOM     91  C   UNL A   1      45.565  36.367  28.982  1.00  0.00     0.091 A 
ATOM     92  F   UNL A   1      44.160  34.976  27.650  1.00  0.00    -0.205 F 
ATOM     93  C   UNL A   1      46.262  36.572  30.184  1.00  0.00     0.022 A 
BRANCH  91  94
ATOM     94  S   UNL A   1      45.677  37.660  27.739  1.00  0.00     0.127 S 
ATOM     95  O   UNL A   1      44.274  38.035  27.571  1.00  0.00    -0.237 OA
ATOM     96  O   UNL A   1      46.500  38.665  28.411  1.00  0.00    -0.237 OA
ATOM     97  O   UNL A   1      46.301  37.046  26.575  1.00  0.00    -0.744 OA
ENDBRANCH  91  94
ENDBRANCH  64  87
ENDBRANCH  38  39
ENDBRANCH  31  33
ENDBRANCH  30  31
ENDBRANCH  29  30
ENDBRANCH  28  29
ENDBRANCH  27  28
ENDBRANCH  26  27
ENDBRANCH  25  26
ENDBRANCH   1  25
TORSDOF 26
ENDMDL
MODEL 2
REMARK VINA RESULT:      -9.4      5.606     10.989
REMARK SMILES O=C(CNC(=O)OCc1ccccc1)NCC(=O)OCCOCCOCCOC(=O)c1ccc(-c2c3nc(c(-c4cccc(S(=O)(=O)[O-])c4F)c4ccc([nH]4)c(-c4cccc(S(=O)(=O)[O-])c4F)c4nc(c(-c5cccc(S(=O)(=O)[O-])c5F)c5ccc2[nH]5)C=C4)C=C3)cc1
REMARK SMILES IDX 22 1 21 2 20 3 19 4 17 5 18 6 16 7 15 8 1 9 2 10 3 12 4 13
REMARK SMILES IDX 5 14 6 16 7 17 8 18 9 19 10 20 14 21 11 22 13 23 12 24 23 25
REMARK SMILES IDX 24 26 25 27 26 28 27 29 28 30 29 31 30 32 31 33 32 34 93 35
REMARK SMILES IDX 33 36 92 37 34 38 35 39 36 40 86 41 37 42 91 43 85 44 87 45
REMARK SMILES IDX 38 46 90 47 84 48 83 49 39 51 71 52 51 53 70 54 52 55 55 56
REMARK SMILES IDX 69 57 88 58 53 59 54 60 68 62 89 63 56 64 40 65 41 66 49 67
REMARK SMILES IDX 42 68 44 69 50 70 43 71 45 72 46 73 47 74 48 75 72 76 73 77
REMARK SMILES IDX 81 78 74 79 76 80 82 81 75 82 77 83 78 84 79 85 80 86 57 87
REMARK SMILES IDX 58 88 66 89 59 90 61 91 67 92 60 93 62 94 63 95 64 96 65 97
REMARK H PARENT 15 11 4 15 87 50 55 61
REMARK Flexibility Score: inf
ROOT
ATOM      1  O   UNL A   1      31.894  28.515  26.044  1.00  0.00    -0.376 OA
ENDROOT
BRANCH   1   2
ATOM      2  C   UNL A   1      31.815  27.348  25.228  1.00  0.00     0.202 C 
BRANCH   2   3
ATOM      3  C   UNL A   1      32.155  27.455  23.729  1.00  0.00     0.261 C 
BRANCH   3   4
ATOM      4  O   UNL A   1      31.956  26.230  22.986  1.00  0.00    -0.462 OA
BRANCH   4   5
ATOM      5  C   UNL A   1      33.067  25.714  22.395  1.00  0.00     0.325 C 
ATOM      6  O   UNL A   1      33.650  26.244  21.453  1.00  0.00    -0.250 OA
BRANCH   5   7
ATOM      7  C   UNL A   1      33.664  24.493  23.118  1.00  0.00     0.238 C 
BRANCH   7   8
ATOM      8  N   UNL A   1      32.948  23.764  24.157  1.00  0.00    -0.344 N 
ATOM      9  O   UNL A   1      34.141  24.583  25.926  1.00  0.00    -0.273 OA
ATOM     10  C   UNL A   1      33.192  23.932  25.499  1.00  0.00     0.240 C 
ATOM     11  H   UNL A   1      32.256  23.120  23.884  1.00  0.00     0.164 HD
BRANCH  10  12
ATOM     12  C   UNL A   1      32.258  23.123  26.420  1.00  0.00     0.219 C 
BRANCH  12  13
ATOM     13  N   UNL A   1      31.814  21.890  25.782  1.00  0.00    -0.312 N 
ATOM     14  C   UNL A   1      32.574  20.809  25.450  1.00  0.00     0.407 C 
ATOM     15  H   UNL A   1      30.856  21.831  25.565  1.00  0.00     0.167 HD
ATOM     16  O   UNL A   1      32.073  19.870  24.843  1.00  0.00    -0.225 OA
BRANCH  14  17
ATOM     17  O   UNL A   1      33.865  20.908  25.837  1.00  0.00    -0.445 OA
BRANCH  17  18
ATOM     18  C   UNL A   1      34.828  20.408  24.894  1.00  0.00     0.270 C 
BRANCH  18  19
ATOM     19  C   UNL A   1      36.211  20.937  25.197  1.00  0.00    -0.011 A 
ATOM     20  C   UNL A   1      37.329  20.098  25.080  1.00  0.00     0.007 A 
ATOM     21  C   UNL A   1      36.401  22.261  25.616  1.00  0.00     0.007 A 
ATOM     22  C   UNL A   1      38.609  20.572  25.376  1.00  0.00     0.000 A 
ATOM     23  C   UNL A   1      37.684  22.735  25.908  1.00  0.00     0.000 A 
ATOM     24  C   UNL A   1      38.786  21.890  25.790  1.00  0.00     0.000 A 
ENDBRANCH  18  19
ENDBRANCH  17  18
ENDBRANCH  14  17
ENDBRANCH  12  13
ENDBRANCH  10  12
ENDBRANCH   7   8
ENDBRANCH   5   7
ENDBRANCH   4   5
ENDBRANCH   3   4
ENDBRANCH   2   3
ENDBRANCH   1   2
BRANCH   1  25
ATOM     25  C   UNL A   1      31.799  29.783  25.415  1.00  0.00     0.188 C 
BRANCH  25  26
ATOM     26  C   UNL A   1      31.624  31.018  26.312  1.00  0.00     0.188 C 
BRANCH  26  27
ATOM     27  O   UNL A   1      32.603  31.208  27.302  1.00  0.00    -0.376 OA
BRANCH  27  28
ATOM     28  C   UNL A   1      33.281  32.446  27.419  1.00  0.00     0.202 C 
BRANCH  28  29
ATOM     29  C   UNL A   1      32.613  33.797  27.742  1.00  0.00     0.261 C 
BRANCH  29  30
ATOM     30  O   UNL A   1      33.396  34.814  28.370  1.00  0.00    -0.460 OA
BRANCH  30  31
ATOM     31  C   UNL A   1      33.404  34.832  29.726  1.00  0.00     0.338 C 
ATOM     32  O   UNL A   1      32.503  35.199  30.457  1.00  0.00    -0.246 OA
BRANCH  31  33
ATOM     33  C   UNL A   1      34.606  34.082  30.160  1.00  0.00     0.060 A 
ATOM     34  C   UNL A   1      34.464  33.082  31.133  1.00  0.00     0.016 A 
ATOM     35  C   UNL A   1      35.851  34.336  29.581  1.00  0.00     0.016 A 
ATOM     36  C   UNL A   1      35.574  32.341  31.540  1.00  0.00     0.010 A 
ATOM     37  C   UNL A   1      36.966  33.614  30.013  1.00  0.00     0.010 A 
ATOM     38  C   UNL A   1      36.838  32.632  31.012  1.00  0.00    -0.014 A 
BRANCH  38  39
ATOM     39  C   UNL A   1      38.053  32.056  31.636  1.00  0.00     0.031 A 
ATOM     40  C   UNL A   1      38.741  30.921  30.929  1.00  0.00     0.074 A 
ATOM     41  C   UNL A   1      38.525  32.507  32.812  1.00  0.00     0.049 A 
ATOM     42  N   UNL A   1      39.764  30.204  31.311  1.00  0.00    -0.248 NA
ATOM     43  C   UNL A   1      38.193  30.539  29.616  1.00  0.00     0.031 C 
ATOM     44  C   UNL A   1      37.956  33.607  33.587  1.00  0.00     0.029 A 
ATOM     45  N   UNL A   1      39.579  32.065  33.573  1.00  0.00    -0.354 N 
ATOM     46  C   UNL A   1      39.961  29.264  30.307  1.00  0.00     0.074 A 
ATOM     47  C   UNL A   1      38.948  29.498  29.301  1.00  0.00     0.031 C 
ATOM     48  C   UNL A   1      38.646  33.730  34.736  1.00  0.00     0.029 A 
ATOM     49  C   UNL A   1      39.683  32.701  34.787  1.00  0.00     0.049 A 
ATOM     50  H   UNL A   1      40.200  31.360  33.277  1.00  0.00     0.167 HD
ATOM     51  C   UNL A   1      40.906  28.299  30.222  1.00  0.00     0.034 A 
ATOM     52  C   UNL A   1      40.502  32.457  35.831  1.00  0.00     0.034 A 
ATOM     53  C   UNL A   1      41.919  28.075  31.216  1.00  0.00     0.049 A 
ATOM     54  C   UNL A   1      41.525  31.353  35.728  1.00  0.00     0.074 A 
ATOM     55  C   UNL A   1      42.949  27.152  31.199  1.00  0.00     0.029 A 
ATOM     56  N   UNL A   1      42.022  28.768  32.411  1.00  0.00    -0.354 N 
ATOM     57  N   UNL A   1      41.772  30.545  34.726  1.00  0.00    -0.248 NA
ATOM     58  C   UNL A   1      42.406  31.149  36.890  1.00  0.00     0.031 C 
ATOM     59  C   UNL A   1      43.653  27.262  32.401  1.00  0.00     0.029 A 
ATOM     60  C   UNL A   1      43.089  28.284  33.147  1.00  0.00     0.049 A 
ATOM     61  H   UNL A   1      41.424  29.497  32.694  1.00  0.00     0.167 HD
ATOM     62  C   UNL A   1      42.860  29.768  35.117  1.00  0.00     0.074 A 
ATOM     63  C   UNL A   1      43.232  30.213  36.444  1.00  0.00     0.031 C 
ATOM     64  C   UNL A   1      43.487  28.773  34.443  1.00  0.00     0.034 A 
BRANCH  51  65
ATOM     65  C   UNL A   1      40.890  27.414  29.005  1.00  0.00     0.023 A 
ATOM     66  C   UNL A   1      39.950  26.369  28.908  1.00  0.00     0.012 A 
ATOM     67  C   UNL A   1      41.778  27.649  27.936  1.00  0.00     0.148 A 
ATOM     68  C   UNL A   1      39.915  25.548  27.781  1.00  0.00     0.002 A 
ATOM     69  C   UNL A   1      41.705  26.858  26.796  1.00  0.00     0.091 A 
ATOM     70  F   UNL A   1      42.681  28.632  28.059  1.00  0.00    -0.205 F 
ATOM     71  C   UNL A   1      40.784  25.800  26.722  1.00  0.00     0.022 A 
BRANCH  69  72
ATOM     72  S   UNL A   1      42.723  27.153  25.347  1.00  0.00     0.127 S 
ATOM     73  O   UNL A   1      44.059  27.235  25.938  1.00  0.00    -0.237 OA
ATOM     74  O   UNL A   1      42.482  25.951  24.551  1.00  0.00    -0.237 OA
ATOM     75  O   UNL A   1      42.228  28.386  24.752  1.00  0.00    -0.744 OA
ENDBRANCH  69  72
ENDBRANCH  51  65
BRANCH  52  76
ATOM     76  C   UNL A   1      40.406  33.287  37.066  1.00  0.00     0.023 A 
ATOM     77  C   UNL A   1      41.258  34.397  37.228  1.00  0.00     0.012 A 
ATOM     78  C   UNL A   1      39.474  32.983  38.078  1.00  0.00     0.148 A 
ATOM     79  C   UNL A   1      41.206  35.170  38.389  1.00  0.00     0.002 A 
ATOM     80  C   UNL A   1      39.389  33.790  39.206  1.00  0.00     0.091 A 
ATOM     81  F   UNL A   1      38.683  31.913  37.913  1.00  0.00    -0.205 F 
ATOM     82  C   UNL A   1      40.265  34.873  39.372  1.00  0.00     0.022 A 
BRANCH  80  83
ATOM     83  S   UNL A   1      38.131  33.558  40.468  1.00  0.00     0.127 S 
ATOM     84  O   UNL A   1      38.707  32.481  41.269  1.00  0.00    -0.237 OA
ATOM     85  O   UNL A   1      38.113  34.870  41.117  1.00  0.00    -0.237 OA
ATOM     86  O   UNL A   1      36.909  33.226  39.749  1.00  0.00    -0.744 OA
ENDBRANCH  80  83
ENDBRANCH  52  76
BRANCH  64  87
ATOM     87  C   UNL A   1      44.684  28.123  35.092  1.00  0.00     0.023 A 
ATOM     88  C   UNL A   1      45.951  28.732  35.010  1.00  0.00     0.012 A 
ATOM     89  C   UNL A   1      44.527  26.951  35.859  1.00  0.00     0.148 A 
ATOM     90  C   UNL A   1      47.051  28.166  35.657  1.00  0.00     0.002 A 
ATOM     91  C   UNL A   1      45.616  26.423  36.542  1.00  0.00     0.091 A 
ATOM     92  F   UNL A   1      43.317  26.378  35.912  1.00  0.00    -0.205 F 
ATOM     93  C   UNL A   1      46.881  27.021  36.432  1.00  0.00     0.022 A 
BRANCH  91  94
ATOM     94  S   UNL A   1      45.471  25.011  37.645  1.00  0.00     0.127 S 
ATOM     95  O   UNL A   1      46.611  25.213  38.538  1.00  0.00    -0.237 OA
ATOM     96  O   UNL A   1      44.165  25.234  38.264  1.00  0.00    -0.237 OA
ATOM     97  O   UNL A   1      45.546  23.829  36.798  1.00  0.00    -0.744 OA
ENDBRANCH  91  94
ENDBRANCH  64  87
ENDBRANCH  38  39
ENDBRANCH  31  33
ENDBRANCH  30  31
ENDBRANCH  29  30
ENDBRANCH  28  29
ENDBRANCH  27  28
ENDBRANCH  26  27
ENDBRANCH  25  26
ENDBRANCH   1  25
TORSDOF 26
ENDMDL
MODEL 3
REMARK VINA RESULT:      -9.3      5.888     11.128
REMARK SMILES O=C(CNC(=O)OCc1ccccc1)NCC(=O)OCCOCCOCCOC(=O)c1ccc(-c2c3nc(c(-c4cccc(S(=O)(=O)[O-])c4F)c4ccc([nH]4)c(-c4cccc(S(=O)(=O)[O-])c4F)c4nc(c(-c5cccc(S(=O)(=O)[O-])c5F)c5ccc2[nH]5)C=C4)C=C3)cc1
REMARK SMILES IDX 22 1 21 2 20 3 19 4 17 5 18 6 16 7 15 8 1 9 2 10 3 12 4 13
REMARK SMILES IDX 5 14 6 16 7 17 8 18 9 19 10 20 14 21 11 22 13 23 12 24 23 25
REMARK SMILES IDX 24 26 25 27 26 28 27 29 28 30 29 31 30 32 31 33 32 34 93 35
REMARK SMILES IDX 33 36 92 37 34 38 35 39 36 40 86 41 37 42 91 43 85 44 87 45
REMARK SMILES IDX 38 46 90 47 84 48 83 49 39 51 71 52 51 53 70 54 52 55 55 56
REMARK SMILES IDX 69 57 88 58 53 59 54 60 68 62 89 63 56 64 40 65 41 66 49 67
REMARK SMILES IDX 42 68 44 69 50 70 43 71 45 72 46 73 47 74 48 75 72 76 73 77
REMARK SMILES IDX 81 78 74 79 76 80 82 81 75 82 77 83 78 84 79 85 80 86 57 87
REMARK SMILES IDX 58 88 66 89 59 90 61 91 67 92 60 93 62 94 63 95 64 96 65 97
REMARK H PARENT 15 11 4 15 87 50 55 61
REMARK Flexibility Score: inf
ROOT
ATOM      1  O   UNL A   1      30.893  28.167  24.872  1.00  0.00    -0.376 OA
ENDROOT
BRANCH   1   2
ATOM      2  C   UNL A   1      30.123  27.687  23.772  1.00  0.00     0.202 C 
BRANCH   2   3
ATOM      3  C   UNL A   1      30.710  27.773  22.350  1.00  0.00     0.261 C 
BRANCH   3   4
ATOM      4  O   UNL A   1      31.786  26.841  22.095  1.00  0.00    -0.462 OA
BRANCH   4   5
ATOM      5  C   UNL A   1      33.041  27.317  22.317  1.00  0.00     0.325 C 
ATOM      6  O   UNL A   1      33.344  28.505  22.248  1.00  0.00    -0.250 OA
BRANCH   5   7
ATOM      7  C   UNL A   1      34.034  26.268  22.848  1.00  0.00     0.238 C 
BRANCH   7   8
ATOM      8  N   UNL A   1      33.697  24.857  22.980  1.00  0.00    -0.344 N 
ATOM      9  O   UNL A   1      35.128  24.401  24.702  1.00  0.00    -0.273 OA
ATOM     10  C   UNL A   1      34.216  24.046  23.961  1.00  0.00     0.240 C 
ATOM     11  H   UNL A   1      33.066  24.465  22.334  1.00  0.00     0.164 HD
BRANCH  10  12
ATOM     12  C   UNL A   1      33.653  22.612  23.962  1.00  0.00     0.219 C 
BRANCH  12  13
ATOM     13  N   UNL A   1      33.947  21.923  25.213  1.00  0.00    -0.312 N 
ATOM     14  C   UNL A   1      33.274  20.872  25.757  1.00  0.00     0.407 C 
ATOM     15  H   UNL A   1      34.720  22.257  25.723  1.00  0.00     0.167 HD
ATOM     16  O   UNL A   1      33.593  20.445  26.862  1.00  0.00    -0.225 OA
BRANCH  14  17
ATOM     17  O   UNL A   1      32.270  20.404  24.983  1.00  0.00    -0.445 OA
BRANCH  17  18
ATOM     18  C   UNL A   1      32.678  19.549  23.901  1.00  0.00     0.270 C 
BRANCH  18  19
ATOM     19  C   UNL A   1      33.087  18.186  24.410  1.00  0.00    -0.011 A 
ATOM     20  C   UNL A   1      32.168  17.387  25.106  1.00  0.00     0.007 A 
ATOM     21  C   UNL A   1      34.389  17.704  24.215  1.00  0.00     0.007 A 
ATOM     22  C   UNL A   1      32.542  16.135  25.597  1.00  0.00     0.000 A 
ATOM     23  C   UNL A   1      34.760  16.448  24.704  1.00  0.00     0.000 A 
ATOM     24  C   UNL A   1      33.837  15.665  25.396  1.00  0.00     0.000 A 
ENDBRANCH  18  19
ENDBRANCH  17  18
ENDBRANCH  14  17
ENDBRANCH  12  13
ENDBRANCH  10  12
ENDBRANCH   7   8
ENDBRANCH   5   7
ENDBRANCH   4   5
ENDBRANCH   3   4
ENDBRANCH   2   3
ENDBRANCH   1   2
BRANCH   1  25
ATOM     25  C   UNL A   1      31.322  29.520  24.853  1.00  0.00     0.188 C 
BRANCH  25  26
ATOM     26  C   UNL A   1      31.435  30.256  26.196  1.00  0.00     0.188 C 
BRANCH  26  27
ATOM     27  O   UNL A   1      32.679  30.175  26.846  1.00  0.00    -0.376 OA
BRANCH  27  28
ATOM     28  C   UNL A   1      33.342  31.346  27.287  1.00  0.00     0.202 C 
BRANCH  28  29
ATOM     29  C   UNL A   1      32.692  32.738  27.418  1.00  0.00     0.261 C 
BRANCH  29  30
ATOM     30  O   UNL A   1      33.542  33.879  27.545  1.00  0.00    -0.460 OA
BRANCH  30  31
ATOM     31  C   UNL A   1      33.472  34.570  28.709  1.00  0.00     0.338 C 
ATOM     32  O   UNL A   1      32.543  35.254  29.098  1.00  0.00    -0.246 OA
BRANCH  31  33
ATOM     33  C   UNL A   1      34.619  34.135  29.539  1.00  0.00     0.060 A 
ATOM     34  C   UNL A   1      35.911  34.534  29.168  1.00  0.00     0.016 A 
ATOM     35  C   UNL A   1      34.416  33.377  30.694  1.00  0.00     0.016 A 
ATOM     36  C   UNL A   1      37.008  34.162  29.947  1.00  0.00     0.010 A 
ATOM     37  C   UNL A   1      35.517  32.981  31.454  1.00  0.00     0.010 A 
ATOM     38  C   UNL A   1      36.820  33.349  31.072  1.00  0.00    -0.014 A 
BRANCH  38  39
ATOM     39  C   UNL A   1      37.986  32.719  31.735  1.00  0.00     0.031 A 
ATOM     40  C   UNL A   1      38.650  31.558  31.047  1.00  0.00     0.074 A 
ATOM     41  C   UNL A   1      38.435  33.144  32.929  1.00  0.00     0.049 A 
ATOM     42  N   UNL A   1      39.627  30.795  31.461  1.00  0.00    -0.248 NA
ATOM     43  C   UNL A   1      38.133  31.205  29.713  1.00  0.00     0.031 C 
ATOM     44  C   UNL A   1      37.887  34.264  33.690  1.00  0.00     0.029 A 
ATOM     45  N   UNL A   1      39.441  32.654  33.724  1.00  0.00    -0.354 N 
ATOM     46  C   UNL A   1      39.818  29.853  30.458  1.00  0.00     0.074 A 
ATOM     47  C   UNL A   1      38.853  30.133  29.419  1.00  0.00     0.031 C 
ATOM     48  C   UNL A   1      38.541  34.353  34.863  1.00  0.00     0.029 A 
ATOM     49  C   UNL A   1      39.530  33.280  34.945  1.00  0.00     0.049 A 
ATOM     50  H   UNL A   1      40.042  31.924  33.447  1.00  0.00     0.167 HD
ATOM     51  C   UNL A   1      40.723  28.848  30.402  1.00  0.00     0.034 A 
ATOM     52  C   UNL A   1      40.300  32.997  36.016  1.00  0.00     0.034 A 
ATOM     53  C   UNL A   1      41.690  28.576  31.430  1.00  0.00     0.049 A 
ATOM     54  C   UNL A   1      41.278  31.851  35.943  1.00  0.00     0.074 A 
ATOM     55  C   UNL A   1      42.679  27.610  31.444  1.00  0.00     0.029 A 
ATOM     56  N   UNL A   1      41.780  29.259  32.631  1.00  0.00    -0.354 N 
ATOM     57  N   UNL A   1      41.525  31.036  34.946  1.00  0.00    -0.248 NA
ATOM     58  C   UNL A   1      42.107  31.604  37.134  1.00  0.00     0.031 C 
ATOM     59  C   UNL A   1      43.345  27.685  32.671  1.00  0.00     0.029 A 
ATOM     60  C   UNL A   1      42.798  28.727  33.402  1.00  0.00     0.049 A 
ATOM     61  H   UNL A   1      41.204  30.013  32.898  1.00  0.00     0.167 HD
ATOM     62  C   UNL A   1      42.564  30.212  35.371  1.00  0.00     0.074 A 
ATOM     63  C   UNL A   1      42.907  30.634  36.712  1.00  0.00     0.031 C 
ATOM     64  C   UNL A   1      43.171  29.193  34.714  1.00  0.00     0.034 A 
BRANCH  51  65
ATOM     65  C   UNL A   1      40.713  27.969  29.180  1.00  0.00     0.023 A 
ATOM     66  C   UNL A   1      39.757  26.940  29.062  1.00  0.00     0.012 A 
ATOM     67  C   UNL A   1      41.622  28.194  28.127  1.00  0.00     0.148 A 
ATOM     68  C   UNL A   1      39.727  26.126  27.930  1.00  0.00     0.002 A 
ATOM     69  C   UNL A   1      41.555  27.410  26.982  1.00  0.00     0.091 A 
ATOM     70  F   UNL A   1      42.539  29.161  28.270  1.00  0.00    -0.205 F 
ATOM     71  C   UNL A   1      40.617  26.368  26.887  1.00  0.00     0.022 A 
BRANCH  69  72
ATOM     72  S   UNL A   1      42.602  27.695  25.552  1.00  0.00     0.127 S 
ATOM     73  O   UNL A   1      42.293  26.529  24.724  1.00  0.00    -0.237 OA
ATOM     74  O   UNL A   1      42.083  28.962  25.039  1.00  0.00    -0.237 OA
ATOM     75  O   UNL A   1      43.966  27.757  26.058  1.00  0.00    -0.744 OA
ENDBRANCH  69  72
ENDBRANCH  51  65
BRANCH  52  76
ATOM     76  C   UNL A   1      40.196  33.825  37.252  1.00  0.00     0.023 A 
ATOM     77  C   UNL A   1      40.837  35.077  37.307  1.00  0.00     0.012 A 
ATOM     78  C   UNL A   1      39.462  33.379  38.369  1.00  0.00     0.148 A 
ATOM     79  C   UNL A   1      40.778  35.857  38.464  1.00  0.00     0.002 A 
ATOM     80  C   UNL A   1      39.361  34.184  39.497  1.00  0.00     0.091 A 
ATOM     81  F   UNL A   1      38.873  32.177  38.302  1.00  0.00    -0.205 F 
ATOM     82  C   UNL A   1      40.032  35.415  39.554  1.00  0.00     0.022 A 
BRANCH  80  83
ATOM     83  S   UNL A   1      38.326  33.755  40.901  1.00  0.00     0.127 S 
ATOM     84  O   UNL A   1      38.346  34.992  41.676  1.00  0.00    -0.237 OA
ATOM     85  O   UNL A   1      37.050  33.454  40.250  1.00  0.00    -0.237 OA
ATOM     86  O   UNL A   1      38.967  32.607  41.527  1.00  0.00    -0.744 OA
ENDBRANCH  80  83
ENDBRANCH  52  76
BRANCH  64  87
ATOM     87  C   UNL A   1      44.315  28.489  35.401  1.00  0.00     0.023 A 
ATOM     88  C   UNL A   1      45.646  28.835  35.095  1.00  0.00     0.012 A 
ATOM     89  C   UNL A   1      44.062  27.546  36.418  1.00  0.00     0.148 A 
ATOM     90  C   UNL A   1      46.707  28.230  35.768  1.00  0.00     0.002 A 
ATOM     91  C   UNL A   1      45.122  26.986  37.119  1.00  0.00     0.091 A 
ATOM     92  F   UNL A   1      42.790  27.219  36.684  1.00  0.00    -0.205 F 
ATOM     93  C   UNL A   1      46.446  27.317  36.787  1.00  0.00     0.022 A 
BRANCH  91  94
ATOM     94  S   UNL A   1      44.880  25.878  38.514  1.00  0.00     0.127 S 
ATOM     95  O   UNL A   1      44.800  24.578  37.850  1.00  0.00    -0.237 OA
ATOM     96  O   UNL A   1      46.098  26.092  39.294  1.00  0.00    -0.237 OA
ATOM     97  O   UNL A   1      43.656  26.319  39.169  1.00  0.00    -0.744 OA
ENDBRANCH  91  94
ENDBRANCH  64  87
ENDBRANCH  38  39
ENDBRANCH  31  33
ENDBRANCH  30  31
ENDBRANCH  29  30
ENDBRANCH  28  29
ENDBRANCH  27  28
ENDBRANCH  26  27
ENDBRANCH  25  26
ENDBRANCH   1  25
TORSDOF 26
ENDMDL
