MODEL 1
REMARK VINA RESULT:     -10.7      0.000      0.000
REMARK SMILES C[C@@H](C(=O)OCCOCCOCCOC(=O)c1ccc(-c2c3nc(c(-c4cccc(S(=O)(=O)[O-])c4F)c4ccc([nH]4)c(-c4cccc(S(=O)(=O)[O-])c4F)c4nc(c(-c5cccc(S(=O)(=O)[O-])c5F)c5ccc2[nH]5)C=C4)C=C3)cc1)c1ccc(Cc2cccs2)cc1F
REMARK SMILES IDX 9 1 8 2 7 3 6 4 5 5 3 6 4 7 2 8 1 9 80 10 81 11 91 12 82 13
REMARK SMILES IDX 90 14 92 15 83 16 84 17 85 18 86 19 89 20 87 21 88 22 10 23
REMARK SMILES IDX 11 24 12 25 13 26 14 27 15 28 16 29 17 30 18 31 79 32 19 33
REMARK SMILES IDX 78 34 20 35 21 36 22 37 72 38 23 39 77 40 71 41 73 42 24 43
REMARK SMILES IDX 76 44 70 45 69 46 25 48 57 49 37 50 56 51 38 52 41 53 55 54
REMARK SMILES IDX 74 55 39 56 40 57 54 59 75 60 42 61 26 62 27 63 35 64 28 65
REMARK SMILES IDX 30 66 36 67 29 68 31 69 32 70 33 71 34 72 58 73 59 74 67 75
REMARK SMILES IDX 60 76 62 77 68 78 61 79 63 80 64 81 65 82 66 83 43 84 44 85
REMARK SMILES IDX 52 86 45 87 47 88 53 89 46 90 48 91 49 92 50 93 51 94
REMARK H PARENT 73 47 41 58
REMARK Flexibility Score: inf
ROOT
ATOM      1  C   UNL A   1      40.209  22.274  27.218  1.00  0.00     0.188 C 
ENDROOT
BRANCH   1   2
ATOM      2  O   UNL A   1      39.386  22.758  26.160  1.00  0.00    -0.376 OA
BRANCH   2   3
ATOM      3  C   UNL A   1      38.311  21.944  25.704  1.00  0.00     0.202 C 
BRANCH   3   4
ATOM      4  C   UNL A   1      36.973  22.632  25.406  1.00  0.00     0.261 C 
BRANCH   4   5
ATOM      5  O   UNL A   1      36.138  21.910  24.475  1.00  0.00    -0.463 OA
BRANCH   5   6
ATOM      6  C   UNL A   1      35.568  22.663  23.497  1.00  0.00     0.313 C 
ATOM      7  O   UNL A   1      36.145  22.981  22.460  1.00  0.00    -0.252 OA
BRANCH   6   8
ATOM      8  C   UNL A   1      34.111  23.066  23.775  1.00  0.00     0.129 C 
ATOM      9  C   UNL A   1      33.066  22.160  23.116  1.00  0.00     0.025 C 
BRANCH   8  10
ATOM     10  C   UNL A   1      33.901  24.578  23.701  1.00  0.00     0.002 A 
ATOM     11  C   UNL A   1      33.571  25.139  22.453  1.00  0.00     0.008 A 
ATOM     12  C   UNL A   1      34.046  25.467  24.773  1.00  0.00     0.127 A 
ATOM     13  C   UNL A   1      33.376  26.514  22.291  1.00  0.00     0.004 A 
ATOM     14  C   UNL A   1      33.881  26.850  24.613  1.00  0.00     0.043 A 
ATOM     15  F   UNL A   1      34.344  25.021  26.001  1.00  0.00    -0.207 F 
ATOM     16  C   UNL A   1      33.529  27.389  23.371  1.00  0.00    -0.040 A 
BRANCH  16  17
ATOM     17  C   UNL A   1      33.323  28.880  23.185  1.00  0.00     0.082 C 
BRANCH  17  18
ATOM     18  C   UNL A   1      31.876  29.277  23.065  1.00  0.00     0.009 A 
ATOM     19  C   UNL A   1      31.110  29.442  21.925  1.00  0.00     0.016 A 
ATOM     20  S   UNL A   1      30.939  29.524  24.481  1.00  0.00    -0.149 S 
ATOM     21  C   UNL A   1      29.754  29.768  22.220  1.00  0.00     0.012 A 
ATOM     22  C   UNL A   1      29.524  29.832  23.575  1.00  0.00     0.065 A 
ENDBRANCH  17  18
ENDBRANCH  16  17
ENDBRANCH   8  10
ENDBRANCH   6   8
ENDBRANCH   5   6
ENDBRANCH   4   5
ENDBRANCH   3   4
ENDBRANCH   2   3
ENDBRANCH   1   2
BRANCH   1  23
ATOM     23  C   UNL A   1      41.425  21.406  26.854  1.00  0.00     0.188 C 
BRANCH  23  24
ATOM     24  O   UNL A   1      41.961  21.661  25.569  1.00  0.00    -0.376 OA
BRANCH  24  25
ATOM     25  C   UNL A   1      43.373  21.608  25.445  1.00  0.00     0.202 C 
BRANCH  25  26
ATOM     26  C   UNL A   1      44.029  22.671  24.551  1.00  0.00     0.261 C 
BRANCH  26  27
ATOM     27  O   UNL A   1      43.464  23.991  24.631  1.00  0.00    -0.460 OA
BRANCH  27  28
ATOM     28  C   UNL A   1      44.259  24.977  25.090  1.00  0.00     0.338 C 
ATOM     29  O   UNL A   1      45.324  25.350  24.600  1.00  0.00    -0.246 OA
BRANCH  28  30
ATOM     30  C   UNL A   1      43.537  25.679  26.166  1.00  0.00     0.060 A 
ATOM     31  C   UNL A   1      43.721  27.060  26.323  1.00  0.00     0.016 A 
ATOM     32  C   UNL A   1      42.671  24.983  27.014  1.00  0.00     0.016 A 
ATOM     33  C   UNL A   1      43.050  27.743  27.337  1.00  0.00     0.010 A 
ATOM     34  C   UNL A   1      42.016  25.667  28.043  1.00  0.00     0.010 A 
ATOM     35  C   UNL A   1      42.219  27.047  28.223  1.00  0.00    -0.014 A 
BRANCH  35  36
ATOM     36  C   UNL A   1      41.709  27.731  29.436  1.00  0.00     0.031 A 
ATOM     37  C   UNL A   1      40.363  28.397  29.369  1.00  0.00     0.074 A 
ATOM     38  C   UNL A   1      42.412  27.745  30.584  1.00  0.00     0.049 A 
ATOM     39  N   UNL A   1      39.742  29.107  30.274  1.00  0.00    -0.248 NA
ATOM     40  C   UNL A   1      39.615  28.237  28.110  1.00  0.00     0.031 C 
ATOM     41  C   UNL A   1      43.710  27.106  30.790  1.00  0.00     0.029 A 
ATOM     42  N   UNL A   1      42.131  28.338  31.790  1.00  0.00    -0.354 N 
ATOM     43  C   UNL A   1      38.549  29.507  29.685  1.00  0.00     0.074 A 
ATOM     44  C   UNL A   1      38.531  28.958  28.346  1.00  0.00     0.031 C 
ATOM     45  C   UNL A   1      44.127  27.365  32.042  1.00  0.00     0.029 A 
ATOM     46  C   UNL A   1      43.145  28.217  32.712  1.00  0.00     0.049 A 
ATOM     47  H   UNL A   1      41.286  28.806  31.978  1.00  0.00     0.167 HD
ATOM     48  C   UNL A   1      37.552  30.257  30.211  1.00  0.00     0.034 A 
ATOM     49  C   UNL A   1      43.276  28.758  33.941  1.00  0.00     0.034 A 
ATOM     50  C   UNL A   1      37.562  30.794  31.543  1.00  0.00     0.049 A 
ATOM     51  C   UNL A   1      42.173  29.631  34.487  1.00  0.00     0.074 A 
ATOM     52  C   UNL A   1      36.596  31.563  32.167  1.00  0.00     0.029 A 
ATOM     53  N   UNL A   1      38.591  30.627  32.455  1.00  0.00    -0.354 N 
ATOM     54  N   UNL A   1      41.019  29.943  33.947  1.00  0.00    -0.248 NA
ATOM     55  C   UNL A   1      42.382  30.214  35.822  1.00  0.00     0.031 C 
ATOM     56  C   UNL A   1      37.054  31.882  33.450  1.00  0.00     0.029 A 
ATOM     57  C   UNL A   1      38.290  31.286  33.634  1.00  0.00     0.049 A 
ATOM     58  H   UNL A   1      39.416  30.115  32.289  1.00  0.00     0.167 HD
ATOM     59  C   UNL A   1      40.355  30.728  34.886  1.00  0.00     0.074 A 
ATOM     60  C   UNL A   1      41.227  30.827  36.038  1.00  0.00     0.031 C 
ATOM     61  C   UNL A   1      39.142  31.329  34.795  1.00  0.00     0.034 A 
BRANCH  48  62
ATOM     62  C   UNL A   1      36.363  30.539  29.333  1.00  0.00     0.023 A 
ATOM     63  C   UNL A   1      35.742  29.482  28.637  1.00  0.00     0.012 A 
ATOM     64  C   UNL A   1      35.844  31.842  29.222  1.00  0.00     0.148 A 
ATOM     65  C   UNL A   1      34.640  29.726  27.818  1.00  0.00     0.002 A 
ATOM     66  C   UNL A   1      34.720  32.070  28.439  1.00  0.00     0.091 A 
ATOM     67  F   UNL A   1      36.467  32.836  29.872  1.00  0.00    -0.205 F 
ATOM     68  C   UNL A   1      34.124  31.016  27.727  1.00  0.00     0.022 A 
BRANCH  66  69
ATOM     69  S   UNL A   1      33.940  33.683  28.315  1.00  0.00     0.127 S 
ATOM     70  O   UNL A   1      34.924  34.428  27.531  1.00  0.00    -0.237 OA
ATOM     71  O   UNL A   1      32.701  33.371  27.601  1.00  0.00    -0.237 OA
ATOM     72  O   UNL A   1      33.751  34.144  29.683  1.00  0.00    -0.744 OA
ENDBRANCH  66  69
ENDBRANCH  48  62
BRANCH  49  73
ATOM     73  C   UNL A   1      44.501  28.493  34.749  1.00  0.00     0.023 A 
ATOM     74  C   UNL A   1      45.639  29.306  34.578  1.00  0.00     0.012 A 
ATOM     75  C   UNL A   1      44.547  27.439  35.681  1.00  0.00     0.148 A 
ATOM     76  C   UNL A   1      46.807  29.056  35.300  1.00  0.00     0.002 A 
ATOM     77  C   UNL A   1      45.692  27.231  36.439  1.00  0.00     0.091 A 
ATOM     78  F   UNL A   1      43.464  26.659  35.812  1.00  0.00    -0.205 F 
ATOM     79  C   UNL A   1      46.830  28.027  36.237  1.00  0.00     0.022 A 
BRANCH  77  80
ATOM     80  S   UNL A   1      45.766  26.015  37.759  1.00  0.00     0.127 S 
ATOM     81  O   UNL A   1      47.168  26.097  38.163  1.00  0.00    -0.237 OA
ATOM     82  O   UNL A   1      44.813  26.562  38.724  1.00  0.00    -0.237 OA
ATOM     83  O   UNL A   1      45.354  24.756  37.155  1.00  0.00    -0.744 OA
ENDBRANCH  77  80
ENDBRANCH  49  73
BRANCH  61  84
ATOM     84  C   UNL A   1      38.656  32.121  35.983  1.00  0.00     0.023 A 
ATOM     85  C   UNL A   1      38.832  33.519  36.013  1.00  0.00     0.012 A 
ATOM     86  C   UNL A   1      37.948  31.491  37.026  1.00  0.00     0.148 A 
ATOM     87  C   UNL A   1      38.336  34.273  37.077  1.00  0.00     0.002 A 
ATOM     88  C   UNL A   1      37.414  32.256  38.058  1.00  0.00     0.091 A 
ATOM     89  F   UNL A   1      37.805  30.158  36.988  1.00  0.00    -0.205 F 
ATOM     90  C   UNL A   1      37.618  33.644  38.091  1.00  0.00     0.022 A 
BRANCH  88  91
ATOM     91  S   UNL A   1      36.393  31.544  39.354  1.00  0.00     0.127 S 
ATOM     92  O   UNL A   1      35.206  32.397  39.301  1.00  0.00    -0.237 OA
ATOM     93  O   UNL A   1      36.185  30.179  38.872  1.00  0.00    -0.237 OA
ATOM     94  O   UNL A   1      37.176  31.640  40.579  1.00  0.00    -0.744 OA
ENDBRANCH  88  91
ENDBRANCH  61  84
ENDBRANCH  35  36
ENDBRANCH  28  30
ENDBRANCH  27  28
ENDBRANCH  26  27
ENDBRANCH  25  26
ENDBRANCH  24  25
ENDBRANCH  23  24
ENDBRANCH   1  23
TORSDOF 23
ENDMDL
MODEL 2
REMARK VINA RESULT:     -10.4      2.965      8.098
REMARK SMILES C[C@@H](C(=O)OCCOCCOCCOC(=O)c1ccc(-c2c3nc(c(-c4cccc(S(=O)(=O)[O-])c4F)c4ccc([nH]4)c(-c4cccc(S(=O)(=O)[O-])c4F)c4nc(c(-c5cccc(S(=O)(=O)[O-])c5F)c5ccc2[nH]5)C=C4)C=C3)cc1)c1ccc(Cc2cccs2)cc1F
REMARK SMILES IDX 9 1 8 2 7 3 6 4 5 5 3 6 4 7 2 8 1 9 80 10 81 11 91 12 82 13
REMARK SMILES IDX 90 14 92 15 83 16 84 17 85 18 86 19 89 20 87 21 88 22 10 23
REMARK SMILES IDX 11 24 12 25 13 26 14 27 15 28 16 29 17 30 18 31 79 32 19 33
REMARK SMILES IDX 78 34 20 35 21 36 22 37 72 38 23 39 77 40 71 41 73 42 24 43
REMARK SMILES IDX 76 44 70 45 69 46 25 48 57 49 37 50 56 51 38 52 41 53 55 54
REMARK SMILES IDX 74 55 39 56 40 57 54 59 75 60 42 61 26 62 27 63 35 64 28 65
REMARK SMILES IDX 30 66 36 67 29 68 31 69 32 70 33 71 34 72 58 73 59 74 67 75
REMARK SMILES IDX 60 76 62 77 68 78 61 79 63 80 64 81 65 82 66 83 43 84 44 85
REMARK SMILES IDX 52 86 45 87 47 88 53 89 46 90 48 91 49 92 50 93 51 94
REMARK H PARENT 73 47 41 58
REMARK Flexibility Score: inf
ROOT
ATOM      1  C   UNL A   1      34.019  28.139  26.346  1.00  0.00     0.188 C 
ENDROOT
BRANCH   1   2
ATOM      2  O   UNL A   1      33.838  27.003  25.505  1.00  0.00    -0.376 OA
BRANCH   2   3
ATOM      3  C   UNL A   1      33.416  25.777  26.095  1.00  0.00     0.202 C 
BRANCH   3   4
ATOM      4  C   UNL A   1      33.851  24.472  25.416  1.00  0.00     0.261 C 
BRANCH   4   5
ATOM      5  O   UNL A   1      33.015  24.082  24.306  1.00  0.00    -0.463 OA
BRANCH   5   6
ATOM      6  C   UNL A   1      33.522  24.347  23.073  1.00  0.00     0.313 C 
ATOM      7  O   UNL A   1      34.683  24.103  22.748  1.00  0.00    -0.252 OA
BRANCH   6   8
ATOM      8  C   UNL A   1      32.511  24.953  22.087  1.00  0.00     0.129 C 
ATOM      9  C   UNL A   1      32.910  24.831  20.613  1.00  0.00     0.025 C 
BRANCH   8  10
ATOM     10  C   UNL A   1      31.955  26.291  22.573  1.00  0.00     0.002 A 
ATOM     11  C   UNL A   1      30.645  26.315  23.087  1.00  0.00     0.008 A 
ATOM     12  C   UNL A   1      32.633  27.515  22.519  1.00  0.00     0.127 A 
ATOM     13  C   UNL A   1      30.052  27.497  23.541  1.00  0.00     0.004 A 
ATOM     14  C   UNL A   1      32.035  28.709  22.944  1.00  0.00     0.043 A 
ATOM     15  F   UNL A   1      33.889  27.586  22.060  1.00  0.00    -0.207 F 
ATOM     16  C   UNL A   1      30.740  28.712  23.475  1.00  0.00    -0.040 A 
BRANCH  16  17
ATOM     17  C   UNL A   1      30.087  29.991  23.962  1.00  0.00     0.082 C 
BRANCH  17  18
ATOM     18  C   UNL A   1      29.310  30.714  22.895  1.00  0.00     0.009 A 
ATOM     19  C   UNL A   1      29.258  30.466  21.535  1.00  0.00     0.016 A 
ATOM     20  S   UNL A   1      28.263  32.003  23.329  1.00  0.00    -0.149 S 
ATOM     21  C   UNL A   1      28.356  31.334  20.854  1.00  0.00     0.012 A 
ATOM     22  C   UNL A   1      27.739  32.211  21.716  1.00  0.00     0.065 A 
ENDBRANCH  17  18
ENDBRANCH  16  17
ENDBRANCH   8  10
ENDBRANCH   6   8
ENDBRANCH   5   6
ENDBRANCH   4   5
ENDBRANCH   3   4
ENDBRANCH   2   3
ENDBRANCH   1   2
BRANCH   1  23
ATOM     23  C   UNL A   1      32.909  28.482  27.354  1.00  0.00     0.188 C 
BRANCH  23  24
ATOM     24  O   UNL A   1      32.043  29.521  26.937  1.00  0.00    -0.376 OA
BRANCH  24  25
ATOM     25  C   UNL A   1      32.653  30.737  26.537  1.00  0.00     0.202 C 
BRANCH  25  26
ATOM     26  C   UNL A   1      33.253  31.609  27.650  1.00  0.00     0.261 C 
BRANCH  26  27
ATOM     27  O   UNL A   1      33.401  33.005  27.340  1.00  0.00    -0.460 OA
BRANCH  27  28
ATOM     28  C   UNL A   1      33.422  33.869  28.374  1.00  0.00     0.338 C 
ATOM     29  O   UNL A   1      32.564  34.708  28.648  1.00  0.00    -0.246 OA
BRANCH  28  30
ATOM     30  C   UNL A   1      34.552  33.507  29.247  1.00  0.00     0.060 A 
ATOM     31  C   UNL A   1      35.842  33.943  28.910  1.00  0.00     0.016 A 
ATOM     32  C   UNL A   1      34.344  32.748  30.402  1.00  0.00     0.016 A 
ATOM     33  C   UNL A   1      36.925  33.608  29.721  1.00  0.00     0.010 A 
ATOM     34  C   UNL A   1      35.436  32.396  31.202  1.00  0.00     0.010 A 
ATOM     35  C   UNL A   1      36.735  32.807  30.854  1.00  0.00    -0.014 A 
BRANCH  35  36
ATOM     36  C   UNL A   1      37.915  32.256  31.564  1.00  0.00     0.031 A 
ATOM     37  C   UNL A   1      38.674  31.128  30.923  1.00  0.00     0.074 A 
ATOM     38  C   UNL A   1      38.326  32.760  32.743  1.00  0.00     0.049 A 
ATOM     39  N   UNL A   1      39.691  30.446  31.379  1.00  0.00    -0.248 NA
ATOM     40  C   UNL A   1      38.223  30.715  29.582  1.00  0.00     0.031 C 
ATOM     41  C   UNL A   1      37.701  33.876  33.450  1.00  0.00     0.029 A 
ATOM     42  N   UNL A   1      39.361  32.378  33.560  1.00  0.00    -0.354 N 
ATOM     43  C   UNL A   1      39.981  29.503  30.400  1.00  0.00     0.074 A 
ATOM     44  C   UNL A   1      39.035  29.702  29.324  1.00  0.00     0.031 C 
ATOM     45  C   UNL A   1      38.351  34.071  34.612  1.00  0.00     0.029 A 
ATOM     46  C   UNL A   1      39.412  33.074  34.745  1.00  0.00     0.049 A 
ATOM     47  H   UNL A   1      40.007  31.674  33.321  1.00  0.00     0.167 HD
ATOM     48  C   UNL A   1      40.952  28.560  30.393  1.00  0.00     0.034 A 
ATOM     49  C   UNL A   1      40.203  32.901  35.824  1.00  0.00     0.034 A 
ATOM     50  C   UNL A   1      41.900  28.366  31.455  1.00  0.00     0.049 A 
ATOM     51  C   UNL A   1      41.246  31.811  35.812  1.00  0.00     0.074 A 
ATOM     52  C   UNL A   1      42.923  27.439  31.536  1.00  0.00     0.029 A 
ATOM     53  N   UNL A   1      41.938  29.107  32.625  1.00  0.00    -0.354 N 
ATOM     54  N   UNL A   1      41.556  30.973  34.852  1.00  0.00    -0.248 NA
ATOM     55  C   UNL A   1      42.062  31.654  37.027  1.00  0.00     0.031 C 
ATOM     56  C   UNL A   1      43.565  27.603  32.768  1.00  0.00     0.029 A 
ATOM     57  C   UNL A   1      42.960  28.653  33.439  1.00  0.00     0.049 A 
ATOM     58  H   UNL A   1      41.327  29.847  32.845  1.00  0.00     0.167 HD
ATOM     59  C   UNL A   1      42.620  30.214  35.334  1.00  0.00     0.074 A 
ATOM     60  C   UNL A   1      42.916  30.707  36.663  1.00  0.00     0.031 C 
ATOM     61  C   UNL A   1      43.280  29.190  34.738  1.00  0.00     0.034 A 
BRANCH  48  62
ATOM     62  C   UNL A   1      41.033  27.662  29.188  1.00  0.00     0.023 A 
ATOM     63  C   UNL A   1      40.264  26.481  29.143  1.00  0.00     0.012 A 
ATOM     64  C   UNL A   1      41.845  28.003  28.089  1.00  0.00     0.148 A 
ATOM     65  C   UNL A   1      40.329  25.637  28.034  1.00  0.00     0.002 A 
ATOM     66  C   UNL A   1      41.870  27.179  26.972  1.00  0.00     0.091 A 
ATOM     67  F   UNL A   1      42.588  29.117  28.166  1.00  0.00    -0.205 F 
ATOM     68  C   UNL A   1      41.122  25.990  26.947  1.00  0.00     0.022 A 
BRANCH  66  69
ATOM     69  S   UNL A   1      42.806  27.585  25.494  1.00  0.00     0.127 S 
ATOM     70  O   UNL A   1      44.170  27.652  26.017  1.00  0.00    -0.237 OA
ATOM     71  O   UNL A   1      42.539  26.432  24.634  1.00  0.00    -0.237 OA
ATOM     72  O   UNL A   1      42.261  28.845  25.006  1.00  0.00    -0.744 OA
ENDBRANCH  66  69
ENDBRANCH  48  62
BRANCH  49  73
ATOM     73  C   UNL A   1      40.044  33.783  37.018  1.00  0.00     0.023 A 
ATOM     74  C   UNL A   1      38.995  33.543  37.927  1.00  0.00     0.012 A 
ATOM     75  C   UNL A   1      40.923  34.857  37.253  1.00  0.00     0.148 A 
ATOM     76  C   UNL A   1      38.809  34.375  39.032  1.00  0.00     0.002 A 
ATOM     77  C   UNL A   1      40.767  35.646  38.386  1.00  0.00     0.091 A 
ATOM     78  F   UNL A   1      41.899  35.086  36.363  1.00  0.00    -0.205 F 
ATOM     79  C   UNL A   1      39.700  35.418  39.268  1.00  0.00     0.022 A 
BRANCH  77  80
ATOM     80  S   UNL A   1      41.943  36.927  38.836  1.00  0.00     0.127 S 
ATOM     81  O   UNL A   1      42.786  36.232  39.806  1.00  0.00    -0.237 OA
ATOM     82  O   UNL A   1      42.585  37.209  37.552  1.00  0.00    -0.237 OA
ATOM     83  O   UNL A   1      41.145  38.024  39.363  1.00  0.00    -0.744 OA
ENDBRANCH  77  80
ENDBRANCH  49  73
BRANCH  61  84
ATOM     84  C   UNL A   1      44.416  28.546  35.493  1.00  0.00     0.023 A 
ATOM     85  C   UNL A   1      45.731  29.017  35.316  1.00  0.00     0.012 A 
ATOM     86  C   UNL A   1      44.165  27.537  36.445  1.00  0.00     0.148 A 
ATOM     87  C   UNL A   1      46.784  28.473  36.051  1.00  0.00     0.002 A 
ATOM     88  C   UNL A   1      45.212  27.034  37.209  1.00  0.00     0.091 A 
ATOM     89  F   UNL A   1      42.909  27.091  36.588  1.00  0.00    -0.205 F 
ATOM     90  C   UNL A   1      46.524  27.492  37.005  1.00  0.00     0.022 A 
BRANCH  88  91
ATOM     91  S   UNL A   1      44.955  25.839  38.526  1.00  0.00     0.127 S 
ATOM     92  O   UNL A   1      44.181  26.619  39.490  1.00  0.00    -0.237 OA
ATOM     93  O   UNL A   1      44.200  24.785  37.847  1.00  0.00    -0.237 OA
ATOM     94  O   UNL A   1      46.284  25.439  38.970  1.00  0.00    -0.744 OA
ENDBRANCH  88  91
ENDBRANCH  61  84
ENDBRANCH  35  36
ENDBRANCH  28  30
ENDBRANCH  27  28
ENDBRANCH  26  27
ENDBRANCH  25  26
ENDBRANCH  24  25
ENDBRANCH  23  24
ENDBRANCH   1  23
TORSDOF 23
ENDMDL
MODEL 3
REMARK VINA RESULT:      -9.9      4.595     11.614
REMARK SMILES C[C@@H](C(=O)OCCOCCOCCOC(=O)c1ccc(-c2c3nc(c(-c4cccc(S(=O)(=O)[O-])c4F)c4ccc([nH]4)c(-c4cccc(S(=O)(=O)[O-])c4F)c4nc(c(-c5cccc(S(=O)(=O)[O-])c5F)c5ccc2[nH]5)C=C4)C=C3)cc1)c1ccc(Cc2cccs2)cc1F
REMARK SMILES IDX 9 1 8 2 7 3 6 4 5 5 3 6 4 7 2 8 1 9 80 10 81 11 91 12 82 13
REMARK SMILES IDX 90 14 92 15 83 16 84 17 85 18 86 19 89 20 87 21 88 22 10 23
REMARK SMILES IDX 11 24 12 25 13 26 14 27 15 28 16 29 17 30 18 31 79 32 19 33
REMARK SMILES IDX 78 34 20 35 21 36 22 37 72 38 23 39 77 40 71 41 73 42 24 43
REMARK SMILES IDX 76 44 70 45 69 46 25 48 57 49 37 50 56 51 38 52 41 53 55 54
REMARK SMILES IDX 74 55 39 56 40 57 54 59 75 60 42 61 26 62 27 63 35 64 28 65
REMARK SMILES IDX 30 66 36 67 29 68 31 69 32 70 33 71 34 72 58 73 59 74 67 75
REMARK SMILES IDX 60 76 62 77 68 78 61 79 63 80 64 81 65 82 66 83 43 84 44 85
REMARK SMILES IDX 52 86 45 87 47 88 53 89 46 90 48 91 49 92 50 93 51 94
REMARK H PARENT 73 47 41 58
REMARK Flexibility Score: inf
ROOT
ATOM      1  C   UNL A   1      33.708  35.202  31.399  1.00  0.00     0.188 C 
ENDROOT
BRANCH   1   2
ATOM      2  O   UNL A   1      34.042  33.855  31.721  1.00  0.00    -0.376 OA
BRANCH   2   3
ATOM      3  C   UNL A   1      34.179  33.495  33.092  1.00  0.00     0.202 C 
BRANCH   3   4
ATOM      4  C   UNL A   1      35.486  32.818  33.524  1.00  0.00     0.261 C 
BRANCH   4   5
ATOM      5  O   UNL A   1      36.559  32.949  32.566  1.00  0.00    -0.463 OA
BRANCH   5   6
ATOM      6  C   UNL A   1      37.220  34.137  32.590  1.00  0.00     0.313 C 
ATOM      7  O   UNL A   1      37.351  34.821  33.603  1.00  0.00    -0.252 OA
BRANCH   6   8
ATOM      8  C   UNL A   1      37.831  34.551  31.242  1.00  0.00     0.129 C 
ATOM      9  C   UNL A   1      36.943  34.263  30.028  1.00  0.00     0.025 C 
BRANCH   8  10
ATOM     10  C   UNL A   1      39.316  34.203  31.146  1.00  0.00     0.002 A 
ATOM     11  C   UNL A   1      39.785  33.635  29.947  1.00  0.00     0.008 A 
ATOM     12  C   UNL A   1      40.253  34.371  32.172  1.00  0.00     0.127 A 
ATOM     13  C   UNL A   1      41.125  33.273  29.777  1.00  0.00     0.004 A 
ATOM     14  C   UNL A   1      41.592  33.984  32.021  1.00  0.00     0.043 A 
ATOM     15  F   UNL A   1      39.900  34.918  33.343  1.00  0.00    -0.207 F 
ATOM     16  C   UNL A   1      42.048  33.442  30.814  1.00  0.00    -0.040 A 
BRANCH  16  17
ATOM     17  C   UNL A   1      43.497  33.041  30.624  1.00  0.00     0.082 C 
BRANCH  17  18
ATOM     18  C   UNL A   1      43.755  32.307  29.336  1.00  0.00     0.009 A 
ATOM     19  C   UNL A   1      44.432  32.737  28.209  1.00  0.00     0.016 A 
ATOM     20  S   UNL A   1      43.232  30.682  29.161  1.00  0.00    -0.149 S 
ATOM     21  C   UNL A   1      44.521  31.728  27.206  1.00  0.00     0.012 A 
ATOM     22  C   UNL A   1      43.919  30.556  27.602  1.00  0.00     0.065 A 
ENDBRANCH  17  18
ENDBRANCH  16  17
ENDBRANCH   8  10
ENDBRANCH   6   8
ENDBRANCH   5   6
ENDBRANCH   4   5
ENDBRANCH   3   4
ENDBRANCH   2   3
ENDBRANCH   1   2
BRANCH   1  23
ATOM     23  C   UNL A   1      32.965  35.471  30.079  1.00  0.00     0.188 C 
BRANCH  23  24
ATOM     24  O   UNL A   1      33.705  35.151  28.917  1.00  0.00    -0.376 OA
BRANCH  24  25
ATOM     25  C   UNL A   1      33.308  33.988  28.208  1.00  0.00     0.202 C 
BRANCH  25  26
ATOM     26  C   UNL A   1      34.369  32.893  28.027  1.00  0.00     0.261 C 
BRANCH  26  27
ATOM     27  O   UNL A   1      33.953  31.558  28.364  1.00  0.00    -0.460 OA
BRANCH  27  28
ATOM     28  C   UNL A   1      34.466  30.547  27.634  1.00  0.00     0.338 C 
ATOM     29  O   UNL A   1      34.040  30.128  26.559  1.00  0.00    -0.246 OA
BRANCH  28  30
ATOM     30  C   UNL A   1      35.751  30.155  28.240  1.00  0.00     0.060 A 
ATOM     31  C   UNL A   1      36.922  30.246  27.475  1.00  0.00     0.016 A 
ATOM     32  C   UNL A   1      35.807  29.710  29.564  1.00  0.00     0.016 A 
ATOM     33  C   UNL A   1      38.147  29.877  28.029  1.00  0.00     0.010 A 
ATOM     34  C   UNL A   1      37.034  29.321  30.109  1.00  0.00     0.010 A 
ATOM     35  C   UNL A   1      38.208  29.383  29.337  1.00  0.00    -0.014 A 
BRANCH  35  36
ATOM     36  C   UNL A   1      39.466  28.767  29.827  1.00  0.00     0.031 A 
ATOM     37  C   UNL A   1      40.113  29.344  31.055  1.00  0.00     0.074 A 
ATOM     38  C   UNL A   1      40.014  27.703  29.213  1.00  0.00     0.049 A 
ATOM     39  N   UNL A   1      41.240  29.019  31.630  1.00  0.00    -0.248 NA
ATOM     40  C   UNL A   1      39.385  30.434  31.728  1.00  0.00     0.031 C 
ATOM     41  C   UNL A   1      39.467  27.029  28.037  1.00  0.00     0.029 A 
ATOM     42  N   UNL A   1      41.171  27.016  29.489  1.00  0.00    -0.354 N 
ATOM     43  C   UNL A   1      41.376  29.884  32.709  1.00  0.00     0.074 A 
ATOM     44  C   UNL A   1      40.214  30.746  32.712  1.00  0.00     0.031 C 
ATOM     45  C   UNL A   1      40.304  26.039  27.676  1.00  0.00     0.029 A 
ATOM     46  C   UNL A   1      41.460  26.034  28.571  1.00  0.00     0.049 A 
ATOM     47  H   UNL A   1      41.739  27.208  30.270  1.00  0.00     0.167 HD
ATOM     48  C   UNL A   1      42.373  29.951  33.622  1.00  0.00     0.034 A 
ATOM     49  C   UNL A   1      42.549  25.246  28.450  1.00  0.00     0.034 A 
ATOM     50  C   UNL A   1      43.523  29.090  33.629  1.00  0.00     0.049 A 
ATOM     51  C   UNL A   1      43.671  25.374  29.452  1.00  0.00     0.074 A 
ATOM     52  C   UNL A   1      44.584  29.080  34.516  1.00  0.00     0.029 A 
ATOM     53  N   UNL A   1      43.767  28.090  32.701  1.00  0.00    -0.354 N 
ATOM     54  N   UNL A   1      43.753  26.147  30.508  1.00  0.00    -0.248 NA
ATOM     55  C   UNL A   1      44.843  24.506  29.255  1.00  0.00     0.031 C 
ATOM     56  C   UNL A   1      45.484  28.089  34.109  1.00  0.00     0.029 A 
ATOM     57  C   UNL A   1      44.967  27.463  32.987  1.00  0.00     0.049 A 
ATOM     58  H   UNL A   1      43.175  27.861  31.949  1.00  0.00     0.167 HD
ATOM     59  C   UNL A   1      44.967  25.837  31.117  1.00  0.00     0.074 A 
ATOM     60  C   UNL A   1      45.575  24.790  30.323  1.00  0.00     0.031 C 
ATOM     61  C   UNL A   1      45.535  26.383  32.221  1.00  0.00     0.034 A 
BRANCH  48  62
ATOM     62  C   UNL A   1      42.258  31.002  34.693  1.00  0.00     0.023 A 
ATOM     63  C   UNL A   1      41.355  30.816  35.760  1.00  0.00     0.012 A 
ATOM     64  C   UNL A   1      43.064  32.155  34.660  1.00  0.00     0.148 A 
ATOM     65  C   UNL A   1      41.235  31.781  36.761  1.00  0.00     0.002 A 
ATOM     66  C   UNL A   1      42.969  33.090  35.683  1.00  0.00     0.091 A 
ATOM     67  F   UNL A   1      43.896  32.323  33.622  1.00  0.00    -0.205 F 
ATOM     68  C   UNL A   1      42.047  32.910  36.727  1.00  0.00     0.022 A 
BRANCH  66  69
ATOM     69  S   UNL A   1      44.024  34.541  35.765  1.00  0.00     0.127 S 
ATOM     70  O   UNL A   1      43.168  35.562  35.162  1.00  0.00    -0.237 OA
ATOM     71  O   UNL A   1      44.229  34.691  37.206  1.00  0.00    -0.237 OA
ATOM     72  O   UNL A   1      45.226  34.208  35.013  1.00  0.00    -0.744 OA
ENDBRANCH  66  69
ENDBRANCH  48  62
BRANCH  49  73
ATOM     73  C   UNL A   1      42.639  24.259  27.335  1.00  0.00     0.023 A 
ATOM     74  C   UNL A   1      43.342  24.594  26.162  1.00  0.00     0.012 A 
ATOM     75  C   UNL A   1      42.029  22.994  27.431  1.00  0.00     0.148 A 
ATOM     76  C   UNL A   1      43.412  23.698  25.094  1.00  0.00     0.002 A 
ATOM     77  C   UNL A   1      42.151  22.084  26.387  1.00  0.00     0.091 A 
ATOM     78  F   UNL A   1      41.341  22.702  28.544  1.00  0.00    -0.205 F 
ATOM     79  C   UNL A   1      42.826  22.441  25.210  1.00  0.00     0.022 A 
BRANCH  77  80
ATOM     80  S   UNL A   1      41.541  20.398  26.504  1.00  0.00     0.127 S 
ATOM     81  O   UNL A   1      40.098  20.594  26.402  1.00  0.00    -0.237 OA
ATOM     82  O   UNL A   1      42.163  19.774  25.336  1.00  0.00    -0.237 OA
ATOM     83  O   UNL A   1      42.024  19.894  27.782  1.00  0.00    -0.744 OA
ENDBRANCH  77  80
ENDBRANCH  49  73
BRANCH  61  84
ATOM     84  C   UNL A   1      46.868  25.840  32.671  1.00  0.00     0.023 A 
ATOM     85  C   UNL A   1      46.923  24.871  33.691  1.00  0.00     0.012 A 
ATOM     86  C   UNL A   1      48.057  26.226  32.019  1.00  0.00     0.148 A 
ATOM     87  C   UNL A   1      48.143  24.316  34.077  1.00  0.00     0.002 A 
ATOM     88  C   UNL A   1      49.263  25.633  32.377  1.00  0.00     0.091 A 
ATOM     89  F   UNL A   1      47.987  27.162  31.062  1.00  0.00    -0.205 F 
ATOM     90  C   UNL A   1      49.310  24.687  33.413  1.00  0.00     0.022 A 
BRANCH  88  91
ATOM     91  S   UNL A   1      50.800  25.978  31.511  1.00  0.00     0.127 S 
ATOM     92  O   UNL A   1      50.368  25.947  30.114  1.00  0.00    -0.237 OA
ATOM     93  O   UNL A   1      51.147  27.308  32.013  1.00  0.00    -0.237 OA
ATOM     94  O   UNL A   1      51.726  24.924  31.902  1.00  0.00    -0.744 OA
ENDBRANCH  88  91
ENDBRANCH  61  84
ENDBRANCH  35  36
ENDBRANCH  28  30
ENDBRANCH  27  28
ENDBRANCH  26  27
ENDBRANCH  25  26
ENDBRANCH  24  25
ENDBRANCH  23  24
ENDBRANCH   1  23
TORSDOF 23
ENDMDL
