MODEL 1
REMARK VINA RESULT:     -10.8      0.000      0.000
REMARK SMILES Cc1c(CC(=O)OCCOCCOCCOC(=O)c2ccc(-c3c4nc(c(-c5cccc(S(=O)(=O)[O-])c5F)c5ccc([nH]5)c(-c5cccc(S(=O)(=O)[O-])c5F)c5nc(c(-c6cccc(S(=O)(=O)[O-])c6F)c6ccc3[nH]6)C=C5)C=C4)cc2)cc(-c2ccc(S(C)(=O)=O)cc2)n1-c1cccc(F)c1
REMARK SMILES IDX 11 1 10 2 9 3 8 4 7 5 5 6 6 7 4 8 3 9 1 10 2 11 94 12 82 13
REMARK SMILES IDX 83 14 95 15 96 16 101 17 97 18 99 19 98 20 100 21 84 22
REMARK SMILES IDX 85 23 93 24 86 25 92 26 87 27 88 28 89 29 90 30 91 31 12 32
REMARK SMILES IDX 13 33 14 34 15 35 16 36 17 37 18 38 19 39 20 40 81 41 21 42
REMARK SMILES IDX 80 43 22 44 23 45 24 46 74 47 25 48 79 49 73 50 75 51 26 52
REMARK SMILES IDX 78 53 72 54 71 55 27 57 59 58 39 59 58 60 40 61 43 62 57 63
REMARK SMILES IDX 76 64 41 65 42 66 56 68 77 69 44 70 28 71 29 72 37 73 30 74
REMARK SMILES IDX 32 75 38 76 31 77 33 78 34 79 35 80 36 81 60 82 61 83 69 84
REMARK SMILES IDX 62 85 64 86 70 87 63 88 65 89 66 90 67 91 68 92 45 93 46 94
REMARK SMILES IDX 54 95 47 96 49 97 55 98 48 99 50 100 51 101 52 102 53 103
REMARK H PARENT 75 56 43 67
REMARK Flexibility Score: inf
ROOT
ATOM      1  C   UNL A   1      34.721  21.002  25.850  1.00  0.00     0.188 C 
ENDROOT
BRANCH   1   2
ATOM      2  O   UNL A   1      33.563  20.179  25.952  1.00  0.00    -0.376 OA
BRANCH   2   3
ATOM      3  C   UNL A   1      33.194  19.364  24.849  1.00  0.00     0.202 C 
BRANCH   3   4
ATOM      4  C   UNL A   1      32.269  20.004  23.811  1.00  0.00     0.261 C 
BRANCH   4   5
ATOM      5  O   UNL A   1      33.000  20.688  22.777  1.00  0.00    -0.463 OA
BRANCH   5   6
ATOM      6  C   UNL A   1      32.974  22.044  22.836  1.00  0.00     0.310 C 
ATOM      7  O   UNL A   1      33.965  22.758  22.688  1.00  0.00    -0.252 OA
BRANCH   6   8
ATOM      8  C   UNL A   1      31.602  22.653  23.034  1.00  0.00     0.160 C 
BRANCH   8   9
ATOM      9  C   UNL A   1      31.501  24.078  23.499  1.00  0.00    -0.015 A 
ATOM     10  C   UNL A   1      32.315  23.880  25.975  1.00  0.00     0.065 C 
ATOM     11  C   UNL A   1      31.844  24.591  24.748  1.00  0.00     0.024 A 
ATOM     12  N   UNL A   1      31.584  25.954  24.738  1.00  0.00    -0.313 N 
ATOM     13  C   UNL A   1      30.833  25.134  22.813  1.00  0.00     0.033 A 
ATOM     14  C   UNL A   1      30.786  26.244  23.641  1.00  0.00     0.053 A 
BRANCH  12  15
ATOM     15  C   UNL A   1      32.071  26.898  25.671  1.00  0.00     0.049 A 
ATOM     16  C   UNL A   1      31.268  27.327  26.732  1.00  0.00     0.027 A 
ATOM     17  C   UNL A   1      33.330  27.461  25.443  1.00  0.00     0.065 A 
ATOM     18  C   UNL A   1      31.745  28.323  27.588  1.00  0.00     0.005 A 
ATOM     19  C   UNL A   1      33.773  28.469  26.288  1.00  0.00     0.125 A 
ATOM     20  C   UNL A   1      32.997  28.901  27.360  1.00  0.00     0.039 A 
ATOM     21  F   UNL A   1      34.950  29.060  26.045  1.00  0.00    -0.207 F 
ENDBRANCH  12  15
BRANCH  14  22
ATOM     22  C   UNL A   1      30.057  27.498  23.457  1.00  0.00    -0.001 A 
ATOM     23  C   UNL A   1      28.658  27.543  23.464  1.00  0.00     0.011 A 
ATOM     24  C   UNL A   1      30.782  28.676  23.223  1.00  0.00     0.011 A 
ATOM     25  C   UNL A   1      27.989  28.749  23.229  1.00  0.00     0.021 A 
ATOM     26  C   UNL A   1      30.122  29.881  22.981  1.00  0.00     0.021 A 
ATOM     27  C   UNL A   1      28.728  29.910  22.977  1.00  0.00     0.067 A 
BRANCH  27  28
ATOM     28  S   UNL A   1      27.865  31.437  22.700  1.00  0.00     0.175 S 
ATOM     29  C   UNL A   1      29.081  32.691  23.010  1.00  0.00     0.163 C 
ATOM     30  O   UNL A   1      27.497  31.481  21.315  1.00  0.00    -0.224 OA
ATOM     31  O   UNL A   1      26.846  31.562  23.749  1.00  0.00    -0.224 OA
ENDBRANCH  27  28
ENDBRANCH  14  22
ENDBRANCH   8   9
ENDBRANCH   6   8
ENDBRANCH   5   6
ENDBRANCH   4   5
ENDBRANCH   3   4
ENDBRANCH   2   3
ENDBRANCH   1   2
BRANCH   1  32
ATOM     32  C   UNL A   1      35.838  20.637  24.862  1.00  0.00     0.188 C 
BRANCH  32  33
ATOM     33  O   UNL A   1      36.717  19.570  25.180  1.00  0.00    -0.376 OA
BRANCH  33  34
ATOM     34  C   UNL A   1      38.117  19.855  25.213  1.00  0.00     0.202 C 
BRANCH  34  35
ATOM     35  C   UNL A   1      38.521  21.280  24.772  1.00  0.00     0.261 C 
BRANCH  35  36
ATOM     36  O   UNL A   1      39.160  22.102  25.802  1.00  0.00    -0.460 OA
BRANCH  36  37
ATOM     37  C   UNL A   1      38.320  22.894  26.542  1.00  0.00     0.338 C 
ATOM     38  O   UNL A   1      37.190  22.546  26.866  1.00  0.00    -0.246 OA
BRANCH  37  39
ATOM     39  C   UNL A   1      38.933  24.191  27.050  1.00  0.00     0.060 A 
ATOM     40  C   UNL A   1      38.507  24.661  28.286  1.00  0.00     0.016 A 
ATOM     41  C   UNL A   1      39.729  25.079  26.299  1.00  0.00     0.016 A 
ATOM     42  C   UNL A   1      38.881  25.956  28.753  1.00  0.00     0.010 A 
ATOM     43  C   UNL A   1      40.039  26.436  26.752  1.00  0.00     0.010 A 
ATOM     44  C   UNL A   1      39.609  26.936  27.993  1.00  0.00    -0.014 A 
BRANCH  44  45
ATOM     45  C   UNL A   1      39.416  28.460  28.435  1.00  0.00     0.031 A 
ATOM     46  C   UNL A   1      40.799  28.923  28.762  1.00  0.00     0.074 A 
ATOM     47  C   UNL A   1      38.441  29.427  28.686  1.00  0.00     0.049 A 
ATOM     48  N   UNL A   1      41.588  28.241  29.550  1.00  0.00    -0.248 NA
ATOM     49  C   UNL A   1      41.489  29.953  27.978  1.00  0.00     0.031 C 
ATOM     50  C   UNL A   1      36.980  29.276  28.649  1.00  0.00     0.029 A 
ATOM     51  N   UNL A   1      38.529  30.818  29.037  1.00  0.00    -0.354 N 
ATOM     52  C   UNL A   1      42.691  29.027  29.704  1.00  0.00     0.074 A 
ATOM     53  C   UNL A   1      42.711  29.854  28.511  1.00  0.00     0.031 C 
ATOM     54  C   UNL A   1      36.340  30.471  28.818  1.00  0.00     0.029 A 
ATOM     55  C   UNL A   1      37.294  31.557  29.046  1.00  0.00     0.049 A 
ATOM     56  H   UNL A   1      39.388  31.243  29.259  1.00  0.00     0.167 HD
ATOM     57  C   UNL A   1      43.040  29.357  30.981  1.00  0.00     0.034 A 
ATOM     58  C   UNL A   1      37.023  32.900  29.289  1.00  0.00     0.034 A 
ATOM     59  C   UNL A   1      43.024  30.768  31.234  1.00  0.00     0.049 A 
ATOM     60  C   UNL A   1      38.166  33.451  30.038  1.00  0.00     0.074 A 
ATOM     61  C   UNL A   1      43.417  31.883  30.518  1.00  0.00     0.029 A 
ATOM     62  N   UNL A   1      42.128  31.209  32.183  1.00  0.00    -0.354 N 
ATOM     63  N   UNL A   1      38.270  33.279  31.321  1.00  0.00    -0.248 NA
ATOM     64  C   UNL A   1      39.135  34.373  29.456  1.00  0.00     0.031 C 
ATOM     65  C   UNL A   1      42.403  32.847  30.733  1.00  0.00     0.029 A 
ATOM     66  C   UNL A   1      41.586  32.412  31.767  1.00  0.00     0.049 A 
ATOM     67  H   UNL A   1      41.908  30.743  33.023  1.00  0.00     0.167 HD
ATOM     68  C   UNL A   1      39.550  33.650  31.595  1.00  0.00     0.074 A 
ATOM     69  C   UNL A   1      39.929  34.540  30.517  1.00  0.00     0.031 C 
ATOM     70  C   UNL A   1      40.299  32.777  32.311  1.00  0.00     0.034 A 
BRANCH  57  71
ATOM     71  C   UNL A   1      42.779  28.287  32.016  1.00  0.00     0.023 A 
ATOM     72  C   UNL A   1      41.645  28.433  32.830  1.00  0.00     0.012 A 
ATOM     73  C   UNL A   1      43.716  27.269  32.324  1.00  0.00     0.148 A 
ATOM     74  C   UNL A   1      41.482  27.634  33.966  1.00  0.00     0.002 A 
ATOM     75  C   UNL A   1      43.609  26.562  33.516  1.00  0.00     0.091 A 
ATOM     76  F   UNL A   1      44.708  27.015  31.456  1.00  0.00    -0.205 F 
ATOM     77  C   UNL A   1      42.482  26.733  34.332  1.00  0.00     0.022 A 
BRANCH  75  78
ATOM     78  S   UNL A   1      44.985  25.605  34.183  1.00  0.00     0.127 S 
ATOM     79  O   UNL A   1      45.981  26.644  34.470  1.00  0.00    -0.237 OA
ATOM     80  O   UNL A   1      44.406  24.988  35.371  1.00  0.00    -0.237 OA
ATOM     81  O   UNL A   1      45.395  24.684  33.129  1.00  0.00    -0.744 OA
ENDBRANCH  75  78
ENDBRANCH  57  71
BRANCH  58  82
ATOM     82  C   UNL A   1      35.905  33.989  29.274  1.00  0.00     0.023 A 
ATOM     83  C   UNL A   1      35.083  34.082  28.094  1.00  0.00     0.012 A 
ATOM     84  C   UNL A   1      35.350  34.591  30.425  1.00  0.00     0.148 A 
ATOM     85  C   UNL A   1      33.775  34.595  28.078  1.00  0.00     0.002 A 
ATOM     86  C   UNL A   1      34.044  35.154  30.392  1.00  0.00     0.091 A 
ATOM     87  F   UNL A   1      36.038  34.524  31.571  1.00  0.00    -0.205 F 
ATOM     88  C   UNL A   1      33.248  35.123  29.236  1.00  0.00     0.022 A 
BRANCH  86  89
ATOM     89  S   UNL A   1      33.239  35.899  31.829  1.00  0.00     0.127 S 
ATOM     90  O   UNL A   1      32.534  34.763  32.428  1.00  0.00    -0.237 OA
ATOM     91  O   UNL A   1      34.382  36.376  32.604  1.00  0.00    -0.237 OA
ATOM     92  O   UNL A   1      32.364  36.927  31.283  1.00  0.00    -0.744 OA
ENDBRANCH  86  89
ENDBRANCH  58  82
BRANCH  70  93
ATOM     93  C   UNL A   1      39.617  32.013  33.433  1.00  0.00     0.023 A 
ATOM     94  C   UNL A   1      38.974  30.762  33.291  1.00  0.00     0.012 A 
ATOM     95  C   UNL A   1      39.638  32.588  34.714  1.00  0.00     0.148 A 
ATOM     96  C   UNL A   1      38.338  30.135  34.367  1.00  0.00     0.002 A 
ATOM     97  C   UNL A   1      39.061  31.933  35.799  1.00  0.00     0.091 A 
ATOM     98  F   UNL A   1      40.225  33.785  34.858  1.00  0.00    -0.205 F 
ATOM     99  C   UNL A   1      38.395  30.713  35.630  1.00  0.00     0.022 A 
BRANCH  97 100
ATOM    100  S   UNL A   1      39.207  32.622  37.447  1.00  0.00     0.127 S 
ATOM    101  O   UNL A   1      38.247  31.818  38.200  1.00  0.00    -0.237 OA
ATOM    102  O   UNL A   1      40.607  32.384  37.792  1.00  0.00    -0.237 OA
ATOM    103  O   UNL A   1      38.864  34.034  37.296  1.00  0.00    -0.744 OA
ENDBRANCH  97 100
ENDBRANCH  70  93
ENDBRANCH  44  45
ENDBRANCH  37  39
ENDBRANCH  36  37
ENDBRANCH  35  36
ENDBRANCH  34  35
ENDBRANCH  33  34
ENDBRANCH  32  33
ENDBRANCH   1  32
TORSDOF 24
ENDMDL
MODEL 2
REMARK VINA RESULT:     -10.4      5.146      8.660
REMARK SMILES Cc1c(CC(=O)OCCOCCOCCOC(=O)c2ccc(-c3c4nc(c(-c5cccc(S(=O)(=O)[O-])c5F)c5ccc([nH]5)c(-c5cccc(S(=O)(=O)[O-])c5F)c5nc(c(-c6cccc(S(=O)(=O)[O-])c6F)c6ccc3[nH]6)C=C5)C=C4)cc2)cc(-c2ccc(S(C)(=O)=O)cc2)n1-c1cccc(F)c1
REMARK SMILES IDX 11 1 10 2 9 3 8 4 7 5 5 6 6 7 4 8 3 9 1 10 2 11 94 12 82 13
REMARK SMILES IDX 83 14 95 15 96 16 101 17 97 18 99 19 98 20 100 21 84 22
REMARK SMILES IDX 85 23 93 24 86 25 92 26 87 27 88 28 89 29 90 30 91 31 12 32
REMARK SMILES IDX 13 33 14 34 15 35 16 36 17 37 18 38 19 39 20 40 81 41 21 42
REMARK SMILES IDX 80 43 22 44 23 45 24 46 74 47 25 48 79 49 73 50 75 51 26 52
REMARK SMILES IDX 78 53 72 54 71 55 27 57 59 58 39 59 58 60 40 61 43 62 57 63
REMARK SMILES IDX 76 64 41 65 42 66 56 68 77 69 44 70 28 71 29 72 37 73 30 74
REMARK SMILES IDX 32 75 38 76 31 77 33 78 34 79 35 80 36 81 60 82 61 83 69 84
REMARK SMILES IDX 62 85 64 86 70 87 63 88 65 89 66 90 67 91 68 92 45 93 46 94
REMARK SMILES IDX 54 95 47 96 49 97 55 98 48 99 50 100 51 101 52 102 53 103
REMARK H PARENT 75 56 43 67
REMARK Flexibility Score: inf
ROOT
ATOM      1  C   UNL A   1      34.814  21.434  26.232  1.00  0.00     0.188 C 
ENDROOT
BRANCH   1   2
ATOM      2  O   UNL A   1      33.601  20.751  26.534  1.00  0.00    -0.376 OA
BRANCH   2   3
ATOM      3  C   UNL A   1      33.080  19.820  25.597  1.00  0.00     0.202 C 
BRANCH   3   4
ATOM      4  C   UNL A   1      32.073  20.368  24.583  1.00  0.00     0.261 C 
BRANCH   4   5
ATOM      5  O   UNL A   1      32.694  20.713  23.330  1.00  0.00    -0.463 OA
BRANCH   5   6
ATOM      6  C   UNL A   1      32.659  22.028  22.999  1.00  0.00     0.310 C 
ATOM      7  O   UNL A   1      33.607  22.639  22.509  1.00  0.00    -0.252 OA
BRANCH   6   8
ATOM      8  C   UNL A   1      31.323  22.710  23.210  1.00  0.00     0.160 C 
BRANCH   8   9
ATOM      9  C   UNL A   1      31.303  24.156  23.616  1.00  0.00    -0.015 A 
ATOM     10  C   UNL A   1      31.933  24.000  26.148  1.00  0.00     0.065 C 
ATOM     11  C   UNL A   1      31.602  24.693  24.866  1.00  0.00     0.024 A 
ATOM     12  N   UNL A   1      31.450  26.070  24.790  1.00  0.00    -0.313 N 
ATOM     13  C   UNL A   1      30.766  25.231  22.848  1.00  0.00     0.033 A 
ATOM     14  C   UNL A   1      30.752  26.374  23.630  1.00  0.00     0.053 A 
BRANCH  12  15
ATOM     15  C   UNL A   1      31.946  27.013  25.719  1.00  0.00     0.049 A 
ATOM     16  C   UNL A   1      31.147  27.454  26.779  1.00  0.00     0.027 A 
ATOM     17  C   UNL A   1      33.211  27.561  25.491  1.00  0.00     0.065 A 
ATOM     18  C   UNL A   1      31.634  28.448  27.631  1.00  0.00     0.005 A 
ATOM     19  C   UNL A   1      33.665  28.568  26.332  1.00  0.00     0.125 A 
ATOM     20  C   UNL A   1      32.892  29.012  27.402  1.00  0.00     0.039 A 
ATOM     21  F   UNL A   1      34.848  29.145  26.088  1.00  0.00    -0.207 F 
ENDBRANCH  12  15
BRANCH  14  22
ATOM     22  C   UNL A   1      30.136  27.672  23.351  1.00  0.00    -0.001 A 
ATOM     23  C   UNL A   1      28.761  27.881  23.505  1.00  0.00     0.011 A 
ATOM     24  C   UNL A   1      30.943  28.715  22.875  1.00  0.00     0.011 A 
ATOM     25  C   UNL A   1      28.194  29.117  23.175  1.00  0.00     0.021 A 
ATOM     26  C   UNL A   1      30.385  29.949  22.539  1.00  0.00     0.021 A 
ATOM     27  C   UNL A   1      29.011  30.140  22.682  1.00  0.00     0.067 A 
BRANCH  27  28
ATOM     28  S   UNL A   1      28.279  31.711  22.287  1.00  0.00     0.175 S 
ATOM     29  C   UNL A   1      27.936  31.610  20.550  1.00  0.00     0.163 C 
ATOM     30  O   UNL A   1      27.039  31.802  23.001  1.00  0.00    -0.224 OA
ATOM     31  O   UNL A   1      29.318  32.733  22.459  1.00  0.00    -0.224 OA
ENDBRANCH  27  28
ENDBRANCH  14  22
ENDBRANCH   8   9
ENDBRANCH   6   8
ENDBRANCH   5   6
ENDBRANCH   4   5
ENDBRANCH   3   4
ENDBRANCH   2   3
ENDBRANCH   1   2
BRANCH   1  32
ATOM     32  C   UNL A   1      35.617  21.054  24.979  1.00  0.00     0.188 C 
BRANCH  32  33
ATOM     33  O   UNL A   1      36.247  19.784  24.925  1.00  0.00    -0.376 OA
BRANCH  33  34
ATOM     34  C   UNL A   1      37.676  19.755  24.904  1.00  0.00     0.202 C 
BRANCH  34  35
ATOM     35  C   UNL A   1      38.374  21.132  24.955  1.00  0.00     0.261 C 
BRANCH  35  36
ATOM     36  O   UNL A   1      38.722  21.615  26.294  1.00  0.00    -0.460 OA
BRANCH  36  37
ATOM     37  C   UNL A   1      38.617  22.968  26.489  1.00  0.00     0.338 C 
ATOM     38  O   UNL A   1      37.603  23.603  26.221  1.00  0.00    -0.246 OA
BRANCH  37  39
ATOM     39  C   UNL A   1      39.805  23.615  27.186  1.00  0.00     0.060 A 
ATOM     40  C   UNL A   1      40.057  24.954  26.912  1.00  0.00     0.016 A 
ATOM     41  C   UNL A   1      40.805  22.941  27.914  1.00  0.00     0.016 A 
ATOM     42  C   UNL A   1      41.251  25.589  27.367  1.00  0.00     0.010 A 
ATOM     43  C   UNL A   1      42.062  23.579  28.305  1.00  0.00     0.010 A 
ATOM     44  C   UNL A   1      42.344  24.928  28.028  1.00  0.00    -0.014 A 
BRANCH  44  45
ATOM     45  C   UNL A   1      43.770  25.643  27.922  1.00  0.00     0.031 A 
ATOM     46  C   UNL A   1      44.084  26.042  29.328  1.00  0.00     0.074 A 
ATOM     47  C   UNL A   1      44.730  26.072  27.004  1.00  0.00     0.049 A 
ATOM     48  N   UNL A   1      43.224  26.687  30.072  1.00  0.00    -0.248 NA
ATOM     49  C   UNL A   1      45.197  25.455  30.081  1.00  0.00     0.031 C 
ATOM     50  C   UNL A   1      44.674  26.015  25.537  1.00  0.00     0.029 A 
ATOM     51  N   UNL A   1      46.026  26.670  27.171  1.00  0.00    -0.354 N 
ATOM     52  C   UNL A   1      43.903  26.977  31.218  1.00  0.00     0.074 A 
ATOM     53  C   UNL A   1      44.932  25.955  31.292  1.00  0.00     0.031 C 
ATOM     54  C   UNL A   1      45.853  26.404  24.967  1.00  0.00     0.029 A 
ATOM     55  C   UNL A   1      46.822  26.821  25.982  1.00  0.00     0.049 A 
ATOM     56  H   UNL A   1      46.352  26.961  28.053  1.00  0.00     0.167 HD
ATOM     57  C   UNL A   1      43.973  28.290  31.579  1.00  0.00     0.034 A 
ATOM     58  C   UNL A   1      48.112  27.307  25.788  1.00  0.00     0.034 A 
ATOM     59  C   UNL A   1      45.313  28.797  31.643  1.00  0.00     0.049 A 
ATOM     60  C   UNL A   1      48.448  28.138  26.957  1.00  0.00     0.074 A 
ATOM     61  C   UNL A   1      46.514  28.295  32.106  1.00  0.00     0.029 A 
ATOM     62  N   UNL A   1      45.624  29.816  30.770  1.00  0.00    -0.354 N 
ATOM     63  N   UNL A   1      48.039  29.367  27.044  1.00  0.00    -0.248 NA
ATOM     64  C   UNL A   1      49.403  27.728  27.982  1.00  0.00     0.031 C 
ATOM     65  C   UNL A   1      47.481  28.688  31.148  1.00  0.00     0.029 A 
ATOM     66  C   UNL A   1      46.912  29.629  30.302  1.00  0.00     0.049 A 
ATOM     67  H   UNL A   1      45.026  30.557  30.519  1.00  0.00     0.167 HD
ATOM     68  C   UNL A   1      48.278  29.698  28.342  1.00  0.00     0.074 A 
ATOM     69  C   UNL A   1      49.326  28.798  28.778  1.00  0.00     0.031 C 
ATOM     70  C   UNL A   1      47.247  30.237  29.035  1.00  0.00     0.034 A 
BRANCH  57  71
ATOM     71  C   UNL A   1      42.749  29.114  31.250  1.00  0.00     0.023 A 
ATOM     72  C   UNL A   1      42.865  30.071  30.230  1.00  0.00     0.012 A 
ATOM     73  C   UNL A   1      41.573  29.096  32.042  1.00  0.00     0.148 A 
ATOM     74  C   UNL A   1      41.868  31.035  30.049  1.00  0.00     0.002 A 
ATOM     75  C   UNL A   1      40.647  30.126  31.935  1.00  0.00     0.091 A 
ATOM     76  F   UNL A   1      41.385  28.082  32.901  1.00  0.00    -0.205 F 
ATOM     77  C   UNL A   1      40.785  31.089  30.926  1.00  0.00     0.022 A 
BRANCH  75  78
ATOM     78  S   UNL A   1      39.395  30.418  33.202  1.00  0.00     0.127 S 
ATOM     79  O   UNL A   1      38.608  29.181  33.157  1.00  0.00    -0.237 OA
ATOM     80  O   UNL A   1      40.191  30.577  34.414  1.00  0.00    -0.237 OA
ATOM     81  O   UNL A   1      38.648  31.596  32.778  1.00  0.00    -0.744 OA
ENDBRANCH  75  78
ENDBRANCH  57  71
BRANCH  58  82
ATOM     82  C   UNL A   1      49.248  27.497  24.736  1.00  0.00     0.023 A 
ATOM     83  C   UNL A   1      50.591  27.166  25.140  1.00  0.00     0.012 A 
ATOM     84  C   UNL A   1      49.052  27.552  23.338  1.00  0.00     0.148 A 
ATOM     85  C   UNL A   1      51.614  26.785  24.255  1.00  0.00     0.002 A 
ATOM     86  C   UNL A   1      50.104  27.213  22.444  1.00  0.00     0.091 A 
ATOM     87  F   UNL A   1      47.825  27.826  22.879  1.00  0.00    -0.205 F 
ATOM     88  C   UNL A   1      51.366  26.797  22.900  1.00  0.00     0.022 A 
BRANCH  86  89
ATOM     89  S   UNL A   1      49.927  27.209  20.645  1.00  0.00     0.127 S 
ATOM     90  O   UNL A   1      50.168  28.610  20.293  1.00  0.00    -0.237 OA
ATOM     91  O   UNL A   1      50.990  26.294  20.237  1.00  0.00    -0.237 OA
ATOM     92  O   UNL A   1      48.565  26.755  20.398  1.00  0.00    -0.744 OA
ENDBRANCH  86  89
ENDBRANCH  58  82
BRANCH  70  93
ATOM     93  C   UNL A   1      46.332  31.205  28.303  1.00  0.00     0.023 A 
ATOM     94  C   UNL A   1      45.259  30.830  27.462  1.00  0.00     0.012 A 
ATOM     95  C   UNL A   1      46.561  32.578  28.487  1.00  0.00     0.148 A 
ATOM     96  C   UNL A   1      44.480  31.782  26.795  1.00  0.00     0.002 A 
ATOM     97  C   UNL A   1      45.745  33.526  27.874  1.00  0.00     0.091 A 
ATOM     98  F   UNL A   1      47.589  32.947  29.265  1.00  0.00    -0.205 F 
ATOM     99  C   UNL A   1      44.712  33.135  27.014  1.00  0.00     0.022 A 
BRANCH  97 100
ATOM    100  S   UNL A   1      45.975  35.269  28.220  1.00  0.00     0.127 S 
ATOM    101  O   UNL A   1      45.028  35.890  27.296  1.00  0.00    -0.237 OA
ATOM    102  O   UNL A   1      45.616  35.385  29.632  1.00  0.00    -0.237 OA
ATOM    103  O   UNL A   1      47.386  35.525  27.942  1.00  0.00    -0.744 OA
ENDBRANCH  97 100
ENDBRANCH  70  93
ENDBRANCH  44  45
ENDBRANCH  37  39
ENDBRANCH  36  37
ENDBRANCH  35  36
ENDBRANCH  34  35
ENDBRANCH  33  34
ENDBRANCH  32  33
ENDBRANCH   1  32
TORSDOF 24
ENDMDL
MODEL 3
REMARK VINA RESULT:     -10.1      3.731      5.078
REMARK SMILES Cc1c(CC(=O)OCCOCCOCCOC(=O)c2ccc(-c3c4nc(c(-c5cccc(S(=O)(=O)[O-])c5F)c5ccc([nH]5)c(-c5cccc(S(=O)(=O)[O-])c5F)c5nc(c(-c6cccc(S(=O)(=O)[O-])c6F)c6ccc3[nH]6)C=C5)C=C4)cc2)cc(-c2ccc(S(C)(=O)=O)cc2)n1-c1cccc(F)c1
REMARK SMILES IDX 11 1 10 2 9 3 8 4 7 5 5 6 6 7 4 8 3 9 1 10 2 11 94 12 82 13
REMARK SMILES IDX 83 14 95 15 96 16 101 17 97 18 99 19 98 20 100 21 84 22
REMARK SMILES IDX 85 23 93 24 86 25 92 26 87 27 88 28 89 29 90 30 91 31 12 32
REMARK SMILES IDX 13 33 14 34 15 35 16 36 17 37 18 38 19 39 20 40 81 41 21 42
REMARK SMILES IDX 80 43 22 44 23 45 24 46 74 47 25 48 79 49 73 50 75 51 26 52
REMARK SMILES IDX 78 53 72 54 71 55 27 57 59 58 39 59 58 60 40 61 43 62 57 63
REMARK SMILES IDX 76 64 41 65 42 66 56 68 77 69 44 70 28 71 29 72 37 73 30 74
REMARK SMILES IDX 32 75 38 76 31 77 33 78 34 79 35 80 36 81 60 82 61 83 69 84
REMARK SMILES IDX 62 85 64 86 70 87 63 88 65 89 66 90 67 91 68 92 45 93 46 94
REMARK SMILES IDX 54 95 47 96 49 97 55 98 48 99 50 100 51 101 52 102 53 103
REMARK H PARENT 75 56 43 67
REMARK Flexibility Score: inf
ROOT
ATOM      1  C   UNL A   1      34.914  21.419  26.050  1.00  0.00     0.188 C 
ENDROOT
BRANCH   1   2
ATOM      2  O   UNL A   1      33.707  20.742  26.384  1.00  0.00    -0.376 OA
BRANCH   2   3
ATOM      3  C   UNL A   1      33.208  19.742  25.506  1.00  0.00     0.202 C 
BRANCH   3   4
ATOM      4  C   UNL A   1      32.192  20.202  24.459  1.00  0.00     0.261 C 
BRANCH   4   5
ATOM      5  O   UNL A   1      32.825  20.663  23.251  1.00  0.00    -0.463 OA
BRANCH   5   6
ATOM      6  C   UNL A   1      32.771  22.001  23.032  1.00  0.00     0.310 C 
ATOM      7  O   UNL A   1      33.727  22.675  22.651  1.00  0.00    -0.252 OA
BRANCH   6   8
ATOM      8  C   UNL A   1      31.407  22.631  23.224  1.00  0.00     0.160 C 
BRANCH   8   9
ATOM      9  C   UNL A   1      31.326  24.067  23.659  1.00  0.00    -0.015 A 
ATOM     10  C   UNL A   1      32.106  23.906  26.148  1.00  0.00     0.065 C 
ATOM     11  C   UNL A   1      31.662  24.600  24.901  1.00  0.00     0.024 A 
ATOM     12  N   UNL A   1      31.425  25.966  24.859  1.00  0.00    -0.313 N 
ATOM     13  C   UNL A   1      30.684  25.119  22.942  1.00  0.00     0.033 A 
ATOM     14  C   UNL A   1      30.646  26.247  23.746  1.00  0.00     0.053 A 
BRANCH  12  15
ATOM     15  C   UNL A   1      31.917  26.921  25.778  1.00  0.00     0.049 A 
ATOM     16  C   UNL A   1      31.095  27.419  26.794  1.00  0.00     0.027 A 
ATOM     17  C   UNL A   1      33.207  27.423  25.581  1.00  0.00     0.065 A 
ATOM     18  C   UNL A   1      31.582  28.424  27.634  1.00  0.00     0.005 A 
ATOM     19  C   UNL A   1      33.661  28.442  26.408  1.00  0.00     0.125 A 
ATOM     20  C   UNL A   1      32.865  28.942  27.435  1.00  0.00     0.039 A 
ATOM     21  F   UNL A   1      34.870  28.975  26.191  1.00  0.00    -0.207 F 
ENDBRANCH  12  15
BRANCH  14  22
ATOM     22  C   UNL A   1      29.942  27.510  23.527  1.00  0.00    -0.001 A 
ATOM     23  C   UNL A   1      28.551  27.558  23.373  1.00  0.00     0.011 A 
ATOM     24  C   UNL A   1      30.687  28.693  23.425  1.00  0.00     0.011 A 
ATOM     25  C   UNL A   1      27.912  28.773  23.108  1.00  0.00     0.021 A 
ATOM     26  C   UNL A   1      30.058  29.909  23.156  1.00  0.00     0.021 A 
ATOM     27  C   UNL A   1      28.674  29.941  22.989  1.00  0.00     0.067 A 
BRANCH  27  28
ATOM     28  S   UNL A   1      27.846  31.481  22.673  1.00  0.00     0.175 S 
ATOM     29  C   UNL A   1      29.120  32.705  22.833  1.00  0.00     0.163 C 
ATOM     30  O   UNL A   1      27.394  31.457  21.312  1.00  0.00    -0.224 OA
ATOM     31  O   UNL A   1      26.899  31.703  23.772  1.00  0.00    -0.224 OA
ENDBRANCH  27  28
ENDBRANCH  14  22
ENDBRANCH   8   9
ENDBRANCH   6   8
ENDBRANCH   5   6
ENDBRANCH   4   5
ENDBRANCH   3   4
ENDBRANCH   2   3
ENDBRANCH   1   2
BRANCH   1  32
ATOM     32  C   UNL A   1      35.807  20.884  24.920  1.00  0.00     0.188 C 
BRANCH  32  33
ATOM     33  O   UNL A   1      36.397  19.601  25.058  1.00  0.00    -0.376 OA
BRANCH  33  34
ATOM     34  C   UNL A   1      37.821  19.536  25.154  1.00  0.00     0.202 C 
BRANCH  34  35
ATOM     35  C   UNL A   1      38.570  20.866  24.909  1.00  0.00     0.261 C 
BRANCH  35  36
ATOM     36  O   UNL A   1      39.408  21.332  26.018  1.00  0.00    -0.460 OA
BRANCH  36  37
ATOM     37  C   UNL A   1      39.056  22.538  26.567  1.00  0.00     0.338 C 
ATOM     38  O   UNL A   1      37.895  22.927  26.635  1.00  0.00    -0.246 OA
BRANCH  37  39
ATOM     39  C   UNL A   1      40.197  23.314  27.210  1.00  0.00     0.060 A 
ATOM     40  C   UNL A   1      39.875  24.480  27.894  1.00  0.00     0.016 A 
ATOM     41  C   UNL A   1      41.572  23.089  26.998  1.00  0.00     0.016 A 
ATOM     42  C   UNL A   1      40.889  25.366  28.362  1.00  0.00     0.010 A 
ATOM     43  C   UNL A   1      42.600  24.045  27.410  1.00  0.00     0.010 A 
ATOM     44  C   UNL A   1      42.297  25.235  28.093  1.00  0.00    -0.014 A 
BRANCH  44  45
ATOM     45  C   UNL A   1      43.160  26.578  28.181  1.00  0.00     0.031 A 
ATOM     46  C   UNL A   1      44.445  26.144  28.810  1.00  0.00     0.074 A 
ATOM     47  C   UNL A   1      43.096  27.954  27.959  1.00  0.00     0.049 A 
ATOM     48  N   UNL A   1      44.473  25.427  29.902  1.00  0.00    -0.248 NA
ATOM     49  C   UNL A   1      45.724  26.179  28.091  1.00  0.00     0.031 C 
ATOM     50  C   UNL A   1      41.942  28.752  27.524  1.00  0.00     0.029 A 
ATOM     51  N   UNL A   1      44.081  28.996  28.065  1.00  0.00    -0.354 N 
ATOM     52  C   UNL A   1      45.793  25.340  30.230  1.00  0.00     0.074 A 
ATOM     53  C   UNL A   1      46.487  25.519  28.967  1.00  0.00     0.031 C 
ATOM     54  C   UNL A   1      42.284  30.052  27.283  1.00  0.00     0.029 A 
ATOM     55  C   UNL A   1      43.695  30.295  27.582  1.00  0.00     0.049 A 
ATOM     56  H   UNL A   1      44.971  28.830  28.449  1.00  0.00     0.167 HD
ATOM     57  C   UNL A   1      46.151  25.774  31.472  1.00  0.00     0.034 A 
ATOM     58  C   UNL A   1      44.398  31.493  27.491  1.00  0.00     0.034 A 
ATOM     59  C   UNL A   1      47.083  26.864  31.453  1.00  0.00     0.049 A 
ATOM     60  C   UNL A   1      45.530  31.411  28.430  1.00  0.00     0.074 A 
ATOM     61  C   UNL A   1      48.199  27.168  30.696  1.00  0.00     0.029 A 
ATOM     62  N   UNL A   1      46.649  28.049  32.004  1.00  0.00    -0.354 N 
ATOM     63  N   UNL A   1      45.366  31.647  29.697  1.00  0.00    -0.248 NA
ATOM     64  C   UNL A   1      46.917  31.262  28.002  1.00  0.00     0.031 C 
ATOM     65  C   UNL A   1      48.108  28.555  30.430  1.00  0.00     0.029 A 
ATOM     66  C   UNL A   1      47.123  29.101  31.240  1.00  0.00     0.049 A 
ATOM     67  H   UNL A   1      46.092  28.135  32.812  1.00  0.00     0.167 HD
ATOM     68  C   UNL A   1      46.518  31.196  30.263  1.00  0.00     0.074 A 
ATOM     69  C   UNL A   1      47.504  31.231  29.201  1.00  0.00     0.031 C 
ATOM     70  C   UNL A   1      46.393  30.346  31.309  1.00  0.00     0.034 A 
BRANCH  57  71
ATOM     71  C   UNL A   1      45.131  25.525  32.559  1.00  0.00     0.023 A 
ATOM     72  C   UNL A   1      44.053  26.417  32.656  1.00  0.00     0.012 A 
ATOM     73  C   UNL A   1      45.319  24.563  33.584  1.00  0.00     0.148 A 
ATOM     74  C   UNL A   1      43.223  26.403  33.782  1.00  0.00     0.002 A 
ATOM     75  C   UNL A   1      44.566  24.633  34.750  1.00  0.00     0.091 A 
ATOM     76  F   UNL A   1      46.241  23.603  33.412  1.00  0.00    -0.205 F 
ATOM     77  C   UNL A   1      43.505  25.545  34.844  1.00  0.00     0.022 A 
BRANCH  75  78
ATOM     78  S   UNL A   1      45.053  23.761  36.253  1.00  0.00     0.127 S 
ATOM     79  O   UNL A   1      46.468  24.126  36.383  1.00  0.00    -0.237 OA
ATOM     80  O   UNL A   1      44.187  24.352  37.267  1.00  0.00    -0.237 OA
ATOM     81  O   UNL A   1      44.842  22.342  35.991  1.00  0.00    -0.744 OA
ENDBRANCH  75  78
ENDBRANCH  57  71
BRANCH  58  82
ATOM     82  C   UNL A   1      44.339  32.958  26.955  1.00  0.00     0.023 A 
ATOM     83  C   UNL A   1      44.440  33.150  25.531  1.00  0.00     0.012 A 
ATOM     84  C   UNL A   1      43.786  34.051  27.657  1.00  0.00     0.148 A 
ATOM     85  C   UNL A   1      43.917  34.257  24.841  1.00  0.00     0.002 A 
ATOM     86  C   UNL A   1      43.302  35.192  26.960  1.00  0.00     0.091 A 
ATOM     87  F   UNL A   1      43.631  33.942  28.983  1.00  0.00    -0.205 F 
ATOM     88  C   UNL A   1      43.333  35.278  25.559  1.00  0.00     0.022 A 
BRANCH  86  89
ATOM     89  S   UNL A   1      42.535  36.613  27.774  1.00  0.00     0.127 S 
ATOM     90  O   UNL A   1      43.582  37.058  28.698  1.00  0.00    -0.237 OA
ATOM     91  O   UNL A   1      42.300  37.516  26.650  1.00  0.00    -0.237 OA
ATOM     92  O   UNL A   1      41.347  36.081  28.427  1.00  0.00    -0.744 OA
ENDBRANCH  86  89
ENDBRANCH  58  82
BRANCH  70  93
ATOM     93  C   UNL A   1      45.271  30.604  32.301  1.00  0.00     0.023 A 
ATOM     94  C   UNL A   1      45.412  31.296  33.526  1.00  0.00     0.012 A 
ATOM     95  C   UNL A   1      43.992  30.130  31.970  1.00  0.00     0.148 A 
ATOM     96  C   UNL A   1      44.337  31.465  34.404  1.00  0.00     0.002 A 
ATOM     97  C   UNL A   1      42.907  30.354  32.814  1.00  0.00     0.091 A 
ATOM     98  F   UNL A   1      43.848  29.453  30.821  1.00  0.00    -0.205 F 
ATOM     99  C   UNL A   1      43.075  31.008  34.040  1.00  0.00     0.022 A 
BRANCH  97 100
ATOM    100  S   UNL A   1      41.260  29.852  32.315  1.00  0.00     0.127 S 
ATOM    101  O   UNL A   1      40.535  29.882  33.583  1.00  0.00    -0.237 OA
ATOM    102  O   UNL A   1      40.864  30.886  31.361  1.00  0.00    -0.237 OA
ATOM    103  O   UNL A   1      41.434  28.529  31.721  1.00  0.00    -0.744 OA
ENDBRANCH  97 100
ENDBRANCH  70  93
ENDBRANCH  44  45
ENDBRANCH  37  39
ENDBRANCH  36  37
ENDBRANCH  35  36
ENDBRANCH  34  35
ENDBRANCH  33  34
ENDBRANCH  32  33
ENDBRANCH   1  32
TORSDOF 24
ENDMDL
