MODEL 1
REMARK VINA RESULT:     -11.4      0.000      0.000
REMARK SMILES Cc1ccc(OCC(=O)NNC(=O)[C@H]2CCCC[C@@H]2C(=O)OCCOCCOCCOC(=O)c2ccc(-c3c4nc(c(-c5cccc(S(=O)(=O)[O-])c5F)c5ccc([nH]5)c(-c5cccc(S(=O)(=O)[O-])c5F)c5nc(c(-c6cccc(S(=O)(=O)[O-])c6F)c6ccc3[nH]6)C=C5)C=C4)cc2)cc1
REMARK SMILES IDX 26 1 25 2 24 3 23 4 22 5 20 6 21 7 19 8 14 9 15 10 16 11
REMARK SMILES IDX 18 12 17 13 12 14 11 15 13 17 10 18 8 19 9 20 7 22 6 23 5 24
REMARK SMILES IDX 1 25 2 26 3 27 98 28 4 29 97 30 27 31 28 32 29 33 30 34
REMARK SMILES IDX 31 35 32 36 33 37 34 38 35 39 96 40 36 41 95 42 37 43 38 44
REMARK SMILES IDX 39 45 89 46 40 47 94 48 88 49 90 50 41 51 93 52 87 53 86 54
REMARK SMILES IDX 42 56 74 57 54 58 73 59 55 60 58 61 72 62 91 63 56 64 57 65
REMARK SMILES IDX 71 67 92 68 59 69 43 70 44 71 52 72 45 73 47 74 53 75 46 76
REMARK SMILES IDX 48 77 49 78 50 79 51 80 75 81 76 82 84 83 77 84 79 85 85 86
REMARK SMILES IDX 78 87 80 88 81 89 82 90 83 91 60 92 61 93 69 94 62 95 64 96
REMARK SMILES IDX 70 97 63 98 65 99 66 100 67 101 68 102
REMARK H PARENT 11 16 10 21 90 55 58 66
REMARK Flexibility Score: inf
ROOT
ATOM      1  C   UNL A   1      33.538  32.939  27.812  1.00  0.00     0.188 C 
ENDROOT
BRANCH   1   2
ATOM      2  O   UNL A   1      34.194  31.792  28.367  1.00  0.00    -0.376 OA
BRANCH   2   3
ATOM      3  C   UNL A   1      34.719  30.795  27.482  1.00  0.00     0.202 C 
BRANCH   3   4
ATOM      4  C   UNL A   1      33.980  29.437  27.269  1.00  0.00     0.261 C 
BRANCH   4   5
ATOM      5  O   UNL A   1      32.497  29.385  27.172  1.00  0.00    -0.463 OA
BRANCH   5   6
ATOM      6  C   UNL A   1      31.799  28.236  26.957  1.00  0.00     0.309 C 
ATOM      7  O   UNL A   1      31.244  27.671  27.903  1.00  0.00    -0.252 OA
BRANCH   6   8
ATOM      8  C   UNL A   1      31.866  27.476  25.470  1.00  0.00     0.111 C 
ATOM      9  C   UNL A   1      32.580  26.178  24.802  1.00  0.00     0.094 C 
ATOM     10  C   UNL A   1      33.654  26.411  23.679  1.00  0.00     0.014 C 
ATOM     11  C   UNL A   1      33.699  27.763  22.997  1.00  0.00     0.001 C 
ATOM     12  C   UNL A   1      31.695  28.576  24.425  1.00  0.00     0.016 C 
ATOM     13  C   UNL A   1      32.925  28.913  23.612  1.00  0.00     0.001 C 
BRANCH   9  14
ATOM     14  C   UNL A   1      31.553  25.372  23.955  1.00  0.00     0.242 C 
ATOM     15  N   UNL A   1      31.000  24.199  24.430  1.00  0.00    -0.267 N 
ATOM     16  H   UNL A   1      31.276  23.356  24.002  1.00  0.00     0.191 HD
ATOM     17  O   UNL A   1      31.493  25.542  22.731  1.00  0.00    -0.273 OA
BRANCH  15  18
ATOM     18  N   UNL A   1      30.069  24.124  25.487  1.00  0.00    -0.265 N 
ATOM     19  C   UNL A   1      30.376  23.498  26.686  1.00  0.00     0.276 C 
ATOM     20  O   UNL A   1      29.543  23.310  27.573  1.00  0.00    -0.269 OA
ATOM     21  H   UNL A   1      29.178  24.527  25.369  1.00  0.00     0.191 HD
BRANCH  19  22
ATOM     22  C   UNL A   1      31.821  23.023  26.924  1.00  0.00     0.331 C 
BRANCH  22  23
ATOM     23  O   UNL A   1      32.360  22.043  26.054  1.00  0.00    -0.484 OA
BRANCH  23  24
ATOM     24  C   UNL A   1      33.721  22.014  25.913  1.00  0.00     0.120 A 
ATOM     25  C   UNL A   1      37.983  22.409  25.406  1.00  0.00     0.044 C 
ATOM     26  C   UNL A   1      36.504  22.265  25.588  1.00  0.00    -0.051 A 
ATOM     27  C   UNL A   1      35.733  23.370  25.960  1.00  0.00     0.007 A 
ATOM     28  C   UNL A   1      35.874  21.032  25.398  1.00  0.00     0.007 A 
ATOM     29  C   UNL A   1      34.352  23.241  26.120  1.00  0.00     0.047 A 
ATOM     30  C   UNL A   1      34.492  20.905  25.567  1.00  0.00     0.047 A 
ENDBRANCH  23  24
ENDBRANCH  22  23
ENDBRANCH  19  22
ENDBRANCH  15  18
ENDBRANCH   9  14
ENDBRANCH   6   8
ENDBRANCH   5   6
ENDBRANCH   4   5
ENDBRANCH   3   4
ENDBRANCH   2   3
ENDBRANCH   1   2
BRANCH   1  31
ATOM     31  C   UNL A   1      33.926  34.338  28.292  1.00  0.00     0.188 C 
BRANCH  31  32
ATOM     32  O   UNL A   1      32.820  34.862  29.008  1.00  0.00    -0.376 OA
BRANCH  32  33
ATOM     33  C   UNL A   1      32.892  36.216  29.405  1.00  0.00     0.202 C 
BRANCH  33  34
ATOM     34  C   UNL A   1      33.195  36.324  30.900  1.00  0.00     0.261 C 
BRANCH  34  35
ATOM     35  O   UNL A   1      33.243  34.994  31.467  1.00  0.00    -0.460 OA
BRANCH  35  36
ATOM     36  C   UNL A   1      33.984  34.870  32.610  1.00  0.00     0.338 C 
ATOM     37  O   UNL A   1      34.287  35.814  33.329  1.00  0.00    -0.246 OA
BRANCH  36  38
ATOM     38  C   UNL A   1      34.612  33.506  32.671  1.00  0.00     0.060 A 
ATOM     39  C   UNL A   1      35.407  33.102  33.739  1.00  0.00     0.016 A 
ATOM     40  C   UNL A   1      34.660  32.706  31.556  1.00  0.00     0.016 A 
ATOM     41  C   UNL A   1      36.402  32.076  33.573  1.00  0.00     0.010 A 
ATOM     42  C   UNL A   1      35.731  31.791  31.418  1.00  0.00     0.010 A 
ATOM     43  C   UNL A   1      36.747  31.507  32.335  1.00  0.00    -0.014 A 
BRANCH  43  44
ATOM     44  C   UNL A   1      38.223  31.029  31.934  1.00  0.00     0.031 A 
ATOM     45  C   UNL A   1      38.764  29.768  31.170  1.00  0.00     0.074 A 
ATOM     46  C   UNL A   1      39.266  31.866  32.159  1.00  0.00     0.049 A 
ATOM     47  N   UNL A   1      39.594  29.698  30.151  1.00  0.00    -0.248 NA
ATOM     48  C   UNL A   1      38.486  28.418  31.618  1.00  0.00     0.031 C 
ATOM     49  C   UNL A   1      40.640  31.757  31.662  1.00  0.00     0.029 A 
ATOM     50  N   UNL A   1      39.377  32.963  32.984  1.00  0.00    -0.354 N 
ATOM     51  C   UNL A   1      39.745  28.365  29.735  1.00  0.00     0.074 A 
ATOM     52  C   UNL A   1      38.874  27.611  30.622  1.00  0.00     0.031 C 
ATOM     53  C   UNL A   1      41.452  32.450  32.469  1.00  0.00     0.029 A 
ATOM     54  C   UNL A   1      40.647  32.955  33.551  1.00  0.00     0.049 A 
ATOM     55  H   UNL A   1      38.677  33.636  33.145  1.00  0.00     0.167 HD
ATOM     56  C   UNL A   1      40.946  27.777  29.434  1.00  0.00     0.034 A 
ATOM     57  C   UNL A   1      40.822  32.678  34.877  1.00  0.00     0.034 A 
ATOM     58  C   UNL A   1      41.992  28.185  30.360  1.00  0.00     0.049 A 
ATOM     59  C   UNL A   1      41.444  31.301  35.109  1.00  0.00     0.074 A 
ATOM     60  C   UNL A   1      43.089  29.018  30.323  1.00  0.00     0.029 A 
ATOM     61  N   UNL A   1      41.875  27.764  31.677  1.00  0.00    -0.354 N 
ATOM     62  N   UNL A   1      41.939  30.525  34.176  1.00  0.00    -0.248 NA
ATOM     63  C   UNL A   1      41.500  30.664  36.425  1.00  0.00     0.031 C 
ATOM     64  C   UNL A   1      43.541  29.196  31.668  1.00  0.00     0.029 A 
ATOM     65  C   UNL A   1      42.752  28.428  32.510  1.00  0.00     0.049 A 
ATOM     66  H   UNL A   1      41.242  27.073  31.980  1.00  0.00     0.167 HD
ATOM     67  C   UNL A   1      42.244  29.292  34.704  1.00  0.00     0.074 A 
ATOM     68  C   UNL A   1      41.964  29.440  36.123  1.00  0.00     0.031 C 
ATOM     69  C   UNL A   1      42.666  28.221  33.956  1.00  0.00     0.034 A 
BRANCH  56  70
ATOM     70  C   UNL A   1      41.058  26.585  28.472  1.00  0.00     0.023 A 
ATOM     71  C   UNL A   1      40.072  26.436  27.467  1.00  0.00     0.012 A 
ATOM     72  C   UNL A   1      42.024  25.541  28.558  1.00  0.00     0.148 A 
ATOM     73  C   UNL A   1      40.033  25.326  26.606  1.00  0.00     0.002 A 
ATOM     74  C   UNL A   1      41.996  24.443  27.678  1.00  0.00     0.091 A 
ATOM     75  F   UNL A   1      42.950  25.593  29.526  1.00  0.00    -0.205 F 
ATOM     76  C   UNL A   1      40.997  24.332  26.706  1.00  0.00     0.022 A 
BRANCH  74  77
ATOM     77  S   UNL A   1      43.227  23.118  27.716  1.00  0.00     0.127 S 
ATOM     78  O   UNL A   1      44.469  23.845  27.457  1.00  0.00    -0.237 OA
ATOM     79  O   UNL A   1      43.111  22.599  29.082  1.00  0.00    -0.237 OA
ATOM     80  O   UNL A   1      42.820  22.175  26.683  1.00  0.00    -0.744 OA
ENDBRANCH  74  77
ENDBRANCH  56  70
BRANCH  57  81
ATOM     81  C   UNL A   1      39.816  33.411  35.713  1.00  0.00     0.023 A 
ATOM     82  C   UNL A   1      38.625  32.681  35.987  1.00  0.00     0.012 A 
ATOM     83  C   UNL A   1      40.123  34.509  36.531  1.00  0.00     0.148 A 
ATOM     84  C   UNL A   1      37.877  32.909  37.141  1.00  0.00     0.002 A 
ATOM     85  C   UNL A   1      39.346  34.754  37.667  1.00  0.00     0.091 A 
ATOM     86  F   UNL A   1      41.223  35.230  36.280  1.00  0.00    -0.205 F 
ATOM     87  C   UNL A   1      38.254  33.931  37.997  1.00  0.00     0.022 A 
BRANCH  85  88
ATOM     88  S   UNL A   1      39.887  35.969  38.882  1.00  0.00     0.127 S 
ATOM     89  O   UNL A   1      39.681  37.221  38.163  1.00  0.00    -0.237 OA
ATOM     90  O   UNL A   1      38.958  35.728  39.984  1.00  0.00    -0.237 OA
ATOM     91  O   UNL A   1      41.273  35.584  39.145  1.00  0.00    -0.744 OA
ENDBRANCH  85  88
ENDBRANCH  57  81
BRANCH  69  92
ATOM     92  C   UNL A   1      43.078  26.888  34.568  1.00  0.00     0.023 A 
ATOM     93  C   UNL A   1      42.107  25.898  34.832  1.00  0.00     0.012 A 
ATOM     94  C   UNL A   1      44.391  26.625  35.035  1.00  0.00     0.148 A 
ATOM     95  C   UNL A   1      42.427  24.687  35.459  1.00  0.00     0.002 A 
ATOM     96  C   UNL A   1      44.682  25.465  35.755  1.00  0.00     0.091 A 
ATOM     97  F   UNL A   1      45.376  27.485  34.748  1.00  0.00    -0.205 F 
ATOM     98  C   UNL A   1      43.711  24.479  35.939  1.00  0.00     0.022 A 
BRANCH  96  99
ATOM     99  S   UNL A   1      46.254  25.203  36.595  1.00  0.00     0.127 S 
ATOM    100  O   UNL A   1      46.098  23.832  37.083  1.00  0.00    -0.237 OA
ATOM    101  O   UNL A   1      47.208  25.355  35.498  1.00  0.00    -0.237 OA
ATOM    102  O   UNL A   1      46.323  26.219  37.634  1.00  0.00    -0.744 OA
ENDBRANCH  96  99
ENDBRANCH  69  92
ENDBRANCH  43  44
ENDBRANCH  36  38
ENDBRANCH  35  36
ENDBRANCH  34  35
ENDBRANCH  33  34
ENDBRANCH  32  33
ENDBRANCH  31  32
ENDBRANCH   1  31
TORSDOF 25
ENDMDL
MODEL 2
REMARK VINA RESULT:     -10.8      2.246      9.574
REMARK SMILES Cc1ccc(OCC(=O)NNC(=O)[C@H]2CCCC[C@@H]2C(=O)OCCOCCOCCOC(=O)c2ccc(-c3c4nc(c(-c5cccc(S(=O)(=O)[O-])c5F)c5ccc([nH]5)c(-c5cccc(S(=O)(=O)[O-])c5F)c5nc(c(-c6cccc(S(=O)(=O)[O-])c6F)c6ccc3[nH]6)C=C5)C=C4)cc2)cc1
REMARK SMILES IDX 26 1 25 2 24 3 23 4 22 5 20 6 21 7 19 8 14 9 15 10 16 11
REMARK SMILES IDX 18 12 17 13 12 14 11 15 13 17 10 18 8 19 9 20 7 22 6 23 5 24
REMARK SMILES IDX 1 25 2 26 3 27 98 28 4 29 97 30 27 31 28 32 29 33 30 34
REMARK SMILES IDX 31 35 32 36 33 37 34 38 35 39 96 40 36 41 95 42 37 43 38 44
REMARK SMILES IDX 39 45 89 46 40 47 94 48 88 49 90 50 41 51 93 52 87 53 86 54
REMARK SMILES IDX 42 56 74 57 54 58 73 59 55 60 58 61 72 62 91 63 56 64 57 65
REMARK SMILES IDX 71 67 92 68 59 69 43 70 44 71 52 72 45 73 47 74 53 75 46 76
REMARK SMILES IDX 48 77 49 78 50 79 51 80 75 81 76 82 84 83 77 84 79 85 85 86
REMARK SMILES IDX 78 87 80 88 81 89 82 90 83 91 60 92 61 93 69 94 62 95 64 96
REMARK SMILES IDX 70 97 63 98 65 99 66 100 67 101 68 102
REMARK H PARENT 11 16 10 21 90 55 58 66
REMARK Flexibility Score: inf
ROOT
ATOM      1  C   UNL A   1      37.328  21.389  25.146  1.00  0.00     0.188 C 
ENDROOT
BRANCH   1   2
ATOM      2  O   UNL A   1      36.136  20.880  25.757  1.00  0.00    -0.376 OA
BRANCH   2   3
ATOM      3  C   UNL A   1      34.975  20.665  24.944  1.00  0.00     0.202 C 
BRANCH   3   4
ATOM      4  C   UNL A   1      33.650  20.118  25.560  1.00  0.00     0.261 C 
BRANCH   4   5
ATOM      5  O   UNL A   1      32.330  20.528  25.010  1.00  0.00    -0.463 OA
BRANCH   5   6
ATOM      6  C   UNL A   1      31.767  21.746  25.242  1.00  0.00     0.309 C 
ATOM      7  O   UNL A   1      30.660  21.816  25.784  1.00  0.00    -0.252 OA
BRANCH   6   8
ATOM      8  C   UNL A   1      32.462  23.129  24.611  1.00  0.00     0.111 C 
ATOM      9  C   UNL A   1      33.396  23.550  23.351  1.00  0.00     0.094 C 
ATOM     10  C   UNL A   1      34.844  24.087  23.640  1.00  0.00     0.014 C 
ATOM     11  C   UNL A   1      35.170  24.556  25.043  1.00  0.00     0.001 C 
ATOM     12  C   UNL A   1      32.746  24.041  25.803  1.00  0.00     0.016 C 
ATOM     13  C   UNL A   1      34.204  24.222  26.163  1.00  0.00     0.001 C 
BRANCH   9  14
ATOM     14  C   UNL A   1      32.828  24.823  22.659  1.00  0.00     0.242 C 
ATOM     15  N   UNL A   1      31.506  24.893  22.268  1.00  0.00    -0.267 N 
ATOM     16  H   UNL A   1      31.311  24.878  21.302  1.00  0.00     0.191 HD
ATOM     17  O   UNL A   1      33.597  25.625  22.114  1.00  0.00    -0.273 OA
BRANCH  15  18
ATOM     18  N   UNL A   1      30.413  24.985  23.155  1.00  0.00    -0.265 N 
ATOM     19  C   UNL A   1      30.090  26.174  23.793  1.00  0.00     0.276 C 
ATOM     20  O   UNL A   1      29.224  26.250  24.663  1.00  0.00    -0.269 OA
ATOM     21  H   UNL A   1      29.866  24.184  23.326  1.00  0.00     0.191 HD
BRANCH  19  22
ATOM     22  C   UNL A   1      30.842  27.457  23.392  1.00  0.00     0.331 C 
BRANCH  22  23
ATOM     23  O   UNL A   1      30.857  28.542  24.304  1.00  0.00    -0.484 OA
BRANCH  23  24
ATOM     24  C   UNL A   1      31.935  28.639  25.141  1.00  0.00     0.120 A 
ATOM     25  C   UNL A   1      35.223  29.418  27.818  1.00  0.00     0.044 C 
ATOM     26  C   UNL A   1      34.080  29.139  26.892  1.00  0.00    -0.051 A 
ATOM     27  C   UNL A   1      32.985  30.008  26.847  1.00  0.00     0.007 A 
ATOM     28  C   UNL A   1      34.082  28.010  26.067  1.00  0.00     0.007 A 
ATOM     29  C   UNL A   1      31.923  29.756  25.976  1.00  0.00     0.047 A 
ATOM     30  C   UNL A   1      33.013  27.757  25.203  1.00  0.00     0.047 A 
ENDBRANCH  23  24
ENDBRANCH  22  23
ENDBRANCH  19  22
ENDBRANCH  15  18
ENDBRANCH   9  14
ENDBRANCH   6   8
ENDBRANCH   5   6
ENDBRANCH   4   5
ENDBRANCH   3   4
ENDBRANCH   2   3
ENDBRANCH   1   2
BRANCH   1  31
ATOM     31  C   UNL A   1      38.020  22.614  25.742  1.00  0.00     0.188 C 
BRANCH  31  32
ATOM     32  O   UNL A   1      39.291  22.197  26.212  1.00  0.00    -0.376 OA
BRANCH  32  33
ATOM     33  C   UNL A   1      39.929  23.022  27.164  1.00  0.00     0.202 C 
BRANCH  33  34
ATOM     34  C   UNL A   1      41.042  23.840  26.510  1.00  0.00     0.261 C 
BRANCH  34  35
ATOM     35  O   UNL A   1      40.563  25.187  26.283  1.00  0.00    -0.460 OA
BRANCH  35  36
ATOM     36  C   UNL A   1      41.474  26.048  25.736  1.00  0.00     0.338 C 
ATOM     37  O   UNL A   1      42.304  25.717  24.899  1.00  0.00    -0.246 OA
BRANCH  36  38
ATOM     38  C   UNL A   1      41.506  27.331  26.519  1.00  0.00     0.060 A 
ATOM     39  C   UNL A   1      42.157  27.437  27.744  1.00  0.00     0.016 A 
ATOM     40  C   UNL A   1      40.665  28.368  26.198  1.00  0.00     0.016 A 
ATOM     41  C   UNL A   1      41.760  28.428  28.707  1.00  0.00     0.010 A 
ATOM     42  C   UNL A   1      40.238  29.243  27.226  1.00  0.00     0.010 A 
ATOM     43  C   UNL A   1      40.634  29.257  28.566  1.00  0.00    -0.014 A 
BRANCH  43  44
ATOM     44  C   UNL A   1      39.711  29.752  29.779  1.00  0.00     0.031 A 
ATOM     45  C   UNL A   1      38.726  30.964  29.944  1.00  0.00     0.074 A 
ATOM     46  C   UNL A   1      39.611  28.973  30.885  1.00  0.00     0.049 A 
ATOM     47  N   UNL A   1      37.478  30.978  30.363  1.00  0.00    -0.248 NA
ATOM     48  C   UNL A   1      39.153  32.335  29.756  1.00  0.00     0.031 C 
ATOM     49  C   UNL A   1      38.658  29.089  31.992  1.00  0.00     0.029 A 
ATOM     50  N   UNL A   1      40.414  27.953  31.342  1.00  0.00    -0.354 N 
ATOM     51  C   UNL A   1      36.950  32.277  30.279  1.00  0.00     0.074 A 
ATOM     52  C   UNL A   1      38.035  33.071  29.724  1.00  0.00     0.031 C 
ATOM     53  C   UNL A   1      39.172  28.493  33.075  1.00  0.00     0.029 A 
ATOM     54  C   UNL A   1      40.499  28.051  32.727  1.00  0.00     0.049 A 
ATOM     55  H   UNL A   1      40.854  27.271  30.784  1.00  0.00     0.167 HD
ATOM     56  C   UNL A   1      36.210  32.880  31.262  1.00  0.00     0.034 A 
ATOM     57  C   UNL A   1      41.658  28.442  33.334  1.00  0.00     0.034 A 
ATOM     58  C   UNL A   1      36.735  32.586  32.587  1.00  0.00     0.049 A 
ATOM     59  C   UNL A   1      41.567  29.855  33.912  1.00  0.00     0.074 A 
ATOM     60  C   UNL A   1      36.370  31.791  33.652  1.00  0.00     0.029 A 
ATOM     61  N   UNL A   1      37.979  33.109  32.908  1.00  0.00    -0.354 N 
ATOM     62  N   UNL A   1      40.472  30.568  34.004  1.00  0.00    -0.248 NA
ATOM     63  C   UNL A   1      42.736  30.599  34.381  1.00  0.00     0.031 C 
ATOM     64  C   UNL A   1      37.481  31.740  34.553  1.00  0.00     0.029 A 
ATOM     65  C   UNL A   1      38.494  32.547  34.059  1.00  0.00     0.049 A 
ATOM     66  H   UNL A   1      38.439  33.800  32.379  1.00  0.00     0.167 HD
ATOM     67  C   UNL A   1      40.778  31.850  34.397  1.00  0.00     0.074 A 
ATOM     68  C   UNL A   1      42.212  31.810  34.636  1.00  0.00     0.031 C 
ATOM     69  C   UNL A   1      39.861  32.869  34.467  1.00  0.00     0.034 A 
BRANCH  56  70
ATOM     70  C   UNL A   1      35.194  33.992  30.960  1.00  0.00     0.023 A 
ATOM     71  C   UNL A   1      34.805  34.201  29.615  1.00  0.00     0.012 A 
ATOM     72  C   UNL A   1      34.671  34.914  31.912  1.00  0.00     0.148 A 
ATOM     73  C   UNL A   1      33.960  35.256  29.229  1.00  0.00     0.002 A 
ATOM     74  C   UNL A   1      33.805  35.954  31.524  1.00  0.00     0.091 A 
ATOM     75  F   UNL A   1      35.047  34.806  33.194  1.00  0.00    -0.205 F 
ATOM     76  C   UNL A   1      33.455  36.129  30.182  1.00  0.00     0.022 A 
BRANCH  74  77
ATOM     77  S   UNL A   1      33.078  37.120  32.700  1.00  0.00     0.127 S 
ATOM     78  O   UNL A   1      34.096  37.173  33.749  1.00  0.00    -0.237 OA
ATOM     79  O   UNL A   1      32.963  38.353  31.916  1.00  0.00    -0.237 OA
ATOM     80  O   UNL A   1      31.800  36.539  33.089  1.00  0.00    -0.744 OA
ENDBRANCH  74  77
ENDBRANCH  56  70
BRANCH  57  81
ATOM     81  C   UNL A   1      42.839  27.746  32.727  1.00  0.00     0.023 A 
ATOM     82  C   UNL A   1      43.565  28.522  31.778  1.00  0.00     0.012 A 
ATOM     83  C   UNL A   1      43.475  26.634  33.297  1.00  0.00     0.148 A 
ATOM     84  C   UNL A   1      44.926  28.319  31.556  1.00  0.00     0.002 A 
ATOM     85  C   UNL A   1      44.832  26.414  33.039  1.00  0.00     0.091 A 
ATOM     86  F   UNL A   1      42.808  25.870  34.172  1.00  0.00    -0.205 F 
ATOM     87  C   UNL A   1      45.567  27.278  32.209  1.00  0.00     0.022 A 
BRANCH  85  88
ATOM     88  S   UNL A   1      45.737  25.173  33.981  1.00  0.00     0.127 S 
ATOM     89  O   UNL A   1      45.032  23.950  33.614  1.00  0.00    -0.237 OA
ATOM     90  O   UNL A   1      47.084  25.300  33.430  1.00  0.00    -0.237 OA
ATOM     91  O   UNL A   1      45.588  25.628  35.363  1.00  0.00    -0.744 OA
ENDBRANCH  85  88
ENDBRANCH  57  81
BRANCH  69  92
ATOM     92  C   UNL A   1      40.202  34.262  34.982  1.00  0.00     0.023 A 
ATOM     93  C   UNL A   1      40.906  35.170  34.163  1.00  0.00     0.012 A 
ATOM     94  C   UNL A   1      39.976  34.666  36.324  1.00  0.00     0.148 A 
ATOM     95  C   UNL A   1      41.304  36.433  34.618  1.00  0.00     0.002 A 
ATOM     96  C   UNL A   1      40.470  35.880  36.804  1.00  0.00     0.091 A 
ATOM     97  F   UNL A   1      39.246  33.888  37.131  1.00  0.00    -0.205 F 
ATOM     98  C   UNL A   1      41.103  36.781  35.945  1.00  0.00     0.022 A 
BRANCH  96  99
ATOM     99  S   UNL A   1      40.445  36.325  38.549  1.00  0.00     0.127 S 
ATOM    100  O   UNL A   1      39.020  36.575  38.766  1.00  0.00    -0.237 OA
ATOM    101  O   UNL A   1      40.954  35.106  39.176  1.00  0.00    -0.237 OA
ATOM    102  O   UNL A   1      41.298  37.497  38.672  1.00  0.00    -0.744 OA
ENDBRANCH  96  99
ENDBRANCH  69  92
ENDBRANCH  43  44
ENDBRANCH  36  38
ENDBRANCH  35  36
ENDBRANCH  34  35
ENDBRANCH  33  34
ENDBRANCH  32  33
ENDBRANCH  31  32
ENDBRANCH   1  31
TORSDOF 25
ENDMDL
MODEL 3
REMARK VINA RESULT:     -10.1      2.068      2.548
REMARK SMILES Cc1ccc(OCC(=O)NNC(=O)[C@H]2CCCC[C@@H]2C(=O)OCCOCCOCCOC(=O)c2ccc(-c3c4nc(c(-c5cccc(S(=O)(=O)[O-])c5F)c5ccc([nH]5)c(-c5cccc(S(=O)(=O)[O-])c5F)c5nc(c(-c6cccc(S(=O)(=O)[O-])c6F)c6ccc3[nH]6)C=C5)C=C4)cc2)cc1
REMARK SMILES IDX 26 1 25 2 24 3 23 4 22 5 20 6 21 7 19 8 14 9 15 10 16 11
REMARK SMILES IDX 18 12 17 13 12 14 11 15 13 17 10 18 8 19 9 20 7 22 6 23 5 24
REMARK SMILES IDX 1 25 2 26 3 27 98 28 4 29 97 30 27 31 28 32 29 33 30 34
REMARK SMILES IDX 31 35 32 36 33 37 34 38 35 39 96 40 36 41 95 42 37 43 38 44
REMARK SMILES IDX 39 45 89 46 40 47 94 48 88 49 90 50 41 51 93 52 87 53 86 54
REMARK SMILES IDX 42 56 74 57 54 58 73 59 55 60 58 61 72 62 91 63 56 64 57 65
REMARK SMILES IDX 71 67 92 68 59 69 43 70 44 71 52 72 45 73 47 74 53 75 46 76
REMARK SMILES IDX 48 77 49 78 50 79 51 80 75 81 76 82 84 83 77 84 79 85 85 86
REMARK SMILES IDX 78 87 80 88 81 89 82 90 83 91 60 92 61 93 69 94 62 95 64 96
REMARK SMILES IDX 70 97 63 98 65 99 66 100 67 101 68 102
REMARK H PARENT 11 16 10 21 90 55 58 66
REMARK Flexibility Score: inf
ROOT
ATOM      1  C   UNL A   1      35.065  32.453  28.205  1.00  0.00     0.188 C 
ENDROOT
BRANCH   1   2
ATOM      2  O   UNL A   1      36.073  31.568  27.700  1.00  0.00    -0.376 OA
BRANCH   2   3
ATOM      3  C   UNL A   1      36.043  30.188  28.084  1.00  0.00     0.202 C 
BRANCH   3   4
ATOM      4  C   UNL A   1      35.021  29.196  27.447  1.00  0.00     0.261 C 
BRANCH   4   5
ATOM      5  O   UNL A   1      33.561  29.351  27.686  1.00  0.00    -0.463 OA
BRANCH   5   6
ATOM      6  C   UNL A   1      32.674  29.690  26.710  1.00  0.00     0.309 C 
ATOM      7  O   UNL A   1      32.170  30.817  26.705  1.00  0.00    -0.252 OA
BRANCH   6   8
ATOM      8  C   UNL A   1      32.103  28.530  25.650  1.00  0.00     0.111 C 
ATOM      9  C   UNL A   1      31.883  26.921  25.617  1.00  0.00     0.094 C 
ATOM     10  C   UNL A   1      32.739  26.070  24.611  1.00  0.00     0.014 C 
ATOM     11  C   UNL A   1      33.426  26.787  23.467  1.00  0.00     0.001 C 
ATOM     12  C   UNL A   1      32.423  29.045  24.249  1.00  0.00     0.016 C 
ATOM     13  C   UNL A   1      33.508  28.300  23.503  1.00  0.00     0.001 C 
BRANCH   9  14
ATOM     14  C   UNL A   1      30.476  26.580  25.047  1.00  0.00     0.242 C 
ATOM     15  N   UNL A   1      29.977  25.293  25.101  1.00  0.00    -0.267 N 
ATOM     16  H   UNL A   1      29.901  24.794  24.256  1.00  0.00     0.191 HD
ATOM     17  O   UNL A   1      29.946  27.332  24.220  1.00  0.00    -0.273 OA
BRANCH  15  18
ATOM     18  N   UNL A   1      29.567  24.644  26.285  1.00  0.00    -0.265 N 
ATOM     19  C   UNL A   1      30.176  23.478  26.724  1.00  0.00     0.276 C 
ATOM     20  O   UNL A   1      29.757  22.826  27.681  1.00  0.00    -0.269 OA
ATOM     21  H   UNL A   1      28.829  25.029  26.812  1.00  0.00     0.191 HD
BRANCH  19  22
ATOM     22  C   UNL A   1      31.434  22.977  25.990  1.00  0.00     0.331 C 
BRANCH  22  23
ATOM     23  O   UNL A   1      31.883  21.657  26.245  1.00  0.00    -0.484 OA
BRANCH  23  24
ATOM     24  C   UNL A   1      33.167  21.354  25.881  1.00  0.00     0.120 A 
ATOM     25  C   UNL A   1      37.295  20.877  24.737  1.00  0.00     0.044 C 
ATOM     26  C   UNL A   1      35.862  21.035  25.139  1.00  0.00    -0.051 A 
ATOM     27  C   UNL A   1      35.434  22.209  25.767  1.00  0.00     0.007 A 
ATOM     28  C   UNL A   1      34.933  20.017  24.903  1.00  0.00     0.007 A 
ATOM     29  C   UNL A   1      34.096  22.363  26.133  1.00  0.00     0.047 A 
ATOM     30  C   UNL A   1      33.596  20.171  25.279  1.00  0.00     0.047 A 
ENDBRANCH  23  24
ENDBRANCH  22  23
ENDBRANCH  19  22
ENDBRANCH  15  18
ENDBRANCH   9  14
ENDBRANCH   6   8
ENDBRANCH   5   6
ENDBRANCH   4   5
ENDBRANCH   3   4
ENDBRANCH   2   3
ENDBRANCH   1   2
BRANCH   1  31
ATOM     31  C   UNL A   1      35.084  33.928  27.805  1.00  0.00     0.188 C 
BRANCH  31  32
ATOM     32  O   UNL A   1      33.831  34.483  28.171  1.00  0.00    -0.376 OA
BRANCH  32  33
ATOM     33  C   UNL A   1      33.842  35.540  29.107  1.00  0.00     0.202 C 
BRANCH  33  34
ATOM     34  C   UNL A   1      33.208  35.099  30.426  1.00  0.00     0.261 C 
BRANCH  34  35
ATOM     35  O   UNL A   1      34.008  34.039  31.000  1.00  0.00    -0.460 OA
BRANCH  35  36
ATOM     36  C   UNL A   1      34.471  34.274  32.266  1.00  0.00     0.338 C 
ATOM     37  O   UNL A   1      34.230  35.294  32.899  1.00  0.00    -0.246 OA
BRANCH  36  38
ATOM     38  C   UNL A   1      35.536  33.274  32.619  1.00  0.00     0.060 A 
ATOM     39  C   UNL A   1      36.828  33.655  32.967  1.00  0.00     0.016 A 
ATOM     40  C   UNL A   1      35.362  31.939  32.344  1.00  0.00     0.016 A 
ATOM     41  C   UNL A   1      37.937  32.759  32.783  1.00  0.00     0.010 A 
ATOM     42  C   UNL A   1      36.501  31.144  32.074  1.00  0.00     0.010 A 
ATOM     43  C   UNL A   1      37.847  31.516  32.132  1.00  0.00    -0.014 A 
BRANCH  43  44
ATOM     44  C   UNL A   1      39.005  30.876  31.229  1.00  0.00     0.031 A 
ATOM     45  C   UNL A   1      39.188  29.460  30.576  1.00  0.00     0.074 A 
ATOM     46  C   UNL A   1      40.015  31.672  30.800  1.00  0.00     0.049 A 
ATOM     47  N   UNL A   1      39.482  29.142  29.333  1.00  0.00    -0.248 NA
ATOM     48  C   UNL A   1      39.175  28.242  31.360  1.00  0.00     0.031 C 
ATOM     49  C   UNL A   1      41.030  31.382  29.783  1.00  0.00     0.029 A 
ATOM     50  N   UNL A   1      40.449  32.898  31.253  1.00  0.00    -0.354 N 
ATOM     51  C   UNL A   1      39.471  27.748  29.170  1.00  0.00     0.074 A 
ATOM     52  C   UNL A   1      39.105  27.235  30.480  1.00  0.00     0.031 C 
ATOM     53  C   UNL A   1      42.095  32.164  29.993  1.00  0.00     0.029 A 
ATOM     54  C   UNL A   1      41.839  32.919  31.193  1.00  0.00     0.049 A 
ATOM     55  H   UNL A   1      39.875  33.633  31.567  1.00  0.00     0.167 HD
ATOM     56  C   UNL A   1      40.430  27.037  28.497  1.00  0.00     0.034 A 
ATOM     57  C   UNL A   1      42.591  32.892  32.333  1.00  0.00     0.034 A 
ATOM     58  C   UNL A   1      41.766  27.547  28.766  1.00  0.00     0.049 A 
ATOM     59  C   UNL A   1      43.290  31.548  32.539  1.00  0.00     0.074 A 
ATOM     60  C   UNL A   1      42.709  28.286  28.084  1.00  0.00     0.029 A 
ATOM     61  N   UNL A   1      42.257  27.396  30.055  1.00  0.00    -0.354 N 
ATOM     62  N   UNL A   1      43.343  30.576  31.661  1.00  0.00    -0.248 NA
ATOM     63  C   UNL A   1      43.942  31.174  33.795  1.00  0.00     0.031 C 
ATOM     64  C   UNL A   1      43.705  28.690  29.028  1.00  0.00     0.029 A 
ATOM     65  C   UNL A   1      43.393  28.151  30.266  1.00  0.00     0.049 A 
ATOM     66  H   UNL A   1      41.844  26.819  30.737  1.00  0.00     0.167 HD
ATOM     67  C   UNL A   1      43.885  29.451  32.237  1.00  0.00     0.074 A 
ATOM     68  C   UNL A   1      44.259  29.887  33.573  1.00  0.00     0.031 C 
ATOM     69  C   UNL A   1      43.962  28.232  31.611  1.00  0.00     0.034 A 
BRANCH  56  70
ATOM     70  C   UNL A   1      40.138  25.677  27.845  1.00  0.00     0.023 A 
ATOM     71  C   UNL A   1      38.844  25.447  27.319  1.00  0.00     0.012 A 
ATOM     72  C   UNL A   1      41.035  24.570  27.805  1.00  0.00     0.148 A 
ATOM     73  C   UNL A   1      38.453  24.203  26.794  1.00  0.00     0.002 A 
ATOM     74  C   UNL A   1      40.646  23.333  27.256  1.00  0.00     0.091 A 
ATOM     75  F   UNL A   1      42.256  24.705  28.340  1.00  0.00    -0.205 F 
ATOM     76  C   UNL A   1      39.353  23.147  26.757  1.00  0.00     0.022 A 
BRANCH  74  77
ATOM     77  S   UNL A   1      41.761  21.913  27.140  1.00  0.00     0.127 S 
ATOM     78  O   UNL A   1      42.585  22.264  25.984  1.00  0.00    -0.237 OA
ATOM     79  O   UNL A   1      42.478  21.950  28.417  1.00  0.00    -0.237 OA
ATOM     80  O   UNL A   1      40.900  20.751  26.972  1.00  0.00    -0.744 OA
ENDBRANCH  74  77
ENDBRANCH  56  70
BRANCH  57  81
ATOM     81  C   UNL A   1      42.039  33.834  33.360  1.00  0.00     0.023 A 
ATOM     82  C   UNL A   1      41.311  33.209  34.412  1.00  0.00     0.012 A 
ATOM     83  C   UNL A   1      42.515  35.137  33.567  1.00  0.00     0.148 A 
ATOM     84  C   UNL A   1      41.230  33.777  35.683  1.00  0.00     0.002 A 
ATOM     85  C   UNL A   1      42.397  35.715  34.835  1.00  0.00     0.091 A 
ATOM     86  F   UNL A   1      43.180  35.760  32.586  1.00  0.00    -0.205 F 
ATOM     87  C   UNL A   1      41.798  35.021  35.902  1.00  0.00     0.022 A 
BRANCH  85  88
ATOM     88  S   UNL A   1      43.251  37.258  35.204  1.00  0.00     0.127 S 
ATOM     89  O   UNL A   1      44.628  36.927  34.854  1.00  0.00    -0.237 OA
ATOM     90  O   UNL A   1      42.590  38.193  34.296  1.00  0.00    -0.237 OA
ATOM     91  O   UNL A   1      42.967  37.467  36.623  1.00  0.00    -0.744 OA
ENDBRANCH  85  88
ENDBRANCH  57  81
BRANCH  69  92
ATOM     92  C   UNL A   1      44.640  27.017  32.234  1.00  0.00     0.023 A 
ATOM     93  C   UNL A   1      43.906  26.141  33.062  1.00  0.00     0.012 A 
ATOM     94  C   UNL A   1      46.037  26.784  32.148  1.00  0.00     0.148 A 
ATOM     95  C   UNL A   1      44.503  25.055  33.713  1.00  0.00     0.002 A 
ATOM     96  C   UNL A   1      46.645  25.766  32.885  1.00  0.00     0.091 A 
ATOM     97  F   UNL A   1      46.779  27.527  31.318  1.00  0.00    -0.205 F 
ATOM     98  C   UNL A   1      45.876  24.879  33.641  1.00  0.00     0.022 A 
BRANCH  96  99
ATOM     99  S   UNL A   1      48.432  25.590  33.022  1.00  0.00     0.127 S 
ATOM    100  O   UNL A   1      48.811  25.375  31.625  1.00  0.00    -0.237 OA
ATOM    101  O   UNL A   1      48.820  26.889  33.567  1.00  0.00    -0.237 OA
ATOM    102  O   UNL A   1      48.652  24.450  33.899  1.00  0.00    -0.744 OA
ENDBRANCH  96  99
ENDBRANCH  69  92
ENDBRANCH  43  44
ENDBRANCH  36  38
ENDBRANCH  35  36
ENDBRANCH  34  35
ENDBRANCH  33  34
ENDBRANCH  32  33
ENDBRANCH  31  32
ENDBRANCH   1  31
TORSDOF 25
ENDMDL
