MODEL 1
REMARK VINA RESULT:      -8.4      0.000      0.000
REMARK SMILES C[C@@H]1CCC[C@H](C)[N@H+]1Cc1cc2c(cc1Cl)C=C(C(=O)OCCOCCOCCOC(=O)c1ccc(-c3c4nc(c(-c5cccc(S(=O)(=O)[O-])c5F)c5ccc([nH]5)c(-c5cccc(S(=O)(=O)[O-])c5F)c5nc(c(-c6cccc(S(=O)(=O)[O-])c6F)c6ccc3[nH]6)C=C5)C=C4)cc1)[C@@H](C(F)(F)F)O2
REMARK SMILES IDX 26 1 25 2 24 3 23 4 22 5 21 6 19 7 20 8 18 9 10 10 11 11
REMARK SMILES IDX 15 12 12 13 14 14 16 15 13 16 101 17 17 18 96 19 9 20 8 21
REMARK SMILES IDX 7 22 6 23 5 24 4 25 2 26 3 28 1 29 97 30 98 31 99 32 100 33
REMARK SMILES IDX 27 34 28 35 29 36 30 37 31 38 32 39 33 40 34 41 95 42 35 43
REMARK SMILES IDX 94 44 36 45 37 46 38 47 88 48 39 49 93 50 87 51 89 52 40 53
REMARK SMILES IDX 92 54 86 55 85 56 41 58 73 59 53 60 72 61 54 62 57 63 71 64
REMARK SMILES IDX 90 65 55 66 56 67 70 69 91 70 58 71 42 72 43 73 51 74 44 75
REMARK SMILES IDX 46 76 52 77 45 78 47 79 48 80 49 81 50 82 74 83 75 84 83 85
REMARK SMILES IDX 76 86 78 87 84 88 77 89 79 90 80 91 81 92 82 93 59 94 60 95
REMARK SMILES IDX 68 96 61 97 63 98 69 99 62 100 64 101 65 102 66 103 67 104
REMARK H PARENT 8 27 89 57 57 68
REMARK Flexibility Score: inf
ROOT
ATOM      1  C   UNL A   1      33.811  34.961  31.108  1.00  0.00     0.188 C 
ENDROOT
BRANCH   1   2
ATOM      2  C   UNL A   1      33.224  34.769  32.522  1.00  0.00     0.188 C 
BRANCH   2   3
ATOM      3  O   UNL A   1      33.625  33.566  33.136  1.00  0.00    -0.376 OA
BRANCH   3   4
ATOM      4  C   UNL A   1      34.958  33.411  33.586  1.00  0.00     0.202 C 
BRANCH   4   5
ATOM      5  C   UNL A   1      36.024  32.543  32.884  1.00  0.00     0.261 C 
BRANCH   5   6
ATOM      6  O   UNL A   1      37.393  32.709  33.270  1.00  0.00    -0.460 OA
BRANCH   6   7
ATOM      7  C   UNL A   1      37.950  33.901  32.964  1.00  0.00     0.338 C 
ATOM      8  O   UNL A   1      37.644  34.982  33.450  1.00  0.00    -0.246 OA
BRANCH   7   9
ATOM      9  C   UNL A   1      39.081  33.713  32.035  1.00  0.00     0.087 C 
ATOM     10  C   UNL A   1      43.615  33.822  29.828  1.00  0.00     0.029 A 
ATOM     11  C   UNL A   1      42.360  33.275  29.475  1.00  0.00     0.058 A 
ATOM     12  C   UNL A   1      43.681  34.593  31.002  1.00  0.00     0.050 A 
ATOM     13  C   UNL A   1      41.252  33.396  30.324  1.00  0.00     0.128 A 
ATOM     14  C   UNL A   1      42.601  34.638  31.887  1.00  0.00     0.033 A 
ATOM     15  Cl  UNL A   1      45.052  35.554  31.423  1.00  0.00    -0.084 Cl
ATOM     16  C   UNL A   1      41.395  34.024  31.559  1.00  0.00     0.019 A 
ATOM     17  O   UNL A   1      40.071  32.844  29.906  1.00  0.00    -0.475 OA
ATOM     18  C   UNL A   1      40.286  34.072  32.493  1.00  0.00     0.027 C 
ATOM     19  C   UNL A   1      38.855  33.203  30.636  1.00  0.00     0.316 C 
BRANCH  10  20
ATOM     20  C   UNL A   1      44.834  33.547  28.963  1.00  0.00     0.301 C 
BRANCH  20  21
ATOM     21  N   UNL A   1      45.549  32.262  29.150  1.00  0.00    -0.327 N 
ATOM     22  C   UNL A   1      46.886  30.616  27.857  1.00  0.00     0.075 C 
ATOM     23  C   UNL A   1      45.545  31.362  27.989  1.00  0.00     0.181 C 
ATOM     24  C   UNL A   1      44.374  30.368  27.983  1.00  0.00     0.065 C 
ATOM     25  C   UNL A   1      44.182  29.649  29.314  1.00  0.00     0.012 C 
ATOM     26  C   UNL A   1      45.356  31.617  30.461  1.00  0.00     0.181 C 
ATOM     27  H   UNL A   1      46.526  32.553  29.192  1.00  0.00     0.348 HD
ATOM     28  C   UNL A   1      44.191  30.614  30.494  1.00  0.00     0.065 C 
ATOM     29  C   UNL A   1      46.644  30.962  30.984  1.00  0.00     0.075 C 
ENDBRANCH  20  21
ENDBRANCH  10  20
BRANCH  19  30
ATOM     30  C   UNL A   1      38.016  34.197  29.821  1.00  0.00     0.430 C 
ATOM     31  F   UNL A   1      38.555  35.439  29.839  1.00  0.00    -0.167 F 
ATOM     32  F   UNL A   1      37.944  33.827  28.519  1.00  0.00    -0.167 F 
ATOM     33  F   UNL A   1      36.748  34.299  30.280  1.00  0.00    -0.167 F 
ENDBRANCH  19  30
ENDBRANCH   7   9
ENDBRANCH   6   7
ENDBRANCH   5   6
ENDBRANCH   4   5
ENDBRANCH   3   4
ENDBRANCH   2   3
ENDBRANCH   1   2
BRANCH   1  34
ATOM     34  O   UNL A   1      33.043  34.602  29.966  1.00  0.00    -0.376 OA
BRANCH  34  35
ATOM     35  C   UNL A   1      33.601  34.780  28.669  1.00  0.00     0.202 C 
BRANCH  35  36
ATOM     36  C   UNL A   1      34.459  33.689  27.998  1.00  0.00     0.261 C 
BRANCH  36  37
ATOM     37  O   UNL A   1      34.840  32.582  28.825  1.00  0.00    -0.460 OA
BRANCH  37  38
ATOM     38  C   UNL A   1      34.789  31.357  28.234  1.00  0.00     0.338 C 
ATOM     39  O   UNL A   1      33.985  30.975  27.405  1.00  0.00    -0.246 OA
BRANCH  38  40
ATOM     40  C   UNL A   1      36.013  30.614  28.604  1.00  0.00     0.060 A 
ATOM     41  C   UNL A   1      37.193  30.785  27.880  1.00  0.00     0.016 A 
ATOM     42  C   UNL A   1      35.963  29.717  29.682  1.00  0.00     0.016 A 
ATOM     43  C   UNL A   1      38.330  30.064  28.248  1.00  0.00     0.010 A 
ATOM     44  C   UNL A   1      37.096  28.982  30.034  1.00  0.00     0.010 A 
ATOM     45  C   UNL A   1      38.295  29.164  29.330  1.00  0.00    -0.014 A 
BRANCH  45  46
ATOM     46  C   UNL A   1      39.557  28.570  29.830  1.00  0.00     0.031 A 
ATOM     47  C   UNL A   1      40.238  27.427  29.140  1.00  0.00     0.074 A 
ATOM     48  C   UNL A   1      40.090  29.088  30.953  1.00  0.00     0.049 A 
ATOM     49  N   UNL A   1      41.400  26.891  29.408  1.00  0.00    -0.248 NA
ATOM     50  C   UNL A   1      39.531  26.801  28.013  1.00  0.00     0.031 C 
ATOM     51  C   UNL A   1      39.482  30.157  31.749  1.00  0.00     0.029 A 
ATOM     52  N   UNL A   1      41.251  28.793  31.618  1.00  0.00    -0.354 N 
ATOM     53  C   UNL A   1      41.574  25.868  28.486  1.00  0.00     0.074 A 
ATOM     54  C   UNL A   1      40.381  25.842  27.663  1.00  0.00     0.031 C 
ATOM     55  C   UNL A   1      40.286  30.442  32.783  1.00  0.00     0.029 A 
ATOM     56  C   UNL A   1      41.457  29.570  32.732  1.00  0.00     0.049 A 
ATOM     57  H   UNL A   1      41.878  28.093  31.324  1.00  0.00     0.167 HD
ATOM     58  C   UNL A   1      42.641  25.048  28.328  1.00  0.00     0.034 A 
ATOM     59  C   UNL A   1      42.476  29.593  33.611  1.00  0.00     0.034 A 
ATOM     60  C   UNL A   1      43.826  25.084  29.146  1.00  0.00     0.049 A 
ATOM     61  C   UNL A   1      43.650  28.683  33.409  1.00  0.00     0.074 A 
ATOM     62  C   UNL A   1      44.981  24.331  29.012  1.00  0.00     0.029 A 
ATOM     63  N   UNL A   1      44.008  25.898  30.253  1.00  0.00    -0.354 N 
ATOM     64  N   UNL A   1      43.860  27.821  32.445  1.00  0.00    -0.248 NA
ATOM     65  C   UNL A   1      44.740  28.767  34.391  1.00  0.00     0.031 C 
ATOM     66  C   UNL A   1      45.852  24.675  30.051  1.00  0.00     0.029 A 
ATOM     67  C   UNL A   1      45.250  25.658  30.818  1.00  0.00     0.049 A 
ATOM     68  H   UNL A   1      43.351  26.550  30.588  1.00  0.00     0.167 HD
ATOM     69  C   UNL A   1      45.111  27.270  32.693  1.00  0.00     0.074 A 
ATOM     70  C   UNL A   1      45.619  27.907  33.891  1.00  0.00     0.031 C 
ATOM     71  C   UNL A   1      45.767  26.315  31.991  1.00  0.00     0.034 A 
BRANCH  58  72
ATOM     72  C   UNL A   1      42.623  24.073  27.182  1.00  0.00     0.023 A 
ATOM     73  C   UNL A   1      43.269  24.422  25.980  1.00  0.00     0.012 A 
ATOM     74  C   UNL A   1      42.087  22.779  27.332  1.00  0.00     0.148 A 
ATOM     75  C   UNL A   1      43.375  23.502  24.938  1.00  0.00     0.002 A 
ATOM     76  C   UNL A   1      42.219  21.858  26.298  1.00  0.00     0.091 A 
ATOM     77  F   UNL A   1      41.472  22.472  28.483  1.00  0.00    -0.205 F 
ATOM     78  C   UNL A   1      42.860  22.219  25.102  1.00  0.00     0.022 A 
BRANCH  76  79
ATOM     79  S   UNL A   1      41.638  20.162  26.422  1.00  0.00     0.127 S 
ATOM     80  O   UNL A   1      42.183  19.761  27.719  1.00  0.00    -0.237 OA
ATOM     81  O   UNL A   1      40.185  20.333  26.398  1.00  0.00    -0.237 OA
ATOM     82  O   UNL A   1      42.192  19.460  25.273  1.00  0.00    -0.744 OA
ENDBRANCH  76  79
ENDBRANCH  58  72
BRANCH  59  83
ATOM     83  C   UNL A   1      42.437  30.582  34.720  1.00  0.00     0.023 A 
ATOM     84  C   UNL A   1      41.851  30.219  35.946  1.00  0.00     0.012 A 
ATOM     85  C   UNL A   1      43.077  31.830  34.595  1.00  0.00     0.148 A 
ATOM     86  C   UNL A   1      41.902  31.088  37.036  1.00  0.00     0.002 A 
ATOM     87  C   UNL A   1      43.157  32.673  35.695  1.00  0.00     0.091 A 
ATOM     88  F   UNL A   1      43.631  32.140  33.415  1.00  0.00    -0.205 F 
ATOM     89  C   UNL A   1      42.565  32.309  36.915  1.00  0.00     0.022 A 
BRANCH  87  90
ATOM     90  S   UNL A   1      44.076  34.216  35.668  1.00  0.00     0.127 S 
ATOM     91  O   UNL A   1      45.359  33.788  35.113  1.00  0.00    -0.237 OA
ATOM     92  O   UNL A   1      43.258  35.032  34.772  1.00  0.00    -0.237 OA
ATOM     93  O   UNL A   1      44.118  34.679  37.048  1.00  0.00    -0.744 OA
ENDBRANCH  87  90
ENDBRANCH  59  83
BRANCH  71  94
ATOM     94  C   UNL A   1      47.122  25.881  32.480  1.00  0.00     0.023 A 
ATOM     95  C   UNL A   1      47.210  24.951  33.536  1.00  0.00     0.012 A 
ATOM     96  C   UNL A   1      48.294  26.289  31.815  1.00  0.00     0.148 A 
ATOM     97  C   UNL A   1      48.448  24.439  33.924  1.00  0.00     0.002 A 
ATOM     98  C   UNL A   1      49.520  25.749  32.185  1.00  0.00     0.091 A 
ATOM     99  F   UNL A   1      48.183  27.180  30.819  1.00  0.00    -0.205 F 
ATOM    100  C   UNL A   1      49.599  24.827  33.242  1.00  0.00     0.022 A 
BRANCH  98 101
ATOM    101  S   UNL A   1      51.051  26.133  31.327  1.00  0.00     0.127 S 
ATOM    102  O   UNL A   1      50.649  26.000  29.927  1.00  0.00    -0.237 OA
ATOM    103  O   UNL A   1      51.311  27.506  31.760  1.00  0.00    -0.237 OA
ATOM    104  O   UNL A   1      52.029  25.153  31.784  1.00  0.00    -0.744 OA
ENDBRANCH  98 101
ENDBRANCH  71  94
ENDBRANCH  45  46
ENDBRANCH  38  40
ENDBRANCH  37  38
ENDBRANCH  36  37
ENDBRANCH  35  36
ENDBRANCH  34  35
ENDBRANCH   1  34
TORSDOF 23
ENDMDL
MODEL 2
REMARK VINA RESULT:      -8.1      1.428      2.076
REMARK SMILES C[C@@H]1CCC[C@H](C)[N@H+]1Cc1cc2c(cc1Cl)C=C(C(=O)OCCOCCOCCOC(=O)c1ccc(-c3c4nc(c(-c5cccc(S(=O)(=O)[O-])c5F)c5ccc([nH]5)c(-c5cccc(S(=O)(=O)[O-])c5F)c5nc(c(-c6cccc(S(=O)(=O)[O-])c6F)c6ccc3[nH]6)C=C5)C=C4)cc1)[C@@H](C(F)(F)F)O2
REMARK SMILES IDX 26 1 25 2 24 3 23 4 22 5 21 6 19 7 20 8 18 9 10 10 11 11
REMARK SMILES IDX 15 12 12 13 14 14 16 15 13 16 101 17 17 18 96 19 9 20 8 21
REMARK SMILES IDX 7 22 6 23 5 24 4 25 2 26 3 28 1 29 97 30 98 31 99 32 100 33
REMARK SMILES IDX 27 34 28 35 29 36 30 37 31 38 32 39 33 40 34 41 95 42 35 43
REMARK SMILES IDX 94 44 36 45 37 46 38 47 88 48 39 49 93 50 87 51 89 52 40 53
REMARK SMILES IDX 92 54 86 55 85 56 41 58 73 59 53 60 72 61 54 62 57 63 71 64
REMARK SMILES IDX 90 65 55 66 56 67 70 69 91 70 58 71 42 72 43 73 51 74 44 75
REMARK SMILES IDX 46 76 52 77 45 78 47 79 48 80 49 81 50 82 74 83 75 84 83 85
REMARK SMILES IDX 76 86 78 87 84 88 77 89 79 90 80 91 81 92 82 93 59 94 60 95
REMARK SMILES IDX 68 96 61 97 63 98 69 99 62 100 64 101 65 102 66 103 67 104
REMARK H PARENT 8 27 89 57 57 68
REMARK Flexibility Score: inf
ROOT
ATOM      1  C   UNL A   1      33.852  34.923  31.057  1.00  0.00     0.188 C 
ENDROOT
BRANCH   1   2
ATOM      2  C   UNL A   1      33.159  34.777  32.429  1.00  0.00     0.188 C 
BRANCH   2   3
ATOM      3  O   UNL A   1      33.631  33.685  33.182  1.00  0.00    -0.376 OA
BRANCH   3   4
ATOM      4  C   UNL A   1      35.000  33.608  33.536  1.00  0.00     0.202 C 
BRANCH   4   5
ATOM      5  C   UNL A   1      36.002  32.594  32.945  1.00  0.00     0.261 C 
BRANCH   5   6
ATOM      6  O   UNL A   1      37.389  32.748  33.268  1.00  0.00    -0.460 OA
BRANCH   6   7
ATOM      7  C   UNL A   1      37.940  33.937  32.939  1.00  0.00     0.338 C 
ATOM      8  O   UNL A   1      37.627  35.026  33.402  1.00  0.00    -0.246 OA
BRANCH   7   9
ATOM      9  C   UNL A   1      39.073  33.737  32.016  1.00  0.00     0.087 C 
ATOM     10  C   UNL A   1      43.598  33.868  29.790  1.00  0.00     0.029 A 
ATOM     11  C   UNL A   1      42.359  33.270  29.468  1.00  0.00     0.058 A 
ATOM     12  C   UNL A   1      43.645  34.695  30.925  1.00  0.00     0.050 A 
ATOM     13  C   UNL A   1      41.249  33.400  30.314  1.00  0.00     0.128 A 
ATOM     14  C   UNL A   1      42.566  34.753  31.811  1.00  0.00     0.033 A 
ATOM     15  Cl  UNL A   1      44.989  35.714  31.296  1.00  0.00    -0.084 Cl
ATOM     16  C   UNL A   1      41.377  34.090  31.517  1.00  0.00     0.019 A 
ATOM     17  O   UNL A   1      40.083  32.796  29.927  1.00  0.00    -0.475 OA
ATOM     18  C   UNL A   1      40.269  34.152  32.451  1.00  0.00     0.027 C 
ATOM     19  C   UNL A   1      38.859  33.155  30.643  1.00  0.00     0.316 C 
BRANCH  10  20
ATOM     20  C   UNL A   1      44.823  33.586  28.935  1.00  0.00     0.301 C 
BRANCH  20  21
ATOM     21  N   UNL A   1      45.106  34.491  27.796  1.00  0.00    -0.327 N 
ATOM     22  C   UNL A   1      44.998  36.899  27.199  1.00  0.00     0.075 C 
ATOM     23  C   UNL A   1      44.223  35.660  27.684  1.00  0.00     0.181 C 
ATOM     24  C   UNL A   1      42.989  35.419  26.801  1.00  0.00     0.065 C 
ATOM     25  C   UNL A   1      43.319  34.772  25.460  1.00  0.00     0.012 C 
ATOM     26  C   UNL A   1      45.446  33.822  26.528  1.00  0.00     0.181 C 
ATOM     27  H   UNL A   1      45.994  34.917  28.063  1.00  0.00     0.348 HD
ATOM     28  C   UNL A   1      44.234  33.564  25.616  1.00  0.00     0.065 C 
ATOM     29  C   UNL A   1      46.551  34.561  25.756  1.00  0.00     0.075 C 
ENDBRANCH  20  21
ENDBRANCH  10  20
BRANCH  19  30
ATOM     30  C   UNL A   1      37.990  34.085  29.785  1.00  0.00     0.430 C 
ATOM     31  F   UNL A   1      36.736  34.199  30.283  1.00  0.00    -0.167 F 
ATOM     32  F   UNL A   1      38.505  35.339  29.746  1.00  0.00    -0.167 F 
ATOM     33  F   UNL A   1      37.882  33.657  28.508  1.00  0.00    -0.167 F 
ENDBRANCH  19  30
ENDBRANCH   7   9
ENDBRANCH   6   7
ENDBRANCH   5   6
ENDBRANCH   4   5
ENDBRANCH   3   4
ENDBRANCH   2   3
ENDBRANCH   1   2
BRANCH   1  34
ATOM     34  O   UNL A   1      33.116  34.696  29.863  1.00  0.00    -0.376 OA
BRANCH  34  35
ATOM     35  C   UNL A   1      33.796  34.714  28.613  1.00  0.00     0.202 C 
BRANCH  35  36
ATOM     36  C   UNL A   1      34.609  33.503  28.112  1.00  0.00     0.261 C 
BRANCH  36  37
ATOM     37  O   UNL A   1      34.784  32.428  29.043  1.00  0.00    -0.460 OA
BRANCH  37  38
ATOM     38  C   UNL A   1      34.719  31.175  28.518  1.00  0.00     0.338 C 
ATOM     39  O   UNL A   1      33.870  30.738  27.764  1.00  0.00    -0.246 OA
BRANCH  38  40
ATOM     40  C   UNL A   1      35.977  30.470  28.844  1.00  0.00     0.060 A 
ATOM     41  C   UNL A   1      37.081  30.561  27.996  1.00  0.00     0.016 A 
ATOM     42  C   UNL A   1      36.037  29.690  30.009  1.00  0.00     0.016 A 
ATOM     43  C   UNL A   1      38.253  29.879  28.326  1.00  0.00     0.010 A 
ATOM     44  C   UNL A   1      37.204  28.992  30.325  1.00  0.00     0.010 A 
ATOM     45  C   UNL A   1      38.328  29.096  29.494  1.00  0.00    -0.014 A 
BRANCH  45  46
ATOM     46  C   UNL A   1      39.637  28.554  29.929  1.00  0.00     0.031 A 
ATOM     47  C   UNL A   1      40.325  27.436  29.206  1.00  0.00     0.074 A 
ATOM     48  C   UNL A   1      40.206  29.095  31.023  1.00  0.00     0.049 A 
ATOM     49  N   UNL A   1      41.520  26.946  29.415  1.00  0.00    -0.248 NA
ATOM     50  C   UNL A   1      39.586  26.779  28.118  1.00  0.00     0.031 C 
ATOM     51  C   UNL A   1      39.598  30.142  31.848  1.00  0.00     0.029 A 
ATOM     52  N   UNL A   1      41.410  28.848  31.627  1.00  0.00    -0.354 N 
ATOM     53  C   UNL A   1      41.686  25.928  28.486  1.00  0.00     0.074 A 
ATOM     54  C   UNL A   1      40.455  25.852  27.725  1.00  0.00     0.031 C 
ATOM     55  C   UNL A   1      40.442  30.461  32.839  1.00  0.00     0.029 A 
ATOM     56  C   UNL A   1      41.642  29.635  32.728  1.00  0.00     0.049 A 
ATOM     57  H   UNL A   1      42.048  28.171  31.303  1.00  0.00     0.167 HD
ATOM     58  C   UNL A   1      42.775  25.150  28.275  1.00  0.00     0.034 A 
ATOM     59  C   UNL A   1      42.703  29.701  33.554  1.00  0.00     0.034 A 
ATOM     60  C   UNL A   1      43.998  25.234  29.030  1.00  0.00     0.049 A 
ATOM     61  C   UNL A   1      43.900  28.836  33.293  1.00  0.00     0.074 A 
ATOM     62  C   UNL A   1      45.173  24.526  28.839  1.00  0.00     0.029 A 
ATOM     63  N   UNL A   1      44.204  26.058  30.126  1.00  0.00    -0.354 N 
ATOM     64  N   UNL A   1      44.093  27.980  32.320  1.00  0.00    -0.248 NA
ATOM     65  C   UNL A   1      45.035  28.966  34.218  1.00  0.00     0.031 C 
ATOM     66  C   UNL A   1      46.082  24.907  29.831  1.00  0.00     0.029 A 
ATOM     67  C   UNL A   1      45.482  25.868  30.627  1.00  0.00     0.049 A 
ATOM     68  H   UNL A   1      43.541  26.685  30.493  1.00  0.00     0.167 HD
ATOM     69  C   UNL A   1      45.376  27.480  32.504  1.00  0.00     0.074 A 
ATOM     70  C   UNL A   1      45.920  28.139  33.674  1.00  0.00     0.031 C 
ATOM     71  C   UNL A   1      46.032  26.549  31.771  1.00  0.00     0.034 A 
BRANCH  58  72
ATOM     72  C   UNL A   1      42.736  24.171  27.132  1.00  0.00     0.023 A 
ATOM     73  C   UNL A   1      43.360  24.516  25.917  1.00  0.00     0.012 A 
ATOM     74  C   UNL A   1      42.203  22.877  27.296  1.00  0.00     0.148 A 
ATOM     75  C   UNL A   1      43.447  23.593  24.877  1.00  0.00     0.002 A 
ATOM     76  C   UNL A   1      42.317  21.953  26.263  1.00  0.00     0.091 A 
ATOM     77  F   UNL A   1      41.610  22.573  28.459  1.00  0.00    -0.205 F 
ATOM     78  C   UNL A   1      42.936  22.310  25.053  1.00  0.00     0.022 A 
BRANCH  76  79
ATOM     79  S   UNL A   1      41.740  20.258  26.403  1.00  0.00     0.127 S 
ATOM     80  O   UNL A   1      42.382  19.634  25.246  1.00  0.00    -0.237 OA
ATOM     81  O   UNL A   1      42.289  19.852  27.697  1.00  0.00    -0.237 OA
ATOM     82  O   UNL A   1      40.286  20.319  26.346  1.00  0.00    -0.744 OA
ENDBRANCH  76  79
ENDBRANCH  58  72
BRANCH  59  83
ATOM     83  C   UNL A   1      42.683  30.691  34.663  1.00  0.00     0.023 A 
ATOM     84  C   UNL A   1      42.054  30.354  35.875  1.00  0.00     0.012 A 
ATOM     85  C   UNL A   1      43.379  31.910  34.553  1.00  0.00     0.148 A 
ATOM     86  C   UNL A   1      42.119  31.220  36.967  1.00  0.00     0.002 A 
ATOM     87  C   UNL A   1      43.471  32.749  35.654  1.00  0.00     0.091 A 
ATOM     88  F   UNL A   1      43.972  32.195  33.386  1.00  0.00    -0.205 F 
ATOM     89  C   UNL A   1      42.836  32.411  36.861  1.00  0.00     0.022 A 
BRANCH  87  90
ATOM     90  S   UNL A   1      44.456  34.250  35.649  1.00  0.00     0.127 S 
ATOM     91  O   UNL A   1      45.754  33.753  35.196  1.00  0.00    -0.237 OA
ATOM     92  O   UNL A   1      43.738  35.073  34.676  1.00  0.00    -0.237 OA
ATOM     93  O   UNL A   1      44.425  34.753  37.015  1.00  0.00    -0.744 OA
ENDBRANCH  87  90
ENDBRANCH  59  83
BRANCH  71  94
ATOM     94  C   UNL A   1      47.426  26.169  32.191  1.00  0.00     0.023 A 
ATOM     95  C   UNL A   1      48.520  26.922  31.720  1.00  0.00     0.012 A 
ATOM     96  C   UNL A   1      47.640  25.156  33.146  1.00  0.00     0.148 A 
ATOM     97  C   UNL A   1      49.807  26.669  32.192  1.00  0.00     0.002 A 
ATOM     98  C   UNL A   1      48.922  24.931  33.636  1.00  0.00     0.091 A 
ATOM     99  F   UNL A   1      46.584  24.449  33.572  1.00  0.00    -0.205 F 
ATOM    100  C   UNL A   1      50.007  25.684  33.157  1.00  0.00     0.022 A 
BRANCH  98 101
ATOM    101  S   UNL A   1      49.272  23.733  34.928  1.00  0.00     0.127 S 
ATOM    102  O   UNL A   1      48.789  24.430  36.120  1.00  0.00    -0.237 OA
ATOM    103  O   UNL A   1      48.458  22.589  34.517  1.00  0.00    -0.237 OA
ATOM    104  O   UNL A   1      50.711  23.505  34.889  1.00  0.00    -0.744 OA
ENDBRANCH  98 101
ENDBRANCH  71  94
ENDBRANCH  45  46
ENDBRANCH  38  40
ENDBRANCH  37  38
ENDBRANCH  36  37
ENDBRANCH  35  36
ENDBRANCH  34  35
ENDBRANCH   1  34
TORSDOF 23
ENDMDL
MODEL 3
REMARK VINA RESULT:      -8.0      2.938      5.215
REMARK SMILES C[C@@H]1CCC[C@H](C)[N@H+]1Cc1cc2c(cc1Cl)C=C(C(=O)OCCOCCOCCOC(=O)c1ccc(-c3c4nc(c(-c5cccc(S(=O)(=O)[O-])c5F)c5ccc([nH]5)c(-c5cccc(S(=O)(=O)[O-])c5F)c5nc(c(-c6cccc(S(=O)(=O)[O-])c6F)c6ccc3[nH]6)C=C5)C=C4)cc1)[C@@H](C(F)(F)F)O2
REMARK SMILES IDX 26 1 25 2 24 3 23 4 22 5 21 6 19 7 20 8 18 9 10 10 11 11
REMARK SMILES IDX 15 12 12 13 14 14 16 15 13 16 101 17 17 18 96 19 9 20 8 21
REMARK SMILES IDX 7 22 6 23 5 24 4 25 2 26 3 28 1 29 97 30 98 31 99 32 100 33
REMARK SMILES IDX 27 34 28 35 29 36 30 37 31 38 32 39 33 40 34 41 95 42 35 43
REMARK SMILES IDX 94 44 36 45 37 46 38 47 88 48 39 49 93 50 87 51 89 52 40 53
REMARK SMILES IDX 92 54 86 55 85 56 41 58 73 59 53 60 72 61 54 62 57 63 71 64
REMARK SMILES IDX 90 65 55 66 56 67 70 69 91 70 58 71 42 72 43 73 51 74 44 75
REMARK SMILES IDX 46 76 52 77 45 78 47 79 48 80 49 81 50 82 74 83 75 84 83 85
REMARK SMILES IDX 76 86 78 87 84 88 77 89 79 90 80 91 81 92 82 93 59 94 60 95
REMARK SMILES IDX 68 96 61 97 63 98 69 99 62 100 64 101 65 102 66 103 67 104
REMARK H PARENT 8 27 89 57 57 68
REMARK Flexibility Score: inf
ROOT
ATOM      1  C   UNL A   1      33.508  35.468  30.652  1.00  0.00     0.188 C 
ENDROOT
BRANCH   1   2
ATOM      2  C   UNL A   1      32.795  35.405  32.019  1.00  0.00     0.188 C 
BRANCH   2   3
ATOM      3  O   UNL A   1      33.314  34.417  32.878  1.00  0.00    -0.376 OA
BRANCH   3   4
ATOM      4  C   UNL A   1      34.591  34.590  33.464  1.00  0.00     0.202 C 
BRANCH   4   5
ATOM      5  C   UNL A   1      35.930  34.409  32.717  1.00  0.00     0.261 C 
BRANCH   5   6
ATOM      6  O   UNL A   1      37.077  35.111  33.208  1.00  0.00    -0.460 OA
BRANCH   6   7
ATOM      7  C   UNL A   1      38.134  34.343  33.553  1.00  0.00     0.338 C 
ATOM      8  O   UNL A   1      38.905  33.793  32.778  1.00  0.00    -0.246 OA
BRANCH   7   9
ATOM      9  C   UNL A   1      38.313  34.349  35.018  1.00  0.00     0.087 C 
ATOM     10  C   UNL A   1      40.016  35.178  39.693  1.00  0.00     0.029 A 
ATOM     11  C   UNL A   1      38.947  34.427  39.152  1.00  0.00     0.058 A 
ATOM     12  C   UNL A   1      40.897  35.798  38.790  1.00  0.00     0.050 A 
ATOM     13  C   UNL A   1      38.706  34.399  37.772  1.00  0.00     0.128 A 
ATOM     14  C   UNL A   1      40.606  35.840  37.424  1.00  0.00     0.033 A 
ATOM     15  Cl  UNL A   1      42.395  36.509  39.272  1.00  0.00    -0.084 Cl
ATOM     16  C   UNL A   1      39.501  35.160  36.918  1.00  0.00     0.019 A 
ATOM     17  O   UNL A   1      37.656  33.642  37.327  1.00  0.00    -0.475 OA
ATOM     18  C   UNL A   1      39.207  35.221  35.499  1.00  0.00     0.027 C 
ATOM     19  C   UNL A   1      37.566  33.376  35.892  1.00  0.00     0.316 C 
BRANCH  10  20
ATOM     20  C   UNL A   1      40.163  35.314  41.200  1.00  0.00     0.301 C 
BRANCH  20  21
ATOM     21  N   UNL A   1      40.778  34.192  41.947  1.00  0.00    -0.327 N 
ATOM     22  C   UNL A   1      41.474  33.590  44.254  1.00  0.00     0.075 C 
ATOM     23  C   UNL A   1      41.625  34.580  43.083  1.00  0.00     0.181 C 
ATOM     24  C   UNL A   1      43.106  34.756  42.716  1.00  0.00     0.065 C 
ATOM     25  C   UNL A   1      43.672  33.599  41.899  1.00  0.00     0.012 C 
ATOM     26  C   UNL A   1      41.286  33.084  41.119  1.00  0.00     0.181 C 
ATOM     27  H   UNL A   1      39.976  33.766  42.413  1.00  0.00     0.348 HD
ATOM     28  C   UNL A   1      42.767  33.227  40.731  1.00  0.00     0.065 C 
ATOM     29  C   UNL A   1      41.027  31.711  41.758  1.00  0.00     0.075 C 
ENDBRANCH  20  21
ENDBRANCH  10  20
BRANCH  19  30
ATOM     30  C   UNL A   1      37.990  31.933  35.587  1.00  0.00     0.430 C 
ATOM     31  F   UNL A   1      37.753  31.109  36.636  1.00  0.00    -0.167 F 
ATOM     32  F   UNL A   1      37.296  31.428  34.538  1.00  0.00    -0.167 F 
ATOM     33  F   UNL A   1      39.304  31.834  35.284  1.00  0.00    -0.167 F 
ENDBRANCH  19  30
ENDBRANCH   7   9
ENDBRANCH   6   7
ENDBRANCH   5   6
ENDBRANCH   4   5
ENDBRANCH   3   4
ENDBRANCH   2   3
ENDBRANCH   1   2
BRANCH   1  34
ATOM     34  O   UNL A   1      33.045  34.667  29.573  1.00  0.00    -0.376 OA
BRANCH  34  35
ATOM     35  C   UNL A   1      33.778  34.652  28.353  1.00  0.00     0.202 C 
BRANCH  35  36
ATOM     36  C   UNL A   1      34.766  33.519  28.013  1.00  0.00     0.261 C 
BRANCH  36  37
ATOM     37  O   UNL A   1      34.610  32.299  28.749  1.00  0.00    -0.460 OA
BRANCH  37  38
ATOM     38  C   UNL A   1      34.700  31.153  28.020  1.00  0.00     0.338 C 
ATOM     39  O   UNL A   1      34.004  30.826  27.077  1.00  0.00    -0.246 OA
BRANCH  38  40
ATOM     40  C   UNL A   1      35.934  30.445  28.421  1.00  0.00     0.060 A 
ATOM     41  C   UNL A   1      37.026  30.375  27.555  1.00  0.00     0.016 A 
ATOM     42  C   UNL A   1      35.984  29.824  29.679  1.00  0.00     0.016 A 
ATOM     43  C   UNL A   1      38.175  29.693  27.958  1.00  0.00     0.010 A 
ATOM     44  C   UNL A   1      37.126  29.126  30.071  1.00  0.00     0.010 A 
ATOM     45  C   UNL A   1      38.239  29.070  29.219  1.00  0.00    -0.014 A 
BRANCH  45  46
ATOM     46  C   UNL A   1      39.532  28.535  29.707  1.00  0.00     0.031 A 
ATOM     47  C   UNL A   1      40.237  27.397  29.033  1.00  0.00     0.074 A 
ATOM     48  C   UNL A   1      40.070  29.102  30.804  1.00  0.00     0.049 A 
ATOM     49  N   UNL A   1      41.423  26.909  29.289  1.00  0.00    -0.248 NA
ATOM     50  C   UNL A   1      39.529  26.716  27.939  1.00  0.00     0.031 C 
ATOM     51  C   UNL A   1      39.442  30.170  31.583  1.00  0.00     0.029 A 
ATOM     52  N   UNL A   1      41.255  28.866  31.450  1.00  0.00    -0.354 N 
ATOM     53  C   UNL A   1      41.613  25.868  28.392  1.00  0.00     0.074 A 
ATOM     54  C   UNL A   1      40.406  25.777  27.596  1.00  0.00     0.031 C 
ATOM     55  C   UNL A   1      40.257  30.511  32.591  1.00  0.00     0.029 A 
ATOM     56  C   UNL A   1      41.457  29.679  32.537  1.00  0.00     0.049 A 
ATOM     57  H   UNL A   1      41.900  28.179  31.161  1.00  0.00     0.167 HD
ATOM     58  C   UNL A   1      42.706  25.082  28.232  1.00  0.00     0.034 A 
ATOM     59  C   UNL A   1      42.492  29.762  33.393  1.00  0.00     0.034 A 
ATOM     60  C   UNL A   1      43.906  25.181  29.022  1.00  0.00     0.049 A 
ATOM     61  C   UNL A   1      43.693  28.888  33.189  1.00  0.00     0.074 A 
ATOM     62  C   UNL A   1      45.083  24.465  28.883  1.00  0.00     0.029 A 
ATOM     63  N   UNL A   1      44.082  26.031  30.102  1.00  0.00    -0.354 N 
ATOM     64  N   UNL A   1      43.913  28.008  32.244  1.00  0.00    -0.248 NA
ATOM     65  C   UNL A   1      44.800  29.037  34.145  1.00  0.00     0.031 C 
ATOM     66  C   UNL A   1      45.964  24.868  29.892  1.00  0.00     0.029 A 
ATOM     67  C   UNL A   1      45.344  25.850  30.646  1.00  0.00     0.049 A 
ATOM     68  H   UNL A   1      43.410  26.669  30.434  1.00  0.00     0.167 HD
ATOM     69  C   UNL A   1      45.188  27.508  32.479  1.00  0.00     0.074 A 
ATOM     70  C   UNL A   1      45.699  28.194  33.648  1.00  0.00     0.031 C 
ATOM     71  C   UNL A   1      45.862  26.557  31.789  1.00  0.00     0.034 A 
BRANCH  58  72
ATOM     72  C   UNL A   1      42.697  24.075  27.113  1.00  0.00     0.023 A 
ATOM     73  C   UNL A   1      43.377  24.379  25.918  1.00  0.00     0.012 A 
ATOM     74  C   UNL A   1      42.136  22.794  27.286  1.00  0.00     0.148 A 
ATOM     75  C   UNL A   1      43.491  23.428  24.905  1.00  0.00     0.002 A 
ATOM     76  C   UNL A   1      42.277  21.842  26.282  1.00  0.00     0.091 A 
ATOM     77  F   UNL A   1      41.490  22.530  28.431  1.00  0.00    -0.205 F 
ATOM     78  C   UNL A   1      42.951  22.159  25.091  1.00  0.00     0.022 A 
BRANCH  76  79
ATOM     79  S   UNL A   1      41.665  20.161  26.439  1.00  0.00     0.127 S 
ATOM     80  O   UNL A   1      40.224  20.358  26.285  1.00  0.00    -0.237 OA
ATOM     81  O   UNL A   1      42.313  19.491  25.311  1.00  0.00    -0.237 OA
ATOM     82  O   UNL A   1      42.089  19.697  27.753  1.00  0.00    -0.744 OA
ENDBRANCH  76  79
ENDBRANCH  58  72
BRANCH  59  83
ATOM     83  C   UNL A   1      42.443  30.779  34.476  1.00  0.00     0.023 A 
ATOM     84  C   UNL A   1      42.061  30.388  35.772  1.00  0.00     0.012 A 
ATOM     85  C   UNL A   1      42.879  32.098  34.246  1.00  0.00     0.148 A 
ATOM     86  C   UNL A   1      42.115  31.298  36.827  1.00  0.00     0.002 A 
ATOM     87  C   UNL A   1      42.966  32.987  35.308  1.00  0.00     0.091 A 
ATOM     88  F   UNL A   1      43.242  32.435  33.001  1.00  0.00    -0.205 F 
ATOM     89  C   UNL A   1      42.577  32.593  36.598  1.00  0.00     0.022 A 
BRANCH  87  90
ATOM     90  S   UNL A   1      43.645  34.640  35.134  1.00  0.00     0.127 S 
ATOM     91  O   UNL A   1      43.809  35.042  36.530  1.00  0.00    -0.237 OA
ATOM     92  O   UNL A   1      44.892  34.375  34.419  1.00  0.00    -0.237 OA
ATOM     93  O   UNL A   1      42.658  35.400  34.379  1.00  0.00    -0.744 OA
ENDBRANCH  87  90
ENDBRANCH  59  83
BRANCH  71  94
ATOM     94  C   UNL A   1      47.242  26.183  32.259  1.00  0.00     0.023 A 
ATOM     95  C   UNL A   1      48.355  26.895  31.772  1.00  0.00     0.012 A 
ATOM     96  C   UNL A   1      47.421  25.223  33.274  1.00  0.00     0.148 A 
ATOM     97  C   UNL A   1      49.629  26.653  32.285  1.00  0.00     0.002 A 
ATOM     98  C   UNL A   1      48.688  25.009  33.804  1.00  0.00     0.091 A 
ATOM     99  F   UNL A   1      46.346  24.554  33.715  1.00  0.00    -0.205 F 
ATOM    100  C   UNL A   1      49.794  25.721  33.308  1.00  0.00     0.022 A 
BRANCH  98 101
ATOM    101  S   UNL A   1      48.995  23.881  35.168  1.00  0.00     0.127 S 
ATOM    102  O   UNL A   1      48.451  22.628  34.645  1.00  0.00    -0.237 OA
ATOM    103  O   UNL A   1      50.454  23.916  35.273  1.00  0.00    -0.237 OA
ATOM    104  O   UNL A   1      48.285  24.430  36.316  1.00  0.00    -0.744 OA
ENDBRANCH  98 101
ENDBRANCH  71  94
ENDBRANCH  45  46
ENDBRANCH  38  40
ENDBRANCH  37  38
ENDBRANCH  36  37
ENDBRANCH  35  36
ENDBRANCH  34  35
ENDBRANCH   1  34
TORSDOF 23
ENDMDL
