MODEL 1
REMARK VINA RESULT:      -8.3      0.000      0.000
REMARK SMILES CS(=O)(=O)Nc1ccc(-c2cc(Cl)cc3c2O[C@H](C(F)(F)F)C(C(=O)OCCOCCOCCOC(=O)c2ccc(-c4c5nc(c(-c6cccc(S(=O)(=O)[O-])c6F)c6ccc([nH]6)c(-c6cccc(S(=O)(=O)[O-])c6F)c6nc(c(-c7cccc(S(=O)(=O)[O-])c7F)c7ccc4[nH]7)C=C6)C=C5)cc2)=C3)cc1
REMARK SMILES IDX 30 1 29 2 28 3 27 4 26 5 24 6 25 7 23 8 10 9 11 10 16 11
REMARK SMILES IDX 12 12 15 13 17 14 13 15 14 16 101 17 18 18 9 19 6 20 7 21
REMARK SMILES IDX 103 22 8 23 102 24 5 25 2 27 1 28 3 29 4 30 19 31 20 32
REMARK SMILES IDX 21 33 22 34 31 35 32 36 33 37 34 38 35 39 36 40 37 41 38 42
REMARK SMILES IDX 39 43 100 44 40 45 99 46 41 47 42 48 43 49 93 50 44 51 98 52
REMARK SMILES IDX 92 53 94 54 45 55 97 56 91 57 90 58 46 60 78 61 58 62 77 63
REMARK SMILES IDX 59 64 62 65 76 66 95 67 60 68 61 69 75 71 96 72 63 73 47 74
REMARK SMILES IDX 48 75 56 76 49 77 51 78 57 79 50 80 52 81 53 82 54 83 55 84
REMARK SMILES IDX 79 85 80 86 88 87 81 88 83 89 89 90 82 91 84 92 85 93 86 94
REMARK SMILES IDX 87 95 64 96 65 97 73 98 66 99 68 100 74 101 67 102 69 103
REMARK SMILES IDX 70 104 71 105 72 106
REMARK H PARENT 5 26 94 59 62 70
REMARK Flexibility Score: inf
ROOT
ATOM      1  C   UNL A   1      43.265  36.139  42.006  1.00  0.00     0.188 C 
ENDROOT
BRANCH   1   2
ATOM      2  O   UNL A   1      42.866  36.250  40.650  1.00  0.00    -0.376 OA
BRANCH   2   3
ATOM      3  C   UNL A   1      42.439  37.540  40.223  1.00  0.00     0.202 C 
BRANCH   3   4
ATOM      4  C   UNL A   1      42.814  37.897  38.780  1.00  0.00     0.261 C 
BRANCH   4   5
ATOM      5  O   UNL A   1      42.407  36.857  37.855  1.00  0.00    -0.460 OA
BRANCH   5   6
ATOM      6  C   UNL A   1      43.380  36.402  37.037  1.00  0.00     0.338 C 
ATOM      7  O   UNL A   1      44.570  36.375  37.322  1.00  0.00    -0.246 OA
BRANCH   6   8
ATOM      8  C   UNL A   1      42.838  35.811  35.784  1.00  0.00     0.087 C 
ATOM      9  C   UNL A   1      43.910  36.872  31.935  1.00  0.00     0.026 A 
ATOM     10  C   UNL A   1      44.441  38.177  32.064  1.00  0.00     0.033 A 
ATOM     11  C   UNL A   1      43.305  36.369  33.090  1.00  0.00     0.135 A 
ATOM     12  C   UNL A   1      44.201  38.991  33.172  1.00  0.00     0.042 A 
ATOM     13  C   UNL A   1      42.863  37.265  34.086  1.00  0.00     0.019 A 
ATOM     14  O   UNL A   1      43.264  35.019  33.430  1.00  0.00    -0.475 OA
ATOM     15  Cl  UNL A   1      44.927  40.539  33.304  1.00  0.00    -0.084 Cl
ATOM     16  C   UNL A   1      43.327  38.568  34.149  1.00  0.00     0.032 A 
ATOM     17  C   UNL A   1      42.040  36.707  35.179  1.00  0.00     0.027 C 
ATOM     18  C   UNL A   1      43.616  34.850  34.886  1.00  0.00     0.316 C 
BRANCH   9  19
ATOM     19  C   UNL A   1      43.688  36.448  30.517  1.00  0.00    -0.014 A 
ATOM     20  C   UNL A   1      44.039  34.578  28.377  1.00  0.00     0.048 A 
ATOM     21  C   UNL A   1      42.884  34.564  29.156  1.00  0.00     0.027 A 
ATOM     22  C   UNL A   1      44.945  35.619  28.573  1.00  0.00     0.027 A 
ATOM     23  C   UNL A   1      42.699  35.505  30.186  1.00  0.00     0.011 A 
ATOM     24  C   UNL A   1      44.768  36.547  29.620  1.00  0.00     0.011 A 
BRANCH  20  25
ATOM     25  N   UNL A   1      44.364  33.385  27.657  1.00  0.00    -0.284 N 
ATOM     26  H   UNL A   1      44.559  32.575  28.179  1.00  0.00     0.180 HD
BRANCH  25  27
ATOM     27  S   UNL A   1      44.438  33.273  25.994  1.00  0.00     0.229 S 
ATOM     28  C   UNL A   1      43.354  34.568  25.418  1.00  0.00     0.183 C 
ATOM     29  O   UNL A   1      43.901  32.001  25.569  1.00  0.00    -0.207 OA
ATOM     30  O   UNL A   1      45.781  33.689  25.644  1.00  0.00    -0.207 OA
ENDBRANCH  25  27
ENDBRANCH  20  25
ENDBRANCH   9  19
BRANCH  18  31
ATOM     31  C   UNL A   1      43.384  33.417  35.370  1.00  0.00     0.430 C 
ATOM     32  F   UNL A   1      44.540  32.730  35.517  1.00  0.00    -0.167 F 
ATOM     33  F   UNL A   1      42.727  33.380  36.551  1.00  0.00    -0.167 F 
ATOM     34  F   UNL A   1      42.624  32.725  34.482  1.00  0.00    -0.167 F 
ENDBRANCH  18  31
ENDBRANCH   6   8
ENDBRANCH   5   6
ENDBRANCH   4   5
ENDBRANCH   3   4
ENDBRANCH   2   3
ENDBRANCH   1   2
BRANCH   1  35
ATOM     35  C   UNL A   1      42.768  34.862  42.721  1.00  0.00     0.188 C 
BRANCH  35  36
ATOM     36  O   UNL A   1      41.379  34.563  42.779  1.00  0.00    -0.376 OA
BRANCH  36  37
ATOM     37  C   UNL A   1      40.868  33.473  42.022  1.00  0.00     0.202 C 
BRANCH  37  38
ATOM     38  C   UNL A   1      39.475  33.594  41.394  1.00  0.00     0.261 C 
BRANCH  38  39
ATOM     39  O   UNL A   1      39.163  32.588  40.413  1.00  0.00    -0.460 OA
BRANCH  39  40
ATOM     40  C   UNL A   1      38.068  32.838  39.656  1.00  0.00     0.338 C 
ATOM     41  O   UNL A   1      37.050  33.413  40.007  1.00  0.00    -0.246 OA
BRANCH  40  42
ATOM     42  C   UNL A   1      38.315  32.475  38.244  1.00  0.00     0.060 A 
ATOM     43  C   UNL A   1      37.727  31.302  37.763  1.00  0.00     0.016 A 
ATOM     44  C   UNL A   1      39.189  33.202  37.433  1.00  0.00     0.016 A 
ATOM     45  C   UNL A   1      38.037  30.841  36.484  1.00  0.00     0.010 A 
ATOM     46  C   UNL A   1      39.500  32.731  36.146  1.00  0.00     0.010 A 
ATOM     47  C   UNL A   1      38.939  31.538  35.663  1.00  0.00    -0.014 A 
BRANCH  47  48
ATOM     48  C   UNL A   1      39.399  30.918  34.386  1.00  0.00     0.031 A 
ATOM     49  C   UNL A   1      40.644  30.082  34.400  1.00  0.00     0.074 A 
ATOM     50  C   UNL A   1      38.733  31.082  33.227  1.00  0.00     0.049 A 
ATOM     51  N   UNL A   1      41.167  29.366  33.441  1.00  0.00    -0.248 NA
ATOM     52  C   UNL A   1      41.413  30.076  35.654  1.00  0.00     0.031 C 
ATOM     53  C   UNL A   1      37.556  31.918  33.075  1.00  0.00     0.029 A 
ATOM     54  N   UNL A   1      38.913  30.541  31.972  1.00  0.00    -0.354 N 
ATOM     55  C   UNL A   1      42.378  28.907  33.939  1.00  0.00     0.074 A 
ATOM     56  C   UNL A   1      42.474  29.360  35.310  1.00  0.00     0.031 C 
ATOM     57  C   UNL A   1      37.037  31.740  31.849  1.00  0.00     0.029 A 
ATOM     58  C   UNL A   1      37.903  30.853  31.080  1.00  0.00     0.049 A 
ATOM     59  H   UNL A   1      39.688  29.983  31.734  1.00  0.00     0.167 HD
ATOM     60  C   UNL A   1      43.346  28.211  33.299  1.00  0.00     0.034 A 
ATOM     61  C   UNL A   1      37.704  30.460  29.799  1.00  0.00     0.034 A 
ATOM     62  C   UNL A   1      43.255  27.758  31.938  1.00  0.00     0.049 A 
ATOM     63  C   UNL A   1      38.753  29.567  29.163  1.00  0.00     0.074 A 
ATOM     64  C   UNL A   1      44.186  27.041  31.211  1.00  0.00     0.029 A 
ATOM     65  N   UNL A   1      42.181  27.991  31.094  1.00  0.00    -0.354 N 
ATOM     66  N   UNL A   1      39.766  28.948  29.723  1.00  0.00    -0.248 NA
ATOM     67  C   UNL A   1      38.622  29.305  27.720  1.00  0.00     0.031 C 
ATOM     68  C   UNL A   1      43.688  26.864  29.916  1.00  0.00     0.029 A 
ATOM     69  C   UNL A   1      42.431  27.444  29.848  1.00  0.00     0.049 A 
ATOM     70  H   UNL A   1      41.360  28.473  31.345  1.00  0.00     0.167 HD
ATOM     71  C   UNL A   1      40.376  28.215  28.703  1.00  0.00     0.074 A 
ATOM     72  C   UNL A   1      39.559  28.390  27.523  1.00  0.00     0.031 C 
ATOM     73  C   UNL A   1      41.542  27.520  28.716  1.00  0.00     0.034 A 
BRANCH  60  74
ATOM     74  C   UNL A   1      44.618  27.947  34.053  1.00  0.00     0.023 A 
ATOM     75  C   UNL A   1      45.665  28.889  34.032  1.00  0.00     0.012 A 
ATOM     76  C   UNL A   1      44.758  26.767  34.809  1.00  0.00     0.148 A 
ATOM     77  C   UNL A   1      46.846  28.644  34.731  1.00  0.00     0.002 A 
ATOM     78  C   UNL A   1      45.921  26.551  35.538  1.00  0.00     0.091 A 
ATOM     79  F   UNL A   1      43.761  25.872  34.788  1.00  0.00    -0.205 F 
ATOM     80  C   UNL A   1      46.970  27.483  35.491  1.00  0.00     0.022 A 
BRANCH  78  81
ATOM     81  S   UNL A   1      46.143  25.121  36.601  1.00  0.00     0.127 S 
ATOM     82  O   UNL A   1      46.145  24.029  35.629  1.00  0.00    -0.237 OA
ATOM     83  O   UNL A   1      47.442  25.396  37.216  1.00  0.00    -0.237 OA
ATOM     84  O   UNL A   1      45.019  25.129  37.527  1.00  0.00    -0.744 OA
ENDBRANCH  78  81
ENDBRANCH  60  74
BRANCH  61  85
ATOM     85  C   UNL A   1      36.439  30.788  29.046  1.00  0.00     0.023 A 
ATOM     86  C   UNL A   1      35.698  29.726  28.484  1.00  0.00     0.012 A 
ATOM     87  C   UNL A   1      35.940  32.093  28.867  1.00  0.00     0.148 A 
ATOM     88  C   UNL A   1      34.519  29.940  27.764  1.00  0.00     0.002 A 
ATOM     89  C   UNL A   1      34.715  32.296  28.229  1.00  0.00     0.091 A 
ATOM     90  F   UNL A   1      36.670  33.124  29.313  1.00  0.00    -0.205 F 
ATOM     91  C   UNL A   1      34.012  31.225  27.661  1.00  0.00     0.022 A 
BRANCH  89  92
ATOM     92  S   UNL A   1      33.905  33.899  28.170  1.00  0.00     0.127 S 
ATOM     93  O   UNL A   1      32.591  33.552  27.636  1.00  0.00    -0.237 OA
ATOM     94  O   UNL A   1      33.913  34.288  29.582  1.00  0.00    -0.237 OA
ATOM     95  O   UNL A   1      34.740  34.729  27.314  1.00  0.00    -0.744 OA
ENDBRANCH  89  92
ENDBRANCH  61  85
BRANCH  73  96
ATOM     96  C   UNL A   1      41.992  26.855  27.434  1.00  0.00     0.023 A 
ATOM     97  C   UNL A   1      42.579  27.631  26.413  1.00  0.00     0.012 A 
ATOM     98  C   UNL A   1      41.929  25.454  27.277  1.00  0.00     0.148 A 
ATOM     99  C   UNL A   1      43.048  27.037  25.242  1.00  0.00     0.002 A 
ATOM    100  C   UNL A   1      42.454  24.862  26.132  1.00  0.00     0.091 A 
ATOM    101  F   UNL A   1      41.372  24.725  28.255  1.00  0.00    -0.205 F 
ATOM    102  C   UNL A   1      42.996  25.653  25.107  1.00  0.00     0.022 A 
BRANCH 100 103
ATOM    103  S   UNL A   1      42.555  23.080  25.921  1.00  0.00     0.127 S 
ATOM    104  O   UNL A   1      43.108  22.969  24.571  1.00  0.00    -0.237 OA
ATOM    105  O   UNL A   1      43.479  22.694  26.989  1.00  0.00    -0.237 OA
ATOM    106  O   UNL A   1      41.198  22.576  26.087  1.00  0.00    -0.744 OA
ENDBRANCH 100 103
ENDBRANCH  73  96
ENDBRANCH  47  48
ENDBRANCH  40  42
ENDBRANCH  39  40
ENDBRANCH  38  39
ENDBRANCH  37  38
ENDBRANCH  36  37
ENDBRANCH  35  36
ENDBRANCH   1  35
TORSDOF 24
ENDMDL
MODEL 2
REMARK VINA RESULT:      -8.0      3.754     11.855
REMARK SMILES CS(=O)(=O)Nc1ccc(-c2cc(Cl)cc3c2O[C@H](C(F)(F)F)C(C(=O)OCCOCCOCCOC(=O)c2ccc(-c4c5nc(c(-c6cccc(S(=O)(=O)[O-])c6F)c6ccc([nH]6)c(-c6cccc(S(=O)(=O)[O-])c6F)c6nc(c(-c7cccc(S(=O)(=O)[O-])c7F)c7ccc4[nH]7)C=C6)C=C5)cc2)=C3)cc1
REMARK SMILES IDX 30 1 29 2 28 3 27 4 26 5 24 6 25 7 23 8 10 9 11 10 16 11
REMARK SMILES IDX 12 12 15 13 17 14 13 15 14 16 101 17 18 18 9 19 6 20 7 21
REMARK SMILES IDX 103 22 8 23 102 24 5 25 2 27 1 28 3 29 4 30 19 31 20 32
REMARK SMILES IDX 21 33 22 34 31 35 32 36 33 37 34 38 35 39 36 40 37 41 38 42
REMARK SMILES IDX 39 43 100 44 40 45 99 46 41 47 42 48 43 49 93 50 44 51 98 52
REMARK SMILES IDX 92 53 94 54 45 55 97 56 91 57 90 58 46 60 78 61 58 62 77 63
REMARK SMILES IDX 59 64 62 65 76 66 95 67 60 68 61 69 75 71 96 72 63 73 47 74
REMARK SMILES IDX 48 75 56 76 49 77 51 78 57 79 50 80 52 81 53 82 54 83 55 84
REMARK SMILES IDX 79 85 80 86 88 87 81 88 83 89 89 90 82 91 84 92 85 93 86 94
REMARK SMILES IDX 87 95 64 96 65 97 73 98 66 99 68 100 74 101 67 102 69 103
REMARK SMILES IDX 70 104 71 105 72 106
REMARK H PARENT 5 26 94 59 62 70
REMARK Flexibility Score: inf
ROOT
ATOM      1  C   UNL A   1      45.891  24.970  28.041  1.00  0.00     0.188 C 
ENDROOT
BRANCH   1   2
ATOM      2  O   UNL A   1      45.842  25.194  26.643  1.00  0.00    -0.376 OA
BRANCH   2   3
ATOM      3  C   UNL A   1      44.588  25.619  26.117  1.00  0.00     0.202 C 
BRANCH   3   4
ATOM      4  C   UNL A   1      44.617  26.972  25.396  1.00  0.00     0.261 C 
BRANCH   4   5
ATOM      5  O   UNL A   1      44.399  28.068  26.320  1.00  0.00    -0.460 OA
BRANCH   5   6
ATOM      6  C   UNL A   1      43.116  28.474  26.438  1.00  0.00     0.338 C 
ATOM      7  O   UNL A   1      42.400  28.793  25.499  1.00  0.00    -0.246 OA
BRANCH   6   8
ATOM      8  C   UNL A   1      42.616  28.375  27.836  1.00  0.00     0.087 C 
ATOM      9  C   UNL A   1      41.427  31.535  30.221  1.00  0.00     0.026 A 
ATOM     10  C   UNL A   1      42.069  32.663  29.658  1.00  0.00     0.033 A 
ATOM     11  C   UNL A   1      41.828  30.306  29.689  1.00  0.00     0.135 A 
ATOM     12  C   UNL A   1      43.164  32.567  28.799  1.00  0.00     0.042 A 
ATOM     13  C   UNL A   1      43.070  30.211  29.028  1.00  0.00     0.019 A 
ATOM     14  O   UNL A   1      41.007  29.186  29.597  1.00  0.00    -0.475 OA
ATOM     15  Cl  UNL A   1      43.858  33.966  28.093  1.00  0.00    -0.084 Cl
ATOM     16  C   UNL A   1      43.730  31.334  28.555  1.00  0.00     0.032 A 
ATOM     17  C   UNL A   1      43.547  28.858  28.676  1.00  0.00     0.027 C 
ATOM     18  C   UNL A   1      41.152  28.559  28.234  1.00  0.00     0.316 C 
BRANCH   9  19
ATOM     19  C   UNL A   1      40.791  31.802  31.549  1.00  0.00    -0.014 A 
ATOM     20  C   UNL A   1      38.508  32.453  33.150  1.00  0.00     0.048 A 
ATOM     21  C   UNL A   1      38.900  31.128  32.970  1.00  0.00     0.027 A 
ATOM     22  C   UNL A   1      39.343  33.453  32.655  1.00  0.00     0.027 A 
ATOM     23  C   UNL A   1      40.042  30.813  32.210  1.00  0.00     0.011 A 
ATOM     24  C   UNL A   1      40.474  33.134  31.875  1.00  0.00     0.011 A 
BRANCH  20  25
ATOM     25  N   UNL A   1      37.155  32.693  33.550  1.00  0.00    -0.284 N 
ATOM     26  H   UNL A   1      36.791  32.146  34.282  1.00  0.00     0.180 HD
BRANCH  25  27
ATOM     27  S   UNL A   1      36.152  33.835  32.863  1.00  0.00     0.229 S 
ATOM     28  C   UNL A   1      34.526  33.110  32.964  1.00  0.00     0.183 C 
ATOM     29  O   UNL A   1      36.494  34.006  31.470  1.00  0.00    -0.207 OA
ATOM     30  O   UNL A   1      36.153  34.949  33.790  1.00  0.00    -0.207 OA
ENDBRANCH  25  27
ENDBRANCH  20  25
ENDBRANCH   9  19
BRANCH  18  31
ATOM     31  C   UNL A   1      40.438  27.208  28.144  1.00  0.00     0.430 C 
ATOM     32  F   UNL A   1      39.251  27.296  27.501  1.00  0.00    -0.167 F 
ATOM     33  F   UNL A   1      41.186  26.279  27.509  1.00  0.00    -0.167 F 
ATOM     34  F   UNL A   1      40.179  26.716  29.384  1.00  0.00    -0.167 F 
ENDBRANCH  18  31
ENDBRANCH   6   8
ENDBRANCH   5   6
ENDBRANCH   4   5
ENDBRANCH   3   4
ENDBRANCH   2   3
ENDBRANCH   1   2
BRANCH   1  35
ATOM     35  C   UNL A   1      44.785  25.688  28.847  1.00  0.00     0.188 C 
BRANCH  35  36
ATOM     36  O   UNL A   1      43.947  24.954  29.732  1.00  0.00    -0.376 OA
BRANCH  36  37
ATOM     37  C   UNL A   1      44.477  23.828  30.419  1.00  0.00     0.202 C 
BRANCH  37  38
ATOM     38  C   UNL A   1      44.089  23.605  31.886  1.00  0.00     0.261 C 
BRANCH  38  39
ATOM     39  O   UNL A   1      44.853  24.368  32.837  1.00  0.00    -0.460 OA
BRANCH  39  40
ATOM     40  C   UNL A   1      44.122  25.105  33.708  1.00  0.00     0.338 C 
ATOM     41  O   UNL A   1      43.559  24.705  34.714  1.00  0.00    -0.246 OA
BRANCH  40  42
ATOM     42  C   UNL A   1      44.226  26.545  33.389  1.00  0.00     0.060 A 
ATOM     43  C   UNL A   1      45.159  27.302  34.105  1.00  0.00     0.016 A 
ATOM     44  C   UNL A   1      43.361  27.170  32.490  1.00  0.00     0.016 A 
ATOM     45  C   UNL A   1      45.203  28.687  33.943  1.00  0.00     0.010 A 
ATOM     46  C   UNL A   1      43.409  28.566  32.332  1.00  0.00     0.010 A 
ATOM     47  C   UNL A   1      44.321  29.341  33.068  1.00  0.00    -0.014 A 
BRANCH  47  48
ATOM     48  C   UNL A   1      44.260  30.832  33.065  1.00  0.00     0.031 A 
ATOM     49  C   UNL A   1      43.383  31.518  34.069  1.00  0.00     0.074 A 
ATOM     50  C   UNL A   1      44.968  31.578  32.194  1.00  0.00     0.049 A 
ATOM     51  N   UNL A   1      43.258  32.794  34.318  1.00  0.00    -0.248 NA
ATOM     52  C   UNL A   1      42.512  30.651  34.877  1.00  0.00     0.031 C 
ATOM     53  C   UNL A   1      45.800  31.028  31.139  1.00  0.00     0.029 A 
ATOM     54  N   UNL A   1      45.141  32.939  32.070  1.00  0.00    -0.354 N 
ATOM     55  C   UNL A   1      42.224  32.893  35.238  1.00  0.00     0.074 A 
ATOM     56  C   UNL A   1      41.810  31.544  35.560  1.00  0.00     0.031 C 
ATOM     57  C   UNL A   1      46.496  32.019  30.557  1.00  0.00     0.029 A 
ATOM     58  C   UNL A   1      46.085  33.298  31.125  1.00  0.00     0.049 A 
ATOM     59  H   UNL A   1      44.637  33.596  32.604  1.00  0.00     0.167 HD
ATOM     60  C   UNL A   1      41.637  34.007  35.734  1.00  0.00     0.034 A 
ATOM     61  C   UNL A   1      46.563  34.516  30.773  1.00  0.00     0.034 A 
ATOM     62  C   UNL A   1      42.045  35.348  35.419  1.00  0.00     0.049 A 
ATOM     63  C   UNL A   1      45.968  35.733  31.456  1.00  0.00     0.074 A 
ATOM     64  C   UNL A   1      41.510  36.536  35.882  1.00  0.00     0.029 A 
ATOM     65  N   UNL A   1      43.071  35.682  34.549  1.00  0.00    -0.354 N 
ATOM     66  N   UNL A   1      45.165  35.793  32.493  1.00  0.00    -0.248 NA
ATOM     67  C   UNL A   1      46.358  37.051  30.930  1.00  0.00     0.031 C 
ATOM     68  C   UNL A   1      42.195  37.590  35.270  1.00  0.00     0.029 A 
ATOM     69  C   UNL A   1      43.178  37.058  34.450  1.00  0.00     0.049 A 
ATOM     70  H   UNL A   1      43.640  35.035  34.074  1.00  0.00     0.167 HD
ATOM     71  C   UNL A   1      44.972  37.152  32.747  1.00  0.00     0.074 A 
ATOM     72  C   UNL A   1      45.821  37.871  31.822  1.00  0.00     0.031 C 
ATOM     73  C   UNL A   1      44.121  37.757  33.615  1.00  0.00     0.034 A 
BRANCH  60  74
ATOM     74  C   UNL A   1      40.448  33.817  36.633  1.00  0.00     0.023 A 
ATOM     75  C   UNL A   1      39.146  33.809  36.096  1.00  0.00     0.012 A 
ATOM     76  C   UNL A   1      40.632  33.618  38.015  1.00  0.00     0.148 A 
ATOM     77  C   UNL A   1      38.042  33.634  36.929  1.00  0.00     0.002 A 
ATOM     78  C   UNL A   1      39.530  33.400  38.832  1.00  0.00     0.091 A 
ATOM     79  F   UNL A   1      41.879  33.661  38.507  1.00  0.00    -0.205 F 
ATOM     80  C   UNL A   1      38.234  33.419  38.292  1.00  0.00     0.022 A 
BRANCH  78  81
ATOM     81  S   UNL A   1      39.682  33.044  40.585  1.00  0.00     0.127 S 
ATOM     82  O   UNL A   1      39.943  34.374  41.134  1.00  0.00    -0.237 OA
ATOM     83  O   UNL A   1      38.361  32.500  40.902  1.00  0.00    -0.237 OA
ATOM     84  O   UNL A   1      40.777  32.093  40.710  1.00  0.00    -0.744 OA
ENDBRANCH  78  81
ENDBRANCH  60  74
BRANCH  61  85
ATOM     85  C   UNL A   1      47.724  34.679  29.824  1.00  0.00     0.023 A 
ATOM     86  C   UNL A   1      49.027  34.431  30.308  1.00  0.00     0.012 A 
ATOM     87  C   UNL A   1      47.595  35.062  28.475  1.00  0.00     0.148 A 
ATOM     88  C   UNL A   1      50.158  34.566  29.500  1.00  0.00     0.002 A 
ATOM     89  C   UNL A   1      48.717  35.105  27.646  1.00  0.00     0.091 A 
ATOM     90  F   UNL A   1      46.380  35.390  28.016  1.00  0.00    -0.205 F 
ATOM     91  C   UNL A   1      50.001  34.876  28.159  1.00  0.00     0.022 A 
BRANCH  89  92
ATOM     92  S   UNL A   1      48.603  35.354  25.870  1.00  0.00     0.127 S 
ATOM     93  O   UNL A   1      47.914  36.639  25.790  1.00  0.00    -0.237 OA
ATOM     94  O   UNL A   1      50.016  35.388  25.484  1.00  0.00    -0.237 OA
ATOM     95  O   UNL A   1      47.867  34.206  25.360  1.00  0.00    -0.744 OA
ENDBRANCH  89  92
ENDBRANCH  61  85
BRANCH  73  96
ATOM     96  C   UNL A   1      44.086  39.270  33.644  1.00  0.00     0.023 A 
ATOM     97  C   UNL A   1      44.813  39.967  34.631  1.00  0.00     0.012 A 
ATOM     98  C   UNL A   1      43.420  40.004  32.640  1.00  0.00     0.148 A 
ATOM     99  C   UNL A   1      44.838  41.361  34.651  1.00  0.00     0.002 A 
ATOM    100  C   UNL A   1      43.499  41.393  32.631  1.00  0.00     0.091 A 
ATOM    101  F   UNL A   1      42.734  39.331  31.704  1.00  0.00    -0.205 F 
ATOM    102  C   UNL A   1      44.192  42.073  33.646  1.00  0.00     0.022 A 
BRANCH 100 103
ATOM    103  S   UNL A   1      42.813  42.396  31.306  1.00  0.00     0.127 S 
ATOM    104  O   UNL A   1      42.788  43.724  31.917  1.00  0.00    -0.237 OA
ATOM    105  O   UNL A   1      43.811  42.234  30.247  1.00  0.00    -0.237 OA
ATOM    106  O   UNL A   1      41.510  41.821  30.999  1.00  0.00    -0.744 OA
ENDBRANCH 100 103
ENDBRANCH  73  96
ENDBRANCH  47  48
ENDBRANCH  40  42
ENDBRANCH  39  40
ENDBRANCH  38  39
ENDBRANCH  37  38
ENDBRANCH  36  37
ENDBRANCH  35  36
ENDBRANCH   1  35
TORSDOF 24
ENDMDL
MODEL 3
REMARK VINA RESULT:      -7.7      9.563     17.477
REMARK SMILES CS(=O)(=O)Nc1ccc(-c2cc(Cl)cc3c2O[C@H](C(F)(F)F)C(C(=O)OCCOCCOCCOC(=O)c2ccc(-c4c5nc(c(-c6cccc(S(=O)(=O)[O-])c6F)c6ccc([nH]6)c(-c6cccc(S(=O)(=O)[O-])c6F)c6nc(c(-c7cccc(S(=O)(=O)[O-])c7F)c7ccc4[nH]7)C=C6)C=C5)cc2)=C3)cc1
REMARK SMILES IDX 30 1 29 2 28 3 27 4 26 5 24 6 25 7 23 8 10 9 11 10 16 11
REMARK SMILES IDX 12 12 15 13 17 14 13 15 14 16 101 17 18 18 9 19 6 20 7 21
REMARK SMILES IDX 103 22 8 23 102 24 5 25 2 27 1 28 3 29 4 30 19 31 20 32
REMARK SMILES IDX 21 33 22 34 31 35 32 36 33 37 34 38 35 39 36 40 37 41 38 42
REMARK SMILES IDX 39 43 100 44 40 45 99 46 41 47 42 48 43 49 93 50 44 51 98 52
REMARK SMILES IDX 92 53 94 54 45 55 97 56 91 57 90 58 46 60 78 61 58 62 77 63
REMARK SMILES IDX 59 64 62 65 76 66 95 67 60 68 61 69 75 71 96 72 63 73 47 74
REMARK SMILES IDX 48 75 56 76 49 77 51 78 57 79 50 80 52 81 53 82 54 83 55 84
REMARK SMILES IDX 79 85 80 86 88 87 81 88 83 89 89 90 82 91 84 92 85 93 86 94
REMARK SMILES IDX 87 95 64 96 65 97 73 98 66 99 68 100 74 101 67 102 69 103
REMARK SMILES IDX 70 104 71 105 72 106
REMARK H PARENT 5 26 94 59 62 70
REMARK Flexibility Score: inf
ROOT
ATOM      1  C   UNL A   1      45.959  26.658  25.356  1.00  0.00     0.188 C 
ENDROOT
BRANCH   1   2
ATOM      2  O   UNL A   1      46.418  25.894  26.457  1.00  0.00    -0.376 OA
BRANCH   2   3
ATOM      3  C   UNL A   1      45.913  24.566  26.557  1.00  0.00     0.202 C 
BRANCH   3   4
ATOM      4  C   UNL A   1      44.421  24.469  26.900  1.00  0.00     0.261 C 
BRANCH   4   5
ATOM      5  O   UNL A   1      43.960  23.094  26.865  1.00  0.00    -0.460 OA
BRANCH   5   6
ATOM      6  C   UNL A   1      43.480  22.619  28.035  1.00  0.00     0.338 C 
ATOM      7  O   UNL A   1      43.984  22.832  29.129  1.00  0.00    -0.246 OA
BRANCH   6   8
ATOM      8  C   UNL A   1      42.188  21.901  27.868  1.00  0.00     0.087 C 
ATOM      9  C   UNL A   1      38.780  23.416  26.083  1.00  0.00     0.026 A 
ATOM     10  C   UNL A   1      38.934  24.820  26.164  1.00  0.00     0.033 A 
ATOM     11  C   UNL A   1      39.733  22.680  26.793  1.00  0.00     0.135 A 
ATOM     12  C   UNL A   1      39.821  25.440  27.044  1.00  0.00     0.042 A 
ATOM     13  C   UNL A   1      40.443  23.298  27.843  1.00  0.00     0.019 A 
ATOM     14  O   UNL A   1      40.180  21.413  26.426  1.00  0.00    -0.475 OA
ATOM     15  Cl  UNL A   1      40.015  27.143  27.050  1.00  0.00    -0.084 Cl
ATOM     16  C   UNL A   1      40.515  24.677  27.959  1.00  0.00     0.032 A 
ATOM     17  C   UNL A   1      41.275  22.429  28.701  1.00  0.00     0.027 C 
ATOM     18  C   UNL A   1      41.682  21.352  26.534  1.00  0.00     0.316 C 
BRANCH   9  19
ATOM     19  C   UNL A   1      37.416  22.981  25.648  1.00  0.00    -0.014 A 
ATOM     20  C   UNL A   1      34.714  23.574  24.908  1.00  0.00     0.048 A 
ATOM     21  C   UNL A   1      35.698  23.393  23.938  1.00  0.00     0.027 A 
ATOM     22  C   UNL A   1      35.050  23.311  26.234  1.00  0.00     0.027 A 
ATOM     23  C   UNL A   1      37.018  23.070  24.303  1.00  0.00     0.011 A 
ATOM     24  C   UNL A   1      36.379  23.008  26.599  1.00  0.00     0.011 A 
BRANCH  20  25
ATOM     25  N   UNL A   1      33.538  24.296  24.529  1.00  0.00    -0.284 N 
ATOM     26  H   UNL A   1      33.536  25.270  24.666  1.00  0.00     0.180 HD
BRANCH  25  27
ATOM     27  S   UNL A   1      32.170  23.602  23.874  1.00  0.00     0.229 S 
ATOM     28  C   UNL A   1      32.742  22.047  23.211  1.00  0.00     0.183 C 
ATOM     29  O   UNL A   1      31.686  24.417  22.784  1.00  0.00    -0.207 OA
ATOM     30  O   UNL A   1      31.332  23.270  25.008  1.00  0.00    -0.207 OA
ENDBRANCH  25  27
ENDBRANCH  20  25
ENDBRANCH   9  19
BRANCH  18  31
ATOM     31  C   UNL A   1      42.214  19.928  26.348  1.00  0.00     0.430 C 
ATOM     32  F   UNL A   1      43.459  19.911  25.820  1.00  0.00    -0.167 F 
ATOM     33  F   UNL A   1      42.246  19.241  27.511  1.00  0.00    -0.167 F 
ATOM     34  F   UNL A   1      41.416  19.223  25.503  1.00  0.00    -0.167 F 
ENDBRANCH  18  31
ENDBRANCH   6   8
ENDBRANCH   5   6
ENDBRANCH   4   5
ENDBRANCH   3   4
ENDBRANCH   2   3
ENDBRANCH   1   2
BRANCH   1  35
ATOM     35  C   UNL A   1      46.053  28.189  25.550  1.00  0.00     0.188 C 
BRANCH  35  36
ATOM     36  O   UNL A   1      46.979  28.742  26.477  1.00  0.00    -0.376 OA
BRANCH  36  37
ATOM     37  C   UNL A   1      46.602  29.877  27.245  1.00  0.00     0.202 C 
BRANCH  37  38
ATOM     38  C   UNL A   1      46.608  31.258  26.580  1.00  0.00     0.261 C 
BRANCH  38  39
ATOM     39  O   UNL A   1      47.230  32.301  27.353  1.00  0.00    -0.460 OA
BRANCH  39  40
ATOM     40  C   UNL A   1      48.510  32.588  27.014  1.00  0.00     0.338 C 
ATOM     41  O   UNL A   1      49.338  31.815  26.559  1.00  0.00    -0.246 OA
BRANCH  40  42
ATOM     42  C   UNL A   1      48.759  34.042  27.096  1.00  0.00     0.060 A 
ATOM     43  C   UNL A   1      48.469  34.682  28.305  1.00  0.00     0.016 A 
ATOM     44  C   UNL A   1      49.163  34.790  25.989  1.00  0.00     0.016 A 
ATOM     45  C   UNL A   1      48.554  36.072  28.395  1.00  0.00     0.010 A 
ATOM     46  C   UNL A   1      49.244  36.191  26.085  1.00  0.00     0.010 A 
ATOM     47  C   UNL A   1      48.926  36.847  27.286  1.00  0.00    -0.014 A 
BRANCH  47  48
ATOM     48  C   UNL A   1      48.817  38.333  27.357  1.00  0.00     0.031 A 
ATOM     49  C   UNL A   1      49.989  39.118  27.864  1.00  0.00     0.074 A 
ATOM     50  C   UNL A   1      47.703  38.990  26.979  1.00  0.00     0.049 A 
ATOM     51  N   UNL A   1      50.156  40.412  27.912  1.00  0.00    -0.248 NA
ATOM     52  C   UNL A   1      51.108  38.338  28.415  1.00  0.00     0.031 C 
ATOM     53  C   UNL A   1      46.485  38.339  26.532  1.00  0.00     0.029 A 
ATOM     54  N   UNL A   1      47.414  40.333  26.868  1.00  0.00    -0.354 N 
ATOM     55  C   UNL A   1      51.352  40.607  28.590  1.00  0.00     0.074 A 
ATOM     56  C   UNL A   1      51.905  39.298  28.864  1.00  0.00     0.031 C 
ATOM     57  C   UNL A   1      45.626  39.264  26.073  1.00  0.00     0.029 A 
ATOM     58  C   UNL A   1      46.186  40.594  26.287  1.00  0.00     0.049 A 
ATOM     59  H   UNL A   1      48.025  41.041  27.176  1.00  0.00     0.167 HD
ATOM     60  C   UNL A   1      51.916  41.769  28.992  1.00  0.00     0.034 A 
ATOM     61  C   UNL A   1      45.595  41.768  25.961  1.00  0.00     0.034 A 
ATOM     62  C   UNL A   1      51.372  43.071  28.722  1.00  0.00     0.049 A 
ATOM     63  C   UNL A   1      46.329  43.049  26.311  1.00  0.00     0.074 A 
ATOM     64  C   UNL A   1      51.881  44.304  29.086  1.00  0.00     0.029 A 
ATOM     65  N   UNL A   1      50.190  43.313  28.039  1.00  0.00    -0.354 N 
ATOM     66  N   UNL A   1      47.562  43.212  26.732  1.00  0.00    -0.248 NA
ATOM     67  C   UNL A   1      45.595  44.312  26.126  1.00  0.00     0.031 C 
ATOM     68  C   UNL A   1      50.992  45.291  28.648  1.00  0.00     0.029 A 
ATOM     69  C   UNL A   1      49.945  44.673  27.983  1.00  0.00     0.049 A 
ATOM     70  H   UNL A   1      49.612  42.617  27.651  1.00  0.00     0.167 HD
ATOM     71  C   UNL A   1      47.749  44.590  26.843  1.00  0.00     0.074 A 
ATOM     72  C   UNL A   1      46.540  45.213  26.350  1.00  0.00     0.031 C 
ATOM     73  C   UNL A   1      48.791  45.282  27.370  1.00  0.00     0.034 A 
BRANCH  60  74
ATOM     74  C   UNL A   1      53.166  41.678  29.821  1.00  0.00     0.023 A 
ATOM     75  C   UNL A   1      53.083  41.594  31.225  1.00  0.00     0.012 A 
ATOM     76  C   UNL A   1      54.428  41.648  29.195  1.00  0.00     0.148 A 
ATOM     77  C   UNL A   1      54.242  41.510  31.994  1.00  0.00     0.002 A 
ATOM     78  C   UNL A   1      55.575  41.520  29.966  1.00  0.00     0.091 A 
ATOM     79  F   UNL A   1      54.482  41.761  27.860  1.00  0.00    -0.205 F 
ATOM     80  C   UNL A   1      55.485  41.462  31.367  1.00  0.00     0.022 A 
BRANCH  78  81
ATOM     81  S   UNL A   1      57.213  41.378  29.245  1.00  0.00     0.127 S 
ATOM     82  O   UNL A   1      58.062  41.812  30.353  1.00  0.00    -0.237 OA
ATOM     83  O   UNL A   1      57.290  39.949  28.939  1.00  0.00    -0.237 OA
ATOM     84  O   UNL A   1      57.217  42.251  28.079  1.00  0.00    -0.744 OA
ENDBRANCH  78  81
ENDBRANCH  60  74
BRANCH  61  85
ATOM     85  C   UNL A   1      44.309  41.829  25.176  1.00  0.00     0.023 A 
ATOM     86  C   UNL A   1      43.112  41.443  25.816  1.00  0.00     0.012 A 
ATOM     87  C   UNL A   1      44.220  42.251  23.835  1.00  0.00     0.148 A 
ATOM     88  C   UNL A   1      41.878  41.462  25.160  1.00  0.00     0.002 A 
ATOM     89  C   UNL A   1      42.976  42.358  23.212  1.00  0.00     0.091 A 
ATOM     90  F   UNL A   1      45.353  42.536  23.177  1.00  0.00    -0.205 F 
ATOM     91  C   UNL A   1      41.806  41.947  23.864  1.00  0.00     0.022 A 
BRANCH  89  92
ATOM     92  S   UNL A   1      42.762  43.107  21.592  1.00  0.00     0.127 S 
ATOM     93  O   UNL A   1      43.124  42.008  20.702  1.00  0.00    -0.237 OA
ATOM     94  O   UNL A   1      41.337  43.444  21.608  1.00  0.00    -0.237 OA
ATOM     95  O   UNL A   1      43.652  44.259  21.573  1.00  0.00    -0.744 OA
ENDBRANCH  89  92
ENDBRANCH  61  85
BRANCH  73  96
ATOM     96  C   UNL A   1      48.702  46.792  27.407  1.00  0.00     0.023 A 
ATOM     97  C   UNL A   1      47.938  47.423  28.411  1.00  0.00     0.012 A 
ATOM     98  C   UNL A   1      49.451  47.589  26.516  1.00  0.00     0.148 A 
ATOM     99  C   UNL A   1      47.878  48.813  28.498  1.00  0.00     0.002 A 
ATOM    100  C   UNL A   1      49.435  48.975  26.647  1.00  0.00     0.091 A 
ATOM    101  F   UNL A   1      50.177  46.979  25.567  1.00  0.00    -0.205 F 
ATOM    102  C   UNL A   1      48.635  49.588  27.624  1.00  0.00     0.022 A 
BRANCH 100 103
ATOM    103  S   UNL A   1      50.477  50.055  25.658  1.00  0.00     0.127 S 
ATOM    104  O   UNL A   1      51.751  49.336  25.670  1.00  0.00    -0.237 OA
ATOM    105  O   UNL A   1      49.790  50.050  24.365  1.00  0.00    -0.237 OA
ATOM    106  O   UNL A   1      50.478  51.345  26.335  1.00  0.00    -0.744 OA
ENDBRANCH 100 103
ENDBRANCH  73  96
ENDBRANCH  47  48
ENDBRANCH  40  42
ENDBRANCH  39  40
ENDBRANCH  38  39
ENDBRANCH  37  38
ENDBRANCH  36  37
ENDBRANCH  35  36
ENDBRANCH   1  35
TORSDOF 24
ENDMDL
