MODEL 1
REMARK VINA RESULT:      -9.6      0.000      0.000
REMARK SMILES Cc1cc(=O)cc(C)n1C[C@H]1CCCC[C@@H]1C(=O)OCCOCCOCCOC(=O)c1ccc(-c2c3nc(c(-c4cccc(S(=O)(=O)[O-])c4F)c4ccc([nH]4)c(-c4cccc(S(=O)(=O)[O-])c4F)c4nc(c(-c5cccc(S(=O)(=O)[O-])c5F)c5ccc2[nH]5)C=C4)C=C3)cc1
REMARK SMILES IDX 24 1 23 2 22 3 21 4 20 5 19 6 17 7 18 8 16 9 11 10 12 11
REMARK SMILES IDX 13 12 15 13 14 14 10 15 9 16 1 17 2 18 3 19 4 20 7 21 5 22
REMARK SMILES IDX 6 23 8 24 25 25 26 26 27 27 28 28 29 29 30 30 31 31 32 32
REMARK SMILES IDX 93 33 33 34 92 35 34 36 35 37 36 38 86 39 37 40 91 41 85 42
REMARK SMILES IDX 87 43 38 44 90 45 84 46 83 47 39 49 71 50 51 51 70 52 52 53
REMARK SMILES IDX 55 54 69 55 88 56 53 57 54 58 68 60 89 61 56 62 40 63 41 64
REMARK SMILES IDX 49 65 42 66 44 67 50 68 43 69 45 70 46 71 47 72 48 73 72 74
REMARK SMILES IDX 73 75 81 76 74 77 76 78 82 79 75 80 77 81 78 82 79 83 80 84
REMARK SMILES IDX 57 85 58 86 66 87 59 88 61 89 67 90 60 91 62 92 63 93 64 94
REMARK SMILES IDX 65 95
REMARK H PARENT 87 48 55 59
REMARK Flexibility Score: inf
ROOT
ATOM      1  C   UNL A   1      41.597  21.968  27.021  1.00  0.00     0.188 C 
ENDROOT
BRANCH   1   2
ATOM      2  C   UNL A   1      40.100  21.906  26.643  1.00  0.00     0.188 C 
BRANCH   2   3
ATOM      3  O   UNL A   1      39.285  23.036  26.896  1.00  0.00    -0.376 OA
BRANCH   3   4
ATOM      4  C   UNL A   1      38.419  23.460  25.855  1.00  0.00     0.202 C 
BRANCH   4   5
ATOM      5  C   UNL A   1      36.939  23.671  26.194  1.00  0.00     0.261 C 
BRANCH   5   6
ATOM      6  O   UNL A   1      36.110  22.479  26.153  1.00  0.00    -0.463 OA
BRANCH   6   7
ATOM      7  C   UNL A   1      34.820  22.707  26.509  1.00  0.00     0.309 C 
ATOM      8  O   UNL A   1      34.385  22.361  27.608  1.00  0.00    -0.252 OA
BRANCH   7   9
ATOM      9  C   UNL A   1      33.885  23.324  25.432  1.00  0.00     0.104 C 
ATOM     10  C   UNL A   1      32.328  23.457  25.626  1.00  0.00     0.023 C 
ATOM     11  C   UNL A   1      31.706  22.055  25.671  1.00  0.00     0.006 C 
ATOM     12  C   UNL A   1      32.064  21.159  24.484  1.00  0.00     0.000 C 
ATOM     13  C   UNL A   1      34.159  22.518  24.138  1.00  0.00     0.016 C 
ATOM     14  C   UNL A   1      33.563  21.111  24.229  1.00  0.00     0.001 C 
BRANCH  10  15
ATOM     15  C   UNL A   1      31.682  24.319  24.475  1.00  0.00     0.126 C 
BRANCH  15  16
ATOM     16  N   UNL A   1      32.354  25.627  24.132  1.00  0.00    -0.349 N 
ATOM     17  C   UNL A   1      32.849  24.744  21.785  1.00  0.00     0.064 C 
ATOM     18  C   UNL A   1      32.864  25.847  22.815  1.00  0.00     0.018 A 
ATOM     19  C   UNL A   1      33.333  27.040  22.397  1.00  0.00     0.073 A 
ATOM     20  C   UNL A   1      33.336  28.195  23.302  1.00  0.00     0.182 A 
ATOM     21  C   UNL A   1      32.308  26.769  24.996  1.00  0.00     0.018 A 
ATOM     22  O   UNL A   1      33.739  29.293  22.938  1.00  0.00    -0.290 OA
ATOM     23  C   UNL A   1      32.789  27.977  24.644  1.00  0.00     0.073 A 
ATOM     24  C   UNL A   1      31.646  26.750  26.350  1.00  0.00     0.064 C 
ENDBRANCH  15  16
ENDBRANCH  10  15
ENDBRANCH   7   9
ENDBRANCH   6   7
ENDBRANCH   5   6
ENDBRANCH   4   5
ENDBRANCH   3   4
ENDBRANCH   2   3
ENDBRANCH   1   2
BRANCH   1  25
ATOM     25  O   UNL A   1      42.252  20.841  27.578  1.00  0.00    -0.376 OA
BRANCH  25  26
ATOM     26  C   UNL A   1      41.783  19.551  27.224  1.00  0.00     0.202 C 
BRANCH  26  27
ATOM     27  C   UNL A   1      42.570  18.759  26.177  1.00  0.00     0.261 C 
BRANCH  27  28
ATOM     28  O   UNL A   1      42.874  19.500  24.983  1.00  0.00    -0.460 OA
BRANCH  28  29
ATOM     29  C   UNL A   1      44.187  19.574  24.662  1.00  0.00     0.338 C 
ATOM     30  O   UNL A   1      44.877  18.691  24.155  1.00  0.00    -0.246 OA
BRANCH  29  31
ATOM     31  C   UNL A   1      44.681  20.945  24.859  1.00  0.00     0.060 A 
ATOM     32  C   UNL A   1      45.224  21.288  26.102  1.00  0.00     0.016 A 
ATOM     33  C   UNL A   1      44.512  21.917  23.872  1.00  0.00     0.016 A 
ATOM     34  C   UNL A   1      45.607  22.602  26.358  1.00  0.00     0.010 A 
ATOM     35  C   UNL A   1      44.860  23.246  24.150  1.00  0.00     0.010 A 
ATOM     36  C   UNL A   1      45.388  23.598  25.404  1.00  0.00    -0.014 A 
BRANCH  36  37
ATOM     37  C   UNL A   1      45.534  25.019  25.807  1.00  0.00     0.031 A 
ATOM     38  C   UNL A   1      46.900  25.646  25.752  1.00  0.00     0.074 A 
ATOM     39  C   UNL A   1      44.468  25.769  26.142  1.00  0.00     0.049 A 
ATOM     40  N   UNL A   1      47.278  26.838  26.128  1.00  0.00    -0.248 NA
ATOM     41  C   UNL A   1      47.979  24.822  25.181  1.00  0.00     0.031 C 
ATOM     42  C   UNL A   1      43.078  25.317  26.130  1.00  0.00     0.029 A 
ATOM     43  N   UNL A   1      44.394  27.074  26.564  1.00  0.00    -0.354 N 
ATOM     44  C   UNL A   1      48.642  26.899  25.873  1.00  0.00     0.074 A 
ATOM     45  C   UNL A   1      49.026  25.627  25.302  1.00  0.00     0.031 C 
ATOM     46  C   UNL A   1      42.291  26.324  26.548  1.00  0.00     0.029 A 
ATOM     47  C   UNL A   1      43.122  27.473  26.902  1.00  0.00     0.049 A 
ATOM     48  H   UNL A   1      45.179  27.667  26.619  1.00  0.00     0.167 HD
ATOM     49  C   UNL A   1      49.498  27.924  26.088  1.00  0.00     0.034 A 
ATOM     50  C   UNL A   1      42.687  28.618  27.466  1.00  0.00     0.034 A 
ATOM     51  C   UNL A   1      49.118  29.196  26.638  1.00  0.00     0.049 A 
ATOM     52  C   UNL A   1      43.679  29.709  27.793  1.00  0.00     0.074 A 
ATOM     53  C   UNL A   1      49.925  30.287  26.910  1.00  0.00     0.029 A 
ATOM     54  N   UNL A   1      47.829  29.551  26.999  1.00  0.00    -0.354 N 
ATOM     55  N   UNL A   1      44.962  29.766  27.527  1.00  0.00    -0.248 NA
ATOM     56  C   UNL A   1      43.161  30.898  28.487  1.00  0.00     0.031 C 
ATOM     57  C   UNL A   1      49.125  31.294  27.459  1.00  0.00     0.029 A 
ATOM     58  C   UNL A   1      47.817  30.840  27.502  1.00  0.00     0.049 A 
ATOM     59  H   UNL A   1      47.038  28.971  26.911  1.00  0.00     0.167 HD
ATOM     60  C   UNL A   1      45.396  31.003  27.995  1.00  0.00     0.074 A 
ATOM     61  C   UNL A   1      44.236  31.674  28.541  1.00  0.00     0.031 C 
ATOM     62  C   UNL A   1      46.648  31.526  27.991  1.00  0.00     0.034 A 
BRANCH  49  63
ATOM     63  C   UNL A   1      50.943  27.719  25.721  1.00  0.00     0.023 A 
ATOM     64  C   UNL A   1      51.878  27.394  26.723  1.00  0.00     0.012 A 
ATOM     65  C   UNL A   1      51.355  27.772  24.375  1.00  0.00     0.148 A 
ATOM     66  C   UNL A   1      53.209  27.143  26.393  1.00  0.00     0.002 A 
ATOM     67  C   UNL A   1      52.674  27.478  24.049  1.00  0.00     0.091 A 
ATOM     68  F   UNL A   1      50.452  28.108  23.443  1.00  0.00    -0.205 F 
ATOM     69  C   UNL A   1      53.603  27.172  25.057  1.00  0.00     0.022 A 
BRANCH  67  70
ATOM     70  S   UNL A   1      53.260  27.412  22.353  1.00  0.00     0.127 S 
ATOM     71  O   UNL A   1      54.611  26.880  22.528  1.00  0.00    -0.237 OA
ATOM     72  O   UNL A   1      52.314  26.481  21.738  1.00  0.00    -0.237 OA
ATOM     73  O   UNL A   1      53.190  28.776  21.847  1.00  0.00    -0.744 OA
ENDBRANCH  67  70
ENDBRANCH  49  63
BRANCH  50  74
ATOM     74  C   UNL A   1      41.235  28.804  27.756  1.00  0.00     0.023 A 
ATOM     75  C   UNL A   1      40.357  29.142  26.708  1.00  0.00     0.012 A 
ATOM     76  C   UNL A   1      40.717  28.635  29.055  1.00  0.00     0.148 A 
ATOM     77  C   UNL A   1      38.995  29.328  26.951  1.00  0.00     0.002 A 
ATOM     78  C   UNL A   1      39.351  28.760  29.280  1.00  0.00     0.091 A 
ATOM     79  F   UNL A   1      41.571  28.341  30.045  1.00  0.00    -0.205 F 
ATOM     80  C   UNL A   1      38.490  29.124  28.233  1.00  0.00     0.022 A 
BRANCH  78  81
ATOM     81  S   UNL A   1      38.594  28.388  30.866  1.00  0.00     0.127 S 
ATOM     82  O   UNL A   1      37.218  28.831  30.653  1.00  0.00    -0.237 OA
ATOM     83  O   UNL A   1      38.770  26.937  30.947  1.00  0.00    -0.237 OA
ATOM     84  O   UNL A   1      39.354  29.144  31.852  1.00  0.00    -0.744 OA
ENDBRANCH  78  81
ENDBRANCH  50  74
BRANCH  62  85
ATOM     85  C   UNL A   1      46.853  32.902  28.573  1.00  0.00     0.023 A 
ATOM     86  C   UNL A   1      47.257  33.035  29.916  1.00  0.00     0.012 A 
ATOM     87  C   UNL A   1      46.774  34.051  27.758  1.00  0.00     0.148 A 
ATOM     88  C   UNL A   1      47.562  34.290  30.444  1.00  0.00     0.002 A 
ATOM     89  C   UNL A   1      47.128  35.291  28.278  1.00  0.00     0.091 A 
ATOM     90  F   UNL A   1      46.374  33.905  26.486  1.00  0.00    -0.205 F 
ATOM     91  C   UNL A   1      47.512  35.413  29.623  1.00  0.00     0.022 A 
BRANCH  89  92
ATOM     92  S   UNL A   1      47.197  36.778  27.271  1.00  0.00     0.127 S 
ATOM     93  O   UNL A   1      45.793  36.955  26.903  1.00  0.00    -0.237 OA
ATOM     94  O   UNL A   1      47.710  37.769  28.216  1.00  0.00    -0.237 OA
ATOM     95  O   UNL A   1      48.097  36.474  26.166  1.00  0.00    -0.744 OA
ENDBRANCH  89  92
ENDBRANCH  62  85
ENDBRANCH  36  37
ENDBRANCH  29  31
ENDBRANCH  28  29
ENDBRANCH  27  28
ENDBRANCH  26  27
ENDBRANCH  25  26
ENDBRANCH   1  25
TORSDOF 22
ENDMDL
MODEL 2
REMARK VINA RESULT:      -9.5      7.198     13.268
REMARK SMILES Cc1cc(=O)cc(C)n1C[C@H]1CCCC[C@@H]1C(=O)OCCOCCOCCOC(=O)c1ccc(-c2c3nc(c(-c4cccc(S(=O)(=O)[O-])c4F)c4ccc([nH]4)c(-c4cccc(S(=O)(=O)[O-])c4F)c4nc(c(-c5cccc(S(=O)(=O)[O-])c5F)c5ccc2[nH]5)C=C4)C=C3)cc1
REMARK SMILES IDX 24 1 23 2 22 3 21 4 20 5 19 6 17 7 18 8 16 9 11 10 12 11
REMARK SMILES IDX 13 12 15 13 14 14 10 15 9 16 1 17 2 18 3 19 4 20 7 21 5 22
REMARK SMILES IDX 6 23 8 24 25 25 26 26 27 27 28 28 29 29 30 30 31 31 32 32
REMARK SMILES IDX 93 33 33 34 92 35 34 36 35 37 36 38 86 39 37 40 91 41 85 42
REMARK SMILES IDX 87 43 38 44 90 45 84 46 83 47 39 49 71 50 51 51 70 52 52 53
REMARK SMILES IDX 55 54 69 55 88 56 53 57 54 58 68 60 89 61 56 62 40 63 41 64
REMARK SMILES IDX 49 65 42 66 44 67 50 68 43 69 45 70 46 71 47 72 48 73 72 74
REMARK SMILES IDX 73 75 81 76 74 77 76 78 82 79 75 80 77 81 78 82 79 83 80 84
REMARK SMILES IDX 57 85 58 86 66 87 59 88 61 89 67 90 60 91 62 92 63 93 64 94
REMARK SMILES IDX 65 95
REMARK H PARENT 87 48 55 59
REMARK Flexibility Score: inf
ROOT
ATOM      1  C   UNL A   1      34.116  32.036  27.978  1.00  0.00     0.188 C 
ENDROOT
BRANCH   1   2
ATOM      2  C   UNL A   1      33.408  30.707  27.634  1.00  0.00     0.188 C 
BRANCH   2   3
ATOM      3  O   UNL A   1      33.111  30.422  26.278  1.00  0.00    -0.376 OA
BRANCH   3   4
ATOM      4  C   UNL A   1      31.748  30.458  25.889  1.00  0.00     0.202 C 
BRANCH   4   5
ATOM      5  C   UNL A   1      31.314  29.575  24.713  1.00  0.00     0.261 C 
BRANCH   5   6
ATOM      6  O   UNL A   1      30.772  28.275  25.071  1.00  0.00    -0.463 OA
BRANCH   6   7
ATOM      7  C   UNL A   1      30.281  27.586  24.010  1.00  0.00     0.309 C 
ATOM      8  O   UNL A   1      29.427  28.070  23.267  1.00  0.00    -0.252 OA
BRANCH   7   9
ATOM      9  C   UNL A   1      30.759  26.117  23.835  1.00  0.00     0.104 C 
ATOM     10  C   UNL A   1      31.613  25.362  24.921  1.00  0.00     0.023 C 
ATOM     11  C   UNL A   1      32.993  26.024  25.026  1.00  0.00     0.006 C 
ATOM     12  C   UNL A   1      33.740  26.158  23.698  1.00  0.00     0.000 C 
ATOM     13  C   UNL A   1      31.527  26.091  22.491  1.00  0.00     0.016 C 
ATOM     14  C   UNL A   1      32.881  26.795  22.616  1.00  0.00     0.001 C 
BRANCH  10  15
ATOM     15  C   UNL A   1      31.753  23.830  24.572  1.00  0.00     0.126 C 
BRANCH  15  16
ATOM     16  N   UNL A   1      33.082  23.175  24.863  1.00  0.00    -0.349 N 
ATOM     17  C   UNL A   1      32.441  22.999  27.331  1.00  0.00     0.064 C 
ATOM     18  C   UNL A   1      33.385  22.724  26.185  1.00  0.00     0.018 A 
ATOM     19  C   UNL A   1      34.480  21.997  26.483  1.00  0.00     0.073 A 
ATOM     20  C   UNL A   1      35.431  21.623  25.431  1.00  0.00     0.182 A 
ATOM     21  C   UNL A   1      33.984  22.764  23.829  1.00  0.00     0.018 A 
ATOM     22  O   UNL A   1      36.422  20.945  25.675  1.00  0.00    -0.290 OA
ATOM     23  C   UNL A   1      35.108  22.061  24.070  1.00  0.00     0.073 A 
ATOM     24  C   UNL A   1      33.722  23.006  22.365  1.00  0.00     0.064 C 
ENDBRANCH  15  16
ENDBRANCH  10  15
ENDBRANCH   7   9
ENDBRANCH   6   7
ENDBRANCH   5   6
ENDBRANCH   4   5
ENDBRANCH   3   4
ENDBRANCH   2   3
ENDBRANCH   1   2
BRANCH   1  25
ATOM     25  O   UNL A   1      33.429  33.272  27.876  1.00  0.00    -0.376 OA
BRANCH  25  26
ATOM     26  C   UNL A   1      34.013  34.414  28.479  1.00  0.00     0.202 C 
BRANCH  26  27
ATOM     27  C   UNL A   1      33.087  35.420  29.168  1.00  0.00     0.261 C 
BRANCH  27  28
ATOM     28  O   UNL A   1      32.506  34.942  30.394  1.00  0.00    -0.460 OA
BRANCH  28  29
ATOM     29  C   UNL A   1      32.809  35.660  31.500  1.00  0.00     0.338 C 
ATOM     30  O   UNL A   1      32.217  36.648  31.929  1.00  0.00    -0.246 OA
BRANCH  29  31
ATOM     31  C   UNL A   1      33.890  35.002  32.250  1.00  0.00     0.060 A 
ATOM     32  C   UNL A   1      35.180  35.538  32.173  1.00  0.00     0.016 A 
ATOM     33  C   UNL A   1      33.664  33.806  32.935  1.00  0.00     0.016 A 
ATOM     34  C   UNL A   1      36.246  34.883  32.785  1.00  0.00     0.010 A 
ATOM     35  C   UNL A   1      34.747  33.131  33.513  1.00  0.00     0.010 A 
ATOM     36  C   UNL A   1      36.048  33.656  33.421  1.00  0.00    -0.014 A 
BRANCH  36  37
ATOM     37  C   UNL A   1      37.233  32.849  33.806  1.00  0.00     0.031 A 
ATOM     38  C   UNL A   1      37.934  33.172  35.097  1.00  0.00     0.074 A 
ATOM     39  C   UNL A   1      37.640  31.800  33.069  1.00  0.00     0.049 A 
ATOM     40  N   UNL A   1      39.026  32.658  35.594  1.00  0.00    -0.248 NA
ATOM     41  C   UNL A   1      37.307  34.198  35.946  1.00  0.00     0.031 C 
ATOM     42  C   UNL A   1      36.985  31.312  31.856  1.00  0.00     0.029 A 
ATOM     43  N   UNL A   1      38.711  30.956  33.236  1.00  0.00    -0.354 N 
ATOM     44  C   UNL A   1      39.241  33.320  36.797  1.00  0.00     0.074 A 
ATOM     45  C   UNL A   1      38.160  34.268  36.960  1.00  0.00     0.031 C 
ATOM     46  C   UNL A   1      37.683  30.267  31.376  1.00  0.00     0.029 A 
ATOM     47  C   UNL A   1      38.857  30.043  32.218  1.00  0.00     0.049 A 
ATOM     48  H   UNL A   1      39.318  31.003  34.011  1.00  0.00     0.167 HD
ATOM     49  C   UNL A   1      40.243  33.151  37.690  1.00  0.00     0.034 A 
ATOM     50  C   UNL A   1      39.844  29.155  31.975  1.00  0.00     0.034 A 
ATOM     51  C   UNL A   1      41.308  32.198  37.541  1.00  0.00     0.049 A 
ATOM     52  C   UNL A   1      41.006  29.057  32.934  1.00  0.00     0.074 A 
ATOM     53  C   UNL A   1      42.379  31.972  38.387  1.00  0.00     0.029 A 
ATOM     54  N   UNL A   1      41.441  31.315  36.483  1.00  0.00    -0.354 N 
ATOM     55  N   UNL A   1      41.187  29.671  34.079  1.00  0.00    -0.248 NA
ATOM     56  C   UNL A   1      42.095  28.136  32.572  1.00  0.00     0.031 C 
ATOM     57  C   UNL A   1      43.173  30.967  37.827  1.00  0.00     0.029 A 
ATOM     58  C   UNL A   1      42.581  30.548  36.647  1.00  0.00     0.049 A 
ATOM     59  H   UNL A   1      40.816  31.243  35.724  1.00  0.00     0.167 HD
ATOM     60  C   UNL A   1      42.393  29.190  34.585  1.00  0.00     0.074 A 
ATOM     61  C   UNL A   1      42.888  28.218  33.635  1.00  0.00     0.031 C 
ATOM     62  C   UNL A   1      43.039  29.540  35.726  1.00  0.00     0.034 A 
BRANCH  49  63
ATOM     63  C   UNL A   1      40.236  34.014  38.922  1.00  0.00     0.023 A 
ATOM     64  C   UNL A   1      41.092  35.130  38.997  1.00  0.00     0.012 A 
ATOM     65  C   UNL A   1      39.328  33.762  39.969  1.00  0.00     0.148 A 
ATOM     66  C   UNL A   1      41.057  35.974  40.106  1.00  0.00     0.002 A 
ATOM     67  C   UNL A   1      39.270  34.632  41.051  1.00  0.00     0.091 A 
ATOM     68  F   UNL A   1      38.541  32.680  39.886  1.00  0.00    -0.205 F 
ATOM     69  C   UNL A   1      40.139  35.733  41.124  1.00  0.00     0.022 A 
BRANCH  67  70
ATOM     70  S   UNL A   1      38.068  34.453  42.374  1.00  0.00     0.127 S 
ATOM     71  O   UNL A   1      38.506  33.207  43.003  1.00  0.00    -0.237 OA
ATOM     72  O   UNL A   1      38.308  35.656  43.171  1.00  0.00    -0.237 OA
ATOM     73  O   UNL A   1      36.763  34.398  41.730  1.00  0.00    -0.744 OA
ENDBRANCH  67  70
ENDBRANCH  49  63
BRANCH  50  74
ATOM     74  C   UNL A   1      39.778  28.274  30.772  1.00  0.00     0.023 A 
ATOM     75  C   UNL A   1      39.011  27.094  30.819  1.00  0.00     0.012 A 
ATOM     76  C   UNL A   1      40.456  28.604  29.582  1.00  0.00     0.148 A 
ATOM     77  C   UNL A   1      38.936  26.249  29.711  1.00  0.00     0.002 A 
ATOM     78  C   UNL A   1      40.328  27.790  28.463  1.00  0.00     0.091 A 
ATOM     79  F   UNL A   1      41.204  29.715  29.565  1.00  0.00    -0.205 F 
ATOM     80  C   UNL A   1      39.583  26.603  28.529  1.00  0.00     0.022 A 
BRANCH  78  81
ATOM     81  S   UNL A   1      41.015  28.233  26.863  1.00  0.00     0.127 S 
ATOM     82  O   UNL A   1      40.973  26.955  26.155  1.00  0.00    -0.237 OA
ATOM     83  O   UNL A   1      40.055  29.232  26.392  1.00  0.00    -0.237 OA
ATOM     84  O   UNL A   1      42.346  28.758  27.137  1.00  0.00    -0.744 OA
ENDBRANCH  78  81
ENDBRANCH  50  74
BRANCH  62  85
ATOM     85  C   UNL A   1      44.350  28.866  36.043  1.00  0.00     0.023 A 
ATOM     86  C   UNL A   1      45.559  29.485  35.670  1.00  0.00     0.012 A 
ATOM     87  C   UNL A   1      44.388  27.689  36.820  1.00  0.00     0.148 A 
ATOM     88  C   UNL A   1      46.784  28.938  36.052  1.00  0.00     0.002 A 
ATOM     89  C   UNL A   1      45.611  27.177  37.238  1.00  0.00     0.091 A 
ATOM     90  F   UNL A   1      43.227  27.106  37.153  1.00  0.00    -0.205 F 
ATOM     91  C   UNL A   1      46.810  27.795  36.846  1.00  0.00     0.022 A 
BRANCH  89  92
ATOM     92  S   UNL A   1      45.743  25.772  38.351  1.00  0.00     0.127 S 
ATOM     93  O   UNL A   1      47.147  25.841  38.754  1.00  0.00    -0.237 OA
ATOM     94  O   UNL A   1      44.789  26.119  39.404  1.00  0.00    -0.237 OA
ATOM     95  O   UNL A   1      45.377  24.601  37.566  1.00  0.00    -0.744 OA
ENDBRANCH  89  92
ENDBRANCH  62  85
ENDBRANCH  36  37
ENDBRANCH  29  31
ENDBRANCH  28  29
ENDBRANCH  27  28
ENDBRANCH  26  27
ENDBRANCH  25  26
ENDBRANCH   1  25
TORSDOF 22
ENDMDL
MODEL 3
REMARK VINA RESULT:      -9.3      6.967     11.922
REMARK SMILES Cc1cc(=O)cc(C)n1C[C@H]1CCCC[C@@H]1C(=O)OCCOCCOCCOC(=O)c1ccc(-c2c3nc(c(-c4cccc(S(=O)(=O)[O-])c4F)c4ccc([nH]4)c(-c4cccc(S(=O)(=O)[O-])c4F)c4nc(c(-c5cccc(S(=O)(=O)[O-])c5F)c5ccc2[nH]5)C=C4)C=C3)cc1
REMARK SMILES IDX 24 1 23 2 22 3 21 4 20 5 19 6 17 7 18 8 16 9 11 10 12 11
REMARK SMILES IDX 13 12 15 13 14 14 10 15 9 16 1 17 2 18 3 19 4 20 7 21 5 22
REMARK SMILES IDX 6 23 8 24 25 25 26 26 27 27 28 28 29 29 30 30 31 31 32 32
REMARK SMILES IDX 93 33 33 34 92 35 34 36 35 37 36 38 86 39 37 40 91 41 85 42
REMARK SMILES IDX 87 43 38 44 90 45 84 46 83 47 39 49 71 50 51 51 70 52 52 53
REMARK SMILES IDX 55 54 69 55 88 56 53 57 54 58 68 60 89 61 56 62 40 63 41 64
REMARK SMILES IDX 49 65 42 66 44 67 50 68 43 69 45 70 46 71 47 72 48 73 72 74
REMARK SMILES IDX 73 75 81 76 74 77 76 78 82 79 75 80 77 81 78 82 79 83 80 84
REMARK SMILES IDX 57 85 58 86 66 87 59 88 61 89 67 90 60 91 62 92 63 93 64 94
REMARK SMILES IDX 65 95
REMARK H PARENT 87 48 55 59
REMARK Flexibility Score: inf
ROOT
ATOM      1  C   UNL A   1      34.580  32.703  29.342  1.00  0.00     0.188 C 
ENDROOT
BRANCH   1   2
ATOM      2  C   UNL A   1      35.121  31.646  28.353  1.00  0.00     0.188 C 
BRANCH   2   3
ATOM      3  O   UNL A   1      34.281  31.201  27.303  1.00  0.00    -0.376 OA
BRANCH   3   4
ATOM      4  C   UNL A   1      34.041  29.807  27.208  1.00  0.00     0.202 C 
BRANCH   4   5
ATOM      5  C   UNL A   1      32.593  29.338  27.028  1.00  0.00     0.261 C 
BRANCH   5   6
ATOM      6  O   UNL A   1      32.006  29.601  25.725  1.00  0.00    -0.463 OA
BRANCH   6   7
ATOM      7  C   UNL A   1      31.933  28.501  24.935  1.00  0.00     0.309 C 
ATOM      8  O   UNL A   1      31.736  28.590  23.723  1.00  0.00    -0.252 OA
BRANCH   7   9
ATOM      9  C   UNL A   1      31.996  27.116  25.639  1.00  0.00     0.104 C 
ATOM     10  C   UNL A   1      32.848  25.914  25.084  1.00  0.00     0.023 C 
ATOM     11  C   UNL A   1      32.250  25.447  23.750  1.00  0.00     0.006 C 
ATOM     12  C   UNL A   1      30.756  25.120  23.800  1.00  0.00     0.000 C 
ATOM     13  C   UNL A   1      30.524  26.659  25.784  1.00  0.00     0.016 C 
ATOM     14  C   UNL A   1      29.942  26.240  24.431  1.00  0.00     0.001 C 
BRANCH  10  15
ATOM     15  C   UNL A   1      32.899  24.726  26.119  1.00  0.00     0.126 C 
BRANCH  15  16
ATOM     16  N   UNL A   1      33.226  23.354  25.580  1.00  0.00    -0.349 N 
ATOM     17  C   UNL A   1      35.677  24.040  25.350  1.00  0.00     0.064 C 
ATOM     18  C   UNL A   1      34.577  23.010  25.265  1.00  0.00     0.018 A 
ATOM     19  C   UNL A   1      34.960  21.762  24.928  1.00  0.00     0.073 A 
ATOM     20  C   UNL A   1      33.979  20.673  24.874  1.00  0.00     0.182 A 
ATOM     21  C   UNL A   1      32.279  22.278  25.579  1.00  0.00     0.018 A 
ATOM     22  O   UNL A   1      34.308  19.527  24.591  1.00  0.00    -0.290 OA
ATOM     23  C   UNL A   1      32.598  21.018  25.224  1.00  0.00     0.073 A 
ATOM     24  C   UNL A   1      30.857  22.433  26.052  1.00  0.00     0.064 C 
ENDBRANCH  15  16
ENDBRANCH  10  15
ENDBRANCH   7   9
ENDBRANCH   6   7
ENDBRANCH   5   6
ENDBRANCH   4   5
ENDBRANCH   3   4
ENDBRANCH   2   3
ENDBRANCH   1   2
BRANCH   1  25
ATOM     25  O   UNL A   1      33.420  33.458  29.035  1.00  0.00    -0.376 OA
BRANCH  25  26
ATOM     26  C   UNL A   1      33.555  34.862  28.889  1.00  0.00     0.202 C 
BRANCH  26  27
ATOM     27  C   UNL A   1      32.850  35.765  29.905  1.00  0.00     0.261 C 
BRANCH  27  28
ATOM     28  O   UNL A   1      32.497  35.105  31.134  1.00  0.00    -0.460 OA
BRANCH  28  29
ATOM     29  C   UNL A   1      33.199  35.493  32.224  1.00  0.00     0.338 C 
ATOM     30  O   UNL A   1      32.839  36.281  33.096  1.00  0.00    -0.246 OA
BRANCH  29  31
ATOM     31  C   UNL A   1      34.441  34.711  32.331  1.00  0.00     0.060 A 
ATOM     32  C   UNL A   1      34.406  33.490  33.012  1.00  0.00     0.016 A 
ATOM     33  C   UNL A   1      35.653  35.221  31.863  1.00  0.00     0.016 A 
ATOM     34  C   UNL A   1      35.581  32.772  33.221  1.00  0.00     0.010 A 
ATOM     35  C   UNL A   1      36.838  34.516  32.113  1.00  0.00     0.010 A 
ATOM     36  C   UNL A   1      36.809  33.299  32.814  1.00  0.00    -0.014 A 
BRANCH  36  37
ATOM     37  C   UNL A   1      38.057  32.661  33.302  1.00  0.00     0.031 A 
ATOM     38  C   UNL A   1      38.656  31.541  32.495  1.00  0.00     0.074 A 
ATOM     39  C   UNL A   1      38.697  33.111  34.397  1.00  0.00     0.049 A 
ATOM     40  N   UNL A   1      39.689  30.790  32.764  1.00  0.00    -0.248 NA
ATOM     41  C   UNL A   1      38.012  31.244  31.204  1.00  0.00     0.031 C 
ATOM     42  C   UNL A   1      38.284  34.255  35.207  1.00  0.00     0.029 A 
ATOM     43  N   UNL A   1      39.831  32.649  35.018  1.00  0.00    -0.354 N 
ATOM     44  C   UNL A   1      39.801  29.907  31.698  1.00  0.00     0.074 A 
ATOM     45  C   UNL A   1      38.736  30.221  30.771  1.00  0.00     0.031 C 
ATOM     46  C   UNL A   1      39.144  34.394  36.232  1.00  0.00     0.029 A 
ATOM     47  C   UNL A   1      40.135  33.321  36.179  1.00  0.00     0.049 A 
ATOM     48  H   UNL A   1      40.374  31.907  34.666  1.00  0.00     0.167 HD
ATOM     49  C   UNL A   1      40.713  28.927  31.502  1.00  0.00     0.034 A 
ATOM     50  C   UNL A   1      41.082  33.074  37.109  1.00  0.00     0.034 A 
ATOM     51  C   UNL A   1      41.784  28.623  32.410  1.00  0.00     0.049 A 
ATOM     52  C   UNL A   1      42.023  31.910  36.919  1.00  0.00     0.074 A 
ATOM     53  C   UNL A   1      42.743  27.632  32.303  1.00  0.00     0.029 A 
ATOM     54  N   UNL A   1      42.040  29.302  33.590  1.00  0.00    -0.354 N 
ATOM     55  N   UNL A   1      42.136  31.096  35.897  1.00  0.00    -0.248 NA
ATOM     56  C   UNL A   1      42.976  31.635  38.007  1.00  0.00     0.031 C 
ATOM     57  C   UNL A   1      43.566  27.697  33.431  1.00  0.00     0.029 A 
ATOM     58  C   UNL A   1      43.136  28.746  34.227  1.00  0.00     0.049 A 
ATOM     59  H   UNL A   1      41.519  30.067  33.927  1.00  0.00     0.167 HD
ATOM     60  C   UNL A   1      43.186  30.234  36.205  1.00  0.00     0.074 A 
ATOM     61  C   UNL A   1      43.692  30.639  37.499  1.00  0.00     0.031 C 
ATOM     62  C   UNL A   1      43.672  29.190  35.488  1.00  0.00     0.034 A 
BRANCH  49  63
ATOM     63  C   UNL A   1      40.600  28.106  30.246  1.00  0.00     0.023 A 
ATOM     64  C   UNL A   1      39.591  27.128  30.140  1.00  0.00     0.012 A 
ATOM     65  C   UNL A   1      41.443  28.357  29.146  1.00  0.00     0.148 A 
ATOM     66  C   UNL A   1      39.435  26.399  28.963  1.00  0.00     0.002 A 
ATOM     67  C   UNL A   1      41.253  27.656  27.962  1.00  0.00     0.091 A 
ATOM     68  F   UNL A   1      42.411  29.275  29.280  1.00  0.00    -0.205 F 
ATOM     69  C   UNL A   1      40.256  26.671  27.872  1.00  0.00     0.022 A 
BRANCH  67  70
ATOM     70  S   UNL A   1      42.206  27.990  26.476  1.00  0.00     0.127 S 
ATOM     71  O   UNL A   1      43.533  27.512  26.863  1.00  0.00    -0.237 OA
ATOM     72  O   UNL A   1      41.525  27.160  25.483  1.00  0.00    -0.237 OA
ATOM     73  O   UNL A   1      42.105  29.424  26.245  1.00  0.00    -0.744 OA
ENDBRANCH  67  70
ENDBRANCH  49  63
BRANCH  50  74
ATOM     74  C   UNL A   1      41.198  33.954  38.309  1.00  0.00     0.023 A 
ATOM     75  C   UNL A   1      42.167  34.976  38.328  1.00  0.00     0.012 A 
ATOM     76  C   UNL A   1      40.349  33.795  39.422  1.00  0.00     0.148 A 
ATOM     77  C   UNL A   1      42.302  35.809  39.440  1.00  0.00     0.002 A 
ATOM     78  C   UNL A   1      40.446  34.667  40.500  1.00  0.00     0.091 A 
ATOM     79  F   UNL A   1      39.452  32.799  39.398  1.00  0.00    -0.205 F 
ATOM     80  C   UNL A   1      41.433  35.664  40.519  1.00  0.00     0.022 A 
BRANCH  78  81
ATOM     81  S   UNL A   1      39.288  34.640  41.873  1.00  0.00     0.127 S 
ATOM     82  O   UNL A   1      38.002  34.681  41.181  1.00  0.00    -0.237 OA
ATOM     83  O   UNL A   1      39.607  33.360  42.507  1.00  0.00    -0.237 OA
ATOM     84  O   UNL A   1      39.608  35.809  42.680  1.00  0.00    -0.744 OA
ENDBRANCH  78  81
ENDBRANCH  50  74
BRANCH  62  85
ATOM     85  C   UNL A   1      44.826  28.404  36.058  1.00  0.00     0.023 A 
ATOM     86  C   UNL A   1      46.146  28.826  35.809  1.00  0.00     0.012 A 
ATOM     87  C   UNL A   1      44.600  27.329  36.944  1.00  0.00     0.148 A 
ATOM     88  C   UNL A   1      47.224  28.182  36.418  1.00  0.00     0.002 A 
ATOM     89  C   UNL A   1      45.675  26.725  37.585  1.00  0.00     0.091 A 
ATOM     90  F   UNL A   1      43.336  26.932  37.157  1.00  0.00    -0.205 F 
ATOM     91  C   UNL A   1      46.988  27.144  37.315  1.00  0.00     0.022 A 
BRANCH  89  92
ATOM     92  S   UNL A   1      45.466  25.452  38.836  1.00  0.00     0.127 S 
ATOM     93  O   UNL A   1      46.842  25.248  39.287  1.00  0.00    -0.237 OA
ATOM     94  O   UNL A   1      44.596  26.113  39.809  1.00  0.00    -0.237 OA
ATOM     95  O   UNL A   1      44.859  24.315  38.156  1.00  0.00    -0.744 OA
ENDBRANCH  89  92
ENDBRANCH  62  85
ENDBRANCH  36  37
ENDBRANCH  29  31
ENDBRANCH  28  29
ENDBRANCH  27  28
ENDBRANCH  26  27
ENDBRANCH  25  26
ENDBRANCH   1  25
TORSDOF 22
ENDMDL
