MODEL 1
REMARK VINA RESULT:     -10.4      0.000      0.000
REMARK SMILES O=C(CC[C@]12C[C@H]3C[C@H](C[C@H](C3)C1)C2)OCCOCCOCCOC(=O)c1ccc(-c2c3nc(c(-c4cccc(S(=O)(=O)[O-])c4F)c4ccc([nH]4)c(-c4cccc(S(=O)(=O)[O-])c4F)c4nc(c(-c5cccc(S(=O)(=O)[O-])c5F)c5ccc2[nH]5)C=C4)C=C3)cc1
REMARK SMILES IDX 20 1 19 2 18 3 17 4 16 5 15 6 2 7 1 8 3 9 4 10 5 11 6 12
REMARK SMILES IDX 13 13 14 14 7 15 11 16 9 17 8 18 12 19 10 20 21 21 22 22
REMARK SMILES IDX 23 23 24 24 25 25 26 26 27 27 28 28 89 29 29 30 88 31 30 32
REMARK SMILES IDX 31 33 32 34 82 35 33 36 87 37 81 38 83 39 34 40 86 41 80 42
REMARK SMILES IDX 79 43 35 45 67 46 47 47 66 48 48 49 51 50 65 51 84 52 49 53
REMARK SMILES IDX 50 54 64 56 85 57 52 58 36 59 37 60 45 61 38 62 40 63 46 64
REMARK SMILES IDX 39 65 41 66 42 67 43 68 44 69 68 70 69 71 77 72 70 73 72 74
REMARK SMILES IDX 78 75 71 76 73 77 74 78 75 79 76 80 53 81 54 82 62 83 55 84
REMARK SMILES IDX 57 85 63 86 56 87 58 88 59 89 60 90 61 91
REMARK H PARENT 83 44 51 55
REMARK Flexibility Score: inf
ROOT
ATOM      1  C   UNL A   1      32.717  29.568  25.512  1.00  0.00     0.188 C 
ENDROOT
BRANCH   1   2
ATOM      2  C   UNL A   1      31.577  28.674  26.039  1.00  0.00     0.188 C 
BRANCH   2   3
ATOM      3  O   UNL A   1      31.458  27.362  25.515  1.00  0.00    -0.376 OA
BRANCH   3   4
ATOM      4  C   UNL A   1      30.579  27.187  24.424  1.00  0.00     0.202 C 
BRANCH   4   5
ATOM      5  C   UNL A   1      31.180  26.674  23.097  1.00  0.00     0.261 C 
BRANCH   5   6
ATOM      6  O   UNL A   1      32.587  26.875  22.843  1.00  0.00    -0.463 OA
BRANCH   6   7
ATOM      7  C   UNL A   1      33.375  26.023  22.144  1.00  0.00     0.305 C 
ATOM      8  O   UNL A   1      33.356  26.036  20.915  1.00  0.00    -0.252 OA
BRANCH   7   9
ATOM      9  C   UNL A   1      34.106  24.942  22.912  1.00  0.00     0.123 C 
BRANCH   9  10
ATOM     10  C   UNL A   1      34.124  25.089  24.455  1.00  0.00     0.019 C 
BRANCH  10  11
ATOM     11  C   UNL A   1      33.667  23.861  25.295  1.00  0.00    -0.028 C 
ATOM     12  C   UNL A   1      33.223  22.729  24.371  1.00  0.00     0.010 C 
ATOM     13  C   UNL A   1      32.541  24.277  26.273  1.00  0.00     0.010 C 
ATOM     14  C   UNL A   1      34.804  23.220  26.133  1.00  0.00     0.010 C 
ATOM     15  C   UNL A   1      32.560  21.569  25.113  1.00  0.00    -0.010 C 
ATOM     16  C   UNL A   1      32.002  23.073  27.054  1.00  0.00    -0.010 C 
ATOM     17  C   UNL A   1      34.265  21.980  26.903  1.00  0.00    -0.010 C 
ATOM     18  C   UNL A   1      33.675  20.925  25.937  1.00  0.00     0.007 C 
ATOM     19  C   UNL A   1      31.450  22.025  26.079  1.00  0.00     0.007 C 
ATOM     20  C   UNL A   1      33.149  22.443  27.856  1.00  0.00     0.007 C 
ENDBRANCH  10  11
ENDBRANCH   9  10
ENDBRANCH   7   9
ENDBRANCH   6   7
ENDBRANCH   5   6
ENDBRANCH   4   5
ENDBRANCH   3   4
ENDBRANCH   2   3
ENDBRANCH   1   2
BRANCH   1  21
ATOM     21  O   UNL A   1      32.945  30.750  26.266  1.00  0.00    -0.376 OA
BRANCH  21  22
ATOM     22  C   UNL A   1      31.811  31.407  26.822  1.00  0.00     0.202 C 
BRANCH  22  23
ATOM     23  C   UNL A   1      31.935  32.846  27.370  1.00  0.00     0.261 C 
BRANCH  23  24
ATOM     24  O   UNL A   1      33.245  33.419  27.433  1.00  0.00    -0.460 OA
BRANCH  24  25
ATOM     25  C   UNL A   1      33.789  33.564  28.663  1.00  0.00     0.338 C 
ATOM     26  O   UNL A   1      33.244  34.018  29.643  1.00  0.00    -0.246 OA
BRANCH  25  27
ATOM     27  C   UNL A   1      35.097  32.861  28.671  1.00  0.00     0.060 A 
ATOM     28  C   UNL A   1      35.090  31.482  28.928  1.00  0.00     0.016 A 
ATOM     29  C   UNL A   1      36.298  33.525  28.399  1.00  0.00     0.016 A 
ATOM     30  C   UNL A   1      36.285  30.772  28.961  1.00  0.00     0.010 A 
ATOM     31  C   UNL A   1      37.506  32.822  28.496  1.00  0.00     0.010 A 
ATOM     32  C   UNL A   1      37.499  31.457  28.839  1.00  0.00    -0.014 A 
BRANCH  32  33
ATOM     33  C   UNL A   1      38.682  30.825  29.470  1.00  0.00     0.031 A 
ATOM     34  C   UNL A   1      38.992  31.243  30.887  1.00  0.00     0.074 A 
ATOM     35  C   UNL A   1      39.388  29.847  28.878  1.00  0.00     0.049 A 
ATOM     36  N   UNL A   1      39.885  30.778  31.717  1.00  0.00    -0.248 NA
ATOM     37  C   UNL A   1      38.165  32.329  31.445  1.00  0.00     0.031 C 
ATOM     38  C   UNL A   1      39.162  29.328  27.531  1.00  0.00     0.029 A 
ATOM     39  N   UNL A   1      40.446  29.112  29.351  1.00  0.00    -0.354 N 
ATOM     40  C   UNL A   1      39.743  31.528  32.879  1.00  0.00     0.074 A 
ATOM     41  C   UNL A   1      38.690  32.486  32.647  1.00  0.00     0.031 C 
ATOM     42  C   UNL A   1      40.069  28.365  27.280  1.00  0.00     0.029 A 
ATOM     43  C   UNL A   1      40.944  28.210  28.442  1.00  0.00     0.049 A 
ATOM     44  H   UNL A   1      40.814  29.222  30.259  1.00  0.00     0.167 HD
ATOM     45  C   UNL A   1      40.418  31.423  34.045  1.00  0.00     0.034 A 
ATOM     46  C   UNL A   1      41.990  27.365  28.543  1.00  0.00     0.034 A 
ATOM     47  C   UNL A   1      41.461  30.466  34.280  1.00  0.00     0.049 A 
ATOM     48  C   UNL A   1      42.754  27.292  29.843  1.00  0.00     0.074 A 
ATOM     49  C   UNL A   1      42.192  30.258  35.433  1.00  0.00     0.029 A 
ATOM     50  N   UNL A   1      41.934  29.572  33.333  1.00  0.00    -0.354 N 
ATOM     51  N   UNL A   1      42.543  27.938  30.966  1.00  0.00    -0.248 NA
ATOM     52  C   UNL A   1      43.873  26.341  29.903  1.00  0.00     0.031 C 
ATOM     53  C   UNL A   1      43.140  29.264  35.171  1.00  0.00     0.029 A 
ATOM     54  C   UNL A   1      42.958  28.815  33.872  1.00  0.00     0.049 A 
ATOM     55  H   UNL A   1      41.591  29.486  32.415  1.00  0.00     0.167 HD
ATOM     56  C   UNL A   1      43.467  27.433  31.878  1.00  0.00     0.074 A 
ATOM     57  C   UNL A   1      44.230  26.420  31.178  1.00  0.00     0.031 C 
ATOM     58  C   UNL A   1      43.667  27.773  33.176  1.00  0.00     0.034 A 
BRANCH  45  59
ATOM     59  C   UNL A   1      40.055  32.384  35.145  1.00  0.00     0.023 A 
ATOM     60  C   UNL A   1      40.710  33.628  35.248  1.00  0.00     0.012 A 
ATOM     61  C   UNL A   1      39.042  32.057  36.066  1.00  0.00     0.148 A 
ATOM     62  C   UNL A   1      40.387  34.516  36.274  1.00  0.00     0.002 A 
ATOM     63  C   UNL A   1      38.689  32.968  37.053  1.00  0.00     0.091 A 
ATOM     64  F   UNL A   1      38.455  30.855  35.971  1.00  0.00    -0.205 F 
ATOM     65  C   UNL A   1      39.371  34.192  37.167  1.00  0.00     0.022 A 
BRANCH  63  66
ATOM     66  S   UNL A   1      37.338  32.676  38.197  1.00  0.00     0.127 S 
ATOM     67  O   UNL A   1      37.764  33.453  39.361  1.00  0.00    -0.237 OA
ATOM     68  O   UNL A   1      36.198  33.237  37.473  1.00  0.00    -0.237 OA
ATOM     69  O   UNL A   1      37.283  31.235  38.397  1.00  0.00    -0.744 OA
ENDBRANCH  63  66
ENDBRANCH  45  59
BRANCH  46  70
ATOM     70  C   UNL A   1      42.362  26.486  27.396  1.00  0.00     0.023 A 
ATOM     71  C   UNL A   1      43.087  27.017  26.311  1.00  0.00     0.012 A 
ATOM     72  C   UNL A   1      41.984  25.130  27.370  1.00  0.00     0.148 A 
ATOM     73  C   UNL A   1      43.397  26.223  25.205  1.00  0.00     0.002 A 
ATOM     74  C   UNL A   1      42.344  24.330  26.292  1.00  0.00     0.091 A 
ATOM     75  F   UNL A   1      41.279  24.648  28.403  1.00  0.00    -0.205 F 
ATOM     76  C   UNL A   1      43.034  24.879  25.199  1.00  0.00     0.022 A 
BRANCH  74  77
ATOM     77  S   UNL A   1      42.021  22.564  26.248  1.00  0.00     0.127 S 
ATOM     78  O   UNL A   1      42.648  22.114  27.488  1.00  0.00    -0.237 OA
ATOM     79  O   UNL A   1      40.558  22.528  26.248  1.00  0.00    -0.237 OA
ATOM     80  O   UNL A   1      42.636  22.079  25.019  1.00  0.00    -0.744 OA
ENDBRANCH  74  77
ENDBRANCH  46  70
BRANCH  58  81
ATOM     81  C   UNL A   1      44.701  27.000  33.956  1.00  0.00     0.023 A 
ATOM     82  C   UNL A   1      46.031  27.456  34.027  1.00  0.00     0.012 A 
ATOM     83  C   UNL A   1      44.325  25.849  34.677  1.00  0.00     0.148 A 
ATOM     84  C   UNL A   1      46.982  26.750  34.764  1.00  0.00     0.002 A 
ATOM     85  C   UNL A   1      45.264  25.185  35.455  1.00  0.00     0.091 A 
ATOM     86  F   UNL A   1      43.057  25.421  34.586  1.00  0.00    -0.205 F 
ATOM     87  C   UNL A   1      46.596  25.623  35.487  1.00  0.00     0.022 A 
BRANCH  85  88
ATOM     88  S   UNL A   1      44.827  23.792  36.502  1.00  0.00     0.127 S 
ATOM     89  O   UNL A   1      44.140  24.455  37.609  1.00  0.00    -0.237 OA
ATOM     90  O   UNL A   1      43.956  23.006  35.627  1.00  0.00    -0.237 OA
ATOM     91  O   UNL A   1      46.083  23.138  36.846  1.00  0.00    -0.744 OA
ENDBRANCH  85  88
ENDBRANCH  58  81
ENDBRANCH  32  33
ENDBRANCH  25  27
ENDBRANCH  24  25
ENDBRANCH  23  24
ENDBRANCH  22  23
ENDBRANCH  21  22
ENDBRANCH   1  21
TORSDOF 22
ENDMDL
MODEL 2
REMARK VINA RESULT:      -9.9      4.549      6.544
REMARK SMILES O=C(CC[C@]12C[C@H]3C[C@H](C[C@H](C3)C1)C2)OCCOCCOCCOC(=O)c1ccc(-c2c3nc(c(-c4cccc(S(=O)(=O)[O-])c4F)c4ccc([nH]4)c(-c4cccc(S(=O)(=O)[O-])c4F)c4nc(c(-c5cccc(S(=O)(=O)[O-])c5F)c5ccc2[nH]5)C=C4)C=C3)cc1
REMARK SMILES IDX 20 1 19 2 18 3 17 4 16 5 15 6 2 7 1 8 3 9 4 10 5 11 6 12
REMARK SMILES IDX 13 13 14 14 7 15 11 16 9 17 8 18 12 19 10 20 21 21 22 22
REMARK SMILES IDX 23 23 24 24 25 25 26 26 27 27 28 28 89 29 29 30 88 31 30 32
REMARK SMILES IDX 31 33 32 34 82 35 33 36 87 37 81 38 83 39 34 40 86 41 80 42
REMARK SMILES IDX 79 43 35 45 67 46 47 47 66 48 48 49 51 50 65 51 84 52 49 53
REMARK SMILES IDX 50 54 64 56 85 57 52 58 36 59 37 60 45 61 38 62 40 63 46 64
REMARK SMILES IDX 39 65 41 66 42 67 43 68 44 69 68 70 69 71 77 72 70 73 72 74
REMARK SMILES IDX 78 75 71 76 73 77 74 78 75 79 76 80 53 81 54 82 62 83 55 84
REMARK SMILES IDX 57 85 63 86 56 87 58 88 59 89 60 90 61 91
REMARK H PARENT 83 44 51 55
REMARK Flexibility Score: inf
ROOT
ATOM      1  C   UNL A   1      34.238  33.229  28.711  1.00  0.00     0.188 C 
ENDROOT
BRANCH   1   2
ATOM      2  C   UNL A   1      33.029  33.577  27.821  1.00  0.00     0.188 C 
BRANCH   2   3
ATOM      3  O   UNL A   1      32.353  32.518  27.165  1.00  0.00    -0.376 OA
BRANCH   3   4
ATOM      4  C   UNL A   1      32.942  31.237  27.243  1.00  0.00     0.202 C 
BRANCH   4   5
ATOM      5  C   UNL A   1      32.662  30.250  26.089  1.00  0.00     0.261 C 
BRANCH   5   6
ATOM      6  O   UNL A   1      32.770  28.832  26.340  1.00  0.00    -0.463 OA
BRANCH   6   7
ATOM      7  C   UNL A   1      33.492  27.967  25.588  1.00  0.00     0.305 C 
ATOM      8  O   UNL A   1      33.938  28.323  24.500  1.00  0.00    -0.252 OA
BRANCH   7   9
ATOM      9  C   UNL A   1      33.551  26.522  26.033  1.00  0.00     0.123 C 
BRANCH   9  10
ATOM     10  C   UNL A   1      34.220  25.528  25.050  1.00  0.00     0.019 C 
BRANCH  10  11
ATOM     11  C   UNL A   1      34.073  24.009  25.360  1.00  0.00    -0.028 C 
ATOM     12  C   UNL A   1      35.342  23.484  26.027  1.00  0.00     0.010 C 
ATOM     13  C   UNL A   1      33.746  23.232  24.061  1.00  0.00     0.010 C 
ATOM     14  C   UNL A   1      32.961  23.687  26.391  1.00  0.00     0.010 C 
ATOM     15  C   UNL A   1      35.365  21.962  26.169  1.00  0.00    -0.010 C 
ATOM     16  C   UNL A   1      33.683  21.721  24.310  1.00  0.00    -0.010 C 
ATOM     17  C   UNL A   1      32.917  22.157  26.668  1.00  0.00    -0.010 C 
ATOM     18  C   UNL A   1      34.277  21.635  27.191  1.00  0.00     0.007 C 
ATOM     19  C   UNL A   1      35.029  21.228  24.857  1.00  0.00     0.007 C 
ATOM     20  C   UNL A   1      32.594  21.431  25.350  1.00  0.00     0.007 C 
ENDBRANCH  10  11
ENDBRANCH   9  10
ENDBRANCH   7   9
ENDBRANCH   6   7
ENDBRANCH   5   6
ENDBRANCH   4   5
ENDBRANCH   3   4
ENDBRANCH   2   3
ENDBRANCH   1   2
BRANCH   1  21
ATOM     21  O   UNL A   1      34.704  34.294  29.528  1.00  0.00    -0.376 OA
BRANCH  21  22
ATOM     22  C   UNL A   1      35.342  33.954  30.754  1.00  0.00     0.202 C 
BRANCH  22  23
ATOM     23  C   UNL A   1      34.533  33.302  31.898  1.00  0.00     0.261 C 
BRANCH  23  24
ATOM     24  O   UNL A   1      34.899  31.976  32.293  1.00  0.00    -0.460 OA
BRANCH  24  25
ATOM     25  C   UNL A   1      36.099  31.828  32.900  1.00  0.00     0.338 C 
ATOM     26  O   UNL A   1      36.404  32.229  34.000  1.00  0.00    -0.246 OA
BRANCH  25  27
ATOM     27  C   UNL A   1      36.912  30.891  32.086  1.00  0.00     0.060 A 
ATOM     28  C   UNL A   1      38.052  30.333  32.685  1.00  0.00     0.016 A 
ATOM     29  C   UNL A   1      36.553  30.535  30.782  1.00  0.00     0.016 A 
ATOM     30  C   UNL A   1      38.860  29.457  31.969  1.00  0.00     0.010 A 
ATOM     31  C   UNL A   1      37.401  29.705  30.040  1.00  0.00     0.010 A 
ATOM     32  C   UNL A   1      38.588  29.216  30.618  1.00  0.00    -0.014 A 
BRANCH  32  33
ATOM     33  C   UNL A   1      39.740  28.820  29.772  1.00  0.00     0.031 A 
ATOM     34  C   UNL A   1      40.886  29.799  29.696  1.00  0.00     0.074 A 
ATOM     35  C   UNL A   1      39.832  27.613  29.187  1.00  0.00     0.049 A 
ATOM     36  N   UNL A   1      42.056  29.670  29.132  1.00  0.00    -0.248 NA
ATOM     37  C   UNL A   1      40.683  31.098  30.363  1.00  0.00     0.031 C 
ATOM     38  C   UNL A   1      38.812  26.569  29.221  1.00  0.00     0.029 A 
ATOM     39  N   UNL A   1      40.852  27.068  28.448  1.00  0.00    -0.354 N 
ATOM     40  C   UNL A   1      42.714  30.874  29.355  1.00  0.00     0.074 A 
ATOM     41  C   UNL A   1      41.814  31.726  30.093  1.00  0.00     0.031 C 
ATOM     42  C   UNL A   1      39.254  25.510  28.518  1.00  0.00     0.029 A 
ATOM     43  C   UNL A   1      40.579  25.807  27.975  1.00  0.00     0.049 A 
ATOM     44  H   UNL A   1      41.701  27.537  28.273  1.00  0.00     0.167 HD
ATOM     45  C   UNL A   1      43.964  31.238  28.993  1.00  0.00     0.034 A 
ATOM     46  C   UNL A   1      41.317  24.996  27.191  1.00  0.00     0.034 A 
ATOM     47  C   UNL A   1      44.863  30.389  28.265  1.00  0.00     0.049 A 
ATOM     48  C   UNL A   1      42.697  25.440  26.766  1.00  0.00     0.074 A 
ATOM     49  C   UNL A   1      46.160  30.651  27.869  1.00  0.00     0.029 A 
ATOM     50  N   UNL A   1      44.548  29.121  27.806  1.00  0.00    -0.354 N 
ATOM     51  N   UNL A   1      43.344  26.541  27.070  1.00  0.00    -0.248 NA
ATOM     52  C   UNL A   1      43.465  24.510  25.926  1.00  0.00     0.031 C 
ATOM     53  C   UNL A   1      46.617  29.554  27.132  1.00  0.00     0.029 A 
ATOM     54  C   UNL A   1      45.622  28.589  27.119  1.00  0.00     0.049 A 
ATOM     55  H   UNL A   1      43.686  28.665  27.949  1.00  0.00     0.167 HD
ATOM     56  C   UNL A   1      44.609  26.411  26.504  1.00  0.00     0.074 A 
ATOM     57  C   UNL A   1      44.640  25.120  25.849  1.00  0.00     0.031 C 
ATOM     58  C   UNL A   1      45.653  27.279  26.523  1.00  0.00     0.034 A 
BRANCH  45  59
ATOM     59  C   UNL A   1      44.417  32.624  29.367  1.00  0.00     0.023 A 
ATOM     60  C   UNL A   1      45.025  32.860  30.617  1.00  0.00     0.012 A 
ATOM     61  C   UNL A   1      44.257  33.690  28.461  1.00  0.00     0.148 A 
ATOM     62  C   UNL A   1      45.433  34.146  30.974  1.00  0.00     0.002 A 
ATOM     63  C   UNL A   1      44.715  34.956  28.803  1.00  0.00     0.091 A 
ATOM     64  F   UNL A   1      43.647  33.451  27.292  1.00  0.00    -0.205 F 
ATOM     65  C   UNL A   1      45.289  35.189  30.065  1.00  0.00     0.022 A 
BRANCH  63  66
ATOM     66  S   UNL A   1      44.649  36.344  27.667  1.00  0.00     0.127 S 
ATOM     67  O   UNL A   1      45.217  37.419  28.482  1.00  0.00    -0.237 OA
ATOM     68  O   UNL A   1      45.508  35.887  26.576  1.00  0.00    -0.237 OA
ATOM     69  O   UNL A   1      43.247  36.508  27.311  1.00  0.00    -0.744 OA
ENDBRANCH  63  66
ENDBRANCH  45  59
BRANCH  46  70
ATOM     70  C   UNL A   1      40.793  23.662  26.780  1.00  0.00     0.023 A 
ATOM     71  C   UNL A   1      39.489  23.550  26.259  1.00  0.00     0.012 A 
ATOM     72  C   UNL A   1      41.576  22.500  26.921  1.00  0.00     0.148 A 
ATOM     73  C   UNL A   1      38.962  22.302  25.920  1.00  0.00     0.002 A 
ATOM     74  C   UNL A   1      41.066  21.267  26.530  1.00  0.00     0.091 A 
ATOM     75  F   UNL A   1      42.807  22.624  27.436  1.00  0.00    -0.205 F 
ATOM     76  C   UNL A   1      39.752  21.164  26.047  1.00  0.00     0.022 A 
BRANCH  74  77
ATOM     77  S   UNL A   1      42.049  19.765  26.549  1.00  0.00     0.127 S 
ATOM     78  O   UNL A   1      41.251  18.874  25.711  1.00  0.00    -0.237 OA
ATOM     79  O   UNL A   1      43.303  20.220  25.947  1.00  0.00    -0.237 OA
ATOM     80  O   UNL A   1      42.159  19.382  27.951  1.00  0.00    -0.744 OA
ENDBRANCH  74  77
ENDBRANCH  46  70
BRANCH  58  81
ATOM     81  C   UNL A   1      46.945  26.840  25.883  1.00  0.00     0.023 A 
ATOM     82  C   UNL A   1      47.176  27.060  24.511  1.00  0.00     0.012 A 
ATOM     83  C   UNL A   1      47.964  26.265  26.670  1.00  0.00     0.148 A 
ATOM     84  C   UNL A   1      48.380  26.671  23.924  1.00  0.00     0.002 A 
ATOM     85  C   UNL A   1      49.181  25.933  26.091  1.00  0.00     0.091 A 
ATOM     86  F   UNL A   1      47.722  26.048  27.972  1.00  0.00    -0.205 F 
ATOM     87  C   UNL A   1      49.385  26.119  24.715  1.00  0.00     0.022 A 
BRANCH  85  88
ATOM     88  S   UNL A   1      50.566  25.320  27.057  1.00  0.00     0.127 S 
ATOM     89  O   UNL A   1      51.510  24.931  26.010  1.00  0.00    -0.237 OA
ATOM     90  O   UNL A   1      50.959  26.504  27.822  1.00  0.00    -0.237 OA
ATOM     91  O   UNL A   1      50.041  24.228  27.864  1.00  0.00    -0.744 OA
ENDBRANCH  85  88
ENDBRANCH  58  81
ENDBRANCH  32  33
ENDBRANCH  25  27
ENDBRANCH  24  25
ENDBRANCH  23  24
ENDBRANCH  22  23
ENDBRANCH  21  22
ENDBRANCH   1  21
TORSDOF 22
ENDMDL
MODEL 3
REMARK VINA RESULT:      -9.8      2.274      8.137
REMARK SMILES O=C(CC[C@]12C[C@H]3C[C@H](C[C@H](C3)C1)C2)OCCOCCOCCOC(=O)c1ccc(-c2c3nc(c(-c4cccc(S(=O)(=O)[O-])c4F)c4ccc([nH]4)c(-c4cccc(S(=O)(=O)[O-])c4F)c4nc(c(-c5cccc(S(=O)(=O)[O-])c5F)c5ccc2[nH]5)C=C4)C=C3)cc1
REMARK SMILES IDX 20 1 19 2 18 3 17 4 16 5 15 6 2 7 1 8 3 9 4 10 5 11 6 12
REMARK SMILES IDX 13 13 14 14 7 15 11 16 9 17 8 18 12 19 10 20 21 21 22 22
REMARK SMILES IDX 23 23 24 24 25 25 26 26 27 27 28 28 89 29 29 30 88 31 30 32
REMARK SMILES IDX 31 33 32 34 82 35 33 36 87 37 81 38 83 39 34 40 86 41 80 42
REMARK SMILES IDX 79 43 35 45 67 46 47 47 66 48 48 49 51 50 65 51 84 52 49 53
REMARK SMILES IDX 50 54 64 56 85 57 52 58 36 59 37 60 45 61 38 62 40 63 46 64
REMARK SMILES IDX 39 65 41 66 42 67 43 68 44 69 68 70 69 71 77 72 70 73 72 74
REMARK SMILES IDX 78 75 71 76 73 77 74 78 75 79 76 80 53 81 54 82 62 83 55 84
REMARK SMILES IDX 57 85 63 86 56 87 58 88 59 89 60 90 61 91
REMARK H PARENT 83 44 51 55
REMARK Flexibility Score: inf
ROOT
ATOM      1  C   UNL A   1      33.880  28.990  25.922  1.00  0.00     0.188 C 
ENDROOT
BRANCH   1   2
ATOM      2  C   UNL A   1      33.635  27.484  25.701  1.00  0.00     0.188 C 
BRANCH   2   3
ATOM      3  O   UNL A   1      33.927  26.938  24.426  1.00  0.00    -0.376 OA
BRANCH   3   4
ATOM      4  C   UNL A   1      33.898  27.824  23.328  1.00  0.00     0.202 C 
BRANCH   4   5
ATOM      5  C   UNL A   1      33.600  27.228  21.935  1.00  0.00     0.261 C 
BRANCH   5   6
ATOM      6  O   UNL A   1      33.286  25.824  21.828  1.00  0.00    -0.463 OA
BRANCH   6   7
ATOM      7  C   UNL A   1      32.170  25.241  22.329  1.00  0.00     0.305 C 
ATOM      8  O   UNL A   1      31.129  25.889  22.427  1.00  0.00    -0.252 OA
BRANCH   7   9
ATOM      9  C   UNL A   1      32.303  23.863  22.940  1.00  0.00     0.123 C 
BRANCH   9  10
ATOM     10  C   UNL A   1      33.584  23.071  22.574  1.00  0.00     0.019 C 
BRANCH  10  11
ATOM     11  C   UNL A   1      34.571  22.736  23.731  1.00  0.00    -0.028 C 
ATOM     12  C   UNL A   1      34.240  23.575  24.963  1.00  0.00     0.010 C 
ATOM     13  C   UNL A   1      36.031  22.957  23.263  1.00  0.00     0.010 C 
ATOM     14  C   UNL A   1      34.458  21.278  24.245  1.00  0.00     0.010 C 
ATOM     15  C   UNL A   1      35.290  23.465  26.069  1.00  0.00    -0.010 C 
ATOM     16  C   UNL A   1      37.028  22.724  24.403  1.00  0.00    -0.010 C 
ATOM     17  C   UNL A   1      35.449  21.048  25.423  1.00  0.00    -0.010 C 
ATOM     18  C   UNL A   1      35.181  22.031  26.588  1.00  0.00     0.007 C 
ATOM     19  C   UNL A   1      36.727  23.685  25.561  1.00  0.00     0.007 C 
ATOM     20  C   UNL A   1      36.881  21.283  24.910  1.00  0.00     0.007 C 
ENDBRANCH  10  11
ENDBRANCH   9  10
ENDBRANCH   7   9
ENDBRANCH   6   7
ENDBRANCH   5   6
ENDBRANCH   4   5
ENDBRANCH   3   4
ENDBRANCH   2   3
ENDBRANCH   1   2
BRANCH   1  21
ATOM     21  O   UNL A   1      32.727  29.808  25.790  1.00  0.00    -0.376 OA
BRANCH  21  22
ATOM     22  C   UNL A   1      32.444  30.724  26.842  1.00  0.00     0.202 C 
BRANCH  22  23
ATOM     23  C   UNL A   1      33.596  31.427  27.594  1.00  0.00     0.261 C 
BRANCH  23  24
ATOM     24  O   UNL A   1      33.887  32.783  27.238  1.00  0.00    -0.460 OA
BRANCH  24  25
ATOM     25  C   UNL A   1      33.601  33.731  28.159  1.00  0.00     0.338 C 
ATOM     26  O   UNL A   1      32.627  34.448  28.176  1.00  0.00    -0.246 OA
BRANCH  25  27
ATOM     27  C   UNL A   1      34.567  33.590  29.278  1.00  0.00     0.060 A 
ATOM     28  C   UNL A   1      35.902  33.941  29.030  1.00  0.00     0.016 A 
ATOM     29  C   UNL A   1      34.172  33.159  30.550  1.00  0.00     0.016 A 
ATOM     30  C   UNL A   1      36.855  33.819  30.035  1.00  0.00     0.010 A 
ATOM     31  C   UNL A   1      35.143  32.976  31.542  1.00  0.00     0.010 A 
ATOM     32  C   UNL A   1      36.495  33.248  31.261  1.00  0.00    -0.014 A 
BRANCH  32  33
ATOM     33  C   UNL A   1      37.580  32.588  32.027  1.00  0.00     0.031 A 
ATOM     34  C   UNL A   1      38.288  31.446  31.340  1.00  0.00     0.074 A 
ATOM     35  C   UNL A   1      38.004  33.036  33.221  1.00  0.00     0.049 A 
ATOM     36  N   UNL A   1      39.336  30.767  31.719  1.00  0.00    -0.248 NA
ATOM     37  C   UNL A   1      37.741  31.025  30.037  1.00  0.00     0.031 C 
ATOM     38  C   UNL A   1      37.430  34.152  33.966  1.00  0.00     0.029 A 
ATOM     39  N   UNL A   1      39.034  32.593  34.013  1.00  0.00    -0.354 N 
ATOM     40  C   UNL A   1      39.557  29.829  30.717  1.00  0.00     0.074 A 
ATOM     41  C   UNL A   1      38.530  30.013  29.720  1.00  0.00     0.031 C 
ATOM     42  C   UNL A   1      38.109  34.298  35.119  1.00  0.00     0.029 A 
ATOM     43  C   UNL A   1      39.155  33.279  35.197  1.00  0.00     0.049 A 
ATOM     44  H   UNL A   1      39.631  31.852  33.755  1.00  0.00     0.167 HD
ATOM     45  C   UNL A   1      40.535  28.901  30.623  1.00  0.00     0.034 A 
ATOM     46  C   UNL A   1      40.011  33.094  36.223  1.00  0.00     0.034 A 
ATOM     47  C   UNL A   1      41.561  28.721  31.609  1.00  0.00     0.049 A 
ATOM     48  C   UNL A   1      41.073  32.026  36.111  1.00  0.00     0.074 A 
ATOM     49  C   UNL A   1      42.614  27.827  31.600  1.00  0.00     0.029 A 
ATOM     50  N   UNL A   1      41.647  29.436  32.793  1.00  0.00    -0.354 N 
ATOM     51  N   UNL A   1      41.330  31.213  35.114  1.00  0.00    -0.248 NA
ATOM     52  C   UNL A   1      41.989  31.880  37.251  1.00  0.00     0.031 C 
ATOM     53  C   UNL A   1      43.316  27.973  32.801  1.00  0.00     0.029 A 
ATOM     54  C   UNL A   1      42.731  28.996  33.530  1.00  0.00     0.049 A 
ATOM     55  H   UNL A   1      41.029  30.151  33.068  1.00  0.00     0.167 HD
ATOM     56  C   UNL A   1      42.467  30.499  35.484  1.00  0.00     0.074 A 
ATOM     57  C   UNL A   1      42.854  30.985  36.792  1.00  0.00     0.031 C 
ATOM     58  C   UNL A   1      43.132  29.530  34.805  1.00  0.00     0.034 A 
BRANCH  45  59
ATOM     59  C   UNL A   1      40.524  28.002  29.416  1.00  0.00     0.023 A 
ATOM     60  C   UNL A   1      39.597  26.943  29.326  1.00  0.00     0.012 A 
ATOM     61  C   UNL A   1      41.424  28.226  28.357  1.00  0.00     0.148 A 
ATOM     62  C   UNL A   1      39.592  26.098  28.216  1.00  0.00     0.002 A 
ATOM     63  C   UNL A   1      41.377  27.413  27.232  1.00  0.00     0.091 A 
ATOM     64  F   UNL A   1      42.319  29.217  28.477  1.00  0.00    -0.205 F 
ATOM     65  C   UNL A   1      40.473  26.340  27.166  1.00  0.00     0.022 A 
BRANCH  63  66
ATOM     66  S   UNL A   1      42.414  27.697  25.794  1.00  0.00     0.127 S 
ATOM     67  O   UNL A   1      41.869  28.954  25.282  1.00  0.00    -0.237 OA
ATOM     68  O   UNL A   1      43.743  27.807  26.393  1.00  0.00    -0.237 OA
ATOM     69  O   UNL A   1      42.230  26.540  24.929  1.00  0.00    -0.744 OA
ENDBRANCH  63  66
ENDBRANCH  45  59
BRANCH  46  70
ATOM     70  C   UNL A   1      39.933  33.960  37.434  1.00  0.00     0.023 A 
ATOM     71  C   UNL A   1      40.559  35.223  37.437  1.00  0.00     0.012 A 
ATOM     72  C   UNL A   1      39.255  33.529  38.591  1.00  0.00     0.148 A 
ATOM     73  C   UNL A   1      40.542  36.023  38.580  1.00  0.00     0.002 A 
ATOM     74  C   UNL A   1      39.194  34.355  39.708  1.00  0.00     0.091 A 
ATOM     75  F   UNL A   1      38.682  32.318  38.576  1.00  0.00    -0.205 F 
ATOM     76  C   UNL A   1      39.853  35.594  39.711  1.00  0.00     0.022 A 
BRANCH  74  77
ATOM     77  S   UNL A   1      38.235  33.936  41.167  1.00  0.00     0.127 S 
ATOM     78  O   UNL A   1      38.318  35.171  41.944  1.00  0.00    -0.237 OA
ATOM     79  O   UNL A   1      36.919  33.657  40.591  1.00  0.00    -0.237 OA
ATOM     80  O   UNL A   1      38.894  32.776  41.754  1.00  0.00    -0.744 OA
ENDBRANCH  74  77
ENDBRANCH  46  70
BRANCH  58  81
ATOM     81  C   UNL A   1      44.392  28.977  35.422  1.00  0.00     0.023 A 
ATOM     82  C   UNL A   1      45.636  29.588  35.178  1.00  0.00     0.012 A 
ATOM     83  C   UNL A   1      44.322  27.881  36.306  1.00  0.00     0.148 A 
ATOM     84  C   UNL A   1      46.798  29.086  35.765  1.00  0.00     0.002 A 
ATOM     85  C   UNL A   1      45.474  27.424  36.932  1.00  0.00     0.091 A 
ATOM     86  F   UNL A   1      43.130  27.302  36.516  1.00  0.00    -0.205 F 
ATOM     87  C   UNL A   1      46.715  28.013  36.649  1.00  0.00     0.022 A 
BRANCH  85  88
ATOM     88  S   UNL A   1      45.440  26.120  38.167  1.00  0.00     0.127 S 
ATOM     89  O   UNL A   1      45.065  24.958  37.362  1.00  0.00    -0.237 OA
ATOM     90  O   UNL A   1      46.822  26.109  38.646  1.00  0.00    -0.237 OA
ATOM     91  O   UNL A   1      44.461  26.535  39.162  1.00  0.00    -0.744 OA
ENDBRANCH  85  88
ENDBRANCH  58  81
ENDBRANCH  32  33
ENDBRANCH  25  27
ENDBRANCH  24  25
ENDBRANCH  23  24
ENDBRANCH  22  23
ENDBRANCH  21  22
ENDBRANCH   1  21
TORSDOF 22
ENDMDL
