MODEL 1
REMARK VINA RESULT:     -10.8      0.000      0.000
REMARK SMILES O=C(Nc1cccc(C(=O)OCCOCCOCCOC(=O)c2ccc(-c3c4nc(c(-c5cccc(S(=O)(=O)[O-])c5F)c5ccc([nH]5)c(-c5cccc(S(=O)(=O)[O-])c5F)c5nc(c(-c6cccc(S(=O)(=O)[O-])c6F)c6ccc3[nH]6)C=C5)C=C4)cc2)c1)Nc1cc(Cl)c(Cl)cc1Cl
REMARK SMILES IDX 16 1 15 2 14 3 13 4 12 5 11 6 9 7 10 8 8 9 4 10 5 11 86 12
REMARK SMILES IDX 6 13 7 14 3 15 1 16 2 17 87 18 88 21 89 22 95 23 90 24 94 25
REMARK SMILES IDX 96 26 91 27 92 28 93 29 17 30 18 31 19 32 20 33 21 34 22 35
REMARK SMILES IDX 23 36 24 37 85 38 25 39 84 40 26 41 27 42 28 43 78 44 29 45
REMARK SMILES IDX 83 46 77 47 79 48 30 49 82 50 76 51 75 52 31 54 63 55 43 56
REMARK SMILES IDX 62 57 44 58 47 59 61 60 80 61 45 62 46 63 60 65 81 66 48 67
REMARK SMILES IDX 32 68 33 69 41 70 34 71 36 72 42 73 35 74 37 75 38 76 39 77
REMARK SMILES IDX 40 78 64 79 65 80 73 81 66 82 68 83 74 84 67 85 69 86 70 87
REMARK SMILES IDX 71 88 72 89 49 90 50 91 58 92 51 93 53 94 59 95 52 96 54 97
REMARK SMILES IDX 55 98 56 99 57 100
REMARK H PARENT 3 19 87 20 79 53 47 64
REMARK Flexibility Score: inf
ROOT
ATOM      1  C   UNL A   1      36.654  22.365  24.038  1.00  0.00     0.188 C 
ENDROOT
BRANCH   1   2
ATOM      2  C   UNL A   1      35.911  23.568  24.654  1.00  0.00     0.188 C 
BRANCH   2   3
ATOM      3  O   UNL A   1      35.693  23.638  26.052  1.00  0.00    -0.376 OA
BRANCH   3   4
ATOM      4  C   UNL A   1      35.057  22.559  26.720  1.00  0.00     0.202 C 
BRANCH   4   5
ATOM      5  C   UNL A   1      33.992  22.843  27.779  1.00  0.00     0.261 C 
BRANCH   5   6
ATOM      6  O   UNL A   1      32.768  22.139  27.527  1.00  0.00    -0.460 OA
BRANCH   6   7
ATOM      7  C   UNL A   1      31.882  22.781  26.729  1.00  0.00     0.338 C 
ATOM      8  O   UNL A   1      31.088  23.648  27.049  1.00  0.00    -0.246 OA
BRANCH   7   9
ATOM      9  C   UNL A   1      32.099  22.367  25.330  1.00  0.00     0.062 A 
ATOM     10  C   UNL A   1      32.572  22.903  23.017  1.00  0.00     0.043 A 
ATOM     11  C   UNL A   1      32.468  21.543  22.699  1.00  0.00     0.026 A 
ATOM     12  C   UNL A   1      32.322  23.316  24.328  1.00  0.00     0.041 A 
ATOM     13  C   UNL A   1      32.221  20.597  23.698  1.00  0.00     0.003 A 
ATOM     14  C   UNL A   1      32.064  21.005  25.020  1.00  0.00     0.016 A 
BRANCH  10  15
ATOM     15  N   UNL A   1      32.927  23.789  21.983  1.00  0.00    -0.308 N 
ATOM     16  O   UNL A   1      32.931  25.665  20.747  1.00  0.00    -0.248 OA
ATOM     17  C   UNL A   1      32.636  25.120  21.807  1.00  0.00     0.323 C 
ATOM     18  N   UNL A   1      32.174  25.774  22.918  1.00  0.00    -0.306 N 
ATOM     19  H   UNL A   1      33.475  23.390  21.269  1.00  0.00     0.171 HD
ATOM     20  H   UNL A   1      32.295  25.301  23.774  1.00  0.00     0.171 HD
BRANCH  18  21
ATOM     21  C   UNL A   1      31.547  27.034  23.000  1.00  0.00     0.063 A 
ATOM     22  C   UNL A   1      30.145  26.993  23.090  1.00  0.00     0.049 A 
ATOM     23  C   UNL A   1      32.182  28.286  22.943  1.00  0.00     0.066 A 
ATOM     24  C   UNL A   1      29.393  28.167  23.202  1.00  0.00     0.061 A 
ATOM     25  C   UNL A   1      31.426  29.460  23.069  1.00  0.00     0.044 A 
ATOM     26  Cl  UNL A   1      33.844  28.512  22.530  1.00  0.00    -0.082 Cl
ATOM     27  Cl  UNL A   1      27.677  28.016  23.323  1.00  0.00    -0.083 Cl
ATOM     28  C   UNL A   1      30.040  29.404  23.211  1.00  0.00     0.061 A 
ATOM     29  Cl  UNL A   1      29.182  30.896  23.360  1.00  0.00    -0.083 Cl
ENDBRANCH  18  21
ENDBRANCH  10  15
ENDBRANCH   7   9
ENDBRANCH   6   7
ENDBRANCH   5   6
ENDBRANCH   4   5
ENDBRANCH   3   4
ENDBRANCH   2   3
ENDBRANCH   1   2
BRANCH   1  30
ATOM     30  O   UNL A   1      37.842  21.858  24.610  1.00  0.00    -0.376 OA
BRANCH  30  31
ATOM     31  C   UNL A   1      37.825  20.715  25.446  1.00  0.00     0.202 C 
BRANCH  31  32
ATOM     32  C   UNL A   1      38.887  19.609  25.407  1.00  0.00     0.261 C 
BRANCH  32  33
ATOM     33  O   UNL A   1      40.240  20.017  25.616  1.00  0.00    -0.460 OA
BRANCH  33  34
ATOM     34  C   UNL A   1      40.571  20.245  26.911  1.00  0.00     0.338 C 
ATOM     35  O   UNL A   1      40.518  19.455  27.838  1.00  0.00    -0.246 OA
BRANCH  34  36
ATOM     36  C   UNL A   1      41.186  21.577  27.022  1.00  0.00     0.060 A 
ATOM     37  C   UNL A   1      41.755  21.945  28.248  1.00  0.00     0.016 A 
ATOM     38  C   UNL A   1      41.160  22.470  25.948  1.00  0.00     0.016 A 
ATOM     39  C   UNL A   1      42.277  23.227  28.414  1.00  0.00     0.010 A 
ATOM     40  C   UNL A   1      41.666  23.759  26.123  1.00  0.00     0.010 A 
ATOM     41  C   UNL A   1      42.199  24.151  27.364  1.00  0.00    -0.014 A 
BRANCH  41  42
ATOM     42  C   UNL A   1      42.522  25.575  27.612  1.00  0.00     0.031 A 
ATOM     43  C   UNL A   1      43.868  26.093  27.185  1.00  0.00     0.074 A 
ATOM     44  C   UNL A   1      41.643  26.389  28.221  1.00  0.00     0.049 A 
ATOM     45  N   UNL A   1      44.377  27.289  27.326  1.00  0.00    -0.248 NA
ATOM     46  C   UNL A   1      44.759  25.134  26.510  1.00  0.00     0.031 C 
ATOM     47  C   UNL A   1      40.312  26.002  28.683  1.00  0.00     0.029 A 
ATOM     48  N   UNL A   1      41.756  27.709  28.581  1.00  0.00    -0.354 N 
ATOM     49  C   UNL A   1      45.653  27.222  26.782  1.00  0.00     0.074 A 
ATOM     50  C   UNL A   1      45.847  25.865  26.317  1.00  0.00     0.031 C 
ATOM     51  C   UNL A   1      39.741  27.054  29.295  1.00  0.00     0.029 A 
ATOM     52  C   UNL A   1      40.675  28.180  29.285  1.00  0.00     0.049 A 
ATOM     53  H   UNL A   1      42.538  28.264  28.356  1.00  0.00     0.167 HD
ATOM     54  C   UNL A   1      46.578  28.204  26.664  1.00  0.00     0.034 A 
ATOM     55  C   UNL A   1      40.473  29.377  29.871  1.00  0.00     0.034 A 
ATOM     56  C   UNL A   1      46.383  29.554  27.116  1.00  0.00     0.049 A 
ATOM     57  C   UNL A   1      41.532  30.446  29.752  1.00  0.00     0.074 A 
ATOM     58  C   UNL A   1      47.242  30.631  27.003  1.00  0.00     0.029 A 
ATOM     59  N   UNL A   1      45.257  30.009  27.785  1.00  0.00    -0.354 N 
ATOM     60  N   UNL A   1      42.678  30.407  29.117  1.00  0.00    -0.248 NA
ATOM     61  C   UNL A   1      41.252  31.735  30.405  1.00  0.00     0.031 C 
ATOM     62  C   UNL A   1      46.644  31.734  27.620  1.00  0.00     0.029 A 
ATOM     63  C   UNL A   1      45.402  31.348  28.099  1.00  0.00     0.049 A 
ATOM     64  H   UNL A   1      44.470  29.459  28.003  1.00  0.00     0.167 HD
ATOM     65  C   UNL A   1      43.237  31.673  29.260  1.00  0.00     0.074 A 
ATOM     66  C   UNL A   1      42.296  32.461  30.028  1.00  0.00     0.031 C 
ATOM     67  C   UNL A   1      44.430  32.138  28.810  1.00  0.00     0.034 A 
BRANCH  54  68
ATOM     68  C   UNL A   1      47.877  27.856  25.988  1.00  0.00     0.023 A 
ATOM     69  C   UNL A   1      48.975  27.442  26.769  1.00  0.00     0.012 A 
ATOM     70  C   UNL A   1      47.999  27.896  24.587  1.00  0.00     0.148 A 
ATOM     71  C   UNL A   1      50.185  27.101  26.167  1.00  0.00     0.002 A 
ATOM     72  C   UNL A   1      49.196  27.515  23.991  1.00  0.00     0.091 A 
ATOM     73  F   UNL A   1      46.952  28.319  23.865  1.00  0.00    -0.205 F 
ATOM     74  C   UNL A   1      50.291  27.127  24.780  1.00  0.00     0.022 A 
BRANCH  72  75
ATOM     75  S   UNL A   1      49.408  27.449  22.209  1.00  0.00     0.127 S 
ATOM     76  O   UNL A   1      50.865  27.438  22.087  1.00  0.00    -0.237 OA
ATOM     77  O   UNL A   1      48.758  26.183  21.867  1.00  0.00    -0.237 OA
ATOM     78  O   UNL A   1      48.744  28.632  21.683  1.00  0.00    -0.744 OA
ENDBRANCH  72  75
ENDBRANCH  54  68
BRANCH  55  79
ATOM     79  C   UNL A   1      39.199  29.651  30.592  1.00  0.00     0.023 A 
ATOM     80  C   UNL A   1      38.976  29.062  31.853  1.00  0.00     0.012 A 
ATOM     81  C   UNL A   1      38.211  30.493  30.043  1.00  0.00     0.148 A 
ATOM     82  C   UNL A   1      37.781  29.282  32.539  1.00  0.00     0.002 A 
ATOM     83  C   UNL A   1      37.046  30.749  30.756  1.00  0.00     0.091 A 
ATOM     84  F   UNL A   1      38.434  31.027  28.834  1.00  0.00    -0.205 F 
ATOM     85  C   UNL A   1      36.822  30.133  31.996  1.00  0.00     0.022 A 
BRANCH  83  86
ATOM     86  S   UNL A   1      35.810  31.922  30.189  1.00  0.00     0.127 S 
ATOM     87  O   UNL A   1      34.924  32.006  31.347  1.00  0.00    -0.237 OA
ATOM     88  O   UNL A   1      36.619  33.117  29.942  1.00  0.00    -0.237 OA
ATOM     89  O   UNL A   1      35.231  31.331  28.989  1.00  0.00    -0.744 OA
ENDBRANCH  83  86
ENDBRANCH  55  79
BRANCH  67  90
ATOM     90  C   UNL A   1      44.779  33.576  29.096  1.00  0.00     0.023 A 
ATOM     91  C   UNL A   1      45.549  33.897  30.231  1.00  0.00     0.012 A 
ATOM     92  C   UNL A   1      44.415  34.597  28.196  1.00  0.00     0.148 A 
ATOM     93  C   UNL A   1      45.928  35.217  30.480  1.00  0.00     0.002 A 
ATOM     94  C   UNL A   1      44.835  35.902  28.426  1.00  0.00     0.091 A 
ATOM     95  F   UNL A   1      43.664  34.275  27.132  1.00  0.00    -0.205 F 
ATOM     96  C   UNL A   1      45.582  36.215  29.572  1.00  0.00     0.022 A 
BRANCH  94  97
ATOM     97  S   UNL A   1      44.516  37.233  27.261  1.00  0.00     0.127 S 
ATOM     98  O   UNL A   1      44.526  38.404  28.135  1.00  0.00    -0.237 OA
ATOM     99  O   UNL A   1      45.662  37.137  26.355  1.00  0.00    -0.237 OA
ATOM    100  O   UNL A   1      43.233  36.923  26.643  1.00  0.00    -0.744 OA
ENDBRANCH  94  97
ENDBRANCH  67  90
ENDBRANCH  41  42
ENDBRANCH  34  36
ENDBRANCH  33  34
ENDBRANCH  32  33
ENDBRANCH  31  32
ENDBRANCH  30  31
ENDBRANCH   1  30
TORSDOF 22
ENDMDL
MODEL 2
REMARK VINA RESULT:     -10.5      5.880     10.999
REMARK SMILES O=C(Nc1cccc(C(=O)OCCOCCOCCOC(=O)c2ccc(-c3c4nc(c(-c5cccc(S(=O)(=O)[O-])c5F)c5ccc([nH]5)c(-c5cccc(S(=O)(=O)[O-])c5F)c5nc(c(-c6cccc(S(=O)(=O)[O-])c6F)c6ccc3[nH]6)C=C5)C=C4)cc2)c1)Nc1cc(Cl)c(Cl)cc1Cl
REMARK SMILES IDX 16 1 15 2 14 3 13 4 12 5 11 6 9 7 10 8 8 9 4 10 5 11 86 12
REMARK SMILES IDX 6 13 7 14 3 15 1 16 2 17 87 18 88 21 89 22 95 23 90 24 94 25
REMARK SMILES IDX 96 26 91 27 92 28 93 29 17 30 18 31 19 32 20 33 21 34 22 35
REMARK SMILES IDX 23 36 24 37 85 38 25 39 84 40 26 41 27 42 28 43 78 44 29 45
REMARK SMILES IDX 83 46 77 47 79 48 30 49 82 50 76 51 75 52 31 54 63 55 43 56
REMARK SMILES IDX 62 57 44 58 47 59 61 60 80 61 45 62 46 63 60 65 81 66 48 67
REMARK SMILES IDX 32 68 33 69 41 70 34 71 36 72 42 73 35 74 37 75 38 76 39 77
REMARK SMILES IDX 40 78 64 79 65 80 73 81 66 82 68 83 74 84 67 85 69 86 70 87
REMARK SMILES IDX 71 88 72 89 49 90 50 91 58 92 51 93 53 94 59 95 52 96 54 97
REMARK SMILES IDX 55 98 56 99 57 100
REMARK H PARENT 3 19 87 20 79 53 47 64
REMARK Flexibility Score: inf
ROOT
ATOM      1  C   UNL A   1      35.390  30.066  27.836  1.00  0.00     0.188 C 
ENDROOT
BRANCH   1   2
ATOM      2  C   UNL A   1      34.474  29.064  27.101  1.00  0.00     0.188 C 
BRANCH   2   3
ATOM      3  O   UNL A   1      33.099  28.976  27.428  1.00  0.00    -0.376 OA
BRANCH   3   4
ATOM      4  C   UNL A   1      32.171  29.856  26.812  1.00  0.00     0.202 C 
BRANCH   4   5
ATOM      5  C   UNL A   1      31.883  29.731  25.316  1.00  0.00     0.261 C 
BRANCH   5   6
ATOM      6  O   UNL A   1      30.759  28.881  25.043  1.00  0.00    -0.460 OA
BRANCH   6   7
ATOM      7  C   UNL A   1      30.777  28.264  23.838  1.00  0.00     0.338 C 
ATOM      8  O   UNL A   1      30.875  28.784  22.740  1.00  0.00    -0.246 OA
BRANCH   7   9
ATOM      9  C   UNL A   1      30.790  26.803  24.039  1.00  0.00     0.062 A 
ATOM     10  C   UNL A   1      31.321  24.860  25.381  1.00  0.00     0.043 A 
ATOM     11  C   UNL A   1      30.821  24.041  24.361  1.00  0.00     0.026 A 
ATOM     12  C   UNL A   1      31.360  26.242  25.185  1.00  0.00     0.041 A 
ATOM     13  C   UNL A   1      30.272  24.602  23.204  1.00  0.00     0.003 A 
ATOM     14  C   UNL A   1      30.229  25.986  23.054  1.00  0.00     0.016 A 
BRANCH  10  15
ATOM     15  N   UNL A   1      31.761  24.234  26.562  1.00  0.00    -0.308 N 
ATOM     16  O   UNL A   1      32.939  22.845  27.878  1.00  0.00    -0.248 OA
ATOM     17  C   UNL A   1      32.826  23.394  26.785  1.00  0.00     0.323 C 
ATOM     18  N   UNL A   1      33.774  23.369  25.797  1.00  0.00    -0.306 N 
ATOM     19  H   UNL A   1      31.218  24.430  27.359  1.00  0.00     0.171 HD
ATOM     20  H   UNL A   1      33.720  24.097  25.136  1.00  0.00     0.171 HD
BRANCH  18  21
ATOM     21  C   UNL A   1      34.816  22.441  25.602  1.00  0.00     0.063 A 
ATOM     22  C   UNL A   1      36.104  22.929  25.881  1.00  0.00     0.049 A 
ATOM     23  C   UNL A   1      34.684  21.130  25.113  1.00  0.00     0.066 A 
ATOM     24  C   UNL A   1      37.231  22.109  25.754  1.00  0.00     0.061 A 
ATOM     25  C   UNL A   1      35.813  20.307  25.002  1.00  0.00     0.044 A 
ATOM     26  Cl  UNL A   1      33.226  20.488  24.443  1.00  0.00    -0.082 Cl
ATOM     27  Cl  UNL A   1      38.770  22.794  26.134  1.00  0.00    -0.083 Cl
ATOM     28  C   UNL A   1      37.081  20.788  25.332  1.00  0.00     0.061 A 
ATOM     29  Cl  UNL A   1      38.421  19.711  25.165  1.00  0.00    -0.083 Cl
ENDBRANCH  18  21
ENDBRANCH  10  15
ENDBRANCH   7   9
ENDBRANCH   6   7
ENDBRANCH   5   6
ENDBRANCH   4   5
ENDBRANCH   3   4
ENDBRANCH   2   3
ENDBRANCH   1   2
BRANCH   1  30
ATOM     30  O   UNL A   1      34.874  31.237  28.432  1.00  0.00    -0.376 OA
BRANCH  30  31
ATOM     31  C   UNL A   1      34.603  32.396  27.663  1.00  0.00     0.202 C 
BRANCH  31  32
ATOM     32  C   UNL A   1      33.456  33.370  27.956  1.00  0.00     0.261 C 
BRANCH  32  33
ATOM     33  O   UNL A   1      33.819  34.627  28.528  1.00  0.00    -0.460 OA
BRANCH  33  34
ATOM     34  C   UNL A   1      33.623  34.720  29.867  1.00  0.00     0.338 C 
ATOM     35  O   UNL A   1      32.626  35.121  30.442  1.00  0.00    -0.246 OA
BRANCH  34  36
ATOM     36  C   UNL A   1      34.755  34.089  30.563  1.00  0.00     0.060 A 
ATOM     37  C   UNL A   1      36.053  34.464  30.193  1.00  0.00     0.016 A 
ATOM     38  C   UNL A   1      34.542  33.107  31.532  1.00  0.00     0.016 A 
ATOM     39  C   UNL A   1      37.150  33.830  30.775  1.00  0.00     0.010 A 
ATOM     40  C   UNL A   1      35.642  32.462  32.100  1.00  0.00     0.010 A 
ATOM     41  C   UNL A   1      36.948  32.800  31.702  1.00  0.00    -0.014 A 
BRANCH  41  42
ATOM     42  C   UNL A   1      38.092  31.963  32.133  1.00  0.00     0.031 A 
ATOM     43  C   UNL A   1      38.766  32.283  33.440  1.00  0.00     0.074 A 
ATOM     44  C   UNL A   1      38.534  30.949  31.371  1.00  0.00     0.049 A 
ATOM     45  N   UNL A   1      39.797  31.708  34.000  1.00  0.00    -0.248 NA
ATOM     46  C   UNL A   1      38.202  33.400  34.215  1.00  0.00     0.031 C 
ATOM     47  C   UNL A   1      37.966  30.547  30.086  1.00  0.00     0.029 A 
ATOM     48  N   UNL A   1      39.589  30.090  31.559  1.00  0.00    -0.354 N 
ATOM     49  C   UNL A   1      40.022  32.406  35.180  1.00  0.00     0.074 A 
ATOM     50  C   UNL A   1      39.027  33.454  35.250  1.00  0.00     0.031 C 
ATOM     51  C   UNL A   1      38.699  29.537  29.584  1.00  0.00     0.029 A 
ATOM     52  C   UNL A   1      39.797  29.238  30.503  1.00  0.00     0.049 A 
ATOM     53  H   UNL A   1      40.142  30.087  32.373  1.00  0.00     0.167 HD
ATOM     54  C   UNL A   1      40.963  32.187  36.129  1.00  0.00     0.034 A 
ATOM     55  C   UNL A   1      40.776  28.334  30.294  1.00  0.00     0.034 A 
ATOM     56  C   UNL A   1      41.946  31.141  36.064  1.00  0.00     0.049 A 
ATOM     57  C   UNL A   1      41.831  28.130  31.353  1.00  0.00     0.074 A 
ATOM     58  C   UNL A   1      42.912  30.811  36.996  1.00  0.00     0.029 A 
ATOM     59  N   UNL A   1      42.099  30.265  35.001  1.00  0.00    -0.354 N 
ATOM     60  N   UNL A   1      41.949  28.707  32.524  1.00  0.00    -0.248 NA
ATOM     61  C   UNL A   1      42.868  27.124  31.073  1.00  0.00     0.031 C 
ATOM     62  C   UNL A   1      43.664  29.747  36.487  1.00  0.00     0.029 A 
ATOM     63  C   UNL A   1      43.151  29.401  35.247  1.00  0.00     0.049 A 
ATOM     64  H   UNL A   1      41.542  30.260  34.189  1.00  0.00     0.167 HD
ATOM     65  C   UNL A   1      43.047  28.110  33.135  1.00  0.00     0.074 A 
ATOM     66  C   UNL A   1      43.549  27.113  32.211  1.00  0.00     0.031 C 
ATOM     67  C   UNL A   1      43.602  28.372  34.346  1.00  0.00     0.034 A 
BRANCH  54  68
ATOM     68  C   UNL A   1      40.951  33.083  37.338  1.00  0.00     0.023 A 
ATOM     69  C   UNL A   1      40.051  32.815  38.390  1.00  0.00     0.012 A 
ATOM     70  C   UNL A   1      41.853  34.157  37.453  1.00  0.00     0.148 A 
ATOM     71  C   UNL A   1      40.030  33.622  39.527  1.00  0.00     0.002 A 
ATOM     72  C   UNL A   1      41.853  34.932  38.608  1.00  0.00     0.091 A 
ATOM     73  F   UNL A   1      42.680  34.411  36.430  1.00  0.00    -0.205 F 
ATOM     74  C   UNL A   1      40.937  34.671  39.640  1.00  0.00     0.022 A 
BRANCH  72  75
ATOM     75  S   UNL A   1      43.030  36.261  38.877  1.00  0.00     0.127 S 
ATOM     76  O   UNL A   1      42.664  37.198  37.815  1.00  0.00    -0.237 OA
ATOM     77  O   UNL A   1      42.689  36.707  40.228  1.00  0.00    -0.237 OA
ATOM     78  O   UNL A   1      44.349  35.658  38.753  1.00  0.00    -0.744 OA
ENDBRANCH  72  75
ENDBRANCH  54  68
BRANCH  55  79
ATOM     79  C   UNL A   1      40.787  27.520  29.046  1.00  0.00     0.023 A 
ATOM     80  C   UNL A   1      39.858  26.472  28.894  1.00  0.00     0.012 A 
ATOM     81  C   UNL A   1      41.705  27.780  28.009  1.00  0.00     0.148 A 
ATOM     82  C   UNL A   1      39.862  25.679  27.747  1.00  0.00     0.002 A 
ATOM     83  C   UNL A   1      41.670  27.018  26.847  1.00  0.00     0.091 A 
ATOM     84  F   UNL A   1      42.594  28.768  28.182  1.00  0.00    -0.205 F 
ATOM     85  C   UNL A   1      40.760  25.958  26.720  1.00  0.00     0.022 A 
BRANCH  83  86
ATOM     86  S   UNL A   1      42.708  27.382  25.427  1.00  0.00     0.127 S 
ATOM     87  O   UNL A   1      44.023  27.520  26.045  1.00  0.00    -0.237 OA
ATOM     88  O   UNL A   1      42.533  26.179  24.610  1.00  0.00    -0.237 OA
ATOM     89  O   UNL A   1      42.154  28.593  24.837  1.00  0.00    -0.744 OA
ENDBRANCH  83  86
ENDBRANCH  55  79
BRANCH  67  90
ATOM     90  C   UNL A   1      44.790  27.549  34.770  1.00  0.00     0.023 A 
ATOM     91  C   UNL A   1      46.092  28.055  34.589  1.00  0.00     0.012 A 
ATOM     92  C   UNL A   1      44.613  26.313  35.423  1.00  0.00     0.148 A 
ATOM     93  C   UNL A   1      47.201  27.330  35.027  1.00  0.00     0.002 A 
ATOM     94  C   UNL A   1      45.720  25.618  35.898  1.00  0.00     0.091 A 
ATOM     95  F   UNL A   1      43.367  25.838  35.568  1.00  0.00    -0.205 F 
ATOM     96  C   UNL A   1      47.014  26.120  35.692  1.00  0.00     0.022 A 
BRANCH  94  97
ATOM     97  S   UNL A   1      45.565  24.100  36.847  1.00  0.00     0.127 S 
ATOM     98  O   UNL A   1      46.955  23.836  37.216  1.00  0.00    -0.237 OA
ATOM     99  O   UNL A   1      44.707  24.513  37.959  1.00  0.00    -0.237 OA
ATOM    100  O   UNL A   1      44.959  23.127  35.948  1.00  0.00    -0.744 OA
ENDBRANCH  94  97
ENDBRANCH  67  90
ENDBRANCH  41  42
ENDBRANCH  34  36
ENDBRANCH  33  34
ENDBRANCH  32  33
ENDBRANCH  31  32
ENDBRANCH  30  31
ENDBRANCH   1  30
TORSDOF 22
ENDMDL
MODEL 3
REMARK VINA RESULT:     -10.4      6.978     12.804
REMARK SMILES O=C(Nc1cccc(C(=O)OCCOCCOCCOC(=O)c2ccc(-c3c4nc(c(-c5cccc(S(=O)(=O)[O-])c5F)c5ccc([nH]5)c(-c5cccc(S(=O)(=O)[O-])c5F)c5nc(c(-c6cccc(S(=O)(=O)[O-])c6F)c6ccc3[nH]6)C=C5)C=C4)cc2)c1)Nc1cc(Cl)c(Cl)cc1Cl
REMARK SMILES IDX 16 1 15 2 14 3 13 4 12 5 11 6 9 7 10 8 8 9 4 10 5 11 86 12
REMARK SMILES IDX 6 13 7 14 3 15 1 16 2 17 87 18 88 21 89 22 95 23 90 24 94 25
REMARK SMILES IDX 96 26 91 27 92 28 93 29 17 30 18 31 19 32 20 33 21 34 22 35
REMARK SMILES IDX 23 36 24 37 85 38 25 39 84 40 26 41 27 42 28 43 78 44 29 45
REMARK SMILES IDX 83 46 77 47 79 48 30 49 82 50 76 51 75 52 31 54 63 55 43 56
REMARK SMILES IDX 62 57 44 58 47 59 61 60 80 61 45 62 46 63 60 65 81 66 48 67
REMARK SMILES IDX 32 68 33 69 41 70 34 71 36 72 42 73 35 74 37 75 38 76 39 77
REMARK SMILES IDX 40 78 64 79 65 80 73 81 66 82 68 83 74 84 67 85 69 86 70 87
REMARK SMILES IDX 71 88 72 89 49 90 50 91 58 92 51 93 53 94 59 95 52 96 54 97
REMARK SMILES IDX 55 98 56 99 57 100
REMARK H PARENT 3 19 87 20 79 53 47 64
REMARK Flexibility Score: inf
ROOT
ATOM      1  C   UNL A   1      33.297  35.036  29.329  1.00  0.00     0.188 C 
ENDROOT
BRANCH   1   2
ATOM      2  C   UNL A   1      33.001  36.386  30.015  1.00  0.00     0.188 C 
BRANCH   2   3
ATOM      3  O   UNL A   1      32.106  36.453  31.111  1.00  0.00    -0.376 OA
BRANCH   3   4
ATOM      4  C   UNL A   1      32.614  36.632  32.425  1.00  0.00     0.202 C 
BRANCH   4   5
ATOM      5  C   UNL A   1      34.093  36.960  32.630  1.00  0.00     0.261 C 
BRANCH   5   6
ATOM      6  O   UNL A   1      34.934  35.807  32.485  1.00  0.00    -0.460 OA
BRANCH   6   7
ATOM      7  C   UNL A   1      35.098  35.064  33.605  1.00  0.00     0.338 C 
ATOM      8  O   UNL A   1      34.848  35.388  34.753  1.00  0.00    -0.246 OA
BRANCH   7   9
ATOM      9  C   UNL A   1      35.522  33.702  33.229  1.00  0.00     0.062 A 
ATOM     10  C   UNL A   1      36.783  31.684  33.674  1.00  0.00     0.043 A 
ATOM     11  C   UNL A   1      36.320  31.150  32.465  1.00  0.00     0.026 A 
ATOM     12  C   UNL A   1      36.429  32.990  34.020  1.00  0.00     0.041 A 
ATOM     13  C   UNL A   1      35.432  31.872  31.663  1.00  0.00     0.003 A 
ATOM     14  C   UNL A   1      35.009  33.138  32.058  1.00  0.00     0.016 A 
BRANCH  10  15
ATOM     15  N   UNL A   1      37.589  30.862  34.484  1.00  0.00    -0.308 N 
ATOM     16  O   UNL A   1      38.995  30.296  36.142  1.00  0.00    -0.248 OA
ATOM     17  C   UNL A   1      38.216  31.124  35.679  1.00  0.00     0.323 C 
ATOM     18  N   UNL A   1      37.782  32.242  36.339  1.00  0.00    -0.306 N 
ATOM     19  H   UNL A   1      37.727  29.951  34.138  1.00  0.00     0.171 HD
ATOM     20  H   UNL A   1      36.934  32.627  36.017  1.00  0.00     0.171 HD
BRANCH  18  21
ATOM     21  C   UNL A   1      38.387  32.915  37.419  1.00  0.00     0.063 A 
ATOM     22  C   UNL A   1      37.897  32.562  38.688  1.00  0.00     0.049 A 
ATOM     23  C   UNL A   1      39.366  33.919  37.332  1.00  0.00     0.066 A 
ATOM     24  C   UNL A   1      38.422  33.132  39.851  1.00  0.00     0.061 A 
ATOM     25  C   UNL A   1      39.901  34.479  38.501  1.00  0.00     0.044 A 
ATOM     26  Cl  UNL A   1      39.849  34.677  35.856  1.00  0.00    -0.082 Cl
ATOM     27  Cl  UNL A   1      37.766  32.622  41.365  1.00  0.00    -0.083 Cl
ATOM     28  C   UNL A   1      39.442  34.081  39.757  1.00  0.00     0.061 A 
ATOM     29  Cl  UNL A   1      40.151  34.820  41.148  1.00  0.00    -0.083 Cl
ENDBRANCH  18  21
ENDBRANCH  10  15
ENDBRANCH   7   9
ENDBRANCH   6   7
ENDBRANCH   5   6
ENDBRANCH   4   5
ENDBRANCH   3   4
ENDBRANCH   2   3
ENDBRANCH   1   2
BRANCH   1  30
ATOM     30  O   UNL A   1      32.498  34.556  28.268  1.00  0.00    -0.376 OA
BRANCH  30  31
ATOM     31  C   UNL A   1      32.794  33.331  27.621  1.00  0.00     0.202 C 
BRANCH  31  32
ATOM     32  C   UNL A   1      33.528  32.164  28.291  1.00  0.00     0.261 C 
BRANCH  32  33
ATOM     33  O   UNL A   1      34.698  31.682  27.628  1.00  0.00    -0.460 OA
BRANCH  33  34
ATOM     34  C   UNL A   1      35.800  32.455  27.786  1.00  0.00     0.338 C 
ATOM     35  O   UNL A   1      35.925  33.634  27.499  1.00  0.00    -0.246 OA
BRANCH  34  36
ATOM     36  C   UNL A   1      36.814  31.697  28.536  1.00  0.00     0.060 A 
ATOM     37  C   UNL A   1      37.899  32.399  29.080  1.00  0.00     0.016 A 
ATOM     38  C   UNL A   1      36.724  30.310  28.661  1.00  0.00     0.016 A 
ATOM     39  C   UNL A   1      38.918  31.705  29.729  1.00  0.00     0.010 A 
ATOM     40  C   UNL A   1      37.756  29.616  29.296  1.00  0.00     0.010 A 
ATOM     41  C   UNL A   1      38.870  30.307  29.805  1.00  0.00    -0.014 A 
BRANCH  41  42
ATOM     42  C   UNL A   1      40.058  29.553  30.268  1.00  0.00     0.031 A 
ATOM     43  C   UNL A   1      40.748  29.999  31.528  1.00  0.00     0.074 A 
ATOM     44  C   UNL A   1      40.526  28.503  29.573  1.00  0.00     0.049 A 
ATOM     45  N   UNL A   1      41.816  29.513  32.102  1.00  0.00    -0.248 NA
ATOM     46  C   UNL A   1      40.155  31.149  32.231  1.00  0.00     0.031 C 
ATOM     47  C   UNL A   1      39.946  27.980  28.337  1.00  0.00     0.029 A 
ATOM     48  N   UNL A   1      41.621  27.705  29.797  1.00  0.00    -0.354 N 
ATOM     49  C   UNL A   1      42.038  30.308  33.219  1.00  0.00     0.074 A 
ATOM     50  C   UNL A   1      41.001  31.316  33.237  1.00  0.00     0.031 C 
ATOM     51  C   UNL A   1      40.709  26.965  27.894  1.00  0.00     0.029 A 
ATOM     52  C   UNL A   1      41.841  26.783  28.803  1.00  0.00     0.049 A 
ATOM     53  H   UNL A   1      42.192  27.787  30.594  1.00  0.00     0.167 HD
ATOM     54  C   UNL A   1      43.009  30.201  34.157  1.00  0.00     0.034 A 
ATOM     55  C   UNL A   1      42.852  25.907  28.637  1.00  0.00     0.034 A 
ATOM     56  C   UNL A   1      44.035  29.194  34.146  1.00  0.00     0.049 A 
ATOM     57  C   UNL A   1      43.939  25.828  29.680  1.00  0.00     0.074 A 
ATOM     58  C   UNL A   1      45.036  28.976  35.074  1.00  0.00     0.029 A 
ATOM     59  N   UNL A   1      44.201  28.246  33.148  1.00  0.00    -0.354 N 
ATOM     60  N   UNL A   1      44.060  26.497  30.801  1.00  0.00    -0.248 NA
ATOM     61  C   UNL A   1      45.012  24.847  29.450  1.00  0.00     0.031 C 
ATOM     62  C   UNL A   1      45.821  27.908  34.627  1.00  0.00     0.029 A 
ATOM     63  C   UNL A   1      45.294  27.447  33.431  1.00  0.00     0.049 A 
ATOM     64  H   UNL A   1      43.625  28.156  32.354  1.00  0.00     0.167 HD
ATOM     65  C   UNL A   1      45.197  25.995  31.426  1.00  0.00     0.074 A 
ATOM     66  C   UNL A   1      45.719  24.952  30.567  1.00  0.00     0.031 C 
ATOM     67  C   UNL A   1      45.767  26.372  32.598  1.00  0.00     0.034 A 
BRANCH  54  68
ATOM     68  C   UNL A   1      42.987  31.186  35.294  1.00  0.00     0.023 A 
ATOM     69  C   UNL A   1      42.361  30.830  36.506  1.00  0.00     0.012 A 
ATOM     70  C   UNL A   1      43.620  32.438  35.182  1.00  0.00     0.148 A 
ATOM     71  C   UNL A   1      42.339  31.719  37.580  1.00  0.00     0.002 A 
ATOM     72  C   UNL A   1      43.629  33.302  36.271  1.00  0.00     0.091 A 
ATOM     73  F   UNL A   1      44.185  32.766  34.012  1.00  0.00    -0.205 F 
ATOM     74  C   UNL A   1      42.981  32.948  37.466  1.00  0.00     0.022 A 
BRANCH  72  75
ATOM     75  S   UNL A   1      44.490  34.877  36.245  1.00  0.00     0.127 S 
ATOM     76  O   UNL A   1      43.536  35.723  35.528  1.00  0.00    -0.237 OA
ATOM     77  O   UNL A   1      44.624  35.181  37.670  1.00  0.00    -0.237 OA
ATOM     78  O   UNL A   1      45.750  34.633  35.557  1.00  0.00    -0.744 OA
ENDBRANCH  72  75
ENDBRANCH  54  68
BRANCH  55  79
ATOM     79  C   UNL A   1      42.869  25.001  27.455  1.00  0.00     0.023 A 
ATOM     80  C   UNL A   1      43.474  25.434  26.258  1.00  0.00     0.012 A 
ATOM     81  C   UNL A   1      42.298  23.714  27.510  1.00  0.00     0.148 A 
ATOM     82  C   UNL A   1      43.483  24.614  25.129  1.00  0.00     0.002 A 
ATOM     83  C   UNL A   1      42.356  22.883  26.397  1.00  0.00     0.091 A 
ATOM     84  F   UNL A   1      41.710  23.329  28.651  1.00  0.00    -0.205 F 
ATOM     85  C   UNL A   1      42.934  23.337  25.201  1.00  0.00     0.022 A 
BRANCH  83  86
ATOM     86  S   UNL A   1      41.782  21.182  26.435  1.00  0.00     0.127 S 
ATOM     87  O   UNL A   1      42.556  20.580  25.352  1.00  0.00    -0.237 OA
ATOM     88  O   UNL A   1      42.174  20.761  27.782  1.00  0.00    -0.237 OA
ATOM     89  O   UNL A   1      40.342  21.250  26.223  1.00  0.00    -0.744 OA
ENDBRANCH  83  86
ENDBRANCH  55  79
BRANCH  67  90
ATOM     90  C   UNL A   1      47.000  25.633  33.052  1.00  0.00     0.023 A 
ATOM     91  C   UNL A   1      48.275  26.116  32.699  1.00  0.00     0.012 A 
ATOM     92  C   UNL A   1      46.895  24.509  33.896  1.00  0.00     0.148 A 
ATOM     93  C   UNL A   1      49.427  25.476  33.157  1.00  0.00     0.002 A 
ATOM     94  C   UNL A   1      48.047  23.905  34.386  1.00  0.00     0.091 A 
ATOM     95  F   UNL A   1      45.673  24.052  34.204  1.00  0.00    -0.205 F 
ATOM     96  C   UNL A   1      49.313  24.380  34.010  1.00  0.00     0.022 A 
BRANCH  94  97
ATOM     97  S   UNL A   1      47.993  22.548  35.563  1.00  0.00     0.127 S 
ATOM     98  O   UNL A   1      47.065  21.625  34.912  1.00  0.00    -0.237 OA
ATOM     99  O   UNL A   1      49.385  22.098  35.586  1.00  0.00    -0.237 OA
ATOM    100  O   UNL A   1      47.527  23.126  36.817  1.00  0.00    -0.744 OA
ENDBRANCH  94  97
ENDBRANCH  67  90
ENDBRANCH  41  42
ENDBRANCH  34  36
ENDBRANCH  33  34
ENDBRANCH  32  33
ENDBRANCH  31  32
ENDBRANCH  30  31
ENDBRANCH   1  30
TORSDOF 22
ENDMDL
