MODEL 1
REMARK VINA RESULT:     -14.4      0.000      0.000
REMARK SMILES Cc1ccccc1[C@@H]1[NH2+][C@@H](C(=O)OCCOCCOCCOC(=O)c2ccc(-c3c4nc(c(-c5cccc(S(=O)(=O)[O-])c5F)c5ccc([nH]5)c(-c5cccc(S(=O)(=O)[O-])c5F)c5nc(c(-c6cccc(S(=O)(=O)[O-])c6F)c6ccc3[nH]6)C=C5)C=C4)cc2)CC2=c3ccccc3=N[C@@H]21
REMARK SMILES IDX 18 1 17 2 16 3 15 4 14 5 13 6 11 7 12 8 10 9 8 10 9 11 97 12
REMARK SMILES IDX 89 15 96 16 88 17 90 18 95 19 91 20 94 21 92 22 93 23 7 24
REMARK SMILES IDX 1 25 2 26 3 27 4 28 6 29 5 30 19 31 20 32 21 33 22 34 23 35
REMARK SMILES IDX 24 36 25 37 26 38 87 39 27 40 86 41 28 42 29 43 30 44 80 45
REMARK SMILES IDX 31 46 85 47 79 48 81 49 32 50 84 51 78 52 77 53 33 55 65 56
REMARK SMILES IDX 45 57 64 58 46 59 49 60 63 61 82 62 47 63 48 64 62 66 83 67
REMARK SMILES IDX 50 68 34 69 35 70 43 71 36 72 38 73 44 74 37 75 39 76 40 77
REMARK SMILES IDX 41 78 42 79 66 80 67 81 75 82 68 83 70 84 76 85 69 86 71 87
REMARK SMILES IDX 72 88 73 89 74 90 51 91 52 92 60 93 53 94 55 95 61 96 54 97
REMARK SMILES IDX 56 98 57 99 58 100 59 101
REMARK H PARENT 9 13 9 14 81 54 49 65
REMARK Flexibility Score: inf
ROOT
ATOM      1  C   UNL A   1      35.524  32.148  28.409  1.00  0.00     0.188 C 
ENDROOT
BRANCH   1   2
ATOM      2  C   UNL A   1      34.193  32.811  28.219  1.00  0.00     0.188 C 
BRANCH   2   3
ATOM      3  O   UNL A   1      33.217  32.103  27.511  1.00  0.00    -0.376 OA
BRANCH   3   4
ATOM      4  C   UNL A   1      33.662  30.779  27.365  1.00  0.00     0.202 C 
BRANCH   4   5
ATOM      5  C   UNL A   1      33.115  29.865  26.241  1.00  0.00     0.261 C 
BRANCH   5   6
ATOM      6  O   UNL A   1      33.868  28.643  25.673  1.00  0.00    -0.459 OA
BRANCH   6   7
ATOM      7  C   UNL A   1      33.881  27.972  24.428  1.00  0.00     0.365 C 
ATOM      8  O   UNL A   1      34.211  28.388  23.304  1.00  0.00    -0.245 OA
BRANCH   7   9
ATOM      9  C   UNL A   1      33.737  26.533  24.410  1.00  0.00     0.298 C 
ATOM     10  C   UNL A   1      31.417  26.112  24.519  1.00  0.00     0.243 C 
ATOM     11  N   UNL A   1      32.549  26.222  23.551  1.00  0.00    -0.326 N 
ATOM     12  C   UNL A   1      31.803  24.716  25.382  1.00  0.00     0.196 C 
ATOM     13  H   UNL A   1      32.380  26.972  22.880  1.00  0.00     0.347 HD
ATOM     14  H   UNL A   1      32.676  25.372  22.999  1.00  0.00     0.347 HD
ATOM     15  C   UNL A   1      33.279  24.793  25.957  1.00  0.00    -0.024 C 
ATOM     16  N   UNL A   1      31.987  23.588  24.429  1.00  0.00    -0.270 NA
ATOM     17  C   UNL A   1      33.857  26.141  25.971  1.00  0.00     0.111 C 
ATOM     18  C   UNL A   1      34.135  23.854  25.536  1.00  0.00     0.002 A 
ATOM     19  C   UNL A   1      33.271  23.317  24.463  1.00  0.00     0.066 A 
ATOM     20  C   UNL A   1      35.586  23.996  25.360  1.00  0.00     0.010 A 
ATOM     21  C   UNL A   1      34.005  22.709  23.333  1.00  0.00     0.028 A 
ATOM     22  C   UNL A   1      36.131  23.614  24.196  1.00  0.00     0.001 A 
ATOM     23  C   UNL A   1      35.328  22.918  23.221  1.00  0.00     0.002 A 
BRANCH  10  24
ATOM     24  C   UNL A   1      29.994  27.158  24.073  1.00  0.00     0.015 A 
ATOM     25  C   UNL A   1      31.535  29.442  22.287  1.00  0.00     0.045 C 
ATOM     26  C   UNL A   1      29.934  28.644  23.157  1.00  0.00    -0.042 A 
ATOM     27  C   UNL A   1      28.668  29.112  22.732  1.00  0.00     0.004 A 
ATOM     28  C   UNL A   1      27.563  28.305  23.043  1.00  0.00     0.000 A 
ATOM     29  C   UNL A   1      28.801  26.483  24.274  1.00  0.00     0.010 A 
ATOM     30  C   UNL A   1      27.623  27.056  23.762  1.00  0.00     0.001 A 
ENDBRANCH  10  24
ENDBRANCH   7   9
ENDBRANCH   6   7
ENDBRANCH   5   6
ENDBRANCH   4   5
ENDBRANCH   3   4
ENDBRANCH   2   3
ENDBRANCH   1   2
BRANCH   1  31
ATOM     31  O   UNL A   1      36.824  31.345  29.454  1.00  0.00    -0.376 OA
BRANCH  31  32
ATOM     32  C   UNL A   1      36.617  31.070  31.367  1.00  0.00     0.202 C 
BRANCH  32  33
ATOM     33  C   UNL A   1      38.255  30.437  32.344  1.00  0.00     0.261 C 
BRANCH  33  34
ATOM     34  O   UNL A   1      39.635  31.716  32.547  1.00  0.00    -0.460 OA
BRANCH  34  35
ATOM     35  C   UNL A   1      41.302  31.868  32.817  1.00  0.00     0.338 C 
ATOM     36  O   UNL A   1      41.526  32.196  33.993  1.00  0.00    -0.246 OA
BRANCH  35  37
ATOM     37  C   UNL A   1      42.786  32.001  31.734  1.00  0.00     0.060 A 
ATOM     38  C   UNL A   1      42.884  31.868  30.316  1.00  0.00     0.016 A 
ATOM     39  C   UNL A   1      44.133  31.934  32.026  1.00  0.00     0.016 A 
ATOM     40  C   UNL A   1      44.040  31.089  29.440  1.00  0.00     0.010 A 
ATOM     41  C   UNL A   1      45.129  31.023  31.195  1.00  0.00     0.010 A 
ATOM     42  C   UNL A   1      45.130  30.367  29.905  1.00  0.00    -0.014 A 
BRANCH  42  43
ATOM     43  C   UNL A   1      45.891  28.830  29.207  1.00  0.00     0.031 A 
ATOM     44  C   UNL A   1      46.510  28.388  27.522  1.00  0.00     0.074 A 
ATOM     45  C   UNL A   1      46.407  27.969  30.153  1.00  0.00     0.049 A 
ATOM     46  N   UNL A   1      45.950  27.741  26.495  1.00  0.00    -0.248 NA
ATOM     47  C   UNL A   1      47.853  28.846  26.897  1.00  0.00     0.031 C 
ATOM     48  C   UNL A   1      47.394  26.860  30.068  1.00  0.00     0.029 A 
ATOM     49  N   UNL A   1      46.155  27.960  31.538  1.00  0.00    -0.354 N 
ATOM     50  C   UNL A   1      46.878  27.816  25.332  1.00  0.00     0.074 A 
ATOM     51  C   UNL A   1      47.656  28.959  25.589  1.00  0.00     0.031 C 
ATOM     52  C   UNL A   1      47.332  26.109  31.192  1.00  0.00     0.029 A 
ATOM     53  C   UNL A   1      46.206  26.619  31.946  1.00  0.00     0.049 A 
ATOM     54  H   UNL A   1      45.977  28.742  32.109  1.00  0.00     0.167 HD
ATOM     55  C   UNL A   1      47.762  26.834  24.872  1.00  0.00     0.034 A 
ATOM     56  C   UNL A   1      44.989  26.029  32.112  1.00  0.00     0.034 A 
ATOM     57  C   UNL A   1      47.888  25.843  25.922  1.00  0.00     0.049 A 
ATOM     58  C   UNL A   1      44.753  25.076  30.943  1.00  0.00     0.074 A 
ATOM     59  C   UNL A   1      48.853  25.469  26.843  1.00  0.00     0.029 A 
ATOM     60  N   UNL A   1      46.710  25.290  26.334  1.00  0.00    -0.354 N 
ATOM     61  N   UNL A   1      45.377  25.127  29.788  1.00  0.00    -0.248 NA
ATOM     62  C   UNL A   1      43.959  23.864  31.064  1.00  0.00     0.031 C 
ATOM     63  C   UNL A   1      48.208  24.617  27.796  1.00  0.00     0.029 A 
ATOM     64  C   UNL A   1      46.869  24.518  27.447  1.00  0.00     0.049 A 
ATOM     65  H   UNL A   1      45.848  25.432  25.881  1.00  0.00     0.167 HD
ATOM     66  C   UNL A   1      45.144  23.997  29.054  1.00  0.00     0.074 A 
ATOM     67  C   UNL A   1      44.248  23.238  29.909  1.00  0.00     0.031 C 
ATOM     68  C   UNL A   1      45.707  23.746  27.827  1.00  0.00     0.034 A 
BRANCH  55  69
ATOM     69  C   UNL A   1      48.918  27.002  23.771  1.00  0.00     0.023 A 
ATOM     70  C   UNL A   1      48.490  26.999  22.419  1.00  0.00     0.012 A 
ATOM     71  C   UNL A   1      50.335  27.191  23.941  1.00  0.00     0.148 A 
ATOM     72  C   UNL A   1      49.360  27.132  21.321  1.00  0.00     0.002 A 
ATOM     73  C   UNL A   1      51.213  27.306  22.827  1.00  0.00     0.091 A 
ATOM     74  F   UNL A   1      50.850  27.270  25.178  1.00  0.00    -0.205 F 
ATOM     75  C   UNL A   1      50.718  27.279  21.522  1.00  0.00     0.022 A 
BRANCH  73  76
ATOM     76  S   UNL A   1      53.020  27.475  22.909  1.00  0.00     0.127 S 
ATOM     77  O   UNL A   1      53.489  26.278  22.205  1.00  0.00    -0.237 OA
ATOM     78  O   UNL A   1      53.264  28.727  22.195  1.00  0.00    -0.237 OA
ATOM     79  O   UNL A   1      53.360  27.491  24.321  1.00  0.00    -0.744 OA
ENDBRANCH  73  76
ENDBRANCH  55  69
BRANCH  56  80
ATOM     80  C   UNL A   1      44.063  27.000  32.833  1.00  0.00     0.023 A 
ATOM     81  C   UNL A   1      43.241  27.808  31.977  1.00  0.00     0.012 A 
ATOM     82  C   UNL A   1      43.668  26.885  34.177  1.00  0.00     0.148 A 
ATOM     83  C   UNL A   1      41.983  28.267  32.376  1.00  0.00     0.002 A 
ATOM     84  C   UNL A   1      42.478  27.501  34.616  1.00  0.00     0.091 A 
ATOM     85  F   UNL A   1      44.384  26.100  34.992  1.00  0.00    -0.205 F 
ATOM     86  C   UNL A   1      41.604  28.119  33.699  1.00  0.00     0.022 A 
BRANCH  84  87
ATOM     87  S   UNL A   1      41.932  27.375  36.346  1.00  0.00     0.127 S 
ATOM     88  O   UNL A   1      41.452  25.999  36.391  1.00  0.00    -0.237 OA
ATOM     89  O   UNL A   1      43.156  27.611  37.116  1.00  0.00    -0.237 OA
ATOM     90  O   UNL A   1      40.928  28.416  36.506  1.00  0.00    -0.744 OA
ENDBRANCH  84  87
ENDBRANCH  56  80
BRANCH  68  91
ATOM     91  C   UNL A   1      45.136  22.811  26.749  1.00  0.00     0.023 A 
ATOM     92  C   UNL A   1      45.971  22.210  25.802  1.00  0.00     0.012 A 
ATOM     93  C   UNL A   1      43.778  22.342  26.764  1.00  0.00     0.148 A 
ATOM     94  C   UNL A   1      45.498  21.280  24.875  1.00  0.00     0.002 A 
ATOM     95  C   UNL A   1      43.357  21.295  25.952  1.00  0.00     0.091 A 
ATOM     96  F   UNL A   1      42.855  22.921  27.545  1.00  0.00    -0.205 F 
ATOM     97  C   UNL A   1      44.203  20.798  24.968  1.00  0.00     0.022 A 
BRANCH  95  98
ATOM     98  S   UNL A   1      41.787  20.447  26.205  1.00  0.00     0.127 S 
ATOM     99  O   UNL A   1      41.917  19.309  25.297  1.00  0.00    -0.237 OA
ATOM    100  O   UNL A   1      41.849  20.102  27.626  1.00  0.00    -0.237 OA
ATOM    101  O   UNL A   1      40.755  21.418  25.869  1.00  0.00    -0.744 OA
ENDBRANCH  95  98
ENDBRANCH  68  91
ENDBRANCH  42  43
ENDBRANCH  35  37
ENDBRANCH  34  35
ENDBRANCH  33  34
ENDBRANCH  32  33
ENDBRANCH  31  32
ENDBRANCH   1  31
TORSDOF 21
ENDMDL
MODEL 2
REMARK VINA RESULT:     -14.1      4.649      8.630
REMARK SMILES Cc1ccccc1[C@@H]1[NH2+][C@@H](C(=O)OCCOCCOCCOC(=O)c2ccc(-c3c4nc(c(-c5cccc(S(=O)(=O)[O-])c5F)c5ccc([nH]5)c(-c5cccc(S(=O)(=O)[O-])c5F)c5nc(c(-c6cccc(S(=O)(=O)[O-])c6F)c6ccc3[nH]6)C=C5)C=C4)cc2)CC2=c3ccccc3=N[C@@H]21
REMARK SMILES IDX 18 1 17 2 16 3 15 4 14 5 13 6 11 7 12 8 10 9 8 10 9 11 97 12
REMARK SMILES IDX 89 15 96 16 88 17 90 18 95 19 91 20 94 21 92 22 93 23 7 24
REMARK SMILES IDX 1 25 2 26 3 27 4 28 6 29 5 30 19 31 20 32 21 33 22 34 23 35
REMARK SMILES IDX 24 36 25 37 26 38 87 39 27 40 86 41 28 42 29 43 30 44 80 45
REMARK SMILES IDX 31 46 85 47 79 48 81 49 32 50 84 51 78 52 77 53 33 55 65 56
REMARK SMILES IDX 45 57 64 58 46 59 49 60 63 61 82 62 47 63 48 64 62 66 83 67
REMARK SMILES IDX 50 68 34 69 35 70 43 71 36 72 38 73 44 74 37 75 39 76 40 77
REMARK SMILES IDX 41 78 42 79 66 80 67 81 75 82 68 83 70 84 76 85 69 86 71 87
REMARK SMILES IDX 72 88 73 89 74 90 51 91 52 92 60 93 53 94 55 95 61 96 54 97
REMARK SMILES IDX 56 98 57 99 58 100 59 101
REMARK H PARENT 9 13 9 14 81 54 49 65
REMARK Flexibility Score: inf
ROOT
ATOM      1  C   UNL A   1      39.379  26.419  27.612  1.00  0.00     0.188 C 
ENDROOT
BRANCH   1   2
ATOM      2  C   UNL A   1      39.657  27.060  28.938  1.00  0.00     0.188 C 
BRANCH   2   3
ATOM      3  O   UNL A   1      38.847  26.686  30.015  1.00  0.00    -0.376 OA
BRANCH   3   4
ATOM      4  C   UNL A   1      38.759  27.779  30.892  1.00  0.00     0.202 C 
BRANCH   4   5
ATOM      5  C   UNL A   1      39.072  29.219  30.418  1.00  0.00     0.261 C 
BRANCH   5   6
ATOM      6  O   UNL A   1      38.125  30.422  30.612  1.00  0.00    -0.459 OA
BRANCH   6   7
ATOM      7  C   UNL A   1      37.110  30.751  31.542  1.00  0.00     0.365 C 
ATOM      8  O   UNL A   1      35.999  30.224  31.724  1.00  0.00    -0.245 OA
BRANCH   7   9
ATOM      9  C   UNL A   1      37.423  31.654  32.627  1.00  0.00     0.298 C 
ATOM     10  C   UNL A   1      36.375  33.699  32.091  1.00  0.00     0.243 C 
ATOM     11  N   UNL A   1      36.188  32.458  32.898  1.00  0.00    -0.326 N 
ATOM     12  C   UNL A   1      37.661  34.460  32.872  1.00  0.00     0.196 C 
ATOM     13  H   UNL A   1      35.354  31.953  32.599  1.00  0.00     0.347 HD
ATOM     14  H   UNL A   1      36.058  32.654  33.892  1.00  0.00     0.347 HD
ATOM     15  C   UNL A   1      38.893  33.474  33.030  1.00  0.00    -0.024 C 
ATOM     16  N   UNL A   1      37.323  34.636  34.311  1.00  0.00    -0.270 NA
ATOM     17  C   UNL A   1      38.837  32.287  32.169  1.00  0.00     0.111 C 
ATOM     18  C   UNL A   1      39.286  33.203  34.281  1.00  0.00     0.002 A 
ATOM     19  C   UNL A   1      38.120  33.815  34.953  1.00  0.00     0.066 A 
ATOM     20  C   UNL A   1      39.890  31.956  34.766  1.00  0.00     0.010 A 
ATOM     21  C   UNL A   1      37.792  33.223  36.268  1.00  0.00     0.028 A 
ATOM     22  C   UNL A   1      39.370  31.372  35.855  1.00  0.00     0.001 A 
ATOM     23  C   UNL A   1      38.359  32.057  36.623  1.00  0.00     0.002 A 
BRANCH  10  24
ATOM     24  C   UNL A   1      34.957  34.064  31.005  1.00  0.00     0.015 A 
ATOM     25  C   UNL A   1      33.748  36.694  32.556  1.00  0.00     0.045 C 
ATOM     26  C   UNL A   1      33.730  35.300  31.136  1.00  0.00    -0.042 A 
ATOM     27  C   UNL A   1      32.896  35.529  30.017  1.00  0.00     0.004 A 
ATOM     28  C   UNL A   1      33.164  34.770  28.867  1.00  0.00     0.000 A 
ATOM     29  C   UNL A   1      35.091  33.423  29.784  1.00  0.00     0.010 A 
ATOM     30  C   UNL A   1      34.208  33.782  28.750  1.00  0.00     0.001 A 
ENDBRANCH  10  24
ENDBRANCH   7   9
ENDBRANCH   6   7
ENDBRANCH   5   6
ENDBRANCH   4   5
ENDBRANCH   3   4
ENDBRANCH   2   3
ENDBRANCH   1   2
BRANCH   1  31
ATOM     31  O   UNL A   1      39.444  24.995  26.431  1.00  0.00    -0.376 OA
BRANCH  31  32
ATOM     32  C   UNL A   1      37.979  23.736  26.215  1.00  0.00     0.202 C 
BRANCH  32  33
ATOM     33  C   UNL A   1      38.501  21.864  25.703  1.00  0.00     0.261 C 
BRANCH  33  34
ATOM     34  O   UNL A   1      40.324  21.422  25.954  1.00  0.00    -0.460 OA
BRANCH  34  35
ATOM     35  C   UNL A   1      41.757  21.972  26.674  1.00  0.00     0.338 C 
ATOM     36  O   UNL A   1      42.691  21.188  26.441  1.00  0.00    -0.246 OA
BRANCH  35  37
ATOM     37  C   UNL A   1      42.166  23.223  27.963  1.00  0.00     0.060 A 
ATOM     38  C   UNL A   1      42.474  24.609  27.811  1.00  0.00     0.016 A 
ATOM     39  C   UNL A   1      42.578  23.078  29.271  1.00  0.00     0.016 A 
ATOM     40  C   UNL A   1      43.638  25.486  28.576  1.00  0.00     0.010 A 
ATOM     41  C   UNL A   1      43.818  23.873  29.856  1.00  0.00     0.010 A 
ATOM     42  C   UNL A   1      44.583  25.047  29.491  1.00  0.00    -0.014 A 
BRANCH  42  43
ATOM     43  C   UNL A   1      46.339  25.596  29.706  1.00  0.00     0.031 A 
ATOM     44  C   UNL A   1      47.843  25.439  28.643  1.00  0.00     0.074 A 
ATOM     45  C   UNL A   1      46.516  26.585  30.652  1.00  0.00     0.049 A 
ATOM     46  N   UNL A   1      48.851  24.561  28.629  1.00  0.00    -0.248 NA
ATOM     47  C   UNL A   1      48.161  26.288  27.386  1.00  0.00     0.031 C 
ATOM     48  C   UNL A   1      47.615  27.556  30.893  1.00  0.00     0.029 A 
ATOM     49  N   UNL A   1      45.615  26.986  31.656  1.00  0.00    -0.354 N 
ATOM     50  C   UNL A   1      49.706  24.849  27.443  1.00  0.00     0.074 A 
ATOM     51  C   UNL A   1      48.842  25.511  26.552  1.00  0.00     0.031 C 
ATOM     52  C   UNL A   1      47.478  28.100  32.125  1.00  0.00     0.029 A 
ATOM     53  C   UNL A   1      46.391  27.381  32.755  1.00  0.00     0.049 A 
ATOM     54  H   UNL A   1      44.632  26.989  31.598  1.00  0.00     0.167 HD
ATOM     55  C   UNL A   1      50.919  25.544  27.404  1.00  0.00     0.034 A 
ATOM     56  C   UNL A   1      46.482  26.453  33.749  1.00  0.00     0.034 A 
ATOM     57  C   UNL A   1      51.049  26.252  28.663  1.00  0.00     0.049 A 
ATOM     58  C   UNL A   1      47.878  25.835  33.703  1.00  0.00     0.074 A 
ATOM     59  C   UNL A   1      50.965  27.565  29.093  1.00  0.00     0.029 A 
ATOM     60  N   UNL A   1      50.968  25.464  29.775  1.00  0.00    -0.354 N 
ATOM     61  N   UNL A   1      48.682  25.861  32.665  1.00  0.00    -0.248 NA
ATOM     62  C   UNL A   1      48.557  25.338  34.888  1.00  0.00     0.031 C 
ATOM     63  C   UNL A   1      50.889  27.530  30.523  1.00  0.00     0.029 A 
ATOM     64  C   UNL A   1      50.900  26.201  30.920  1.00  0.00     0.049 A 
ATOM     65  H   UNL A   1      50.961  24.480  29.753  1.00  0.00     0.167 HD
ATOM     66  C   UNL A   1      49.944  25.464  33.012  1.00  0.00     0.074 A 
ATOM     67  C   UNL A   1      49.805  25.151  34.423  1.00  0.00     0.031 C 
ATOM     68  C   UNL A   1      51.009  25.440  32.145  1.00  0.00     0.034 A 
BRANCH  55  69
ATOM     69  C   UNL A   1      51.712  26.051  26.104  1.00  0.00     0.023 A 
ATOM     70  C   UNL A   1      52.607  25.116  25.523  1.00  0.00     0.012 A 
ATOM     71  C   UNL A   1      51.633  27.306  25.404  1.00  0.00     0.148 A 
ATOM     72  C   UNL A   1      53.388  25.382  24.383  1.00  0.00     0.002 A 
ATOM     73  C   UNL A   1      52.439  27.578  24.263  1.00  0.00     0.091 A 
ATOM     74  F   UNL A   1      50.776  28.248  25.827  1.00  0.00    -0.205 F 
ATOM     75  C   UNL A   1      53.310  26.611  23.758  1.00  0.00     0.022 A 
BRANCH  73  76
ATOM     76  S   UNL A   1      52.484  29.142  23.340  1.00  0.00     0.127 S 
ATOM     77  O   UNL A   1      53.561  28.916  22.373  1.00  0.00    -0.237 OA
ATOM     78  O   UNL A   1      51.149  29.211  22.748  1.00  0.00    -0.237 OA
ATOM     79  O   UNL A   1      52.783  30.177  24.315  1.00  0.00    -0.744 OA
ENDBRANCH  73  76
ENDBRANCH  55  69
BRANCH  56  80
ATOM     80  C   UNL A   1      45.108  25.838  33.980  1.00  0.00     0.023 A 
ATOM     81  C   UNL A   1      45.043  24.413  33.824  1.00  0.00     0.012 A 
ATOM     82  C   UNL A   1      44.064  26.452  34.694  1.00  0.00     0.148 A 
ATOM     83  C   UNL A   1      44.132  23.629  34.537  1.00  0.00     0.002 A 
ATOM     84  C   UNL A   1      43.045  25.664  35.267  1.00  0.00     0.091 A 
ATOM     85  F   UNL A   1      44.117  27.774  34.899  1.00  0.00    -0.205 F 
ATOM     86  C   UNL A   1      43.127  24.257  35.255  1.00  0.00     0.022 A 
BRANCH  84  87
ATOM     87  S   UNL A   1      41.678  26.419  36.198  1.00  0.00     0.127 S 
ATOM     88  O   UNL A   1      41.158  27.366  35.218  1.00  0.00    -0.237 OA
ATOM     89  O   UNL A   1      40.784  25.293  36.481  1.00  0.00    -0.237 OA
ATOM     90  O   UNL A   1      42.296  26.991  37.386  1.00  0.00    -0.744 OA
ENDBRANCH  84  87
ENDBRANCH  56  80
BRANCH  68  91
ATOM     91  C   UNL A   1      52.265  24.565  32.286  1.00  0.00     0.023 A 
ATOM     92  C   UNL A   1      53.544  25.121  32.184  1.00  0.00     0.012 A 
ATOM     93  C   UNL A   1      52.216  23.198  32.724  1.00  0.00     0.148 A 
ATOM     94  C   UNL A   1      54.701  24.373  32.407  1.00  0.00     0.002 A 
ATOM     95  C   UNL A   1      53.364  22.512  33.106  1.00  0.00     0.091 A 
ATOM     96  F   UNL A   1      51.060  22.521  32.749  1.00  0.00    -0.205 F 
ATOM     97  C   UNL A   1      54.614  23.081  32.898  1.00  0.00     0.022 A 
BRANCH  95  98
ATOM     98  S   UNL A   1      53.301  20.946  33.997  1.00  0.00     0.127 S 
ATOM     99  O   UNL A   1      52.135  21.142  34.857  1.00  0.00    -0.237 OA
ATOM    100  O   UNL A   1      53.102  19.983  32.912  1.00  0.00    -0.237 OA
ATOM    101  O   UNL A   1      54.584  20.826  34.676  1.00  0.00    -0.744 OA
ENDBRANCH  95  98
ENDBRANCH  68  91
ENDBRANCH  42  43
ENDBRANCH  35  37
ENDBRANCH  34  35
ENDBRANCH  33  34
ENDBRANCH  32  33
ENDBRANCH  31  32
ENDBRANCH   1  31
TORSDOF 21
ENDMDL
MODEL 3
REMARK VINA RESULT:     -13.5      2.794      7.011
REMARK SMILES Cc1ccccc1[C@@H]1[NH2+][C@@H](C(=O)OCCOCCOCCOC(=O)c2ccc(-c3c4nc(c(-c5cccc(S(=O)(=O)[O-])c5F)c5ccc([nH]5)c(-c5cccc(S(=O)(=O)[O-])c5F)c5nc(c(-c6cccc(S(=O)(=O)[O-])c6F)c6ccc3[nH]6)C=C5)C=C4)cc2)CC2=c3ccccc3=N[C@@H]21
REMARK SMILES IDX 18 1 17 2 16 3 15 4 14 5 13 6 11 7 12 8 10 9 8 10 9 11 97 12
REMARK SMILES IDX 89 15 96 16 88 17 90 18 95 19 91 20 94 21 92 22 93 23 7 24
REMARK SMILES IDX 1 25 2 26 3 27 4 28 6 29 5 30 19 31 20 32 21 33 22 34 23 35
REMARK SMILES IDX 24 36 25 37 26 38 87 39 27 40 86 41 28 42 29 43 30 44 80 45
REMARK SMILES IDX 31 46 85 47 79 48 81 49 32 50 84 51 78 52 77 53 33 55 65 56
REMARK SMILES IDX 45 57 64 58 46 59 49 60 63 61 82 62 47 63 48 64 62 66 83 67
REMARK SMILES IDX 50 68 34 69 35 70 43 71 36 72 38 73 44 74 37 75 39 76 40 77
REMARK SMILES IDX 41 78 42 79 66 80 67 81 75 82 68 83 70 84 76 85 69 86 71 87
REMARK SMILES IDX 72 88 73 89 74 90 51 91 52 92 60 93 53 94 55 95 61 96 54 97
REMARK SMILES IDX 56 98 57 99 58 100 59 101
REMARK H PARENT 9 13 9 14 81 54 49 65
REMARK Flexibility Score: inf
ROOT
ATOM      1  C   UNL A   1      36.786  31.732  30.279  1.00  0.00     0.188 C 
ENDROOT
BRANCH   1   2
ATOM      2  C   UNL A   1      37.642  30.936  29.340  1.00  0.00     0.188 C 
BRANCH   2   3
ATOM      3  O   UNL A   1      37.043  30.467  28.167  1.00  0.00    -0.376 OA
BRANCH   3   4
ATOM      4  C   UNL A   1      35.819  29.871  28.512  1.00  0.00     0.202 C 
BRANCH   4   5
ATOM      5  C   UNL A   1      34.573  30.005  27.603  1.00  0.00     0.261 C 
BRANCH   5   6
ATOM      6  O   UNL A   1      33.878  28.818  26.904  1.00  0.00    -0.459 OA
BRANCH   6   7
ATOM      7  C   UNL A   1      32.573  28.272  26.930  1.00  0.00     0.365 C 
ATOM      8  O   UNL A   1      31.771  28.177  27.875  1.00  0.00    -0.245 OA
BRANCH   7   9
ATOM      9  C   UNL A   1      31.911  27.983  25.677  1.00  0.00     0.298 C 
ATOM     10  C   UNL A   1      32.538  25.780  25.107  1.00  0.00     0.243 C 
ATOM     11  N   UNL A   1      31.440  26.562  25.748  1.00  0.00    -0.326 N 
ATOM     12  C   UNL A   1      32.449  26.268  23.496  1.00  0.00     0.196 C 
ATOM     13  H   UNL A   1      31.307  26.272  26.717  1.00  0.00     0.347 HD
ATOM     14  H   UNL A   1      30.540  26.424  25.286  1.00  0.00     0.347 HD
ATOM     15  C   UNL A   1      32.485  27.849  23.378  1.00  0.00    -0.024 C 
ATOM     16  N   UNL A   1      31.069  26.033  22.990  1.00  0.00    -0.270 NA
ATOM     17  C   UNL A   1      32.960  28.538  24.582  1.00  0.00     0.111 C 
ATOM     18  C   UNL A   1      31.416  28.432  22.821  1.00  0.00     0.002 A 
ATOM     19  C   UNL A   1      30.557  27.229  22.820  1.00  0.00     0.066 A 
ATOM     20  C   UNL A   1      30.878  29.764  23.125  1.00  0.00     0.010 A 
ATOM     21  C   UNL A   1      29.107  27.511  22.890  1.00  0.00     0.028 A 
ATOM     22  C   UNL A   1      29.570  29.881  23.396  1.00  0.00     0.001 A 
ATOM     23  C   UNL A   1      28.695  28.749  23.213  1.00  0.00     0.002 A 
BRANCH  10  24
ATOM     24  C   UNL A   1      33.131  24.403  26.143  1.00  0.00     0.015 A 
ATOM     25  C   UNL A   1      30.249  23.072  26.980  1.00  0.00     0.045 C 
ATOM     26  C   UNL A   1      32.233  23.203  27.040  1.00  0.00    -0.042 A 
ATOM     27  C   UNL A   1      32.939  22.087  27.547  1.00  0.00     0.004 A 
ATOM     28  C   UNL A   1      34.307  22.015  27.238  1.00  0.00     0.000 A 
ATOM     29  C   UNL A   1      34.477  24.159  25.919  1.00  0.00     0.010 A 
ATOM     30  C   UNL A   1      35.034  22.986  26.460  1.00  0.00     0.001 A 
ENDBRANCH  10  24
ENDBRANCH   7   9
ENDBRANCH   6   7
ENDBRANCH   5   6
ENDBRANCH   4   5
ENDBRANCH   3   4
ENDBRANCH   2   3
ENDBRANCH   1   2
BRANCH   1  31
ATOM     31  O   UNL A   1      36.430  33.233  31.303  1.00  0.00    -0.376 OA
BRANCH  31  32
ATOM     32  C   UNL A   1      35.788  33.131  33.135  1.00  0.00     0.202 C 
BRANCH  32  33
ATOM     33  C   UNL A   1      37.111  32.462  34.492  1.00  0.00     0.261 C 
BRANCH  33  34
ATOM     34  O   UNL A   1      38.934  32.646  34.020  1.00  0.00    -0.460 OA
BRANCH  34  35
ATOM     35  C   UNL A   1      40.489  32.094  34.410  1.00  0.00     0.338 C 
ATOM     36  O   UNL A   1      41.224  33.045  34.720  1.00  0.00    -0.246 OA
BRANCH  35  37
ATOM     37  C   UNL A   1      41.411  30.520  34.153  1.00  0.00     0.060 A 
ATOM     38  C   UNL A   1      42.804  30.319  33.914  1.00  0.00     0.016 A 
ATOM     39  C   UNL A   1      40.975  29.256  33.817  1.00  0.00     0.016 A 
ATOM     40  C   UNL A   1      43.519  29.285  32.851  1.00  0.00     0.010 A 
ATOM     41  C   UNL A   1      41.656  28.410  32.662  1.00  0.00     0.010 A 
ATOM     42  C   UNL A   1      42.912  28.430  31.942  1.00  0.00    -0.014 A 
BRANCH  42  43
ATOM     43  C   UNL A   1      43.462  27.963  30.238  1.00  0.00     0.031 A 
ATOM     44  C   UNL A   1      43.842  26.338  29.441  1.00  0.00     0.074 A 
ATOM     45  C   UNL A   1      43.236  28.930  29.280  1.00  0.00     0.049 A 
ATOM     46  N   UNL A   1      44.987  25.678  29.238  1.00  0.00    -0.248 NA
ATOM     47  C   UNL A   1      42.801  25.303  28.946  1.00  0.00     0.031 C 
ATOM     48  C   UNL A   1      43.161  28.874  27.796  1.00  0.00     0.029 A 
ATOM     49  N   UNL A   1      42.944  30.292  29.484  1.00  0.00    -0.354 N 
ATOM     50  C   UNL A   1      44.660  24.337  28.677  1.00  0.00     0.074 A 
ATOM     51  C   UNL A   1      43.342  24.100  29.105  1.00  0.00     0.031 C 
ATOM     52  C   UNL A   1      43.241  30.126  27.289  1.00  0.00     0.029 A 
ATOM     53  C   UNL A   1      43.525  30.990  28.415  1.00  0.00     0.049 A 
ATOM     54  H   UNL A   1      42.433  30.678  30.231  1.00  0.00     0.167 HD
ATOM     55  C   UNL A   1      44.721  23.924  27.342  1.00  0.00     0.034 A 
ATOM     56  C   UNL A   1      44.708  31.598  28.711  1.00  0.00     0.034 A 
ATOM     57  C   UNL A   1      44.822  25.119  26.527  1.00  0.00     0.049 A 
ATOM     58  C   UNL A   1      45.835  30.798  28.061  1.00  0.00     0.074 A 
ATOM     59  C   UNL A   1      43.994  25.829  25.674  1.00  0.00     0.029 A 
ATOM     60  N   UNL A   1      45.869  25.938  26.837  1.00  0.00    -0.354 N 
ATOM     61  N   UNL A   1      45.746  29.547  27.670  1.00  0.00    -0.248 NA
ATOM     62  C   UNL A   1      47.072  31.410  27.605  1.00  0.00     0.031 C 
ATOM     63  C   UNL A   1      44.625  27.094  25.441  1.00  0.00     0.029 A 
ATOM     64  C   UNL A   1      45.800  27.129  26.177  1.00  0.00     0.049 A 
ATOM     65  H   UNL A   1      46.590  25.697  27.463  1.00  0.00     0.167 HD
ATOM     66  C   UNL A   1      46.818  29.197  26.897  1.00  0.00     0.074 A 
ATOM     67  C   UNL A   1      47.617  30.409  26.889  1.00  0.00     0.031 C 
ATOM     68  C   UNL A   1      46.971  27.968  26.303  1.00  0.00     0.034 A 
BRANCH  55  69
ATOM     69  C   UNL A   1      44.149  22.562  26.715  1.00  0.00     0.023 A 
ATOM     70  C   UNL A   1      42.833  22.205  27.106  1.00  0.00     0.012 A 
ATOM     71  C   UNL A   1      44.755  21.648  25.782  1.00  0.00     0.148 A 
ATOM     72  C   UNL A   1      42.169  21.047  26.661  1.00  0.00     0.002 A 
ATOM     73  C   UNL A   1      44.087  20.468  25.350  1.00  0.00     0.091 A 
ATOM     74  F   UNL A   1      45.977  21.911  25.295  1.00  0.00    -0.205 F 
ATOM     75  C   UNL A   1      42.795  20.177  25.791  1.00  0.00     0.022 A 
BRANCH  73  76
ATOM     76  S   UNL A   1      44.770  19.206  24.236  1.00  0.00     0.127 S 
ATOM     77  O   UNL A   1      44.697  19.857  22.926  1.00  0.00    -0.237 OA
ATOM     78  O   UNL A   1      46.129  19.024  24.742  1.00  0.00    -0.237 OA
ATOM     79  O   UNL A   1      43.902  18.047  24.360  1.00  0.00    -0.744 OA
ENDBRANCH  73  76
ENDBRANCH  55  69
BRANCH  56  80
ATOM     80  C   UNL A   1      44.595  32.268  30.074  1.00  0.00     0.023 A 
ATOM     81  C   UNL A   1      45.578  31.861  31.038  1.00  0.00     0.012 A 
ATOM     82  C   UNL A   1      43.917  33.474  30.322  1.00  0.00     0.148 A 
ATOM     83  C   UNL A   1      46.026  32.716  32.047  1.00  0.00     0.002 A 
ATOM     84  C   UNL A   1      44.257  34.253  31.447  1.00  0.00     0.091 A 
ATOM     85  F   UNL A   1      43.028  33.908  29.420  1.00  0.00    -0.205 F 
ATOM     86  C   UNL A   1      45.359  33.912  32.256  1.00  0.00     0.022 A 
BRANCH  84  87
ATOM     87  S   UNL A   1      43.404  35.820  31.802  1.00  0.00     0.127 S 
ATOM     88  O   UNL A   1      43.711  36.587  30.600  1.00  0.00    -0.237 OA
ATOM     89  O   UNL A   1      41.997  35.432  31.925  1.00  0.00    -0.237 OA
ATOM     90  O   UNL A   1      43.992  36.300  33.044  1.00  0.00    -0.744 OA
ENDBRANCH  84  87
ENDBRANCH  56  80
BRANCH  68  91
ATOM     91  C   UNL A   1      48.305  27.333  25.879  1.00  0.00     0.023 A 
ATOM     92  C   UNL A   1      48.591  27.092  24.531  1.00  0.00     0.012 A 
ATOM     93  C   UNL A   1      49.399  27.138  26.789  1.00  0.00     0.148 A 
ATOM     94  C   UNL A   1      49.830  26.611  24.107  1.00  0.00     0.002 A 
ATOM     95  C   UNL A   1      50.676  26.822  26.339  1.00  0.00     0.091 A 
ATOM     96  F   UNL A   1      49.220  27.224  28.115  1.00  0.00    -0.205 F 
ATOM     97  C   UNL A   1      50.882  26.506  25.002  1.00  0.00     0.022 A 
BRANCH  95  98
ATOM     98  S   UNL A   1      52.129  26.934  27.401  1.00  0.00     0.127 S 
ATOM     99  O   UNL A   1      53.202  26.591  26.469  1.00  0.00    -0.237 OA
ATOM    100  O   UNL A   1      52.104  28.340  27.810  1.00  0.00    -0.237 OA
ATOM    101  O   UNL A   1      51.899  25.991  28.486  1.00  0.00    -0.744 OA
ENDBRANCH  95  98
ENDBRANCH  68  91
ENDBRANCH  42  43
ENDBRANCH  35  37
ENDBRANCH  34  35
ENDBRANCH  33  34
ENDBRANCH  32  33
ENDBRANCH  31  32
ENDBRANCH   1  31
TORSDOF 21
ENDMDL
