MODEL 1
REMARK VINA RESULT:     -10.3      0.000      0.000
REMARK SMILES O=C(Cc1ccccc1Nc1c(Cl)cccc1C(F)(F)F)OCCOCCOCCOC(=O)c1ccc(-c2c3nc(c(-c4cccc(S(=O)(=O)[O-])c4F)c4ccc([nH]4)c(-c4cccc(S(=O)(=O)[O-])c4F)c4nc(c(-c5cccc(S(=O)(=O)[O-])c5F)c5ccc2[nH]5)C=C4)C=C3)cc1
REMARK SMILES IDX 26 1 25 2 24 3 23 4 22 5 2 6 1 7 3 8 4 9 5 10 9 11 6 12 8 13
REMARK SMILES IDX 7 14 10 15 11 17 12 18 17 19 13 20 14 21 16 22 15 23 18 24
REMARK SMILES IDX 19 25 20 26 21 27 27 28 28 29 29 30 30 31 31 32 32 33 33 34
REMARK SMILES IDX 34 35 35 36 96 37 36 38 95 39 37 40 38 41 39 42 89 43 40 44
REMARK SMILES IDX 94 45 88 46 90 47 41 48 93 49 87 50 86 51 42 53 74 54 54 55
REMARK SMILES IDX 73 56 55 57 58 58 72 59 91 60 56 61 57 62 71 64 92 65 59 66
REMARK SMILES IDX 43 67 44 68 52 69 45 70 47 71 53 72 46 73 48 74 49 75 50 76
REMARK SMILES IDX 51 77 75 78 76 79 84 80 77 81 79 82 85 83 78 84 80 85 81 86
REMARK SMILES IDX 82 87 83 88 60 89 61 90 69 91 62 92 64 93 70 94 63 95 65 96
REMARK SMILES IDX 66 97 67 98 68 99
REMARK H PARENT 10 16 90 52 58 63
REMARK Flexibility Score: inf
ROOT
ATOM      1  C   UNL A   1      39.749  21.829  26.711  1.00  0.00     0.188 C 
ENDROOT
BRANCH   1   2
ATOM      2  O   UNL A   1      39.155  21.313  25.533  1.00  0.00    -0.376 OA
BRANCH   2   3
ATOM      3  C   UNL A   1      37.763  21.526  25.388  1.00  0.00     0.202 C 
BRANCH   3   4
ATOM      4  C   UNL A   1      37.460  23.017  25.480  1.00  0.00     0.261 C 
BRANCH   4   5
ATOM      5  O   UNL A   1      36.512  23.399  26.505  1.00  0.00    -0.463 OA
BRANCH   5   6
ATOM      6  C   UNL A   1      35.179  23.561  26.376  1.00  0.00     0.310 C 
ATOM      7  O   UNL A   1      34.430  23.080  27.227  1.00  0.00    -0.252 OA
BRANCH   6   8
ATOM      8  C   UNL A   1      34.615  24.239  25.151  1.00  0.00     0.160 C 
BRANCH   8   9
ATOM      9  C   UNL A   1      33.506  23.529  24.406  1.00  0.00    -0.013 A 
ATOM     10  C   UNL A   1      33.711  22.205  23.969  1.00  0.00     0.006 A 
ATOM     11  C   UNL A   1      32.316  24.207  24.039  1.00  0.00     0.042 A 
ATOM     12  C   UNL A   1      32.745  21.540  23.222  1.00  0.00     0.000 A 
ATOM     13  C   UNL A   1      31.381  23.526  23.248  1.00  0.00     0.026 A 
ATOM     14  C   UNL A   1      31.586  22.205  22.852  1.00  0.00     0.002 A 
BRANCH  11  15
ATOM     15  N   UNL A   1      32.073  25.525  24.489  1.00  0.00    -0.354 N 
ATOM     16  H   UNL A   1      32.384  25.709  25.405  1.00  0.00     0.167 HD
BRANCH  15  17
ATOM     17  C   UNL A   1      31.455  26.630  23.841  1.00  0.00     0.070 A 
ATOM     18  C   UNL A   1      30.099  26.896  24.160  1.00  0.00     0.065 A 
ATOM     19  C   UNL A   1      32.111  27.499  22.950  1.00  0.00     0.080 A 
ATOM     20  Cl  UNL A   1      29.270  25.866  25.274  1.00  0.00    -0.082 Cl
ATOM     21  C   UNL A   1      29.410  27.977  23.617  1.00  0.00     0.023 A 
ATOM     22  C   UNL A   1      31.405  28.615  22.438  1.00  0.00     0.015 A 
ATOM     23  C   UNL A   1      30.069  28.848  22.764  1.00  0.00     0.002 A 
BRANCH  19  24
ATOM     24  C   UNL A   1      33.531  27.307  22.484  1.00  0.00     0.418 C 
ATOM     25  F   UNL A   1      33.986  28.375  21.756  1.00  0.00    -0.166 F 
ATOM     26  F   UNL A   1      34.419  27.195  23.514  1.00  0.00    -0.166 F 
ATOM     27  F   UNL A   1      33.744  26.230  21.676  1.00  0.00    -0.166 F 
ENDBRANCH  19  24
ENDBRANCH  15  17
ENDBRANCH  11  15
ENDBRANCH   8   9
ENDBRANCH   6   8
ENDBRANCH   5   6
ENDBRANCH   4   5
ENDBRANCH   3   4
ENDBRANCH   2   3
ENDBRANCH   1   2
BRANCH   1  28
ATOM     28  C   UNL A   1      41.253  21.515  26.781  1.00  0.00     0.188 C 
BRANCH  28  29
ATOM     29  O   UNL A   1      42.008  21.338  25.587  1.00  0.00    -0.376 OA
BRANCH  29  30
ATOM     30  C   UNL A   1      43.427  21.373  25.633  1.00  0.00     0.202 C 
BRANCH  30  31
ATOM     31  C   UNL A   1      44.134  22.498  24.871  1.00  0.00     0.261 C 
BRANCH  31  32
ATOM     32  O   UNL A   1      43.356  23.700  24.723  1.00  0.00    -0.460 OA
BRANCH  32  33
ATOM     33  C   UNL A   1      44.000  24.845  25.060  1.00  0.00     0.338 C 
ATOM     34  O   UNL A   1      45.062  25.245  24.616  1.00  0.00    -0.246 OA
BRANCH  33  35
ATOM     35  C   UNL A   1      43.181  25.667  25.976  1.00  0.00     0.060 A 
ATOM     36  C   UNL A   1      43.547  27.008  26.150  1.00  0.00     0.016 A 
ATOM     37  C   UNL A   1      42.163  25.110  26.754  1.00  0.00     0.016 A 
ATOM     38  C   UNL A   1      42.940  27.780  27.142  1.00  0.00     0.010 A 
ATOM     39  C   UNL A   1      41.563  25.886  27.758  1.00  0.00     0.010 A 
ATOM     40  C   UNL A   1      41.979  27.211  27.988  1.00  0.00    -0.014 A 
BRANCH  40  41
ATOM     41  C   UNL A   1      41.534  27.953  29.198  1.00  0.00     0.031 A 
ATOM     42  C   UNL A   1      40.314  28.833  29.117  1.00  0.00     0.074 A 
ATOM     43  C   UNL A   1      42.173  27.825  30.375  1.00  0.00     0.049 A 
ATOM     44  N   UNL A   1      39.749  29.548  30.056  1.00  0.00    -0.248 NA
ATOM     45  C   UNL A   1      39.630  28.901  27.816  1.00  0.00     0.031 C 
ATOM     46  C   UNL A   1      43.333  26.974  30.621  1.00  0.00     0.029 A 
ATOM     47  N   UNL A   1      41.935  28.429  31.588  1.00  0.00    -0.354 N 
ATOM     48  C   UNL A   1      38.641  30.144  29.467  1.00  0.00     0.074 A 
ATOM     49  C   UNL A   1      38.633  29.735  28.078  1.00  0.00     0.031 C 
ATOM     50  C   UNL A   1      43.731  27.144  31.893  1.00  0.00     0.029 A 
ATOM     51  C   UNL A   1      42.882  28.138  32.539  1.00  0.00     0.049 A 
ATOM     52  H   UNL A   1      41.162  29.014  31.757  1.00  0.00     0.167 HD
ATOM     53  C   UNL A   1      37.693  30.928  30.033  1.00  0.00     0.034 A 
ATOM     54  C   UNL A   1      43.069  28.627  33.780  1.00  0.00     0.034 A 
ATOM     55  C   UNL A   1      37.681  31.333  31.414  1.00  0.00     0.049 A 
ATOM     56  C   UNL A   1      42.056  29.575  34.362  1.00  0.00     0.074 A 
ATOM     57  C   UNL A   1      36.739  32.101  32.077  1.00  0.00     0.029 A 
ATOM     58  N   UNL A   1      38.659  31.017  32.343  1.00  0.00    -0.354 N 
ATOM     59  N   UNL A   1      40.950  30.028  33.825  1.00  0.00    -0.248 NA
ATOM     60  C   UNL A   1      42.286  30.035  35.740  1.00  0.00     0.031 C 
ATOM     61  C   UNL A   1      37.155  32.264  33.403  1.00  0.00     0.029 A 
ATOM     62  C   UNL A   1      38.349  31.583  33.569  1.00  0.00     0.049 A 
ATOM     63  H   UNL A   1      39.456  30.470  32.159  1.00  0.00     0.167 HD
ATOM     64  C   UNL A   1      40.328  30.782  34.814  1.00  0.00     0.074 A 
ATOM     65  C   UNL A   1      41.175  30.715  35.986  1.00  0.00     0.031 C 
ATOM     66  C   UNL A   1      39.163  31.472  34.752  1.00  0.00     0.034 A 
BRANCH  53  67
ATOM     67  C   UNL A   1      36.544  31.365  29.166  1.00  0.00     0.023 A 
ATOM     68  C   UNL A   1      36.419  32.728  28.828  1.00  0.00     0.012 A 
ATOM     69  C   UNL A   1      35.640  30.431  28.628  1.00  0.00     0.148 A 
ATOM     70  C   UNL A   1      35.400  33.158  27.981  1.00  0.00     0.002 A 
ATOM     71  C   UNL A   1      34.648  30.862  27.755  1.00  0.00     0.091 A 
ATOM     72  F   UNL A   1      35.765  29.143  28.980  1.00  0.00    -0.205 F 
ATOM     73  C   UNL A   1      34.521  32.225  27.436  1.00  0.00     0.022 A 
BRANCH  71  74
ATOM     74  S   UNL A   1      33.509  29.732  26.946  1.00  0.00     0.127 S 
ATOM     75  O   UNL A   1      32.378  30.612  26.655  1.00  0.00    -0.237 OA
ATOM     76  O   UNL A   1      34.273  29.312  25.772  1.00  0.00    -0.237 OA
ATOM     77  O   UNL A   1      33.241  28.674  27.909  1.00  0.00    -0.744 OA
ENDBRANCH  71  74
ENDBRANCH  53  67
BRANCH  54  78
ATOM     78  C   UNL A   1      44.259  28.217  34.579  1.00  0.00     0.023 A 
ATOM     79  C   UNL A   1      44.190  27.080  35.403  1.00  0.00     0.012 A 
ATOM     80  C   UNL A   1      45.449  28.974  34.547  1.00  0.00     0.148 A 
ATOM     81  C   UNL A   1      45.268  26.725  36.216  1.00  0.00     0.002 A 
ATOM     82  C   UNL A   1      46.531  28.596  35.332  1.00  0.00     0.091 A 
ATOM     83  F   UNL A   1      45.500  30.043  33.739  1.00  0.00    -0.205 F 
ATOM     84  C   UNL A   1      46.437  27.482  36.181  1.00  0.00     0.022 A 
BRANCH  82  85
ATOM     85  S   UNL A   1      48.094  29.483  35.324  1.00  0.00     0.127 S 
ATOM     86  O   UNL A   1      48.987  28.534  35.985  1.00  0.00    -0.237 OA
ATOM     87  O   UNL A   1      48.330  29.657  33.892  1.00  0.00    -0.237 OA
ATOM     88  O   UNL A   1      47.858  30.716  36.063  1.00  0.00    -0.744 OA
ENDBRANCH  82  85
ENDBRANCH  54  78
BRANCH  66  89
ATOM     89  C   UNL A   1      38.708  32.187  35.997  1.00  0.00     0.023 A 
ATOM     90  C   UNL A   1      38.869  33.584  36.099  1.00  0.00     0.012 A 
ATOM     91  C   UNL A   1      38.082  31.487  37.047  1.00  0.00     0.148 A 
ATOM     92  C   UNL A   1      38.450  34.266  37.241  1.00  0.00     0.002 A 
ATOM     93  C   UNL A   1      37.625  32.180  38.163  1.00  0.00     0.091 A 
ATOM     94  F   UNL A   1      37.957  30.155  36.946  1.00  0.00    -0.205 F 
ATOM     95  C   UNL A   1      37.820  33.567  38.268  1.00  0.00     0.022 A 
BRANCH  93  96
ATOM     96  S   UNL A   1      36.725  31.368  39.490  1.00  0.00     0.127 S 
ATOM     97  O   UNL A   1      36.064  30.275  38.778  1.00  0.00    -0.237 OA
ATOM     98  O   UNL A   1      37.801  30.948  40.390  1.00  0.00    -0.237 OA
ATOM     99  O   UNL A   1      35.842  32.384  40.046  1.00  0.00    -0.744 OA
ENDBRANCH  93  96
ENDBRANCH  66  89
ENDBRANCH  40  41
ENDBRANCH  33  35
ENDBRANCH  32  33
ENDBRANCH  31  32
ENDBRANCH  30  31
ENDBRANCH  29  30
ENDBRANCH  28  29
ENDBRANCH   1  28
TORSDOF 24
ENDMDL
MODEL 2
REMARK VINA RESULT:      -9.6      5.494      8.246
REMARK SMILES O=C(Cc1ccccc1Nc1c(Cl)cccc1C(F)(F)F)OCCOCCOCCOC(=O)c1ccc(-c2c3nc(c(-c4cccc(S(=O)(=O)[O-])c4F)c4ccc([nH]4)c(-c4cccc(S(=O)(=O)[O-])c4F)c4nc(c(-c5cccc(S(=O)(=O)[O-])c5F)c5ccc2[nH]5)C=C4)C=C3)cc1
REMARK SMILES IDX 26 1 25 2 24 3 23 4 22 5 2 6 1 7 3 8 4 9 5 10 9 11 6 12 8 13
REMARK SMILES IDX 7 14 10 15 11 17 12 18 17 19 13 20 14 21 16 22 15 23 18 24
REMARK SMILES IDX 19 25 20 26 21 27 27 28 28 29 29 30 30 31 31 32 32 33 33 34
REMARK SMILES IDX 34 35 35 36 96 37 36 38 95 39 37 40 38 41 39 42 89 43 40 44
REMARK SMILES IDX 94 45 88 46 90 47 41 48 93 49 87 50 86 51 42 53 74 54 54 55
REMARK SMILES IDX 73 56 55 57 58 58 72 59 91 60 56 61 57 62 71 64 92 65 59 66
REMARK SMILES IDX 43 67 44 68 52 69 45 70 47 71 53 72 46 73 48 74 49 75 50 76
REMARK SMILES IDX 51 77 75 78 76 79 84 80 77 81 79 82 85 83 78 84 80 85 81 86
REMARK SMILES IDX 82 87 83 88 60 89 61 90 69 91 62 92 64 93 70 94 63 95 65 96
REMARK SMILES IDX 66 97 67 98 68 99
REMARK H PARENT 10 16 90 52 58 63
REMARK Flexibility Score: inf
ROOT
ATOM      1  C   UNL A   1      40.092  21.857  26.931  1.00  0.00     0.188 C 
ENDROOT
BRANCH   1   2
ATOM      2  O   UNL A   1      39.343  21.550  25.769  1.00  0.00    -0.376 OA
BRANCH   2   3
ATOM      3  C   UNL A   1      37.974  21.905  25.793  1.00  0.00     0.202 C 
BRANCH   3   4
ATOM      4  C   UNL A   1      37.819  23.380  25.442  1.00  0.00     0.261 C 
BRANCH   4   5
ATOM      5  O   UNL A   1      36.626  24.021  25.951  1.00  0.00    -0.463 OA
BRANCH   5   6
ATOM      6  C   UNL A   1      35.353  23.582  25.863  1.00  0.00     0.310 C 
ATOM      7  O   UNL A   1      34.689  23.457  26.892  1.00  0.00    -0.252 OA
BRANCH   6   8
ATOM      8  C   UNL A   1      34.790  23.160  24.529  1.00  0.00     0.160 C 
BRANCH   8   9
ATOM      9  C   UNL A   1      34.108  21.812  24.451  1.00  0.00    -0.013 A 
ATOM     10  C   UNL A   1      34.832  20.655  24.803  1.00  0.00     0.006 A 
ATOM     11  C   UNL A   1      32.799  21.679  23.924  1.00  0.00     0.042 A 
ATOM     12  C   UNL A   1      34.265  19.391  24.681  1.00  0.00     0.000 A 
ATOM     13  C   UNL A   1      32.270  20.391  23.771  1.00  0.00     0.026 A 
ATOM     14  C   UNL A   1      32.990  19.259  24.154  1.00  0.00     0.002 A 
BRANCH  11  15
ATOM     15  N   UNL A   1      32.040  22.826  23.591  1.00  0.00    -0.354 N 
ATOM     16  H   UNL A   1      31.569  22.770  22.728  1.00  0.00     0.167 HD
BRANCH  15  17
ATOM     17  C   UNL A   1      31.843  24.046  24.295  1.00  0.00     0.070 A 
ATOM     18  C   UNL A   1      32.236  25.243  23.645  1.00  0.00     0.065 A 
ATOM     19  C   UNL A   1      31.241  24.145  25.563  1.00  0.00     0.080 A 
ATOM     20  Cl  UNL A   1      32.952  25.162  22.074  1.00  0.00    -0.082 Cl
ATOM     21  C   UNL A   1      32.049  26.495  24.224  1.00  0.00     0.023 A 
ATOM     22  C   UNL A   1      31.023  25.429  26.119  1.00  0.00     0.015 A 
ATOM     23  C   UNL A   1      31.427  26.590  25.459  1.00  0.00     0.002 A 
BRANCH  19  24
ATOM     24  C   UNL A   1      30.822  22.956  26.387  1.00  0.00     0.418 C 
ATOM     25  F   UNL A   1      30.192  21.999  25.633  1.00  0.00    -0.166 F 
ATOM     26  F   UNL A   1      31.877  22.301  26.953  1.00  0.00    -0.166 F 
ATOM     27  F   UNL A   1      29.948  23.219  27.399  1.00  0.00    -0.166 F 
ENDBRANCH  19  24
ENDBRANCH  15  17
ENDBRANCH  11  15
ENDBRANCH   8   9
ENDBRANCH   6   8
ENDBRANCH   5   6
ENDBRANCH   4   5
ENDBRANCH   3   4
ENDBRANCH   2   3
ENDBRANCH   1   2
BRANCH   1  28
ATOM     28  C   UNL A   1      41.252  20.871  27.146  1.00  0.00     0.188 C 
BRANCH  28  29
ATOM     29  O   UNL A   1      41.727  20.071  26.068  1.00  0.00    -0.376 OA
BRANCH  29  30
ATOM     30  C   UNL A   1      42.305  18.800  26.329  1.00  0.00     0.202 C 
BRANCH  30  31
ATOM     31  C   UNL A   1      43.560  18.417  25.538  1.00  0.00     0.261 C 
BRANCH  31  32
ATOM     32  O   UNL A   1      43.841  19.269  24.413  1.00  0.00    -0.460 OA
BRANCH  32  33
ATOM     33  C   UNL A   1      45.034  19.912  24.464  1.00  0.00     0.338 C 
ATOM     34  O   UNL A   1      46.106  19.499  24.057  1.00  0.00    -0.246 OA
BRANCH  33  35
ATOM     35  C   UNL A   1      44.875  21.290  24.976  1.00  0.00     0.060 A 
ATOM     36  C   UNL A   1      44.857  22.333  24.042  1.00  0.00     0.016 A 
ATOM     37  C   UNL A   1      44.882  21.572  26.344  1.00  0.00     0.016 A 
ATOM     38  C   UNL A   1      44.907  23.661  24.469  1.00  0.00     0.010 A 
ATOM     39  C   UNL A   1      44.944  22.908  26.770  1.00  0.00     0.010 A 
ATOM     40  C   UNL A   1      45.002  23.958  25.835  1.00  0.00    -0.014 A 
BRANCH  40  41
ATOM     41  C   UNL A   1      45.318  25.347  26.264  1.00  0.00     0.031 A 
ATOM     42  C   UNL A   1      44.200  26.259  26.697  1.00  0.00     0.074 A 
ATOM     43  C   UNL A   1      46.586  25.796  26.314  1.00  0.00     0.049 A 
ATOM     44  N   UNL A   1      44.262  27.495  27.123  1.00  0.00    -0.248 NA
ATOM     45  C   UNL A   1      42.838  25.702  26.663  1.00  0.00     0.031 C 
ATOM     46  C   UNL A   1      47.774  25.017  25.977  1.00  0.00     0.029 A 
ATOM     47  N   UNL A   1      47.080  27.032  26.659  1.00  0.00    -0.354 N 
ATOM     48  C   UNL A   1      42.954  27.861  27.417  1.00  0.00     0.074 A 
ATOM     49  C   UNL A   1      42.115  26.729  27.087  1.00  0.00     0.031 C 
ATOM     50  C   UNL A   1      48.854  25.808  26.091  1.00  0.00     0.029 A 
ATOM     51  C   UNL A   1      48.435  27.152  26.471  1.00  0.00     0.049 A 
ATOM     52  H   UNL A   1      46.517  27.761  27.006  1.00  0.00     0.167 HD
ATOM     53  C   UNL A   1      42.493  29.019  27.950  1.00  0.00     0.034 A 
ATOM     54  C   UNL A   1      49.252  28.219  26.566  1.00  0.00     0.034 A 
ATOM     55  C   UNL A   1      43.315  30.148  28.295  1.00  0.00     0.049 A 
ATOM     56  C   UNL A   1      48.703  29.527  27.068  1.00  0.00     0.074 A 
ATOM     57  C   UNL A   1      42.932  31.347  28.870  1.00  0.00     0.029 A 
ATOM     58  N   UNL A   1      44.682  30.227  28.088  1.00  0.00    -0.354 N 
ATOM     59  N   UNL A   1      47.485  29.813  27.457  1.00  0.00    -0.248 NA
ATOM     60  C   UNL A   1      49.652  30.643  27.200  1.00  0.00     0.031 C 
ATOM     61  C   UNL A   1      44.064  32.160  28.995  1.00  0.00     0.029 A 
ATOM     62  C   UNL A   1      45.156  31.459  28.512  1.00  0.00     0.049 A 
ATOM     63  H   UNL A   1      45.236  29.514  27.697  1.00  0.00     0.167 HD
ATOM     64  C   UNL A   1      47.533  31.122  27.926  1.00  0.00     0.074 A 
ATOM     65  C   UNL A   1      48.903  31.567  27.784  1.00  0.00     0.031 C 
ATOM     66  C   UNL A   1      46.529  31.884  28.423  1.00  0.00     0.034 A 
BRANCH  53  67
ATOM     67  C   UNL A   1      41.021  29.107  28.248  1.00  0.00     0.023 A 
ATOM     68  C   UNL A   1      40.116  29.289  27.183  1.00  0.00     0.012 A 
ATOM     69  C   UNL A   1      40.530  28.938  29.556  1.00  0.00     0.148 A 
ATOM     70  C   UNL A   1      38.742  29.320  27.417  1.00  0.00     0.002 A 
ATOM     71  C   UNL A   1      39.158  28.933  29.777  1.00  0.00     0.091 A 
ATOM     72  F   UNL A   1      41.411  28.788  30.555  1.00  0.00    -0.205 F 
ATOM     73  C   UNL A   1      38.263  29.131  28.711  1.00  0.00     0.022 A 
BRANCH  71  74
ATOM     74  S   UNL A   1      38.437  28.630  31.394  1.00  0.00     0.127 S 
ATOM     75  O   UNL A   1      39.151  29.601  32.221  1.00  0.00    -0.237 OA
ATOM     76  O   UNL A   1      37.026  28.944  31.167  1.00  0.00    -0.237 OA
ATOM     77  O   UNL A   1      38.708  27.233  31.701  1.00  0.00    -0.744 OA
ENDBRANCH  71  74
ENDBRANCH  53  67
BRANCH  54  78
ATOM     78  C   UNL A   1      50.691  28.102  26.195  1.00  0.00     0.023 A 
ATOM     79  C   UNL A   1      51.665  27.987  27.204  1.00  0.00     0.012 A 
ATOM     80  C   UNL A   1      51.097  28.137  24.845  1.00  0.00     0.148 A 
ATOM     81  C   UNL A   1      53.022  27.952  26.879  1.00  0.00     0.002 A 
ATOM     82  C   UNL A   1      52.448  28.067  24.526  1.00  0.00     0.091 A 
ATOM     83  F   UNL A   1      50.150  28.227  23.900  1.00  0.00    -0.205 F 
ATOM     84  C   UNL A   1      53.413  27.993  25.543  1.00  0.00     0.022 A 
BRANCH  82  85
ATOM     85  S   UNL A   1      53.047  28.070  22.832  1.00  0.00     0.127 S 
ATOM     86  O   UNL A   1      54.459  28.406  23.009  1.00  0.00    -0.237 OA
ATOM     87  O   UNL A   1      52.788  26.691  22.423  1.00  0.00    -0.237 OA
ATOM     88  O   UNL A   1      52.263  29.078  22.132  1.00  0.00    -0.744 OA
ENDBRANCH  82  85
ENDBRANCH  54  78
BRANCH  66  89
ATOM     89  C   UNL A   1      46.873  33.276  28.887  1.00  0.00     0.023 A 
ATOM     90  C   UNL A   1      47.252  33.491  30.228  1.00  0.00     0.012 A 
ATOM     91  C   UNL A   1      46.866  34.361  27.990  1.00  0.00     0.148 A 
ATOM     92  C   UNL A   1      47.579  34.770  30.677  1.00  0.00     0.002 A 
ATOM     93  C   UNL A   1      47.237  35.626  28.433  1.00  0.00     0.091 A 
ATOM     94  F   UNL A   1      46.481  34.145  26.723  1.00  0.00    -0.205 F 
ATOM     95  C   UNL A   1      47.582  35.834  29.779  1.00  0.00     0.022 A 
BRANCH  93  96
ATOM     96  S   UNL A   1      47.353  37.033  27.323  1.00  0.00     0.127 S 
ATOM     97  O   UNL A   1      48.535  36.694  26.532  1.00  0.00    -0.237 OA
ATOM     98  O   UNL A   1      46.088  36.961  26.590  1.00  0.00    -0.237 OA
ATOM     99  O   UNL A   1      47.482  38.204  28.180  1.00  0.00    -0.744 OA
ENDBRANCH  93  96
ENDBRANCH  66  89
ENDBRANCH  40  41
ENDBRANCH  33  35
ENDBRANCH  32  33
ENDBRANCH  31  32
ENDBRANCH  30  31
ENDBRANCH  29  30
ENDBRANCH  28  29
ENDBRANCH   1  28
TORSDOF 24
ENDMDL
MODEL 3
REMARK VINA RESULT:      -9.4      5.147      7.810
REMARK SMILES O=C(Cc1ccccc1Nc1c(Cl)cccc1C(F)(F)F)OCCOCCOCCOC(=O)c1ccc(-c2c3nc(c(-c4cccc(S(=O)(=O)[O-])c4F)c4ccc([nH]4)c(-c4cccc(S(=O)(=O)[O-])c4F)c4nc(c(-c5cccc(S(=O)(=O)[O-])c5F)c5ccc2[nH]5)C=C4)C=C3)cc1
REMARK SMILES IDX 26 1 25 2 24 3 23 4 22 5 2 6 1 7 3 8 4 9 5 10 9 11 6 12 8 13
REMARK SMILES IDX 7 14 10 15 11 17 12 18 17 19 13 20 14 21 16 22 15 23 18 24
REMARK SMILES IDX 19 25 20 26 21 27 27 28 28 29 29 30 30 31 31 32 32 33 33 34
REMARK SMILES IDX 34 35 35 36 96 37 36 38 95 39 37 40 38 41 39 42 89 43 40 44
REMARK SMILES IDX 94 45 88 46 90 47 41 48 93 49 87 50 86 51 42 53 74 54 54 55
REMARK SMILES IDX 73 56 55 57 58 58 72 59 91 60 56 61 57 62 71 64 92 65 59 66
REMARK SMILES IDX 43 67 44 68 52 69 45 70 47 71 53 72 46 73 48 74 49 75 50 76
REMARK SMILES IDX 51 77 75 78 76 79 84 80 77 81 79 82 85 83 78 84 80 85 81 86
REMARK SMILES IDX 82 87 83 88 60 89 61 90 69 91 62 92 64 93 70 94 63 95 65 96
REMARK SMILES IDX 66 97 67 98 68 99
REMARK H PARENT 10 16 90 52 58 63
REMARK Flexibility Score: inf
ROOT
ATOM      1  C   UNL A   1      36.554  23.814  26.105  1.00  0.00     0.188 C 
ENDROOT
BRANCH   1   2
ATOM      2  O   UNL A   1      36.079  23.188  24.926  1.00  0.00    -0.376 OA
BRANCH   2   3
ATOM      3  C   UNL A   1      35.231  22.071  25.109  1.00  0.00     0.202 C 
BRANCH   3   4
ATOM      4  C   UNL A   1      34.387  21.857  23.858  1.00  0.00     0.261 C 
BRANCH   4   5
ATOM      5  O   UNL A   1      33.195  22.672  23.762  1.00  0.00    -0.463 OA
BRANCH   5   6
ATOM      6  C   UNL A   1      32.925  23.633  22.854  1.00  0.00     0.310 C 
ATOM      7  O   UNL A   1      33.541  23.641  21.788  1.00  0.00    -0.252 OA
BRANCH   6   8
ATOM      8  C   UNL A   1      31.951  24.736  23.187  1.00  0.00     0.160 C 
BRANCH   8   9
ATOM      9  C   UNL A   1      32.473  25.916  23.978  1.00  0.00    -0.013 A 
ATOM     10  C   UNL A   1      33.448  25.698  24.972  1.00  0.00     0.006 A 
ATOM     11  C   UNL A   1      31.918  27.210  23.819  1.00  0.00     0.042 A 
ATOM     12  C   UNL A   1      33.905  26.744  25.767  1.00  0.00     0.000 A 
ATOM     13  C   UNL A   1      32.366  28.234  24.664  1.00  0.00     0.026 A 
ATOM     14  C   UNL A   1      33.355  28.008  25.622  1.00  0.00     0.002 A 
BRANCH  11  15
ATOM     15  N   UNL A   1      30.960  27.462  22.809  1.00  0.00    -0.354 N 
ATOM     16  H   UNL A   1      31.168  27.055  21.937  1.00  0.00     0.167 HD
BRANCH  15  17
ATOM     17  C   UNL A   1      29.747  28.204  22.842  1.00  0.00     0.070 A 
ATOM     18  C   UNL A   1      29.756  29.491  22.248  1.00  0.00     0.065 A 
ATOM     19  C   UNL A   1      28.537  27.725  23.376  1.00  0.00     0.080 A 
ATOM     20  Cl  UNL A   1      31.218  30.099  21.556  1.00  0.00    -0.082 Cl
ATOM     21  C   UNL A   1      28.614  30.284  22.186  1.00  0.00     0.023 A 
ATOM     22  C   UNL A   1      27.376  28.530  23.268  1.00  0.00     0.015 A 
ATOM     23  C   UNL A   1      27.416  29.797  22.686  1.00  0.00     0.002 A 
BRANCH  19  24
ATOM     24  C   UNL A   1      28.396  26.401  24.079  1.00  0.00     0.418 C 
ATOM     25  F   UNL A   1      27.108  26.164  24.484  1.00  0.00    -0.166 F 
ATOM     26  F   UNL A   1      28.702  25.338  23.280  1.00  0.00    -0.166 F 
ATOM     27  F   UNL A   1      29.139  26.254  25.212  1.00  0.00    -0.166 F 
ENDBRANCH  19  24
ENDBRANCH  15  17
ENDBRANCH  11  15
ENDBRANCH   8   9
ENDBRANCH   6   8
ENDBRANCH   5   6
ENDBRANCH   4   5
ENDBRANCH   3   4
ENDBRANCH   2   3
ENDBRANCH   1   2
BRANCH   1  28
ATOM     28  C   UNL A   1      38.084  23.976  26.094  1.00  0.00     0.188 C 
BRANCH  28  29
ATOM     29  O   UNL A   1      38.924  22.915  26.539  1.00  0.00    -0.376 OA
BRANCH  29  30
ATOM     30  C   UNL A   1      39.022  21.721  25.776  1.00  0.00     0.202 C 
BRANCH  30  31
ATOM     31  C   UNL A   1      39.664  20.503  26.446  1.00  0.00     0.261 C 
BRANCH  31  32
ATOM     32  O   UNL A   1      40.598  19.788  25.617  1.00  0.00    -0.460 OA
BRANCH  32  33
ATOM     33  C   UNL A   1      41.792  19.516  26.201  1.00  0.00     0.338 C 
ATOM     34  O   UNL A   1      42.255  18.415  26.439  1.00  0.00    -0.246 OA
BRANCH  33  35
ATOM     35  C   UNL A   1      42.574  20.753  26.416  1.00  0.00     0.060 A 
ATOM     36  C   UNL A   1      42.744  21.193  27.735  1.00  0.00     0.016 A 
ATOM     37  C   UNL A   1      43.014  21.540  25.350  1.00  0.00     0.016 A 
ATOM     38  C   UNL A   1      43.299  22.448  27.991  1.00  0.00     0.010 A 
ATOM     39  C   UNL A   1      43.561  22.806  25.611  1.00  0.00     0.010 A 
ATOM     40  C   UNL A   1      43.666  23.286  26.930  1.00  0.00    -0.014 A 
BRANCH  40  41
ATOM     41  C   UNL A   1      44.007  24.708  27.201  1.00  0.00     0.031 A 
ATOM     42  C   UNL A   1      42.939  25.637  27.718  1.00  0.00     0.074 A 
ATOM     43  C   UNL A   1      45.258  25.175  27.036  1.00  0.00     0.049 A 
ATOM     44  N   UNL A   1      43.031  26.904  28.035  1.00  0.00    -0.248 NA
ATOM     45  C   UNL A   1      41.600  25.062  27.921  1.00  0.00     0.031 C 
ATOM     46  C   UNL A   1      46.404  24.387  26.594  1.00  0.00     0.029 A 
ATOM     47  N   UNL A   1      45.767  26.440  27.211  1.00  0.00    -0.354 N 
ATOM     48  C   UNL A   1      41.770  27.276  28.483  1.00  0.00     0.074 A 
ATOM     49  C   UNL A   1      40.919  26.111  28.363  1.00  0.00     0.031 C 
ATOM     50  C   UNL A   1      47.471  25.198  26.492  1.00  0.00     0.029 A 
ATOM     51  C   UNL A   1      47.078  26.562  26.824  1.00  0.00     0.049 A 
ATOM     52  H   UNL A   1      45.241  27.187  27.578  1.00  0.00     0.167 HD
ATOM     53  C   UNL A   1      41.361  28.466  28.986  1.00  0.00     0.034 A 
ATOM     54  C   UNL A   1      47.874  27.643  26.720  1.00  0.00     0.034 A 
ATOM     55  C   UNL A   1      42.197  29.629  29.122  1.00  0.00     0.049 A 
ATOM     56  C   UNL A   1      47.371  28.980  27.193  1.00  0.00     0.074 A 
ATOM     57  C   UNL A   1      41.870  30.865  29.653  1.00  0.00     0.029 A 
ATOM     58  N   UNL A   1      43.519  29.709  28.718  1.00  0.00    -0.354 N 
ATOM     59  N   UNL A   1      46.214  29.281  27.728  1.00  0.00    -0.248 NA
ATOM     60  C   UNL A   1      48.303  30.115  27.103  1.00  0.00     0.031 C 
ATOM     61  C   UNL A   1      42.989  31.699  29.553  1.00  0.00     0.029 A 
ATOM     62  C   UNL A   1      44.019  30.976  28.975  1.00  0.00     0.049 A 
ATOM     63  H   UNL A   1      44.029  28.974  28.308  1.00  0.00     0.167 HD
ATOM     64  C   UNL A   1      46.296  30.623  28.084  1.00  0.00     0.074 A 
ATOM     65  C   UNL A   1      47.622  31.073  27.715  1.00  0.00     0.031 C 
ATOM     66  C   UNL A   1      45.355  31.410  28.659  1.00  0.00     0.034 A 
BRANCH  53  67
ATOM     67  C   UNL A   1      39.944  28.560  29.483  1.00  0.00     0.023 A 
ATOM     68  C   UNL A   1      39.628  28.040  30.754  1.00  0.00     0.012 A 
ATOM     69  C   UNL A   1      38.951  29.220  28.736  1.00  0.00     0.148 A 
ATOM     70  C   UNL A   1      38.339  28.160  31.269  1.00  0.00     0.002 A 
ATOM     71  C   UNL A   1      37.677  29.368  29.271  1.00  0.00     0.091 A 
ATOM     72  F   UNL A   1      39.269  29.687  27.520  1.00  0.00    -0.205 F 
ATOM     73  C   UNL A   1      37.366  28.833  30.533  1.00  0.00     0.022 A 
BRANCH  71  74
ATOM     74  S   UNL A   1      36.372  30.276  28.433  1.00  0.00     0.127 S 
ATOM     75  O   UNL A   1      36.999  31.583  28.243  1.00  0.00    -0.237 OA
ATOM     76  O   UNL A   1      36.196  29.500  27.206  1.00  0.00    -0.237 OA
ATOM     77  O   UNL A   1      35.229  30.259  29.334  1.00  0.00    -0.744 OA
ENDBRANCH  71  74
ENDBRANCH  53  67
BRANCH  54  78
ATOM     78  C   UNL A   1      49.250  27.515  26.158  1.00  0.00     0.023 A 
ATOM     79  C   UNL A   1      50.339  27.291  27.021  1.00  0.00     0.012 A 
ATOM     80  C   UNL A   1      49.482  27.647  24.773  1.00  0.00     0.148 A 
ATOM     81  C   UNL A   1      51.641  27.245  26.522  1.00  0.00     0.002 A 
ATOM     82  C   UNL A   1      50.778  27.565  24.278  1.00  0.00     0.091 A 
ATOM     83  F   UNL A   1      48.427  27.840  23.968  1.00  0.00    -0.205 F 
ATOM     84  C   UNL A   1      51.861  27.382  25.153  1.00  0.00     0.022 A 
BRANCH  82  85
ATOM     85  S   UNL A   1      51.158  27.687  22.526  1.00  0.00     0.127 S 
ATOM     86  O   UNL A   1      50.185  26.768  21.938  1.00  0.00    -0.237 OA
ATOM     87  O   UNL A   1      50.904  29.103  22.265  1.00  0.00    -0.237 OA
ATOM     88  O   UNL A   1      52.548  27.275  22.388  1.00  0.00    -0.744 OA
ENDBRANCH  82  85
ENDBRANCH  54  78
BRANCH  66  89
ATOM     89  C   UNL A   1      45.728  32.838  28.962  1.00  0.00     0.023 A 
ATOM     90  C   UNL A   1      46.380  33.148  30.172  1.00  0.00     0.012 A 
ATOM     91  C   UNL A   1      45.475  33.865  28.032  1.00  0.00     0.148 A 
ATOM     92  C   UNL A   1      46.739  34.462  30.470  1.00  0.00     0.002 A 
ATOM     93  C   UNL A   1      45.877  35.166  28.315  1.00  0.00     0.091 A 
ATOM     94  F   UNL A   1      44.834  33.559  26.894  1.00  0.00    -0.205 F 
ATOM     95  C   UNL A   1      46.497  35.469  29.538  1.00  0.00     0.022 A 
BRANCH  93  96
ATOM     96  S   UNL A   1      45.682  36.506  27.133  1.00  0.00     0.127 S 
ATOM     97  O   UNL A   1      46.225  37.642  27.876  1.00  0.00    -0.237 OA
ATOM     98  O   UNL A   1      46.510  36.058  26.011  1.00  0.00    -0.237 OA
ATOM     99  O   UNL A   1      44.257  36.568  26.838  1.00  0.00    -0.744 OA
ENDBRANCH  93  96
ENDBRANCH  66  89
ENDBRANCH  40  41
ENDBRANCH  33  35
ENDBRANCH  32  33
ENDBRANCH  31  32
ENDBRANCH  30  31
ENDBRANCH  29  30
ENDBRANCH  28  29
ENDBRANCH   1  28
TORSDOF 24
ENDMDL
