MODEL 1
REMARK VINA RESULT:     -11.1      0.000      0.000
REMARK SMILES O=C(Cn1c2ccccc2c(=O)c2ccccc21)N[C@@H](Cc1ccccc1)C(=O)OCCOCCOCCOC(=O)c1ccc(-c2c3nc(c(-c4cccc(S(=O)(=O)[O-])c4F)c4ccc([nH]4)c(-c4cccc(S(=O)(=O)[O-])c4F)c4nc(c(-c5cccc(S(=O)(=O)[O-])c5F)c5ccc2[nH]5)C=C4)C=C3)cc1
REMARK SMILES IDX 34 1 33 2 32 3 31 4 30 5 28 6 29 7 20 8 19 9 1 10 2 11 3 13
REMARK SMILES IDX 4 14 5 15 18 16 6 17 10 18 13 19 17 20 7 21 9 22 11 23 14 24
REMARK SMILES IDX 16 25 8 26 12 27 15 28 21 29 22 30 23 31 27 32 24 33 26 34
REMARK SMILES IDX 25 35 35 36 36 37 37 38 38 39 39 40 40 41 41 42 42 43 43 44
REMARK SMILES IDX 104 45 44 46 103 47 45 48 46 49 47 50 97 51 48 52 102 53
REMARK SMILES IDX 96 54 98 55 49 56 101 57 95 58 94 59 50 61 82 62 62 63 81 64
REMARK SMILES IDX 63 65 66 66 80 67 99 68 64 69 65 70 79 72 100 73 67 74 51 75
REMARK SMILES IDX 52 76 60 77 53 78 55 79 61 80 54 81 56 82 57 83 58 84 59 85
REMARK SMILES IDX 83 86 84 87 92 88 85 89 87 90 93 91 86 92 88 93 89 94 90 95
REMARK SMILES IDX 91 96 68 97 69 98 77 99 70 100 72 101 78 102 71 103 73 104
REMARK SMILES IDX 74 105 75 106 76 107
REMARK H PARENT 19 12 98 60 66 71
REMARK Flexibility Score: inf
ROOT
ATOM      1  C   UNL A   1      39.635  22.060  26.434  1.00  0.00     0.188 C 
ENDROOT
BRANCH   1   2
ATOM      2  O   UNL A   1      38.512  22.903  26.178  1.00  0.00    -0.376 OA
BRANCH   2   3
ATOM      3  C   UNL A   1      37.491  22.344  25.365  1.00  0.00     0.202 C 
BRANCH   3   4
ATOM      4  C   UNL A   1      36.087  22.347  25.980  1.00  0.00     0.261 C 
BRANCH   4   5
ATOM      5  O   UNL A   1      35.119  23.245  25.362  1.00  0.00    -0.462 OA
BRANCH   5   6
ATOM      6  C   UNL A   1      33.886  23.223  25.952  1.00  0.00     0.329 C 
ATOM      7  O   UNL A   1      33.727  23.081  27.163  1.00  0.00    -0.250 OA
BRANCH   6   8
ATOM      8  C   UNL A   1      32.669  23.139  24.991  1.00  0.00     0.196 C 
BRANCH   8   9
ATOM      9  N   UNL A   1      31.792  24.278  24.603  1.00  0.00    -0.341 N 
ATOM     10  O   UNL A   1      30.616  24.054  26.541  1.00  0.00    -0.273 OA
ATOM     11  C   UNL A   1      30.770  24.655  25.471  1.00  0.00     0.240 C 
ATOM     12  H   UNL A   1      31.932  24.755  23.752  1.00  0.00     0.164 HD
BRANCH  11  13
ATOM     13  C   UNL A   1      29.759  25.777  25.104  1.00  0.00     0.222 C 
BRANCH  13  14
ATOM     14  N   UNL A   1      30.271  27.111  24.716  1.00  0.00    -0.331 N 
ATOM     15  C   UNL A   1      31.466  27.593  25.252  1.00  0.00     0.053 A 
ATOM     16  C   UNL A   1      29.564  27.878  23.763  1.00  0.00     0.053 A 
ATOM     17  C   UNL A   1      31.917  27.255  26.531  1.00  0.00     0.027 A 
ATOM     18  C   UNL A   1      32.253  28.449  24.471  1.00  0.00     0.046 A 
ATOM     19  C   UNL A   1      30.263  28.822  22.979  1.00  0.00     0.046 A 
ATOM     20  C   UNL A   1      28.172  27.844  23.625  1.00  0.00     0.027 A 
ATOM     21  C   UNL A   1      33.235  27.465  26.880  1.00  0.00     0.002 A 
ATOM     22  C   UNL A   1      33.531  28.773  24.871  1.00  0.00     0.014 A 
ATOM     23  C   UNL A   1      31.719  28.953  23.188  1.00  0.00     0.197 A 
ATOM     24  C   UNL A   1      29.620  29.666  22.065  1.00  0.00     0.014 A 
ATOM     25  C   UNL A   1      27.514  28.723  22.750  1.00  0.00     0.002 A 
ATOM     26  C   UNL A   1      34.049  28.157  26.005  1.00  0.00     0.001 A 
ATOM     27  O   UNL A   1      32.443  29.476  22.349  1.00  0.00    -0.288 OA
ATOM     28  C   UNL A   1      28.236  29.624  21.964  1.00  0.00     0.001 A 
ENDBRANCH  13  14
ENDBRANCH  11  13
ENDBRANCH   8   9
BRANCH   8  29
ATOM     29  C   UNL A   1      33.206  22.415  23.719  1.00  0.00     0.072 C 
BRANCH  29  30
ATOM     30  C   UNL A   1      32.970  20.919  23.804  1.00  0.00    -0.045 A 
ATOM     31  C   UNL A   1      33.661  20.141  24.740  1.00  0.00     0.004 A 
ATOM     32  C   UNL A   1      32.175  20.283  22.842  1.00  0.00     0.004 A 
ATOM     33  C   UNL A   1      33.650  18.751  24.645  1.00  0.00     0.000 A 
ATOM     34  C   UNL A   1      32.152  18.892  22.757  1.00  0.00     0.000 A 
ATOM     35  C   UNL A   1      32.909  18.128  23.641  1.00  0.00     0.000 A 
ENDBRANCH  29  30
ENDBRANCH   8  29
ENDBRANCH   6   8
ENDBRANCH   5   6
ENDBRANCH   4   5
ENDBRANCH   3   4
ENDBRANCH   2   3
ENDBRANCH   1   2
BRANCH   1  36
ATOM     36  C   UNL A   1      39.588  20.686  25.755  1.00  0.00     0.188 C 
BRANCH  36  37
ATOM     37  O   UNL A   1      40.402  19.756  26.469  1.00  0.00    -0.376 OA
BRANCH  37  38
ATOM     38  C   UNL A   1      41.798  20.061  26.451  1.00  0.00     0.202 C 
BRANCH  38  39
ATOM     39  C   UNL A   1      42.662  18.889  25.958  1.00  0.00     0.261 C 
BRANCH  39  40
ATOM     40  O   UNL A   1      43.318  19.095  24.685  1.00  0.00    -0.460 OA
BRANCH  40  41
ATOM     41  C   UNL A   1      44.651  19.383  24.695  1.00  0.00     0.338 C 
ATOM     42  O   UNL A   1      45.565  18.606  24.472  1.00  0.00    -0.246 OA
BRANCH  41  43
ATOM     43  C   UNL A   1      44.823  20.843  24.915  1.00  0.00     0.060 A 
ATOM     44  C   UNL A   1      45.338  21.326  26.118  1.00  0.00     0.016 A 
ATOM     45  C   UNL A   1      44.387  21.747  23.940  1.00  0.00     0.016 A 
ATOM     46  C   UNL A   1      45.376  22.708  26.355  1.00  0.00     0.010 A 
ATOM     47  C   UNL A   1      44.297  23.111  24.232  1.00  0.00     0.010 A 
ATOM     48  C   UNL A   1      44.833  23.613  25.427  1.00  0.00    -0.014 A 
BRANCH  48  49
ATOM     49  C   UNL A   1      45.052  25.071  25.602  1.00  0.00     0.031 A 
ATOM     50  C   UNL A   1      43.984  26.004  26.095  1.00  0.00     0.074 A 
ATOM     51  C   UNL A   1      46.291  25.546  25.361  1.00  0.00     0.049 A 
ATOM     52  N   UNL A   1      44.121  27.189  26.632  1.00  0.00    -0.248 NA
ATOM     53  C   UNL A   1      42.586  25.568  25.953  1.00  0.00     0.031 C 
ATOM     54  C   UNL A   1      47.395  24.766  24.794  1.00  0.00     0.029 A 
ATOM     55  N   UNL A   1      46.836  26.785  25.574  1.00  0.00    -0.354 N 
ATOM     56  C   UNL A   1      42.836  27.633  26.926  1.00  0.00     0.074 A 
ATOM     57  C   UNL A   1      41.926  26.605  26.466  1.00  0.00     0.031 C 
ATOM     58  C   UNL A   1      48.482  25.542  24.700  1.00  0.00     0.029 A 
ATOM     59  C   UNL A   1      48.174  26.847  25.269  1.00  0.00     0.049 A 
ATOM     60  H   UNL A   1      46.321  27.553  25.911  1.00  0.00     0.167 HD
ATOM     61  C   UNL A   1      42.472  28.781  27.552  1.00  0.00     0.034 A 
ATOM     62  C   UNL A   1      49.087  27.810  25.492  1.00  0.00     0.034 A 
ATOM     63  C   UNL A   1      43.407  29.785  27.994  1.00  0.00     0.049 A 
ATOM     64  C   UNL A   1      48.686  29.018  26.279  1.00  0.00     0.074 A 
ATOM     65  C   UNL A   1      43.159  30.927  28.738  1.00  0.00     0.029 A 
ATOM     66  N   UNL A   1      44.766  29.782  27.712  1.00  0.00    -0.354 N 
ATOM     67  N   UNL A   1      47.511  29.316  26.775  1.00  0.00    -0.248 NA
ATOM     68  C   UNL A   1      49.743  29.987  26.593  1.00  0.00     0.031 C 
ATOM     69  C   UNL A   1      44.365  31.619  28.894  1.00  0.00     0.029 A 
ATOM     70  C   UNL A   1      45.365  30.904  28.256  1.00  0.00     0.049 A 
ATOM     71  H   UNL A   1      45.234  29.083  27.202  1.00  0.00     0.167 HD
ATOM     72  C   UNL A   1      47.686  30.500  27.476  1.00  0.00     0.074 A 
ATOM     73  C   UNL A   1      49.087  30.854  27.356  1.00  0.00     0.031 C 
ATOM     74  C   UNL A   1      46.764  31.231  28.147  1.00  0.00     0.034 A 
BRANCH  61  75
ATOM     75  C   UNL A   1      41.020  28.987  27.911  1.00  0.00     0.023 A 
ATOM     76  C   UNL A   1      40.111  29.288  26.876  1.00  0.00     0.012 A 
ATOM     77  C   UNL A   1      40.527  28.721  29.205  1.00  0.00     0.148 A 
ATOM     78  C   UNL A   1      38.738  29.328  27.121  1.00  0.00     0.002 A 
ATOM     79  C   UNL A   1      39.153  28.741  29.437  1.00  0.00     0.091 A 
ATOM     80  F   UNL A   1      41.406  28.428  30.175  1.00  0.00    -0.205 F 
ATOM     81  C   UNL A   1      38.260  29.046  28.397  1.00  0.00     0.022 A 
BRANCH  79  82
ATOM     82  S   UNL A   1      38.418  28.335  31.027  1.00  0.00     0.127 S 
ATOM     83  O   UNL A   1      38.584  26.882  31.067  1.00  0.00    -0.237 OA
ATOM     84  O   UNL A   1      39.274  29.069  31.959  1.00  0.00    -0.237 OA
ATOM     85  O   UNL A   1      37.038  28.797  30.966  1.00  0.00    -0.744 OA
ENDBRANCH  79  82
ENDBRANCH  61  75
BRANCH  62  86
ATOM     86  C   UNL A   1      50.497  27.545  25.102  1.00  0.00     0.023 A 
ATOM     87  C   UNL A   1      51.382  26.999  26.049  1.00  0.00     0.012 A 
ATOM     88  C   UNL A   1      50.908  27.684  23.763  1.00  0.00     0.148 A 
ATOM     89  C   UNL A   1      52.663  26.597  25.670  1.00  0.00     0.002 A 
ATOM     90  C   UNL A   1      52.172  27.248  23.384  1.00  0.00     0.091 A 
ATOM     91  F   UNL A   1      50.037  28.195  22.882  1.00  0.00    -0.205 F 
ATOM     92  C   UNL A   1      53.052  26.710  24.337  1.00  0.00     0.022 A 
BRANCH  90  93
ATOM     93  S   UNL A   1      52.718  27.241  21.673  1.00  0.00     0.127 S 
ATOM     94  O   UNL A   1      51.516  26.780  20.981  1.00  0.00    -0.237 OA
ATOM     95  O   UNL A   1      53.052  28.649  21.457  1.00  0.00    -0.237 OA
ATOM     96  O   UNL A   1      53.857  26.335  21.623  1.00  0.00    -0.744 OA
ENDBRANCH  90  93
ENDBRANCH  62  86
BRANCH  74  97
ATOM     97  C   UNL A   1      47.224  32.511  28.786  1.00  0.00     0.023 A 
ATOM     98  C   UNL A   1      47.731  32.475  30.099  1.00  0.00     0.012 A 
ATOM     99  C   UNL A   1      47.258  33.714  28.058  1.00  0.00     0.148 A 
ATOM    100  C   UNL A   1      48.257  33.624  30.684  1.00  0.00     0.002 A 
ATOM    101  C   UNL A   1      47.815  34.848  28.634  1.00  0.00     0.091 A 
ATOM    102  F   UNL A   1      46.758  33.721  26.813  1.00  0.00    -0.205 F 
ATOM    103  C   UNL A   1      48.311  34.807  29.950  1.00  0.00     0.022 A 
BRANCH 101 104
ATOM    104  S   UNL A   1      47.992  36.402  27.749  1.00  0.00     0.127 S 
ATOM    105  O   UNL A   1      46.776  36.420  26.936  1.00  0.00    -0.237 OA
ATOM    106  O   UNL A   1      48.012  37.377  28.839  1.00  0.00    -0.237 OA
ATOM    107  O   UNL A   1      49.236  36.300  26.999  1.00  0.00    -0.744 OA
ENDBRANCH 101 104
ENDBRANCH  74  97
ENDBRANCH  48  49
ENDBRANCH  41  43
ENDBRANCH  40  41
ENDBRANCH  39  40
ENDBRANCH  38  39
ENDBRANCH  37  38
ENDBRANCH  36  37
ENDBRANCH   1  36
TORSDOF 25
ENDMDL
MODEL 2
REMARK VINA RESULT:     -11.0      4.257      6.498
REMARK SMILES O=C(Cn1c2ccccc2c(=O)c2ccccc21)N[C@@H](Cc1ccccc1)C(=O)OCCOCCOCCOC(=O)c1ccc(-c2c3nc(c(-c4cccc(S(=O)(=O)[O-])c4F)c4ccc([nH]4)c(-c4cccc(S(=O)(=O)[O-])c4F)c4nc(c(-c5cccc(S(=O)(=O)[O-])c5F)c5ccc2[nH]5)C=C4)C=C3)cc1
REMARK SMILES IDX 34 1 33 2 32 3 31 4 30 5 28 6 29 7 20 8 19 9 1 10 2 11 3 13
REMARK SMILES IDX 4 14 5 15 18 16 6 17 10 18 13 19 17 20 7 21 9 22 11 23 14 24
REMARK SMILES IDX 16 25 8 26 12 27 15 28 21 29 22 30 23 31 27 32 24 33 26 34
REMARK SMILES IDX 25 35 35 36 36 37 37 38 38 39 39 40 40 41 41 42 42 43 43 44
REMARK SMILES IDX 104 45 44 46 103 47 45 48 46 49 47 50 97 51 48 52 102 53
REMARK SMILES IDX 96 54 98 55 49 56 101 57 95 58 94 59 50 61 82 62 62 63 81 64
REMARK SMILES IDX 63 65 66 66 80 67 99 68 64 69 65 70 79 72 100 73 67 74 51 75
REMARK SMILES IDX 52 76 60 77 53 78 55 79 61 80 54 81 56 82 57 83 58 84 59 85
REMARK SMILES IDX 83 86 84 87 92 88 85 89 87 90 93 91 86 92 88 93 89 94 90 95
REMARK SMILES IDX 91 96 68 97 69 98 77 99 70 100 72 101 78 102 71 103 73 104
REMARK SMILES IDX 74 105 75 106 76 107
REMARK H PARENT 19 12 98 60 66 71
REMARK Flexibility Score: inf
ROOT
ATOM      1  C   UNL A   1      35.098  23.986  24.123  1.00  0.00     0.188 C 
ENDROOT
BRANCH   1   2
ATOM      2  O   UNL A   1      34.922  23.190  22.952  1.00  0.00    -0.376 OA
BRANCH   2   3
ATOM      3  C   UNL A   1      33.716  23.406  22.233  1.00  0.00     0.202 C 
BRANCH   3   4
ATOM      4  C   UNL A   1      33.142  24.824  22.323  1.00  0.00     0.261 C 
BRANCH   4   5
ATOM      5  O   UNL A   1      31.691  24.923  22.418  1.00  0.00    -0.462 OA
BRANCH   5   6
ATOM      6  C   UNL A   1      31.126  24.001  23.256  1.00  0.00     0.329 C 
ATOM      7  O   UNL A   1      30.296  23.176  22.878  1.00  0.00    -0.250 OA
BRANCH   6   8
ATOM      8  C   UNL A   1      31.393  24.201  24.772  1.00  0.00     0.196 C 
BRANCH   8   9
ATOM      9  N   UNL A   1      30.927  25.356  25.588  1.00  0.00    -0.341 N 
ATOM     10  O   UNL A   1      32.996  26.301  25.464  1.00  0.00    -0.273 OA
ATOM     11  C   UNL A   1      31.836  26.369  25.886  1.00  0.00     0.240 C 
ATOM     12  H   UNL A   1      29.997  25.404  25.909  1.00  0.00     0.164 HD
BRANCH  11  13
ATOM     13  C   UNL A   1      31.455  27.566  26.801  1.00  0.00     0.222 C 
BRANCH  13  14
ATOM     14  N   UNL A   1      31.809  28.940  26.377  1.00  0.00    -0.331 N 
ATOM     15  C   UNL A   1      31.096  29.572  25.358  1.00  0.00     0.053 A 
ATOM     16  C   UNL A   1      32.850  29.627  27.041  1.00  0.00     0.053 A 
ATOM     17  C   UNL A   1      30.503  28.877  24.300  1.00  0.00     0.027 A 
ATOM     18  C   UNL A   1      30.960  30.965  25.400  1.00  0.00     0.046 A 
ATOM     19  C   UNL A   1      32.838  31.039  27.072  1.00  0.00     0.046 A 
ATOM     20  C   UNL A   1      33.974  28.990  27.580  1.00  0.00     0.027 A 
ATOM     21  C   UNL A   1      29.537  29.484  23.525  1.00  0.00     0.002 A 
ATOM     22  C   UNL A   1      30.090  31.604  24.542  1.00  0.00     0.014 A 
ATOM     23  C   UNL A   1      31.716  31.735  26.410  1.00  0.00     0.197 A 
ATOM     24  C   UNL A   1      33.868  31.789  27.650  1.00  0.00     0.014 A 
ATOM     25  C   UNL A   1      35.036  29.736  28.114  1.00  0.00     0.002 A 
ATOM     26  C   UNL A   1      29.286  30.830  23.713  1.00  0.00     0.001 A 
ATOM     27  O   UNL A   1      31.442  32.901  26.670  1.00  0.00    -0.288 OA
ATOM     28  C   UNL A   1      34.980  31.130  28.159  1.00  0.00     0.001 A 
ENDBRANCH  13  14
ENDBRANCH  11  13
ENDBRANCH   8   9
BRANCH   8  29
ATOM     29  C   UNL A   1      30.962  22.860  25.441  1.00  0.00     0.072 C 
BRANCH  29  30
ATOM     30  C   UNL A   1      32.159  21.958  25.669  1.00  0.00    -0.045 A 
ATOM     31  C   UNL A   1      33.048  22.206  26.721  1.00  0.00     0.004 A 
ATOM     32  C   UNL A   1      32.469  20.961  24.735  1.00  0.00     0.004 A 
ATOM     33  C   UNL A   1      34.277  21.551  26.774  1.00  0.00     0.000 A 
ATOM     34  C   UNL A   1      33.692  20.296  24.796  1.00  0.00     0.000 A 
ATOM     35  C   UNL A   1      34.606  20.610  25.800  1.00  0.00     0.000 A 
ENDBRANCH  29  30
ENDBRANCH   8  29
ENDBRANCH   6   8
ENDBRANCH   5   6
ENDBRANCH   4   5
ENDBRANCH   3   4
ENDBRANCH   2   3
ENDBRANCH   1   2
BRANCH   1  36
ATOM     36  C   UNL A   1      36.486  23.902  24.769  1.00  0.00     0.188 C 
BRANCH  36  37
ATOM     37  O   UNL A   1      37.009  22.580  24.641  1.00  0.00    -0.376 OA
BRANCH  37  38
ATOM     38  C   UNL A   1      38.107  22.295  25.511  1.00  0.00     0.202 C 
BRANCH  38  39
ATOM     39  C   UNL A   1      38.560  23.518  26.326  1.00  0.00     0.261 C 
BRANCH  39  40
ATOM     40  O   UNL A   1      39.746  23.321  27.130  1.00  0.00    -0.460 OA
BRANCH  40  41
ATOM     41  C   UNL A   1      40.916  23.863  26.684  1.00  0.00     0.338 C 
ATOM     42  O   UNL A   1      41.683  23.372  25.873  1.00  0.00    -0.246 OA
BRANCH  41  43
ATOM     43  C   UNL A   1      41.063  25.224  27.264  1.00  0.00     0.060 A 
ATOM     44  C   UNL A   1      41.108  25.407  28.646  1.00  0.00     0.016 A 
ATOM     45  C   UNL A   1      41.072  26.340  26.420  1.00  0.00     0.016 A 
ATOM     46  C   UNL A   1      41.122  26.706  29.177  1.00  0.00     0.010 A 
ATOM     47  C   UNL A   1      40.945  27.627  26.952  1.00  0.00     0.010 A 
ATOM     48  C   UNL A   1      41.014  27.827  28.338  1.00  0.00    -0.014 A 
BRANCH  48  49
ATOM     49  C   UNL A   1      41.222  29.189  28.894  1.00  0.00     0.031 A 
ATOM     50  C   UNL A   1      40.093  30.064  29.355  1.00  0.00     0.074 A 
ATOM     51  C   UNL A   1      42.494  29.612  29.040  1.00  0.00     0.049 A 
ATOM     52  N   UNL A   1      40.134  31.084  30.173  1.00  0.00    -0.248 NA
ATOM     53  C   UNL A   1      38.752  29.776  28.822  1.00  0.00     0.031 C 
ATOM     54  C   UNL A   1      43.679  28.900  28.552  1.00  0.00     0.029 A 
ATOM     55  N   UNL A   1      43.006  30.727  29.650  1.00  0.00    -0.354 N 
ATOM     56  C   UNL A   1      38.826  31.545  30.285  1.00  0.00     0.074 A 
ATOM     57  C   UNL A   1      38.018  30.717  29.413  1.00  0.00     0.031 C 
ATOM     58  C   UNL A   1      44.776  29.594  28.876  1.00  0.00     0.029 A 
ATOM     59  C   UNL A   1      44.380  30.757  29.659  1.00  0.00     0.049 A 
ATOM     60  H   UNL A   1      42.447  31.436  30.041  1.00  0.00     0.167 HD
ATOM     61  C   UNL A   1      38.357  32.546  31.072  1.00  0.00     0.034 A 
ATOM     62  C   UNL A   1      45.242  31.574  30.290  1.00  0.00     0.034 A 
ATOM     63  C   UNL A   1      39.193  33.353  31.926  1.00  0.00     0.049 A 
ATOM     64  C   UNL A   1      44.703  32.600  31.236  1.00  0.00     0.074 A 
ATOM     65  C   UNL A   1      38.812  34.313  32.849  1.00  0.00     0.029 A 
ATOM     66  N   UNL A   1      40.580  33.312  31.946  1.00  0.00    -0.354 N 
ATOM     67  N   UNL A   1      43.454  32.866  31.528  1.00  0.00    -0.248 NA
ATOM     68  C   UNL A   1      45.685  33.393  31.986  1.00  0.00     0.031 C 
ATOM     69  C   UNL A   1      39.968  34.861  33.415  1.00  0.00     0.029 A 
ATOM     70  C   UNL A   1      41.069  34.235  32.854  1.00  0.00     0.049 A 
ATOM     71  H   UNL A   1      41.134  32.713  31.396  1.00  0.00     0.167 HD
ATOM     72  C   UNL A   1      43.495  33.846  32.509  1.00  0.00     0.074 A 
ATOM     73  C   UNL A   1      44.896  34.113  32.776  1.00  0.00     0.031 C 
ATOM     74  C   UNL A   1      42.464  34.473  33.123  1.00  0.00     0.034 A 
BRANCH  61  75
ATOM     75  C   UNL A   1      36.867  32.774  31.153  1.00  0.00     0.023 A 
ATOM     76  C   UNL A   1      36.161  32.206  32.233  1.00  0.00     0.012 A 
ATOM     77  C   UNL A   1      36.201  33.666  30.288  1.00  0.00     0.148 A 
ATOM     78  C   UNL A   1      34.818  32.514  32.450  1.00  0.00     0.002 A 
ATOM     79  C   UNL A   1      34.866  33.987  30.523  1.00  0.00     0.091 A 
ATOM     80  F   UNL A   1      36.891  34.203  29.271  1.00  0.00    -0.205 F 
ATOM     81  C   UNL A   1      34.174  33.411  31.602  1.00  0.00     0.022 A 
BRANCH  79  82
ATOM     82  S   UNL A   1      33.950  35.175  29.532  1.00  0.00     0.127 S 
ATOM     83  O   UNL A   1      34.740  35.205  28.301  1.00  0.00    -0.237 OA
ATOM     84  O   UNL A   1      32.645  34.526  29.400  1.00  0.00    -0.237 OA
ATOM     85  O   UNL A   1      33.944  36.418  30.291  1.00  0.00    -0.744 OA
ENDBRANCH  79  82
ENDBRANCH  61  75
BRANCH  62  86
ATOM     86  C   UNL A   1      46.696  31.300  30.156  1.00  0.00     0.023 A 
ATOM     87  C   UNL A   1      47.293  30.328  30.980  1.00  0.00     0.012 A 
ATOM     88  C   UNL A   1      47.443  31.882  29.114  1.00  0.00     0.148 A 
ATOM     89  C   UNL A   1      48.616  29.940  30.772  1.00  0.00     0.002 A 
ATOM     90  C   UNL A   1      48.749  31.465  28.888  1.00  0.00     0.091 A 
ATOM     91  F   UNL A   1      46.842  32.795  28.338  1.00  0.00    -0.205 F 
ATOM     92  C   UNL A   1      49.339  30.498  29.720  1.00  0.00     0.022 A 
BRANCH  90  93
ATOM     93  S   UNL A   1      49.717  32.037  27.488  1.00  0.00     0.127 S 
ATOM     94  O   UNL A   1      48.718  32.046  26.422  1.00  0.00    -0.237 OA
ATOM     95  O   UNL A   1      50.147  33.361  27.939  1.00  0.00    -0.237 OA
ATOM     96  O   UNL A   1      50.796  31.073  27.330  1.00  0.00    -0.744 OA
ENDBRANCH  90  93
ENDBRANCH  62  86
BRANCH  74  97
ATOM     97  C   UNL A   1      42.799  35.539  34.129  1.00  0.00     0.023 A 
ATOM     98  C   UNL A   1      42.906  35.186  35.487  1.00  0.00     0.012 A 
ATOM     99  C   UNL A   1      43.113  36.848  33.721  1.00  0.00     0.148 A 
ATOM    100  C   UNL A   1      43.312  36.127  36.431  1.00  0.00     0.002 A 
ATOM    101  C   UNL A   1      43.549  37.772  34.661  1.00  0.00     0.091 A 
ATOM    102  F   UNL A   1      42.992  37.158  32.421  1.00  0.00    -0.205 F 
ATOM    103  C   UNL A   1      43.645  37.415  36.018  1.00  0.00     0.022 A 
BRANCH 101 104
ATOM    104  S   UNL A   1      44.067  39.436  34.221  1.00  0.00     0.127 S 
ATOM    105  O   UNL A   1      45.297  39.176  33.475  1.00  0.00    -0.237 OA
ATOM    106  O   UNL A   1      42.944  39.901  33.406  1.00  0.00    -0.237 OA
ATOM    107  O   UNL A   1      44.245  40.150  35.478  1.00  0.00    -0.744 OA
ENDBRANCH 101 104
ENDBRANCH  74  97
ENDBRANCH  48  49
ENDBRANCH  41  43
ENDBRANCH  40  41
ENDBRANCH  39  40
ENDBRANCH  38  39
ENDBRANCH  37  38
ENDBRANCH  36  37
ENDBRANCH   1  36
TORSDOF 25
ENDMDL
MODEL 3
REMARK VINA RESULT:     -10.8      2.938      8.433
REMARK SMILES O=C(Cn1c2ccccc2c(=O)c2ccccc21)N[C@@H](Cc1ccccc1)C(=O)OCCOCCOCCOC(=O)c1ccc(-c2c3nc(c(-c4cccc(S(=O)(=O)[O-])c4F)c4ccc([nH]4)c(-c4cccc(S(=O)(=O)[O-])c4F)c4nc(c(-c5cccc(S(=O)(=O)[O-])c5F)c5ccc2[nH]5)C=C4)C=C3)cc1
REMARK SMILES IDX 34 1 33 2 32 3 31 4 30 5 28 6 29 7 20 8 19 9 1 10 2 11 3 13
REMARK SMILES IDX 4 14 5 15 18 16 6 17 10 18 13 19 17 20 7 21 9 22 11 23 14 24
REMARK SMILES IDX 16 25 8 26 12 27 15 28 21 29 22 30 23 31 27 32 24 33 26 34
REMARK SMILES IDX 25 35 35 36 36 37 37 38 38 39 39 40 40 41 41 42 42 43 43 44
REMARK SMILES IDX 104 45 44 46 103 47 45 48 46 49 47 50 97 51 48 52 102 53
REMARK SMILES IDX 96 54 98 55 49 56 101 57 95 58 94 59 50 61 82 62 62 63 81 64
REMARK SMILES IDX 63 65 66 66 80 67 99 68 64 69 65 70 79 72 100 73 67 74 51 75
REMARK SMILES IDX 52 76 60 77 53 78 55 79 61 80 54 81 56 82 57 83 58 84 59 85
REMARK SMILES IDX 83 86 84 87 92 88 85 89 87 90 93 91 86 92 88 93 89 94 90 95
REMARK SMILES IDX 91 96 68 97 69 98 77 99 70 100 72 101 78 102 71 103 73 104
REMARK SMILES IDX 74 105 75 106 76 107
REMARK H PARENT 19 12 98 60 66 71
REMARK Flexibility Score: inf
ROOT
ATOM      1  C   UNL A   1      34.202  25.093  22.586  1.00  0.00     0.188 C 
ENDROOT
BRANCH   1   2
ATOM      2  O   UNL A   1      33.447  24.782  21.416  1.00  0.00    -0.376 OA
BRANCH   2   3
ATOM      3  C   UNL A   1      32.425  25.708  21.076  1.00  0.00     0.202 C 
BRANCH   3   4
ATOM      4  C   UNL A   1      31.787  26.446  22.258  1.00  0.00     0.261 C 
BRANCH   4   5
ATOM      5  O   UNL A   1      30.522  25.908  22.741  1.00  0.00    -0.462 OA
BRANCH   5   6
ATOM      6  C   UNL A   1      30.645  24.730  23.425  1.00  0.00     0.329 C 
ATOM      7  O   UNL A   1      30.165  23.671  23.024  1.00  0.00    -0.250 OA
BRANCH   6   8
ATOM      8  C   UNL A   1      31.209  24.834  24.868  1.00  0.00     0.196 C 
BRANCH   8   9
ATOM      9  N   UNL A   1      30.974  25.964  25.810  1.00  0.00    -0.341 N 
ATOM     10  O   UNL A   1      33.137  26.637  25.568  1.00  0.00    -0.273 OA
ATOM     11  C   UNL A   1      32.035  26.819  26.100  1.00  0.00     0.240 C 
ATOM     12  H   UNL A   1      30.089  26.103  26.219  1.00  0.00     0.164 HD
BRANCH  11  13
ATOM     13  C   UNL A   1      31.898  27.970  27.135  1.00  0.00     0.222 C 
BRANCH  13  14
ATOM     14  N   UNL A   1      32.250  29.350  26.730  1.00  0.00    -0.331 N 
ATOM     15  C   UNL A   1      31.480  30.028  25.785  1.00  0.00     0.053 A 
ATOM     16  C   UNL A   1      33.348  29.996  27.341  1.00  0.00     0.053 A 
ATOM     17  C   UNL A   1      30.800  29.378  24.750  1.00  0.00     0.027 A 
ATOM     18  C   UNL A   1      31.375  31.421  25.880  1.00  0.00     0.046 A 
ATOM     19  C   UNL A   1      33.366  31.406  27.417  1.00  0.00     0.046 A 
ATOM     20  C   UNL A   1      34.493  29.322  27.779  1.00  0.00     0.027 A 
ATOM     21  C   UNL A   1      29.795  30.028  24.064  1.00  0.00     0.002 A 
ATOM     22  C   UNL A   1      30.461  32.103  25.106  1.00  0.00     0.014 A 
ATOM     23  C   UNL A   1      32.215  32.144  26.858  1.00  0.00     0.197 A 
ATOM     24  C   UNL A   1      34.450  32.118  27.944  1.00  0.00     0.014 A 
ATOM     25  C   UNL A   1      35.605  30.031  28.260  1.00  0.00     0.002 A 
ATOM     26  C   UNL A   1      29.585  31.371  24.312  1.00  0.00     0.001 A 
ATOM     27  O   UNL A   1      31.983  33.306  27.173  1.00  0.00    -0.288 OA
ATOM     28  C   UNL A   1      35.581  31.423  28.353  1.00  0.00     0.001 A 
ENDBRANCH  13  14
ENDBRANCH  11  13
ENDBRANCH   8   9
BRANCH   8  29
ATOM     29  C   UNL A   1      30.840  23.480  25.547  1.00  0.00     0.072 C 
BRANCH  29  30
ATOM     30  C   UNL A   1      32.083  22.667  25.851  1.00  0.00    -0.045 A 
ATOM     31  C   UNL A   1      32.359  21.494  25.139  1.00  0.00     0.004 A 
ATOM     32  C   UNL A   1      32.883  23.001  26.952  1.00  0.00     0.004 A 
ATOM     33  C   UNL A   1      33.341  20.613  25.587  1.00  0.00     0.000 A 
ATOM     34  C   UNL A   1      33.875  22.126  27.391  1.00  0.00     0.000 A 
ATOM     35  C   UNL A   1      34.086  20.922  26.724  1.00  0.00     0.000 A 
ENDBRANCH  29  30
ENDBRANCH   8  29
ENDBRANCH   6   8
ENDBRANCH   5   6
ENDBRANCH   4   5
ENDBRANCH   3   4
ENDBRANCH   2   3
ENDBRANCH   1   2
BRANCH   1  36
ATOM     36  C   UNL A   1      34.560  23.893  23.472  1.00  0.00     0.188 C 
BRANCH  36  37
ATOM     37  O   UNL A   1      35.454  23.021  22.782  1.00  0.00    -0.376 OA
BRANCH  37  38
ATOM     38  C   UNL A   1      36.638  22.695  23.513  1.00  0.00     0.202 C 
BRANCH  38  39
ATOM     39  C   UNL A   1      36.795  23.520  24.801  1.00  0.00     0.261 C 
BRANCH  39  40
ATOM     40  O   UNL A   1      37.127  22.760  25.987  1.00  0.00    -0.460 OA
BRANCH  40  41
ATOM     41  C   UNL A   1      38.410  22.317  26.120  1.00  0.00     0.338 C 
ATOM     42  O   UNL A   1      38.849  21.238  25.758  1.00  0.00    -0.246 OA
BRANCH  41  43
ATOM     43  C   UNL A   1      39.238  23.414  26.685  1.00  0.00     0.060 A 
ATOM     44  C   UNL A   1      39.167  24.703  26.159  1.00  0.00     0.016 A 
ATOM     45  C   UNL A   1      40.159  23.135  27.701  1.00  0.00     0.016 A 
ATOM     46  C   UNL A   1      40.044  25.696  26.622  1.00  0.00     0.010 A 
ATOM     47  C   UNL A   1      41.121  24.083  28.061  1.00  0.00     0.010 A 
ATOM     48  C   UNL A   1      41.047  25.390  27.557  1.00  0.00    -0.014 A 
BRANCH  48  49
ATOM     49  C   UNL A   1      41.838  26.483  28.178  1.00  0.00     0.031 A 
ATOM     50  C   UNL A   1      43.262  26.775  27.802  1.00  0.00     0.074 A 
ATOM     51  C   UNL A   1      41.208  27.276  29.068  1.00  0.00     0.049 A 
ATOM     52  N   UNL A   1      43.940  27.879  27.974  1.00  0.00    -0.248 NA
ATOM     53  C   UNL A   1      44.032  25.691  27.173  1.00  0.00     0.031 C 
ATOM     54  C   UNL A   1      39.857  27.051  29.587  1.00  0.00     0.029 A 
ATOM     55  N   UNL A   1      41.610  28.434  29.682  1.00  0.00    -0.354 N 
ATOM     56  C   UNL A   1      45.206  27.645  27.448  1.00  0.00     0.074 A 
ATOM     57  C   UNL A   1      45.215  26.271  26.988  1.00  0.00     0.031 C 
ATOM     58  C   UNL A   1      39.541  28.032  30.441  1.00  0.00     0.029 A 
ATOM     59  C   UNL A   1      40.635  28.994  30.471  1.00  0.00     0.049 A 
ATOM     60  H   UNL A   1      42.506  28.824  29.569  1.00  0.00     0.167 HD
ATOM     61  C   UNL A   1      46.241  28.516  27.338  1.00  0.00     0.034 A 
ATOM     62  C   UNL A   1      40.577  30.186  31.092  1.00  0.00     0.034 A 
ATOM     63  C   UNL A   1      46.196  29.877  27.812  1.00  0.00     0.049 A 
ATOM     64  C   UNL A   1      41.681  31.171  30.868  1.00  0.00     0.074 A 
ATOM     65  C   UNL A   1      47.140  30.878  27.650  1.00  0.00     0.029 A 
ATOM     66  N   UNL A   1      45.163  30.423  28.560  1.00  0.00    -0.354 N 
ATOM     67  N   UNL A   1      42.771  31.028  30.155  1.00  0.00    -0.248 NA
ATOM     68  C   UNL A   1      41.520  32.499  31.474  1.00  0.00     0.031 C 
ATOM     69  C   UNL A   1      46.683  32.023  28.312  1.00  0.00     0.029 A 
ATOM     70  C   UNL A   1      45.451  31.739  28.877  1.00  0.00     0.049 A 
ATOM     71  H   UNL A   1      44.346  29.944  28.825  1.00  0.00     0.167 HD
ATOM     72  C   UNL A   1      43.423  32.252  30.211  1.00  0.00     0.074 A 
ATOM     73  C   UNL A   1      42.593  33.131  31.013  1.00  0.00     0.031 C 
ATOM     74  C   UNL A   1      44.606  32.607  29.657  1.00  0.00     0.034 A 
BRANCH  61  75
ATOM     75  C   UNL A   1      47.477  28.089  26.586  1.00  0.00     0.023 A 
ATOM     76  C   UNL A   1      48.566  27.578  27.321  1.00  0.00     0.012 A 
ATOM     77  C   UNL A   1      47.509  28.027  25.177  1.00  0.00     0.148 A 
ATOM     78  C   UNL A   1      49.668  27.019  26.673  1.00  0.00     0.002 A 
ATOM     79  C   UNL A   1      48.602  27.447  24.536  1.00  0.00     0.091 A 
ATOM     80  F   UNL A   1      46.461  28.510  24.494  1.00  0.00    -0.205 F 
ATOM     81  C   UNL A   1      49.681  26.945  25.283  1.00  0.00     0.022 A 
BRANCH  79  82
ATOM     82  S   UNL A   1      48.702  27.243  22.753  1.00  0.00     0.127 S 
ATOM     83  O   UNL A   1      50.113  27.539  22.500  1.00  0.00    -0.237 OA
ATOM     84  O   UNL A   1      48.338  25.836  22.582  1.00  0.00    -0.237 OA
ATOM     85  O   UNL A   1      47.760  28.195  22.181  1.00  0.00    -0.744 OA
ENDBRANCH  79  82
ENDBRANCH  61  75
BRANCH  62  86
ATOM     86  C   UNL A   1      39.334  30.537  31.826  1.00  0.00     0.023 A 
ATOM     87  C   UNL A   1      39.119  30.006  33.112  1.00  0.00     0.012 A 
ATOM     88  C   UNL A   1      38.454  31.512  31.320  1.00  0.00     0.148 A 
ATOM     89  C   UNL A   1      38.042  30.439  33.884  1.00  0.00     0.002 A 
ATOM     90  C   UNL A   1      37.404  31.966  32.110  1.00  0.00     0.091 A 
ATOM     91  F   UNL A   1      38.693  32.009  30.099  1.00  0.00    -0.205 F 
ATOM     92  C   UNL A   1      37.193  31.426  33.389  1.00  0.00     0.022 A 
BRANCH  90  93
ATOM     93  S   UNL A   1      36.332  33.317  31.607  1.00  0.00     0.127 S 
ATOM     94  O   UNL A   1      36.930  33.710  30.333  1.00  0.00    -0.237 OA
ATOM     95  O   UNL A   1      35.035  32.649  31.499  1.00  0.00    -0.237 OA
ATOM     96  O   UNL A   1      36.415  34.307  32.672  1.00  0.00    -0.744 OA
ENDBRANCH  90  93
ENDBRANCH  62  86
BRANCH  74  97
ATOM     97  C   UNL A   1      45.104  34.001  29.917  1.00  0.00     0.023 A 
ATOM     98  C   UNL A   1      45.913  34.238  31.044  1.00  0.00     0.012 A 
ATOM     99  C   UNL A   1      44.866  35.039  28.997  1.00  0.00     0.148 A 
ATOM    100  C   UNL A   1      46.472  35.496  31.259  1.00  0.00     0.002 A 
ATOM    101  C   UNL A   1      45.454  36.281  29.199  1.00  0.00     0.091 A 
ATOM    102  F   UNL A   1      44.083  34.786  27.938  1.00  0.00    -0.205 F 
ATOM    103  C   UNL A   1      46.254  36.513  30.332  1.00  0.00     0.022 A 
BRANCH 101 104
ATOM    104  S   UNL A   1      45.290  37.636  28.031  1.00  0.00     0.127 S 
ATOM    105  O   UNL A   1      43.837  37.778  27.944  1.00  0.00    -0.237 OA
ATOM    106  O   UNL A   1      45.970  38.727  28.728  1.00  0.00    -0.237 OA
ATOM    107  O   UNL A   1      45.942  37.195  26.806  1.00  0.00    -0.744 OA
ENDBRANCH 101 104
ENDBRANCH  74  97
ENDBRANCH  48  49
ENDBRANCH  41  43
ENDBRANCH  40  41
ENDBRANCH  39  40
ENDBRANCH  38  39
ENDBRANCH  37  38
ENDBRANCH  36  37
ENDBRANCH   1  36
TORSDOF 25
ENDMDL
