MODEL 1
REMARK VINA RESULT:      -7.0      0.000      0.000
REMARK SMILES CC(C)[NH2+][C@]1(C(=O)OCCOCCOCCOC(=O)c2ccc(-c3c4nc(c(-c5cccc(S(=O)(=O)[O-])c5F)c5ccc([nH]5)c(-c5cccc(S(=O)(=O)[O-])c5F)c5nc(c(-c6cccc(S(=O)(=O)[O-])c6F)c6ccc3[nH]6)C=C5)C=C4)cc2)CC[C@H](Oc2cccc(CO)c2)C1
REMARK SMILES IDX 12 1 11 2 10 3 9 4 8 5 6 6 7 7 5 8 83 9 95 10 84 11 85 12
REMARK SMILES IDX 4 13 2 16 1 17 3 18 86 19 87 20 88 21 94 22 89 23 91 24
REMARK SMILES IDX 90 25 92 26 93 27 13 29 14 30 15 31 16 32 17 33 18 34 19 35
REMARK SMILES IDX 20 36 21 37 82 38 22 39 81 40 23 41 24 42 25 43 75 44 26 45
REMARK SMILES IDX 80 46 74 47 76 48 27 49 79 50 73 51 72 52 28 54 60 55 40 56
REMARK SMILES IDX 59 57 41 58 44 59 58 60 77 61 42 62 43 63 57 65 78 66 45 67
REMARK SMILES IDX 29 68 30 69 38 70 31 71 33 72 39 73 32 74 34 75 35 76 36 77
REMARK SMILES IDX 37 78 61 79 62 80 70 81 63 82 65 83 71 84 64 85 66 86 67 87
REMARK SMILES IDX 68 88 69 89 46 90 47 91 55 92 48 93 50 94 56 95 49 96 51 97
REMARK SMILES IDX 52 98 53 99 54 100
REMARK H PARENT 4 14 4 15 93 28 76 53 44 64
REMARK Flexibility Score: inf
ROOT
ATOM      1  C   UNL A   1      43.613  23.566  27.379  1.00  0.00     0.188 C 
ENDROOT
BRANCH   1   2
ATOM      2  O   UNL A   1      43.641  24.980  27.511  1.00  0.00    -0.376 OA
BRANCH   2   3
ATOM      3  C   UNL A   1      42.499  25.594  28.105  1.00  0.00     0.202 C 
BRANCH   3   4
ATOM      4  C   UNL A   1      41.659  26.538  27.229  1.00  0.00     0.261 C 
BRANCH   4   5
ATOM      5  O   UNL A   1      41.158  27.732  27.879  1.00  0.00    -0.459 OA
BRANCH   5   6
ATOM      6  C   UNL A   1      39.911  27.609  28.403  1.00  0.00     0.368 C 
ATOM      7  O   UNL A   1      39.171  26.645  28.193  1.00  0.00    -0.245 OA
BRANCH   6   8
ATOM      8  C   UNL A   1      39.392  28.801  29.266  1.00  0.00     0.198 C 
ATOM      9  C   UNL A   1      40.583  29.751  29.455  1.00  0.00     0.085 C 
ATOM     10  C   UNL A   1      38.378  29.769  28.617  1.00  0.00     0.126 C 
ATOM     11  C   UNL A   1      39.997  31.075  29.915  1.00  0.00     0.052 C 
ATOM     12  C   UNL A   1      38.604  31.164  29.275  1.00  0.00     0.180 C 
BRANCH   8  13
ATOM     13  N   UNL A   1      38.832  28.110  30.458  1.00  0.00    -0.330 N 
ATOM     14  H   UNL A   1      37.818  28.133  30.342  1.00  0.00     0.347 HD
ATOM     15  H   UNL A   1      39.334  27.223  30.428  1.00  0.00     0.347 HD
BRANCH  13  16
ATOM     16  C   UNL A   1      39.086  28.536  31.826  1.00  0.00     0.176 C 
ATOM     17  C   UNL A   1      37.953  27.916  32.656  1.00  0.00     0.075 C 
ATOM     18  C   UNL A   1      40.421  28.038  32.383  1.00  0.00     0.075 C 
ENDBRANCH  13  16
ENDBRANCH   8  13
BRANCH  12  19
ATOM     19  O   UNL A   1      37.505  31.395  30.164  1.00  0.00    -0.490 OA
BRANCH  19  20
ATOM     20  C   UNL A   1      37.399  32.494  30.963  1.00  0.00     0.120 A 
ATOM     21  C   UNL A   1      38.249  33.593  31.012  1.00  0.00     0.046 A 
ATOM     22  C   UNL A   1      36.317  32.435  31.853  1.00  0.00     0.052 A 
ATOM     23  C   UNL A   1      38.076  34.571  32.000  1.00  0.00     0.004 A 
ATOM     24  C   UNL A   1      36.107  33.428  32.822  1.00  0.00    -0.019 A 
ATOM     25  C   UNL A   1      37.018  34.484  32.908  1.00  0.00     0.006 A 
BRANCH  24  26
ATOM     26  C   UNL A   1      34.947  33.336  33.774  1.00  0.00     0.191 C 
BRANCH  26  27
ATOM     27  O   UNL A   1      34.699  34.589  34.399  1.00  0.00    -0.392 OA
ATOM     28  H   UNL A   1      34.525  34.451  35.344  1.00  0.00     0.211 HD
ENDBRANCH  26  27
ENDBRANCH  24  26
ENDBRANCH  19  20
ENDBRANCH  12  19
ENDBRANCH   6   8
ENDBRANCH   5   6
ENDBRANCH   4   5
ENDBRANCH   3   4
ENDBRANCH   2   3
ENDBRANCH   1   2
BRANCH   1  29
ATOM     29  C   UNL A   1      44.274  22.986  26.124  1.00  0.00     0.188 C 
BRANCH  29  30
ATOM     30  O   UNL A   1      44.662  23.942  25.148  1.00  0.00    -0.376 OA
BRANCH  30  31
ATOM     31  C   UNL A   1      46.042  23.961  24.775  1.00  0.00     0.202 C 
BRANCH  31  32
ATOM     32  C   UNL A   1      47.021  24.483  25.846  1.00  0.00     0.261 C 
BRANCH  32  33
ATOM     33  O   UNL A   1      47.980  25.454  25.380  1.00  0.00    -0.460 OA
BRANCH  33  34
ATOM     34  C   UNL A   1      47.513  26.635  24.912  1.00  0.00     0.338 C 
ATOM     35  O   UNL A   1      47.489  26.994  23.747  1.00  0.00    -0.246 OA
BRANCH  34  36
ATOM     36  C   UNL A   1      46.776  27.313  26.012  1.00  0.00     0.060 A 
ATOM     37  C   UNL A   1      47.522  27.884  27.056  1.00  0.00     0.016 A 
ATOM     38  C   UNL A   1      45.387  27.467  25.986  1.00  0.00     0.016 A 
ATOM     39  C   UNL A   1      46.878  28.567  28.093  1.00  0.00     0.010 A 
ATOM     40  C   UNL A   1      44.743  28.141  27.028  1.00  0.00     0.010 A 
ATOM     41  C   UNL A   1      45.481  28.663  28.106  1.00  0.00    -0.014 A 
BRANCH  41  42
ATOM     42  C   UNL A   1      44.765  29.090  29.334  1.00  0.00     0.031 A 
ATOM     43  C   UNL A   1      44.250  30.504  29.387  1.00  0.00     0.074 A 
ATOM     44  C   UNL A   1      44.597  28.277  30.392  1.00  0.00     0.049 A 
ATOM     45  N   UNL A   1      43.684  31.147  30.375  1.00  0.00    -0.248 NA
ATOM     46  C   UNL A   1      44.399  31.301  28.157  1.00  0.00     0.031 C 
ATOM     47  C   UNL A   1      45.026  26.883  30.471  1.00  0.00     0.029 A 
ATOM     48  N   UNL A   1      44.042  28.529  31.625  1.00  0.00    -0.354 N 
ATOM     49  C   UNL A   1      43.438  32.428  29.897  1.00  0.00     0.074 A 
ATOM     50  C   UNL A   1      43.921  32.476  28.535  1.00  0.00     0.031 C 
ATOM     51  C   UNL A   1      44.750  26.412  31.702  1.00  0.00     0.029 A 
ATOM     52  C   UNL A   1      44.155  27.479  32.507  1.00  0.00     0.049 A 
ATOM     53  H   UNL A   1      43.606  29.382  31.855  1.00  0.00     0.167 HD
ATOM     54  C   UNL A   1      42.850  33.472  30.525  1.00  0.00     0.034 A 
ATOM     55  C   UNL A   1      43.841  27.402  33.817  1.00  0.00     0.034 A 
ATOM     56  C   UNL A   1      42.360  33.434  31.874  1.00  0.00     0.049 A 
ATOM     57  C   UNL A   1      43.239  28.599  34.515  1.00  0.00     0.074 A 
ATOM     58  C   UNL A   1      41.728  34.437  32.586  1.00  0.00     0.029 A 
ATOM     59  N   UNL A   1      42.459  32.342  32.720  1.00  0.00    -0.354 N 
ATOM     60  N   UNL A   1      42.914  29.769  34.019  1.00  0.00    -0.248 NA
ATOM     61  C   UNL A   1      42.941  28.457  35.949  1.00  0.00     0.031 C 
ATOM     62  C   UNL A   1      41.464  33.958  33.873  1.00  0.00     0.029 A 
ATOM     63  C   UNL A   1      41.908  32.648  33.951  1.00  0.00     0.049 A 
ATOM     64  H   UNL A   1      42.863  31.476  32.481  1.00  0.00     0.167 HD
ATOM     65  C   UNL A   1      42.334  30.481  35.067  1.00  0.00     0.074 A 
ATOM     66  C   UNL A   1      42.341  29.609  36.222  1.00  0.00     0.031 C 
ATOM     67  C   UNL A   1      41.852  31.750  35.074  1.00  0.00     0.034 A 
BRANCH  54  68
ATOM     68  C   UNL A   1      42.685  34.746  29.744  1.00  0.00     0.023 A 
ATOM     69  C   UNL A   1      41.569  34.902  28.898  1.00  0.00     0.012 A 
ATOM     70  C   UNL A   1      43.606  35.802  29.880  1.00  0.00     0.148 A 
ATOM     71  C   UNL A   1      41.386  36.079  28.175  1.00  0.00     0.002 A 
ATOM     72  C   UNL A   1      43.395  36.988  29.190  1.00  0.00     0.091 A 
ATOM     73  F   UNL A   1      44.675  35.621  30.669  1.00  0.00    -0.205 F 
ATOM     74  C   UNL A   1      42.293  37.125  28.329  1.00  0.00     0.022 A 
BRANCH  72  75
ATOM     75  S   UNL A   1      44.464  38.419  29.379  1.00  0.00     0.127 S 
ATOM     76  O   UNL A   1      43.734  39.433  28.620  1.00  0.00    -0.237 OA
ATOM     77  O   UNL A   1      44.458  38.619  30.828  1.00  0.00    -0.237 OA
ATOM     78  O   UNL A   1      45.754  38.030  28.826  1.00  0.00    -0.744 OA
ENDBRANCH  72  75
ENDBRANCH  54  68
BRANCH  55  79
ATOM     79  C   UNL A   1      44.071  26.136  34.575  1.00  0.00     0.023 A 
ATOM     80  C   UNL A   1      43.037  25.183  34.663  1.00  0.00     0.012 A 
ATOM     81  C   UNL A   1      45.294  25.883  35.226  1.00  0.00     0.148 A 
ATOM     82  C   UNL A   1      43.205  24.017  35.414  1.00  0.00     0.002 A 
ATOM     83  C   UNL A   1      45.472  24.696  35.929  1.00  0.00     0.091 A 
ATOM     84  F   UNL A   1      46.257  26.813  35.153  1.00  0.00    -0.205 F 
ATOM     85  C   UNL A   1      44.424  23.770  36.038  1.00  0.00     0.022 A 
BRANCH  83  86
ATOM     86  S   UNL A   1      47.044  24.242  36.670  1.00  0.00     0.127 S 
ATOM     87  O   UNL A   1      47.191  25.261  37.706  1.00  0.00    -0.237 OA
ATOM     88  O   UNL A   1      46.765  22.895  37.166  1.00  0.00    -0.237 OA
ATOM     89  O   UNL A   1      48.017  24.294  35.588  1.00  0.00    -0.744 OA
ENDBRANCH  83  86
ENDBRANCH  55  79
BRANCH  67  90
ATOM     90  C   UNL A   1      41.233  32.272  36.346  1.00  0.00     0.023 A 
ATOM     91  C   UNL A   1      42.000  33.055  37.231  1.00  0.00     0.012 A 
ATOM     92  C   UNL A   1      39.860  32.081  36.604  1.00  0.00     0.148 A 
ATOM     93  C   UNL A   1      41.415  33.620  38.364  1.00  0.00     0.002 A 
ATOM     94  C   UNL A   1      39.275  32.686  37.710  1.00  0.00     0.091 A 
ATOM     95  F   UNL A   1      39.152  31.321  35.757  1.00  0.00    -0.205 F 
ATOM     96  C   UNL A   1      40.053  33.447  38.596  1.00  0.00     0.022 A 
BRANCH  94  97
ATOM     97  S   UNL A   1      37.510  32.601  38.036  1.00  0.00     0.127 S 
ATOM     98  O   UNL A   1      37.281  31.156  38.063  1.00  0.00    -0.237 OA
ATOM     99  O   UNL A   1      37.403  33.260  39.337  1.00  0.00    -0.237 OA
ATOM    100  O   UNL A   1      36.863  33.312  36.941  1.00  0.00    -0.744 OA
ENDBRANCH  94  97
ENDBRANCH  67  90
ENDBRANCH  41  42
ENDBRANCH  34  36
ENDBRANCH  33  34
ENDBRANCH  32  33
ENDBRANCH  31  32
ENDBRANCH  30  31
ENDBRANCH  29  30
ENDBRANCH   1  29
TORSDOF 26
ENDMDL
MODEL 2
REMARK VINA RESULT:      -6.9      2.446      4.176
REMARK SMILES CC(C)[NH2+][C@]1(C(=O)OCCOCCOCCOC(=O)c2ccc(-c3c4nc(c(-c5cccc(S(=O)(=O)[O-])c5F)c5ccc([nH]5)c(-c5cccc(S(=O)(=O)[O-])c5F)c5nc(c(-c6cccc(S(=O)(=O)[O-])c6F)c6ccc3[nH]6)C=C5)C=C4)cc2)CC[C@H](Oc2cccc(CO)c2)C1
REMARK SMILES IDX 12 1 11 2 10 3 9 4 8 5 6 6 7 7 5 8 83 9 95 10 84 11 85 12
REMARK SMILES IDX 4 13 2 16 1 17 3 18 86 19 87 20 88 21 94 22 89 23 91 24
REMARK SMILES IDX 90 25 92 26 93 27 13 29 14 30 15 31 16 32 17 33 18 34 19 35
REMARK SMILES IDX 20 36 21 37 82 38 22 39 81 40 23 41 24 42 25 43 75 44 26 45
REMARK SMILES IDX 80 46 74 47 76 48 27 49 79 50 73 51 72 52 28 54 60 55 40 56
REMARK SMILES IDX 59 57 41 58 44 59 58 60 77 61 42 62 43 63 57 65 78 66 45 67
REMARK SMILES IDX 29 68 30 69 38 70 31 71 33 72 39 73 32 74 34 75 35 76 36 77
REMARK SMILES IDX 37 78 61 79 62 80 70 81 63 82 65 83 71 84 64 85 66 86 67 87
REMARK SMILES IDX 68 88 69 89 46 90 47 91 55 92 48 93 50 94 56 95 49 96 51 97
REMARK SMILES IDX 52 98 53 99 54 100
REMARK H PARENT 4 14 4 15 93 28 76 53 44 64
REMARK Flexibility Score: inf
ROOT
ATOM      1  C   UNL A   1      48.554  27.234  24.673  1.00  0.00     0.188 C 
ENDROOT
BRANCH   1   2
ATOM      2  O   UNL A   1      47.199  26.893  24.416  1.00  0.00    -0.376 OA
BRANCH   2   3
ATOM      3  C   UNL A   1      46.758  25.618  24.877  1.00  0.00     0.202 C 
BRANCH   3   4
ATOM      4  C   UNL A   1      45.268  25.461  25.226  1.00  0.00     0.261 C 
BRANCH   4   5
ATOM      5  O   UNL A   1      44.436  26.626  25.002  1.00  0.00    -0.459 OA
BRANCH   5   6
ATOM      6  C   UNL A   1      43.140  26.474  25.378  1.00  0.00     0.368 C 
ATOM      7  O   UNL A   1      42.277  25.948  24.671  1.00  0.00    -0.245 OA
BRANCH   6   8
ATOM      8  C   UNL A   1      42.739  27.064  26.767  1.00  0.00     0.198 C 
ATOM      9  C   UNL A   1      43.351  28.471  26.832  1.00  0.00     0.085 C 
ATOM     10  C   UNL A   1      41.251  27.409  26.997  1.00  0.00     0.126 C 
ATOM     11  C   UNL A   1      42.631  29.190  27.962  1.00  0.00     0.052 C 
ATOM     12  C   UNL A   1      41.215  28.599  28.004  1.00  0.00     0.180 C 
BRANCH   8  13
ATOM     13  N   UNL A   1      43.232  26.025  27.709  1.00  0.00    -0.330 N 
ATOM     14  H   UNL A   1      42.400  25.546  28.055  1.00  0.00     0.347 HD
ATOM     15  H   UNL A   1      43.906  25.530  27.124  1.00  0.00     0.347 HD
BRANCH  13  16
ATOM     16  C   UNL A   1      44.039  26.323  28.882  1.00  0.00     0.176 C 
ATOM     17  C   UNL A   1      43.209  25.830  30.076  1.00  0.00     0.075 C 
ATOM     18  C   UNL A   1      45.387  25.598  28.898  1.00  0.00     0.075 C 
ENDBRANCH  13  16
ENDBRANCH   8  13
BRANCH  12  19
ATOM     19  O   UNL A   1      40.778  28.074  29.263  1.00  0.00    -0.490 OA
BRANCH  19  20
ATOM     20  C   UNL A   1      39.622  28.451  29.878  1.00  0.00     0.120 A 
ATOM     21  C   UNL A   1      39.288  28.307  31.220  1.00  0.00     0.046 A 
ATOM     22  C   UNL A   1      38.675  28.998  29.000  1.00  0.00     0.052 A 
ATOM     23  C   UNL A   1      37.994  28.614  31.658  1.00  0.00     0.004 A 
ATOM     24  C   UNL A   1      37.388  29.349  29.433  1.00  0.00    -0.019 A 
ATOM     25  C   UNL A   1      37.045  29.122  30.769  1.00  0.00     0.006 A 
BRANCH  24  26
ATOM     26  C   UNL A   1      36.385  29.922  28.471  1.00  0.00     0.191 C 
BRANCH  26  27
ATOM     27  O   UNL A   1      35.364  30.632  29.159  1.00  0.00    -0.392 OA
ATOM     28  H   UNL A   1      35.716  31.479  29.476  1.00  0.00     0.211 HD
ENDBRANCH  26  27
ENDBRANCH  24  26
ENDBRANCH  19  20
ENDBRANCH  12  19
ENDBRANCH   6   8
ENDBRANCH   5   6
ENDBRANCH   4   5
ENDBRANCH   3   4
ENDBRANCH   2   3
ENDBRANCH   1   2
BRANCH   1  29
ATOM     29  C   UNL A   1      49.465  27.372  23.449  1.00  0.00     0.188 C 
BRANCH  29  30
ATOM     30  O   UNL A   1      50.615  28.184  23.639  1.00  0.00    -0.376 OA
BRANCH  30  31
ATOM     31  C   UNL A   1      51.277  28.081  24.902  1.00  0.00     0.202 C 
BRANCH  31  32
ATOM     32  C   UNL A   1      51.694  29.415  25.553  1.00  0.00     0.261 C 
BRANCH  32  33
ATOM     33  O   UNL A   1      50.825  29.882  26.605  1.00  0.00    -0.460 OA
BRANCH  33  34
ATOM     34  C   UNL A   1      50.950  29.319  27.830  1.00  0.00     0.338 C 
ATOM     35  O   UNL A   1      51.989  28.969  28.363  1.00  0.00    -0.246 OA
BRANCH  34  36
ATOM     36  C   UNL A   1      49.649  29.450  28.538  1.00  0.00     0.060 A 
ATOM     37  C   UNL A   1      48.544  28.747  28.030  1.00  0.00     0.016 A 
ATOM     38  C   UNL A   1      49.524  30.175  29.727  1.00  0.00     0.016 A 
ATOM     39  C   UNL A   1      47.309  28.805  28.683  1.00  0.00     0.010 A 
ATOM     40  C   UNL A   1      48.286  30.241  30.373  1.00  0.00     0.010 A 
ATOM     41  C   UNL A   1      47.163  29.587  29.836  1.00  0.00    -0.014 A 
BRANCH  41  42
ATOM     42  C   UNL A   1      45.813  29.921  30.356  1.00  0.00     0.031 A 
ATOM     43  C   UNL A   1      45.154  31.171  29.837  1.00  0.00     0.074 A 
ATOM     44  C   UNL A   1      45.191  29.172  31.284  1.00  0.00     0.049 A 
ATOM     45  N   UNL A   1      44.031  31.733  30.202  1.00  0.00    -0.248 NA
ATOM     46  C   UNL A   1      45.864  31.888  28.763  1.00  0.00     0.031 C 
ATOM     47  C   UNL A   1      45.701  27.930  31.858  1.00  0.00     0.029 A 
ATOM     48  N   UNL A   1      43.994  29.376  31.930  1.00  0.00    -0.354 N 
ATOM     49  C   UNL A   1      43.915  32.879  29.426  1.00  0.00     0.074 A 
ATOM     50  C   UNL A   1      45.083  32.940  28.576  1.00  0.00     0.031 C 
ATOM     51  C   UNL A   1      44.840  27.500  32.800  1.00  0.00     0.029 A 
ATOM     52  C   UNL A   1      43.734  28.451  32.916  1.00  0.00     0.049 A 
ATOM     53  H   UNL A   1      43.381  30.115  31.709  1.00  0.00     0.167 HD
ATOM     54  C   UNL A   1      42.921  33.797  29.408  1.00  0.00     0.034 A 
ATOM     55  C   UNL A   1      42.736  28.398  33.823  1.00  0.00     0.034 A 
ATOM     56  C   UNL A   1      41.753  33.743  30.241  1.00  0.00     0.049 A 
ATOM     57  C   UNL A   1      41.668  29.467  33.823  1.00  0.00     0.074 A 
ATOM     58  C   UNL A   1      40.682  34.617  30.274  1.00  0.00     0.029 A 
ATOM     59  N   UNL A   1      41.510  32.772  31.197  1.00  0.00    -0.354 N 
ATOM     60  N   UNL A   1      41.515  30.485  33.010  1.00  0.00    -0.248 NA
ATOM     61  C   UNL A   1      40.620  29.364  34.852  1.00  0.00     0.031 C 
ATOM     62  C   UNL A   1      39.799  34.185  31.269  1.00  0.00     0.029 A 
ATOM     63  C   UNL A   1      40.308  33.028  31.835  1.00  0.00     0.049 A 
ATOM     64  H   UNL A   1      42.104  32.011  31.396  1.00  0.00     0.167 HD
ATOM     65  C   UNL A   1      40.336  31.114  33.402  1.00  0.00     0.074 A 
ATOM     66  C   UNL A   1      39.806  30.357  34.516  1.00  0.00     0.031 C 
ATOM     67  C   UNL A   1      39.752  32.228  32.893  1.00  0.00     0.034 A 
BRANCH  54  68
ATOM     68  C   UNL A   1      43.046  34.933  28.431  1.00  0.00     0.023 A 
ATOM     69  C   UNL A   1      42.682  34.734  27.084  1.00  0.00     0.012 A 
ATOM     70  C   UNL A   1      43.479  36.204  28.853  1.00  0.00     0.148 A 
ATOM     71  C   UNL A   1      42.776  35.776  26.163  1.00  0.00     0.002 A 
ATOM     72  C   UNL A   1      43.529  37.249  27.940  1.00  0.00     0.091 A 
ATOM     73  F   UNL A   1      43.846  36.363  30.133  1.00  0.00    -0.205 F 
ATOM     74  C   UNL A   1      43.188  37.035  26.593  1.00  0.00     0.022 A 
BRANCH  72  75
ATOM     75  S   UNL A   1      43.976  38.923  28.411  1.00  0.00     0.127 S 
ATOM     76  O   UNL A   1      43.835  39.633  27.141  1.00  0.00    -0.237 OA
ATOM     77  O   UNL A   1      42.953  39.246  29.407  1.00  0.00    -0.237 OA
ATOM     78  O   UNL A   1      45.331  38.843  28.938  1.00  0.00    -0.744 OA
ENDBRANCH  72  75
ENDBRANCH  54  68
BRANCH  55  79
ATOM     79  C   UNL A   1      42.676  27.284  34.814  1.00  0.00     0.023 A 
ATOM     80  C   UNL A   1      41.706  26.273  34.663  1.00  0.00     0.012 A 
ATOM     81  C   UNL A   1      43.553  27.233  35.915  1.00  0.00     0.148 A 
ATOM     82  C   UNL A   1      41.588  25.251  35.607  1.00  0.00     0.002 A 
ATOM     83  C   UNL A   1      43.464  26.183  36.823  1.00  0.00     0.091 A 
ATOM     84  F   UNL A   1      44.452  28.217  36.057  1.00  0.00    -0.205 F 
ATOM     85  C   UNL A   1      42.472  25.201  36.681  1.00  0.00     0.022 A 
BRANCH  83  86
ATOM     86  S   UNL A   1      44.631  25.976  38.173  1.00  0.00     0.127 S 
ATOM     87  O   UNL A   1      43.833  26.387  39.324  1.00  0.00    -0.237 OA
ATOM     88  O   UNL A   1      44.920  24.544  38.103  1.00  0.00    -0.237 OA
ATOM     89  O   UNL A   1      45.762  26.834  37.847  1.00  0.00    -0.744 OA
ENDBRANCH  83  86
ENDBRANCH  55  79
BRANCH  67  90
ATOM     90  C   UNL A   1      38.440  32.681  33.483  1.00  0.00     0.023 A 
ATOM     91  C   UNL A   1      38.409  33.260  34.767  1.00  0.00     0.012 A 
ATOM     92  C   UNL A   1      37.257  32.635  32.716  1.00  0.00     0.148 A 
ATOM     93  C   UNL A   1      37.217  33.766  35.287  1.00  0.00     0.002 A 
ATOM     94  C   UNL A   1      36.085  33.184  33.222  1.00  0.00     0.091 A 
ATOM     95  F   UNL A   1      37.306  32.068  31.503  1.00  0.00    -0.205 F 
ATOM     96  C   UNL A   1      36.060  33.740  34.510  1.00  0.00     0.022 A 
BRANCH  94  97
ATOM     97  S   UNL A   1      34.571  33.285  32.258  1.00  0.00     0.127 S 
ATOM     98  O   UNL A   1      34.726  32.155  31.343  1.00  0.00    -0.237 OA
ATOM     99  O   UNL A   1      33.541  33.106  33.280  1.00  0.00    -0.237 OA
ATOM    100  O   UNL A   1      34.580  34.599  31.630  1.00  0.00    -0.744 OA
ENDBRANCH  94  97
ENDBRANCH  67  90
ENDBRANCH  41  42
ENDBRANCH  34  36
ENDBRANCH  33  34
ENDBRANCH  32  33
ENDBRANCH  31  32
ENDBRANCH  30  31
ENDBRANCH  29  30
ENDBRANCH   1  29
TORSDOF 26
ENDMDL
MODEL 3
REMARK VINA RESULT:      -6.8      5.219     11.275
REMARK SMILES CC(C)[NH2+][C@]1(C(=O)OCCOCCOCCOC(=O)c2ccc(-c3c4nc(c(-c5cccc(S(=O)(=O)[O-])c5F)c5ccc([nH]5)c(-c5cccc(S(=O)(=O)[O-])c5F)c5nc(c(-c6cccc(S(=O)(=O)[O-])c6F)c6ccc3[nH]6)C=C5)C=C4)cc2)CC[C@H](Oc2cccc(CO)c2)C1
REMARK SMILES IDX 12 1 11 2 10 3 9 4 8 5 6 6 7 7 5 8 83 9 95 10 84 11 85 12
REMARK SMILES IDX 4 13 2 16 1 17 3 18 86 19 87 20 88 21 94 22 89 23 91 24
REMARK SMILES IDX 90 25 92 26 93 27 13 29 14 30 15 31 16 32 17 33 18 34 19 35
REMARK SMILES IDX 20 36 21 37 82 38 22 39 81 40 23 41 24 42 25 43 75 44 26 45
REMARK SMILES IDX 80 46 74 47 76 48 27 49 79 50 73 51 72 52 28 54 60 55 40 56
REMARK SMILES IDX 59 57 41 58 44 59 58 60 77 61 42 62 43 63 57 65 78 66 45 67
REMARK SMILES IDX 29 68 30 69 38 70 31 71 33 72 39 73 32 74 34 75 35 76 36 77
REMARK SMILES IDX 37 78 61 79 62 80 70 81 63 82 65 83 71 84 64 85 66 86 67 87
REMARK SMILES IDX 68 88 69 89 46 90 47 91 55 92 48 93 50 94 56 95 49 96 51 97
REMARK SMILES IDX 52 98 53 99 54 100
REMARK H PARENT 4 14 4 15 93 28 76 53 44 64
REMARK Flexibility Score: inf
ROOT
ATOM      1  C   UNL A   1      33.317  32.206  27.548  1.00  0.00     0.188 C 
ENDROOT
BRANCH   1   2
ATOM      2  O   UNL A   1      34.315  31.199  27.457  1.00  0.00    -0.376 OA
BRANCH   2   3
ATOM      3  C   UNL A   1      33.881  29.849  27.597  1.00  0.00     0.202 C 
BRANCH   3   4
ATOM      4  C   UNL A   1      34.128  28.893  26.417  1.00  0.00     0.261 C 
BRANCH   4   5
ATOM      5  O   UNL A   1      32.945  28.379  25.756  1.00  0.00    -0.459 OA
BRANCH   5   6
ATOM      6  C   UNL A   1      33.031  28.334  24.402  1.00  0.00     0.368 C 
ATOM      7  O   UNL A   1      33.216  29.325  23.692  1.00  0.00    -0.245 OA
BRANCH   6   8
ATOM      8  C   UNL A   1      32.819  26.940  23.732  1.00  0.00     0.198 C 
ATOM      9  C   UNL A   1      32.999  27.152  22.222  1.00  0.00     0.085 C 
ATOM     10  C   UNL A   1      33.890  25.854  23.979  1.00  0.00     0.126 C 
ATOM     11  C   UNL A   1      33.211  25.771  21.625  1.00  0.00     0.052 C 
ATOM     12  C   UNL A   1      33.907  24.942  22.715  1.00  0.00     0.180 C 
BRANCH   8  13
ATOM     13  N   UNL A   1      31.481  26.541  24.244  1.00  0.00    -0.330 N 
ATOM     14  H   UNL A   1      31.305  27.135  25.056  1.00  0.00     0.347 HD
ATOM     15  H   UNL A   1      30.910  26.635  23.404  1.00  0.00     0.347 HD
BRANCH  13  16
ATOM     16  C   UNL A   1      31.152  25.187  24.662  1.00  0.00     0.176 C 
ATOM     17  C   UNL A   1      30.397  25.348  25.989  1.00  0.00     0.075 C 
ATOM     18  C   UNL A   1      30.244  24.447  23.677  1.00  0.00     0.075 C 
ENDBRANCH  13  16
ENDBRANCH   8  13
BRANCH  12  19
ATOM     19  O   UNL A   1      33.280  23.706  23.076  1.00  0.00    -0.490 OA
BRANCH  19  20
ATOM     20  C   UNL A   1      33.921  22.698  23.731  1.00  0.00     0.120 A 
ATOM     21  C   UNL A   1      35.258  22.647  24.109  1.00  0.00     0.046 A 
ATOM     22  C   UNL A   1      33.103  21.588  23.986  1.00  0.00     0.052 A 
ATOM     23  C   UNL A   1      35.791  21.468  24.646  1.00  0.00     0.004 A 
ATOM     24  C   UNL A   1      33.614  20.415  24.561  1.00  0.00    -0.019 A 
ATOM     25  C   UNL A   1      34.978  20.354  24.860  1.00  0.00     0.006 A 
BRANCH  24  26
ATOM     26  C   UNL A   1      32.719  19.233  24.813  1.00  0.00     0.191 C 
BRANCH  26  27
ATOM     27  O   UNL A   1      32.208  18.709  23.594  1.00  0.00    -0.392 OA
ATOM     28  H   UNL A   1      32.669  17.883  23.378  1.00  0.00     0.211 HD
ENDBRANCH  26  27
ENDBRANCH  24  26
ENDBRANCH  19  20
ENDBRANCH  12  19
ENDBRANCH   6   8
ENDBRANCH   5   6
ENDBRANCH   4   5
ENDBRANCH   3   4
ENDBRANCH   2   3
ENDBRANCH   1   2
BRANCH   1  29
ATOM     29  C   UNL A   1      33.774  33.572  28.072  1.00  0.00     0.188 C 
BRANCH  29  30
ATOM     30  O   UNL A   1      32.729  34.489  28.362  1.00  0.00    -0.376 OA
BRANCH  30  31
ATOM     31  C   UNL A   1      33.108  35.847  28.595  1.00  0.00     0.202 C 
BRANCH  31  32
ATOM     32  C   UNL A   1      32.973  36.343  30.049  1.00  0.00     0.261 C 
BRANCH  32  33
ATOM     33  O   UNL A   1      33.017  35.311  31.056  1.00  0.00    -0.460 OA
BRANCH  33  34
ATOM     34  C   UNL A   1      33.238  35.684  32.338  1.00  0.00     0.338 C 
ATOM     35  O   UNL A   1      32.488  36.340  33.041  1.00  0.00    -0.246 OA
BRANCH  34  36
ATOM     36  C   UNL A   1      34.414  34.930  32.847  1.00  0.00     0.060 A 
ATOM     37  C   UNL A   1      35.693  35.348  32.446  1.00  0.00     0.016 A 
ATOM     38  C   UNL A   1      34.282  33.886  33.768  1.00  0.00     0.016 A 
ATOM     39  C   UNL A   1      36.834  34.698  32.929  1.00  0.00     0.010 A 
ATOM     40  C   UNL A   1      35.422  33.229  34.242  1.00  0.00     0.010 A 
ATOM     41  C   UNL A   1      36.701  33.607  33.797  1.00  0.00    -0.014 A 
BRANCH  41  42
ATOM     42  C   UNL A   1      37.854  32.710  34.064  1.00  0.00     0.031 A 
ATOM     43  C   UNL A   1      38.725  33.025  35.251  1.00  0.00     0.074 A 
ATOM     44  C   UNL A   1      38.155  31.667  33.270  1.00  0.00     0.049 A 
ATOM     45  N   UNL A   1      39.839  32.461  35.639  1.00  0.00    -0.248 NA
ATOM     46  C   UNL A   1      38.277  34.131  36.116  1.00  0.00     0.031 C 
ATOM     47  C   UNL A   1      37.391  31.236  32.102  1.00  0.00     0.029 A 
ATOM     48  N   UNL A   1      39.219  30.795  33.318  1.00  0.00    -0.354 N 
ATOM     49  C   UNL A   1      40.240  33.160  36.771  1.00  0.00     0.074 A 
ATOM     50  C   UNL A   1      39.256  34.193  37.005  1.00  0.00     0.031 C 
ATOM     51  C   UNL A   1      38.030  30.202  31.522  1.00  0.00     0.029 A 
ATOM     52  C   UNL A   1      39.263  29.919  32.258  1.00  0.00     0.049 A 
ATOM     53  H   UNL A   1      39.886  30.798  34.043  1.00  0.00     0.167 HD
ATOM     54  C   UNL A   1      41.321  32.956  37.557  1.00  0.00     0.034 A 
ATOM     55  C   UNL A   1      40.204  29.017  31.909  1.00  0.00     0.034 A 
ATOM     56  C   UNL A   1      42.300  31.929  37.339  1.00  0.00     0.049 A 
ATOM     57  C   UNL A   1      41.434  28.847  32.770  1.00  0.00     0.074 A 
ATOM     58  C   UNL A   1      43.416  31.633  38.099  1.00  0.00     0.029 A 
ATOM     59  N   UNL A   1      42.288  31.040  36.278  1.00  0.00    -0.354 N 
ATOM     60  N   UNL A   1      41.744  29.442  33.897  1.00  0.00    -0.248 NA
ATOM     61  C   UNL A   1      42.432  27.862  32.323  1.00  0.00     0.031 C 
ATOM     62  C   UNL A   1      44.095  30.576  37.483  1.00  0.00     0.029 A 
ATOM     63  C   UNL A   1      43.384  30.199  36.356  1.00  0.00     0.049 A 
ATOM     64  H   UNL A   1      41.603  31.011  35.571  1.00  0.00     0.167 HD
ATOM     65  C   UNL A   1      42.946  28.874  34.312  1.00  0.00     0.074 A 
ATOM     66  C   UNL A   1      43.303  27.878  33.324  1.00  0.00     0.031 C 
ATOM     67  C   UNL A   1      43.694  29.161  35.407  1.00  0.00     0.034 A 
BRANCH  54  68
ATOM     68  C   UNL A   1      41.489  33.857  38.749  1.00  0.00     0.023 A 
ATOM     69  C   UNL A   1      42.227  35.051  38.619  1.00  0.00     0.012 A 
ATOM     70  C   UNL A   1      40.883  33.547  39.981  1.00  0.00     0.148 A 
ATOM     71  C   UNL A   1      42.384  35.909  39.706  1.00  0.00     0.002 A 
ATOM     72  C   UNL A   1      41.007  34.427  41.048  1.00  0.00     0.091 A 
ATOM     73  F   UNL A   1      40.210  32.392  40.090  1.00  0.00    -0.205 F 
ATOM     74  C   UNL A   1      41.766  35.603  40.915  1.00  0.00     0.022 A 
BRANCH  72  75
ATOM     75  S   UNL A   1      40.189  34.158  42.623  1.00  0.00     0.127 S 
ATOM     76  O   UNL A   1      40.373  35.453  43.275  1.00  0.00    -0.237 OA
ATOM     77  O   UNL A   1      38.814  33.873  42.211  1.00  0.00    -0.237 OA
ATOM     78  O   UNL A   1      40.879  33.038  43.247  1.00  0.00    -0.744 OA
ENDBRANCH  72  75
ENDBRANCH  54  68
BRANCH  55  79
ATOM     79  C   UNL A   1      40.028  28.178  30.687  1.00  0.00     0.023 A 
ATOM     80  C   UNL A   1      39.081  27.135  30.692  1.00  0.00     0.012 A 
ATOM     81  C   UNL A   1      40.808  28.390  29.533  1.00  0.00     0.148 A 
ATOM     82  C   UNL A   1      38.937  26.297  29.584  1.00  0.00     0.002 A 
ATOM     83  C   UNL A   1      40.623  27.585  28.414  1.00  0.00     0.091 A 
ATOM     84  F   UNL A   1      41.722  29.370  29.556  1.00  0.00    -0.205 F 
ATOM     85  C   UNL A   1      39.701  26.528  28.443  1.00  0.00     0.022 A 
BRANCH  83  86
ATOM     86  S   UNL A   1      41.482  27.879  26.864  1.00  0.00     0.127 S 
ATOM     87  O   UNL A   1      41.164  29.281  26.608  1.00  0.00    -0.237 OA
ATOM     88  O   UNL A   1      42.873  27.620  27.237  1.00  0.00    -0.237 OA
ATOM     89  O   UNL A   1      40.924  26.920  25.920  1.00  0.00    -0.744 OA
ENDBRANCH  83  86
ENDBRANCH  55  79
BRANCH  67  90
ATOM     90  C   UNL A   1      44.949  28.361  35.647  1.00  0.00     0.023 A 
ATOM     91  C   UNL A   1      44.889  27.163  36.386  1.00  0.00     0.012 A 
ATOM     92  C   UNL A   1      46.165  28.740  35.041  1.00  0.00     0.148 A 
ATOM     93  C   UNL A   1      46.025  26.367  36.537  1.00  0.00     0.002 A 
ATOM     94  C   UNL A   1      47.279  27.918  35.158  1.00  0.00     0.091 A 
ATOM     95  F   UNL A   1      46.204  29.890  34.354  1.00  0.00    -0.205 F 
ATOM     96  C   UNL A   1      47.214  26.737  35.913  1.00  0.00     0.022 A 
BRANCH  94  97
ATOM     97  S   UNL A   1      48.825  28.261  34.307  1.00  0.00     0.127 S 
ATOM     98  O   UNL A   1      49.650  27.126  34.719  1.00  0.00    -0.237 OA
ATOM     99  O   UNL A   1      48.416  28.241  32.903  1.00  0.00    -0.237 OA
ATOM    100  O   UNL A   1      49.271  29.561  34.790  1.00  0.00    -0.744 OA
ENDBRANCH  94  97
ENDBRANCH  67  90
ENDBRANCH  41  42
ENDBRANCH  34  36
ENDBRANCH  33  34
ENDBRANCH  32  33
ENDBRANCH  31  32
ENDBRANCH  30  31
ENDBRANCH  29  30
ENDBRANCH   1  29
TORSDOF 26
ENDMDL
