MODEL 1
REMARK VINA RESULT:      -9.7      0.000      0.000
REMARK SMILES COc1cccc(O[C@@H](F)C(=O)OCCOCCOCCOC(=O)c2ccc(-c3c4nc(c(-c5cccc(S(=O)(=O)[O-])c5F)c5ccc([nH]5)c(-c5cccc(S(=O)(=O)[O-])c5F)c5nc(c(-c6cccc(S(=O)(=O)[O-])c6F)c6ccc3[nH]6)C=C5)C=C4)cc2)c1
REMARK SMILES IDX 17 1 16 2 15 3 14 4 13 5 11 6 12 7 9 8 10 9 8 10 7 11 3 12
REMARK SMILES IDX 4 13 88 14 5 15 6 16 2 17 1 18 18 19 19 20 20 21 21 22 22 23
REMARK SMILES IDX 23 24 24 25 25 26 26 27 87 28 27 29 86 30 28 31 29 32 30 33
REMARK SMILES IDX 80 34 31 35 85 36 79 37 81 38 32 39 84 40 78 41 77 42 33 44
REMARK SMILES IDX 65 45 45 46 64 47 46 48 49 49 63 50 82 51 47 52 48 53 62 55
REMARK SMILES IDX 83 56 50 57 34 58 35 59 43 60 36 61 38 62 44 63 37 64 39 65
REMARK SMILES IDX 40 66 41 67 42 68 66 69 67 70 75 71 68 72 70 73 76 74 69 75
REMARK SMILES IDX 71 76 72 77 73 78 74 79 51 80 52 81 60 82 53 83 55 84 61 85
REMARK SMILES IDX 54 86 56 87 57 88 58 89 59 90
REMARK H PARENT 81 43 49 54
REMARK Flexibility Score: inf
ROOT
ATOM      1  C   UNL A   1      32.791  26.390  25.467  1.00  0.00     0.188 C 
ENDROOT
BRANCH   1   2
ATOM      2  O   UNL A   1      32.127  25.133  25.522  1.00  0.00    -0.376 OA
BRANCH   2   3
ATOM      3  C   UNL A   1      31.635  24.561  24.313  1.00  0.00     0.202 C 
BRANCH   3   4
ATOM      4  C   UNL A   1      32.452  23.441  23.647  1.00  0.00     0.261 C 
BRANCH   4   5
ATOM      5  O   UNL A   1      33.760  23.254  24.226  1.00  0.00    -0.458 OA
BRANCH   5   6
ATOM      6  C   UNL A   1      34.047  22.025  24.735  1.00  0.00     0.381 C 
ATOM      7  O   UNL A   1      35.130  21.466  24.583  1.00  0.00    -0.244 OA
BRANCH   6   8
ATOM      8  C   UNL A   1      32.873  21.388  25.553  1.00  0.00     0.461 C 
ATOM      9  F   UNL A   1      33.332  20.936  26.762  1.00  0.00    -0.189 F 
BRANCH   8  10
ATOM     10  O   UNL A   1      31.936  20.424  25.102  1.00  0.00    -0.450 OA
BRANCH  10  11
ATOM     11  C   UNL A   1      32.373  19.195  24.702  1.00  0.00     0.127 A 
ATOM     12  C   UNL A   1      33.503  17.083  25.017  1.00  0.00     0.122 A 
ATOM     13  C   UNL A   1      33.500  16.876  23.636  1.00  0.00     0.046 A 
ATOM     14  C   UNL A   1      32.886  18.217  25.548  1.00  0.00     0.093 A 
ATOM     15  C   UNL A   1      32.901  17.806  22.787  1.00  0.00     0.008 A 
ATOM     16  C   UNL A   1      32.346  18.967  23.322  1.00  0.00     0.047 A 
BRANCH  12  17
ATOM     17  O   UNL A   1      34.151  16.128  25.755  1.00  0.00    -0.497 OA
ATOM     18  C   UNL A   1      35.287  15.529  25.134  1.00  0.00     0.278 C 
ENDBRANCH  12  17
ENDBRANCH  10  11
ENDBRANCH   8  10
ENDBRANCH   6   8
ENDBRANCH   5   6
ENDBRANCH   4   5
ENDBRANCH   3   4
ENDBRANCH   2   3
ENDBRANCH   1   2
BRANCH   1  19
ATOM     19  C   UNL A   1      31.950  27.659  25.228  1.00  0.00     0.188 C 
BRANCH  19  20
ATOM     20  O   UNL A   1      32.548  28.841  25.711  1.00  0.00    -0.376 OA
BRANCH  20  21
ATOM     21  C   UNL A   1      31.968  30.074  25.322  1.00  0.00     0.202 C 
BRANCH  21  22
ATOM     22  C   UNL A   1      31.619  31.139  26.380  1.00  0.00     0.261 C 
BRANCH  22  23
ATOM     23  O   UNL A   1      32.489  31.254  27.519  1.00  0.00    -0.460 OA
BRANCH  23  24
ATOM     24  C   UNL A   1      33.423  32.232  27.501  1.00  0.00     0.338 C 
ATOM     25  O   UNL A   1      33.228  33.425  27.307  1.00  0.00    -0.246 OA
BRANCH  24  26
ATOM     26  C   UNL A   1      34.696  31.651  27.983  1.00  0.00     0.060 A 
ATOM     27  C   UNL A   1      34.788  30.264  28.177  1.00  0.00     0.016 A 
ATOM     28  C   UNL A   1      35.802  32.469  28.225  1.00  0.00     0.016 A 
ATOM     29  C   UNL A   1      35.981  29.695  28.632  1.00  0.00     0.010 A 
ATOM     30  C   UNL A   1      36.985  31.900  28.705  1.00  0.00     0.010 A 
ATOM     31  C   UNL A   1      37.074  30.515  28.939  1.00  0.00    -0.014 A 
BRANCH  31  32
ATOM     32  C   UNL A   1      38.239  29.964  29.676  1.00  0.00     0.031 A 
ATOM     33  C   UNL A   1      38.498  30.461  31.074  1.00  0.00     0.074 A 
ATOM     34  C   UNL A   1      39.064  29.058  29.119  1.00  0.00     0.049 A 
ATOM     35  N   UNL A   1      39.495  30.201  31.877  1.00  0.00    -0.248 NA
ATOM     36  C   UNL A   1      37.494  31.381  31.637  1.00  0.00     0.031 C 
ATOM     37  C   UNL A   1      38.916  28.482  27.784  1.00  0.00     0.029 A 
ATOM     38  N   UNL A   1      40.215  28.486  29.606  1.00  0.00    -0.354 N 
ATOM     39  C   UNL A   1      39.253  30.941  33.030  1.00  0.00     0.074 A 
ATOM     40  C   UNL A   1      38.026  31.675  32.814  1.00  0.00     0.031 C 
ATOM     41  C   UNL A   1      39.957  27.667  27.543  1.00  0.00     0.029 A 
ATOM     42  C   UNL A   1      40.862  27.687  28.691  1.00  0.00     0.049 A 
ATOM     43  H   UNL A   1      40.546  28.635  30.521  1.00  0.00     0.167 HD
ATOM     44  C   UNL A   1      39.978  30.994  34.172  1.00  0.00     0.034 A 
ATOM     45  C   UNL A   1      42.060  27.071  28.764  1.00  0.00     0.034 A 
ATOM     46  C   UNL A   1      41.196  30.263  34.389  1.00  0.00     0.049 A 
ATOM     47  C   UNL A   1      42.878  27.195  30.027  1.00  0.00     0.074 A 
ATOM     48  C   UNL A   1      41.995  30.239  35.518  1.00  0.00     0.029 A 
ATOM     49  N   UNL A   1      41.799  29.437  33.454  1.00  0.00    -0.354 N 
ATOM     50  N   UNL A   1      42.592  27.823  31.143  1.00  0.00    -0.248 NA
ATOM     51  C   UNL A   1      44.174  26.498  30.052  1.00  0.00     0.031 C 
ATOM     52  C   UNL A   1      43.097  29.420  35.255  1.00  0.00     0.029 A 
ATOM     53  C   UNL A   1      42.962  28.901  33.978  1.00  0.00     0.049 A 
ATOM     54  H   UNL A   1      41.451  29.257  32.551  1.00  0.00     0.167 HD
ATOM     55  C   UNL A   1      43.644  27.557  32.014  1.00  0.00     0.074 A 
ATOM     56  C   UNL A   1      44.566  26.696  31.303  1.00  0.00     0.031 C 
ATOM     57  C   UNL A   1      43.839  27.993  33.283  1.00  0.00     0.034 A 
BRANCH  44  58
ATOM     58  C   UNL A   1      39.455  31.858  35.291  1.00  0.00     0.023 A 
ATOM     59  C   UNL A   1      38.565  31.309  36.236  1.00  0.00     0.012 A 
ATOM     60  C   UNL A   1      39.884  33.192  35.439  1.00  0.00     0.148 A 
ATOM     61  C   UNL A   1      38.084  32.082  37.292  1.00  0.00     0.002 A 
ATOM     62  C   UNL A   1      39.438  33.941  36.520  1.00  0.00     0.091 A 
ATOM     63  F   UNL A   1      40.716  33.701  34.519  1.00  0.00    -0.205 F 
ATOM     64  C   UNL A   1      38.528  33.393  37.439  1.00  0.00     0.022 A 
BRANCH  62  65
ATOM     65  S   UNL A   1      40.009  35.611  36.846  1.00  0.00     0.127 S 
ATOM     66  O   UNL A   1      39.335  35.913  38.109  1.00  0.00    -0.237 OA
ATOM     67  O   UNL A   1      41.456  35.423  36.958  1.00  0.00    -0.237 OA
ATOM     68  O   UNL A   1      39.585  36.415  35.708  1.00  0.00    -0.744 OA
ENDBRANCH  62  65
ENDBRANCH  44  58
BRANCH  45  69
ATOM     69  C   UNL A   1      42.572  26.266  27.615  1.00  0.00     0.023 A 
ATOM     70  C   UNL A   1      43.413  26.870  26.660  1.00  0.00     0.012 A 
ATOM     71  C   UNL A   1      42.202  24.918  27.445  1.00  0.00     0.148 A 
ATOM     72  C   UNL A   1      43.836  26.164  25.533  1.00  0.00     0.002 A 
ATOM     73  C   UNL A   1      42.674  24.202  26.352  1.00  0.00     0.091 A 
ATOM     74  F   UNL A   1      41.386  24.363  28.352  1.00  0.00    -0.205 F 
ATOM     75  C   UNL A   1      43.474  24.828  25.383  1.00  0.00     0.022 A 
BRANCH  73  76
ATOM     76  S   UNL A   1      42.356  22.447  26.138  1.00  0.00     0.127 S 
ATOM     77  O   UNL A   1      40.901  22.419  26.016  1.00  0.00    -0.237 OA
ATOM     78  O   UNL A   1      43.084  22.158  24.902  1.00  0.00    -0.237 OA
ATOM     79  O   UNL A   1      42.905  21.802  27.323  1.00  0.00    -0.744 OA
ENDBRANCH  73  76
ENDBRANCH  45  69
BRANCH  57  80
ATOM     80  C   UNL A   1      45.057  27.498  34.021  1.00  0.00     0.023 A 
ATOM     81  C   UNL A   1      46.260  28.231  33.978  1.00  0.00     0.012 A 
ATOM     82  C   UNL A   1      44.984  26.337  34.818  1.00  0.00     0.148 A 
ATOM     83  C   UNL A   1      47.380  27.797  34.687  1.00  0.00     0.002 A 
ATOM     84  C   UNL A   1      46.087  25.941  35.564  1.00  0.00     0.091 A 
ATOM     85  F   UNL A   1      43.835  25.645  34.835  1.00  0.00    -0.205 F 
ATOM     86  C   UNL A   1      47.290  26.661  35.487  1.00  0.00     0.022 A 
BRANCH  84  87
ATOM     87  S   UNL A   1      46.036  24.550  36.700  1.00  0.00     0.127 S 
ATOM     88  O   UNL A   1      45.700  23.446  35.802  1.00  0.00    -0.237 OA
ATOM     89  O   UNL A   1      47.405  24.523  37.215  1.00  0.00    -0.237 OA
ATOM     90  O   UNL A   1      45.020  24.877  37.692  1.00  0.00    -0.744 OA
ENDBRANCH  84  87
ENDBRANCH  57  80
ENDBRANCH  31  32
ENDBRANCH  24  26
ENDBRANCH  23  24
ENDBRANCH  22  23
ENDBRANCH  21  22
ENDBRANCH  20  21
ENDBRANCH  19  20
ENDBRANCH   1  19
TORSDOF 23
ENDMDL
MODEL 2
REMARK VINA RESULT:      -8.9      5.572      9.037
REMARK SMILES COc1cccc(O[C@@H](F)C(=O)OCCOCCOCCOC(=O)c2ccc(-c3c4nc(c(-c5cccc(S(=O)(=O)[O-])c5F)c5ccc([nH]5)c(-c5cccc(S(=O)(=O)[O-])c5F)c5nc(c(-c6cccc(S(=O)(=O)[O-])c6F)c6ccc3[nH]6)C=C5)C=C4)cc2)c1
REMARK SMILES IDX 17 1 16 2 15 3 14 4 13 5 11 6 12 7 9 8 10 9 8 10 7 11 3 12
REMARK SMILES IDX 4 13 88 14 5 15 6 16 2 17 1 18 18 19 19 20 20 21 21 22 22 23
REMARK SMILES IDX 23 24 24 25 25 26 26 27 87 28 27 29 86 30 28 31 29 32 30 33
REMARK SMILES IDX 80 34 31 35 85 36 79 37 81 38 32 39 84 40 78 41 77 42 33 44
REMARK SMILES IDX 65 45 45 46 64 47 46 48 49 49 63 50 82 51 47 52 48 53 62 55
REMARK SMILES IDX 83 56 50 57 34 58 35 59 43 60 36 61 38 62 44 63 37 64 39 65
REMARK SMILES IDX 40 66 41 67 42 68 66 69 67 70 75 71 68 72 70 73 76 74 69 75
REMARK SMILES IDX 71 76 72 77 73 78 74 79 51 80 52 81 60 82 53 83 55 84 61 85
REMARK SMILES IDX 54 86 56 87 57 88 58 89 59 90
REMARK H PARENT 81 43 49 54
REMARK Flexibility Score: inf
ROOT
ATOM      1  C   UNL A   1      35.553  22.856  26.062  1.00  0.00     0.188 C 
ENDROOT
BRANCH   1   2
ATOM      2  O   UNL A   1      34.625  23.814  25.566  1.00  0.00    -0.376 OA
BRANCH   2   3
ATOM      3  C   UNL A   1      33.552  24.231  26.407  1.00  0.00     0.202 C 
BRANCH   3   4
ATOM      4  C   UNL A   1      32.112  23.929  25.960  1.00  0.00     0.261 C 
BRANCH   4   5
ATOM      5  O   UNL A   1      31.107  24.385  26.889  1.00  0.00    -0.458 OA
BRANCH   5   6
ATOM      6  C   UNL A   1      30.310  25.414  26.491  1.00  0.00     0.381 C 
ATOM      7  O   UNL A   1      29.084  25.351  26.472  1.00  0.00    -0.244 OA
BRANCH   6   8
ATOM      8  C   UNL A   1      31.099  26.701  26.073  1.00  0.00     0.461 C 
ATOM      9  F   UNL A   1      31.290  27.510  27.162  1.00  0.00    -0.189 F 
BRANCH   8  10
ATOM     10  O   UNL A   1      30.818  27.565  24.985  1.00  0.00    -0.450 OA
BRANCH  10  11
ATOM     11  C   UNL A   1      31.741  27.726  23.994  1.00  0.00     0.127 A 
ATOM     12  C   UNL A   1      33.170  26.944  22.211  1.00  0.00     0.122 A 
ATOM     13  C   UNL A   1      33.881  28.145  22.255  1.00  0.00     0.046 A 
ATOM     14  C   UNL A   1      32.065  26.764  23.043  1.00  0.00     0.093 A 
ATOM     15  C   UNL A   1      33.502  29.154  23.139  1.00  0.00     0.008 A 
ATOM     16  C   UNL A   1      32.438  28.938  24.013  1.00  0.00     0.047 A 
BRANCH  12  17
ATOM     17  O   UNL A   1      33.650  26.007  21.334  1.00  0.00    -0.497 OA
ATOM     18  C   UNL A   1      32.915  24.786  21.268  1.00  0.00     0.278 C 
ENDBRANCH  12  17
ENDBRANCH  10  11
ENDBRANCH   8  10
ENDBRANCH   6   8
ENDBRANCH   5   6
ENDBRANCH   4   5
ENDBRANCH   3   4
ENDBRANCH   2   3
ENDBRANCH   1   2
BRANCH   1  19
ATOM     19  C   UNL A   1      35.132  21.375  26.108  1.00  0.00     0.188 C 
BRANCH  19  20
ATOM     20  O   UNL A   1      35.918  20.530  25.298  1.00  0.00    -0.376 OA
BRANCH  20  21
ATOM     21  C   UNL A   1      37.164  21.029  24.847  1.00  0.00     0.202 C 
BRANCH  21  22
ATOM     22  C   UNL A   1      38.457  20.220  25.077  1.00  0.00     0.261 C 
BRANCH  22  23
ATOM     23  O   UNL A   1      39.285  20.595  26.191  1.00  0.00    -0.460 OA
BRANCH  23  24
ATOM     24  C   UNL A   1      40.563  20.154  26.200  1.00  0.00     0.338 C 
ATOM     25  O   UNL A   1      40.957  19.047  25.856  1.00  0.00    -0.246 OA
BRANCH  24  26
ATOM     26  C   UNL A   1      41.441  21.313  26.480  1.00  0.00     0.060 A 
ATOM     27  C   UNL A   1      41.787  21.606  27.808  1.00  0.00     0.016 A 
ATOM     28  C   UNL A   1      41.936  22.096  25.436  1.00  0.00     0.016 A 
ATOM     29  C   UNL A   1      42.614  22.696  28.096  1.00  0.00     0.010 A 
ATOM     30  C   UNL A   1      42.742  23.201  25.728  1.00  0.00     0.010 A 
ATOM     31  C   UNL A   1      43.062  23.524  27.060  1.00  0.00    -0.014 A 
BRANCH  31  32
ATOM     32  C   UNL A   1      43.704  24.828  27.368  1.00  0.00     0.031 A 
ATOM     33  C   UNL A   1      42.842  25.934  27.918  1.00  0.00     0.074 A 
ATOM     34  C   UNL A   1      45.015  25.039  27.152  1.00  0.00     0.049 A 
ATOM     35  N   UNL A   1      43.149  27.177  28.177  1.00  0.00    -0.248 NA
ATOM     36  C   UNL A   1      41.440  25.586  28.210  1.00  0.00     0.031 C 
ATOM     37  C   UNL A   1      45.962  24.049  26.642  1.00  0.00     0.029 A 
ATOM     38  N   UNL A   1      45.770  26.177  27.308  1.00  0.00    -0.354 N 
ATOM     39  C   UNL A   1      41.978  27.767  28.638  1.00  0.00     0.074 A 
ATOM     40  C   UNL A   1      40.949  26.751  28.606  1.00  0.00     0.031 C 
ATOM     41  C   UNL A   1      47.164  24.633  26.493  1.00  0.00     0.029 A 
ATOM     42  C   UNL A   1      47.066  26.043  26.864  1.00  0.00     0.049 A 
ATOM     43  H   UNL A   1      45.417  27.009  27.700  1.00  0.00     0.167 HD
ATOM     44  C   UNL A   1      41.778  29.036  29.066  1.00  0.00     0.034 A 
ATOM     45  C   UNL A   1      48.045  26.962  26.743  1.00  0.00     0.034 A 
ATOM     46  C   UNL A   1      42.800  30.046  29.102  1.00  0.00     0.049 A 
ATOM     47  C   UNL A   1      47.779  28.387  27.171  1.00  0.00     0.074 A 
ATOM     48  C   UNL A   1      42.700  31.356  29.532  1.00  0.00     0.029 A 
ATOM     49  N   UNL A   1      44.107  29.863  28.679  1.00  0.00    -0.354 N 
ATOM     50  N   UNL A   1      46.693  28.907  27.692  1.00  0.00    -0.248 NA
ATOM     51  C   UNL A   1      48.886  29.344  27.022  1.00  0.00     0.031 C 
ATOM     52  C   UNL A   1      43.940  31.974  29.344  1.00  0.00     0.029 A 
ATOM     53  C   UNL A   1      44.822  31.036  28.834  1.00  0.00     0.049 A 
ATOM     54  H   UNL A   1      44.472  29.021  28.321  1.00  0.00     0.167 HD
ATOM     55  C   UNL A   1      47.002  30.233  27.976  1.00  0.00     0.074 A 
ATOM     56  C   UNL A   1      48.382  30.433  27.586  1.00  0.00     0.031 C 
ATOM     57  C   UNL A   1      46.214  31.204  28.502  1.00  0.00     0.034 A 
BRANCH  44  58
ATOM     58  C   UNL A   1      40.399  29.397  29.557  1.00  0.00     0.023 A 
ATOM     59  C   UNL A   1      39.500  30.045  28.686  1.00  0.00     0.012 A 
ATOM     60  C   UNL A   1      39.976  29.049  30.854  1.00  0.00     0.148 A 
ATOM     61  C   UNL A   1      38.211  30.371  29.108  1.00  0.00     0.002 A 
ATOM     62  C   UNL A   1      38.675  29.335  31.252  1.00  0.00     0.091 A 
ATOM     63  F   UNL A   1      40.853  28.452  31.673  1.00  0.00    -0.205 F 
ATOM     64  C   UNL A   1      37.797  30.007  30.386  1.00  0.00     0.022 A 
BRANCH  62  65
ATOM     65  S   UNL A   1      38.017  28.839  32.847  1.00  0.00     0.127 S 
ATOM     66  O   UNL A   1      38.868  29.594  33.765  1.00  0.00    -0.237 OA
ATOM     67  O   UNL A   1      36.635  29.312  32.768  1.00  0.00    -0.237 OA
ATOM     68  O   UNL A   1      38.164  27.391  32.914  1.00  0.00    -0.744 OA
ENDBRANCH  62  65
ENDBRANCH  44  58
BRANCH  45  69
ATOM     69  C   UNL A   1      49.384  26.581  26.203  1.00  0.00     0.023 A 
ATOM     70  C   UNL A   1      50.234  25.756  26.965  1.00  0.00     0.012 A 
ATOM     71  C   UNL A   1      49.834  27.060  24.957  1.00  0.00     0.148 A 
ATOM     72  C   UNL A   1      51.522  25.454  26.522  1.00  0.00     0.002 A 
ATOM     73  C   UNL A   1      51.095  26.708  24.493  1.00  0.00     0.091 A 
ATOM     74  F   UNL A   1      49.020  27.859  24.253  1.00  0.00    -0.205 F 
ATOM     75  C   UNL A   1      51.949  25.923  25.283  1.00  0.00     0.022 A 
BRANCH  73  76
ATOM     76  S   UNL A   1      51.685  27.168  22.860  1.00  0.00     0.127 S 
ATOM     77  O   UNL A   1      50.817  26.375  21.994  1.00  0.00    -0.237 OA
ATOM     78  O   UNL A   1      51.426  28.608  22.841  1.00  0.00    -0.237 OA
ATOM     79  O   UNL A   1      53.097  26.812  22.839  1.00  0.00    -0.744 OA
ENDBRANCH  73  76
ENDBRANCH  45  69
BRANCH  57  80
ATOM     80  C   UNL A   1      46.833  32.556  28.755  1.00  0.00     0.023 A 
ATOM     81  C   UNL A   1      47.741  32.734  29.818  1.00  0.00     0.012 A 
ATOM     82  C   UNL A   1      46.566  33.635  27.887  1.00  0.00     0.148 A 
ATOM     83  C   UNL A   1      48.343  33.973  30.035  1.00  0.00     0.002 A 
ATOM     84  C   UNL A   1      47.211  34.851  28.078  1.00  0.00     0.091 A 
ATOM     85  F   UNL A   1      45.689  33.451  26.889  1.00  0.00    -0.205 F 
ATOM     86  C   UNL A   1      48.087  35.026  29.160  1.00  0.00     0.022 A 
BRANCH  84  87
ATOM     87  S   UNL A   1      47.023  36.232  26.944  1.00  0.00     0.127 S 
ATOM     88  O   UNL A   1      47.996  37.187  27.475  1.00  0.00    -0.237 OA
ATOM     89  O   UNL A   1      47.394  35.632  25.663  1.00  0.00    -0.237 OA
ATOM     90  O   UNL A   1      45.629  36.646  27.040  1.00  0.00    -0.744 OA
ENDBRANCH  84  87
ENDBRANCH  57  80
ENDBRANCH  31  32
ENDBRANCH  24  26
ENDBRANCH  23  24
ENDBRANCH  22  23
ENDBRANCH  21  22
ENDBRANCH  20  21
ENDBRANCH  19  20
ENDBRANCH   1  19
TORSDOF 23
ENDMDL
MODEL 3
REMARK VINA RESULT:      -8.9      3.408      5.037
REMARK SMILES COc1cccc(O[C@@H](F)C(=O)OCCOCCOCCOC(=O)c2ccc(-c3c4nc(c(-c5cccc(S(=O)(=O)[O-])c5F)c5ccc([nH]5)c(-c5cccc(S(=O)(=O)[O-])c5F)c5nc(c(-c6cccc(S(=O)(=O)[O-])c6F)c6ccc3[nH]6)C=C5)C=C4)cc2)c1
REMARK SMILES IDX 17 1 16 2 15 3 14 4 13 5 11 6 12 7 9 8 10 9 8 10 7 11 3 12
REMARK SMILES IDX 4 13 88 14 5 15 6 16 2 17 1 18 18 19 19 20 20 21 21 22 22 23
REMARK SMILES IDX 23 24 24 25 25 26 26 27 87 28 27 29 86 30 28 31 29 32 30 33
REMARK SMILES IDX 80 34 31 35 85 36 79 37 81 38 32 39 84 40 78 41 77 42 33 44
REMARK SMILES IDX 65 45 45 46 64 47 46 48 49 49 63 50 82 51 47 52 48 53 62 55
REMARK SMILES IDX 83 56 50 57 34 58 35 59 43 60 36 61 38 62 44 63 37 64 39 65
REMARK SMILES IDX 40 66 41 67 42 68 66 69 67 70 75 71 68 72 70 73 76 74 69 75
REMARK SMILES IDX 71 76 72 77 73 78 74 79 51 80 52 81 60 82 53 83 55 84 61 85
REMARK SMILES IDX 54 86 56 87 57 88 58 89 59 90
REMARK H PARENT 81 43 49 54
REMARK Flexibility Score: inf
ROOT
ATOM      1  C   UNL A   1      33.408  25.125  25.697  1.00  0.00     0.188 C 
ENDROOT
BRANCH   1   2
ATOM      2  O   UNL A   1      32.774  23.876  25.954  1.00  0.00    -0.376 OA
BRANCH   2   3
ATOM      3  C   UNL A   1      31.390  23.733  25.649  1.00  0.00     0.202 C 
BRANCH   3   4
ATOM      4  C   UNL A   1      30.929  23.988  24.204  1.00  0.00     0.261 C 
BRANCH   4   5
ATOM      5  O   UNL A   1      31.863  23.526  23.206  1.00  0.00    -0.458 OA
BRANCH   5   6
ATOM      6  C   UNL A   1      32.523  24.473  22.484  1.00  0.00     0.381 C 
ATOM      7  O   UNL A   1      33.694  24.360  22.133  1.00  0.00    -0.244 OA
BRANCH   6   8
ATOM      8  C   UNL A   1      31.647  25.720  22.123  1.00  0.00     0.461 C 
ATOM      9  F   UNL A   1      31.751  25.997  20.785  1.00  0.00    -0.189 F 
BRANCH   8  10
ATOM     10  O   UNL A   1      31.624  26.974  22.784  1.00  0.00    -0.450 OA
BRANCH  10  11
ATOM     11  C   UNL A   1      30.512  27.759  22.704  1.00  0.00     0.127 A 
ATOM     12  C   UNL A   1      29.347  29.844  22.339  1.00  0.00     0.122 A 
ATOM     13  C   UNL A   1      28.201  29.306  22.927  1.00  0.00     0.046 A 
ATOM     14  C   UNL A   1      30.481  29.046  22.178  1.00  0.00     0.093 A 
ATOM     15  C   UNL A   1      28.193  27.983  23.370  1.00  0.00     0.008 A 
ATOM     16  C   UNL A   1      29.351  27.216  23.265  1.00  0.00     0.047 A 
BRANCH  12  17
ATOM     17  O   UNL A   1      29.260  31.162  21.974  1.00  0.00    -0.497 OA
ATOM     18  C   UNL A   1      28.241  31.919  22.625  1.00  0.00     0.278 C 
ENDBRANCH  12  17
ENDBRANCH  10  11
ENDBRANCH   8  10
ENDBRANCH   6   8
ENDBRANCH   5   6
ENDBRANCH   4   5
ENDBRANCH   3   4
ENDBRANCH   2   3
ENDBRANCH   1   2
BRANCH   1  19
ATOM     19  C   UNL A   1      32.675  26.420  26.095  1.00  0.00     0.188 C 
BRANCH  19  20
ATOM     20  O   UNL A   1      33.510  27.553  26.165  1.00  0.00    -0.376 OA
BRANCH  20  21
ATOM     21  C   UNL A   1      33.098  28.715  25.467  1.00  0.00     0.202 C 
BRANCH  21  22
ATOM     22  C   UNL A   1      32.287  29.810  26.187  1.00  0.00     0.261 C 
BRANCH  22  23
ATOM     23  O   UNL A   1      32.770  30.263  27.463  1.00  0.00    -0.460 OA
BRANCH  23  24
ATOM     24  C   UNL A   1      33.475  31.416  27.495  1.00  0.00     0.338 C 
ATOM     25  O   UNL A   1      33.029  32.549  27.367  1.00  0.00    -0.246 OA
BRANCH  24  26
ATOM     26  C   UNL A   1      34.849  31.095  27.941  1.00  0.00     0.060 A 
ATOM     27  C   UNL A   1      35.162  29.776  28.305  1.00  0.00     0.016 A 
ATOM     28  C   UNL A   1      35.832  32.087  27.983  1.00  0.00     0.016 A 
ATOM     29  C   UNL A   1      36.454  29.451  28.730  1.00  0.00     0.010 A 
ATOM     30  C   UNL A   1      37.115  31.764  28.433  1.00  0.00     0.010 A 
ATOM     31  C   UNL A   1      37.427  30.452  28.836  1.00  0.00    -0.014 A 
BRANCH  31  32
ATOM     32  C   UNL A   1      38.706  30.180  29.539  1.00  0.00     0.031 A 
ATOM     33  C   UNL A   1      38.914  30.789  30.901  1.00  0.00     0.074 A 
ATOM     34  C   UNL A   1      39.673  29.428  28.983  1.00  0.00     0.049 A 
ATOM     35  N   UNL A   1      39.973  30.772  31.666  1.00  0.00    -0.248 NA
ATOM     36  C   UNL A   1      37.769  31.520  31.472  1.00  0.00     0.031 C 
ATOM     37  C   UNL A   1      39.592  28.767  27.681  1.00  0.00     0.029 A 
ATOM     38  N   UNL A   1      40.933  29.120  29.437  1.00  0.00    -0.354 N 
ATOM     39  C   UNL A   1      39.633  31.508  32.796  1.00  0.00     0.074 A 
ATOM     40  C   UNL A   1      38.277  31.973  32.609  1.00  0.00     0.031 C 
ATOM     41  C   UNL A   1      40.765  28.161  27.426  1.00  0.00     0.029 A 
ATOM     42  C   UNL A   1      41.690  28.418  28.527  1.00  0.00     0.049 A 
ATOM     43  H   UNL A   1      41.262  29.377  30.329  1.00  0.00     0.167 HD
ATOM     44  C   UNL A   1      40.376  31.760  33.900  1.00  0.00     0.034 A 
ATOM     45  C   UNL A   1      42.989  28.056  28.569  1.00  0.00     0.034 A 
ATOM     46  C   UNL A   1      41.723  31.297  34.089  1.00  0.00     0.049 A 
ATOM     47  C   UNL A   1      43.814  28.403  29.786  1.00  0.00     0.074 A 
ATOM     48  C   UNL A   1      42.553  31.488  35.178  1.00  0.00     0.029 A 
ATOM     49  N   UNL A   1      42.442  30.560  33.162  1.00  0.00    -0.354 N 
ATOM     50  N   UNL A   1      43.452  29.019  30.886  1.00  0.00    -0.248 NA
ATOM     51  C   UNL A   1      45.223  27.977  29.778  1.00  0.00     0.031 C 
ATOM     52  C   UNL A   1      43.786  30.891  34.898  1.00  0.00     0.029 A 
ATOM     53  C   UNL A   1      43.708  30.292  33.652  1.00  0.00     0.049 A 
ATOM     54  H   UNL A   1      42.103  30.269  32.285  1.00  0.00     0.167 HD
ATOM     55  C   UNL A   1      44.568  29.010  31.716  1.00  0.00     0.074 A 
ATOM     56  C   UNL A   1      45.615  28.313  30.999  1.00  0.00     0.031 C 
ATOM     57  C   UNL A   1      44.720  29.540  32.955  1.00  0.00     0.034 A 
BRANCH  44  58
ATOM     58  C   UNL A   1      39.734  32.561  35.004  1.00  0.00     0.023 A 
ATOM     59  C   UNL A   1      39.741  33.969  34.937  1.00  0.00     0.012 A 
ATOM     60  C   UNL A   1      39.078  31.923  36.076  1.00  0.00     0.148 A 
ATOM     61  C   UNL A   1      39.136  34.731  35.935  1.00  0.00     0.002 A 
ATOM     62  C   UNL A   1      38.436  32.689  37.042  1.00  0.00     0.091 A 
ATOM     63  F   UNL A   1      39.100  30.584  36.131  1.00  0.00    -0.205 F 
ATOM     64  C   UNL A   1      38.475  34.091  36.980  1.00  0.00     0.022 A 
BRANCH  62  65
ATOM     65  S   UNL A   1      37.491  31.964  38.385  1.00  0.00     0.127 S 
ATOM     66  O   UNL A   1      37.324  30.588  37.919  1.00  0.00    -0.237 OA
ATOM     67  O   UNL A   1      38.403  32.117  39.518  1.00  0.00    -0.237 OA
ATOM     68  O   UNL A   1      36.262  32.740  38.481  1.00  0.00    -0.744 OA
ENDBRANCH  62  65
ENDBRANCH  44  58
BRANCH  45  69
ATOM     69  C   UNL A   1      43.607  27.310  27.433  1.00  0.00     0.023 A 
ATOM     70  C   UNL A   1      44.298  28.017  26.429  1.00  0.00     0.012 A 
ATOM     71  C   UNL A   1      43.483  25.912  27.321  1.00  0.00     0.148 A 
ATOM     72  C   UNL A   1      44.811  27.353  25.313  1.00  0.00     0.002 A 
ATOM     73  C   UNL A   1      44.047  25.249  26.239  1.00  0.00     0.091 A 
ATOM     74  F   UNL A   1      42.806  25.257  28.275  1.00  0.00    -0.205 F 
ATOM     75  C   UNL A   1      44.693  25.969  25.222  1.00  0.00     0.022 A 
BRANCH  73  76
ATOM     76  S   UNL A   1      44.046  23.458  26.097  1.00  0.00     0.127 S 
ATOM     77  O   UNL A   1      44.958  23.247  24.975  1.00  0.00    -0.237 OA
ATOM     78  O   UNL A   1      44.570  23.053  27.401  1.00  0.00    -0.237 OA
ATOM     79  O   UNL A   1      42.658  23.084  25.864  1.00  0.00    -0.744 OA
ENDBRANCH  73  76
ENDBRANCH  45  69
BRANCH  57  80
ATOM     80  C   UNL A   1      46.041  29.334  33.654  1.00  0.00     0.023 A 
ATOM     81  C   UNL A   1      46.243  28.204  34.472  1.00  0.00     0.012 A 
ATOM     82  C   UNL A   1      47.109  30.229  33.438  1.00  0.00     0.148 A 
ATOM     83  C   UNL A   1      47.473  27.990  35.093  1.00  0.00     0.002 A 
ATOM     84  C   UNL A   1      48.347  29.980  34.016  1.00  0.00     0.091 A 
ATOM     85  F   UNL A   1      46.894  31.306  32.667  1.00  0.00    -0.205 F 
ATOM     86  C   UNL A   1      48.526  28.870  34.856  1.00  0.00     0.022 A 
BRANCH  84  87
ATOM     87  S   UNL A   1      49.789  31.000  33.688  1.00  0.00     0.127 S 
ATOM     88  O   UNL A   1      49.262  31.955  32.714  1.00  0.00    -0.237 OA
ATOM     89  O   UNL A   1      50.072  31.566  35.007  1.00  0.00    -0.237 OA
ATOM     90  O   UNL A   1      50.815  30.097  33.182  1.00  0.00    -0.744 OA
ENDBRANCH  84  87
ENDBRANCH  57  80
ENDBRANCH  31  32
ENDBRANCH  24  26
ENDBRANCH  23  24
ENDBRANCH  22  23
ENDBRANCH  21  22
ENDBRANCH  20  21
ENDBRANCH  19  20
ENDBRANCH   1  19
TORSDOF 23
ENDMDL
