MODEL 1
REMARK VINA RESULT:      -9.7      0.000      0.000
REMARK SMILES Cc1ccc(Oc2ccc(NC(=O)CCCC(=O)OCCOCCOCCOC(=O)c3ccc(-c4c5nc(c(-c6cccc(S(=O)(=O)[O-])c6F)c6ccc([nH]6)c(-c6cccc(S(=O)(=O)[O-])c6F)c6nc(c(-c7cccc(S(=O)(=O)[O-])c7F)c7ccc4[nH]7)C=C6)C=C5)cc3)cc2)cc1C
REMARK SMILES IDX 22 1 21 2 20 3 19 4 17 5 18 6 16 7 15 8 14 9 12 10 11 11
REMARK SMILES IDX 13 13 10 14 7 15 8 16 95 17 9 18 94 19 6 20 5 21 1 22 2 23
REMARK SMILES IDX 3 24 97 25 4 26 96 27 98 28 23 29 24 30 25 31 26 32 27 33
REMARK SMILES IDX 28 34 29 35 30 36 31 37 32 38 93 39 33 40 92 41 34 42 35 43
REMARK SMILES IDX 36 44 86 45 37 46 91 47 85 48 87 49 38 50 90 51 84 52 83 53
REMARK SMILES IDX 39 55 71 56 51 57 70 58 52 59 55 60 69 61 88 62 53 63 54 64
REMARK SMILES IDX 68 66 89 67 56 68 40 69 41 70 49 71 42 72 44 73 50 74 43 75
REMARK SMILES IDX 45 76 46 77 47 78 48 79 72 80 73 81 81 82 74 83 76 84 82 85
REMARK SMILES IDX 75 86 77 87 78 88 79 89 80 90 57 91 58 92 66 93 59 94 61 95
REMARK SMILES IDX 67 96 60 97 62 98 63 99 64 100 65 101
REMARK H PARENT 11 12 87 54 55 65
REMARK Flexibility Score: inf
ROOT
ATOM      1  O   UNL A   1      31.104  26.355  26.517  1.00  0.00    -0.376 OA
ENDROOT
BRANCH   1   2
ATOM      2  C   UNL A   1      29.937  25.761  25.971  1.00  0.00     0.202 C 
BRANCH   2   3
ATOM      3  C   UNL A   1      30.087  25.406  24.499  1.00  0.00     0.261 C 
BRANCH   3   4
ATOM      4  O   UNL A   1      29.721  26.385  23.500  1.00  0.00    -0.463 OA
BRANCH   4   5
ATOM      5  C   UNL A   1      30.588  27.132  22.777  1.00  0.00     0.305 C 
ATOM      6  O   UNL A   1      30.704  28.346  22.843  1.00  0.00    -0.252 OA
BRANCH   5   7
ATOM      7  C   UNL A   1      31.452  26.274  21.867  1.00  0.00     0.123 C 
BRANCH   7   8
ATOM      8  C   UNL A   1      32.593  25.478  22.513  1.00  0.00     0.022 C 
BRANCH   8   9
ATOM      9  C   UNL A   1      33.896  26.216  22.853  1.00  0.00     0.101 C 
BRANCH   9  10
ATOM     10  C   UNL A   1      33.889  26.959  24.175  1.00  0.00     0.224 C 
ATOM     11  N   UNL A   1      34.151  26.354  25.369  1.00  0.00    -0.326 N 
ATOM     12  H   UNL A   1      34.270  26.984  26.116  1.00  0.00     0.169 HD
ATOM     13  O   UNL A   1      33.721  28.184  24.180  1.00  0.00    -0.275 OA
BRANCH  11  14
ATOM     14  C   UNL A   1      34.283  25.009  25.740  1.00  0.00     0.041 A 
ATOM     15  C   UNL A   1      34.548  22.224  26.045  1.00  0.00     0.127 A 
ATOM     16  C   UNL A   1      33.418  22.887  26.520  1.00  0.00     0.049 A 
ATOM     17  C   UNL A   1      35.595  22.977  25.521  1.00  0.00     0.049 A 
ATOM     18  C   UNL A   1      33.291  24.278  26.382  1.00  0.00     0.030 A 
ATOM     19  C   UNL A   1      35.479  24.367  25.401  1.00  0.00     0.030 A 
BRANCH  15  20
ATOM     20  O   UNL A   1      34.647  20.861  25.907  1.00  0.00    -0.457 OA
BRANCH  20  21
ATOM     21  C   UNL A   1      34.052  20.191  24.862  1.00  0.00     0.127 A 
ATOM     22  C   UNL A   1      31.892  17.706  22.072  1.00  0.00     0.044 C 
ATOM     23  C   UNL A   1      32.723  18.557  22.991  1.00  0.00    -0.048 A 
ATOM     24  C   UNL A   1      32.393  19.913  23.131  1.00  0.00     0.007 A 
ATOM     25  C   UNL A   1      33.765  18.018  23.772  1.00  0.00    -0.045 A 
ATOM     26  C   UNL A   1      33.033  20.716  24.074  1.00  0.00     0.047 A 
ATOM     27  C   UNL A   1      34.430  18.854  24.691  1.00  0.00     0.050 A 
ATOM     28  C   UNL A   1      34.209  16.581  23.664  1.00  0.00     0.045 C 
ENDBRANCH  20  21
ENDBRANCH  15  20
ENDBRANCH  11  14
ENDBRANCH   9  10
ENDBRANCH   8   9
ENDBRANCH   7   8
ENDBRANCH   5   7
ENDBRANCH   4   5
ENDBRANCH   3   4
ENDBRANCH   2   3
ENDBRANCH   1   2
BRANCH   1  29
ATOM     29  C   UNL A   1      31.090  27.775  26.571  1.00  0.00     0.188 C 
BRANCH  29  30
ATOM     30  C   UNL A   1      32.095  28.397  27.565  1.00  0.00     0.188 C 
BRANCH  30  31
ATOM     31  O   UNL A   1      33.095  29.296  27.112  1.00  0.00    -0.376 OA
BRANCH  31  32
ATOM     32  C   UNL A   1      32.755  30.672  27.037  1.00  0.00     0.202 C 
BRANCH  32  33
ATOM     33  C   UNL A   1      33.697  31.705  27.684  1.00  0.00     0.261 C 
BRANCH  33  34
ATOM     34  O   UNL A   1      33.361  33.085  27.442  1.00  0.00    -0.460 OA
BRANCH  34  35
ATOM     35  C   UNL A   1      33.455  33.930  28.504  1.00  0.00     0.338 C 
ATOM     36  O   UNL A   1      32.596  34.707  28.892  1.00  0.00    -0.246 OA
BRANCH  35  37
ATOM     37  C   UNL A   1      34.654  33.575  29.315  1.00  0.00     0.060 A 
ATOM     38  C   UNL A   1      35.883  34.184  28.996  1.00  0.00     0.016 A 
ATOM     39  C   UNL A   1      34.575  32.703  30.400  1.00  0.00     0.016 A 
ATOM     40  C   UNL A   1      37.027  33.930  29.755  1.00  0.00     0.010 A 
ATOM     41  C   UNL A   1      35.735  32.403  31.125  1.00  0.00     0.010 A 
ATOM     42  C   UNL A   1      36.970  32.995  30.791  1.00  0.00    -0.014 A 
BRANCH  42  43
ATOM     43  C   UNL A   1      38.223  32.432  31.352  1.00  0.00     0.031 A 
ATOM     44  C   UNL A   1      38.908  31.347  30.566  1.00  0.00     0.074 A 
ATOM     45  C   UNL A   1      38.723  32.819  32.538  1.00  0.00     0.049 A 
ATOM     46  N   UNL A   1      39.916  30.586  30.900  1.00  0.00    -0.248 NA
ATOM     47  C   UNL A   1      38.371  31.081  29.221  1.00  0.00     0.031 C 
ATOM     48  C   UNL A   1      38.182  33.880  33.382  1.00  0.00     0.029 A 
ATOM     49  N   UNL A   1      39.781  32.317  33.259  1.00  0.00    -0.354 N 
ATOM     50  C   UNL A   1      40.100  29.718  29.833  1.00  0.00     0.074 A 
ATOM     51  C   UNL A   1      39.110  30.054  28.834  1.00  0.00     0.031 C 
ATOM     52  C   UNL A   1      38.874  33.910  34.535  1.00  0.00     0.029 A 
ATOM     53  C   UNL A   1      39.879  32.847  34.525  1.00  0.00     0.049 A 
ATOM     54  H   UNL A   1      40.408  31.645  32.904  1.00  0.00     0.167 HD
ATOM     55  C   UNL A   1      41.008  28.725  29.694  1.00  0.00     0.034 A 
ATOM     56  C   UNL A   1      40.650  32.479  35.569  1.00  0.00     0.034 A 
ATOM     57  C   UNL A   1      42.000  28.397  30.677  1.00  0.00     0.049 A 
ATOM     58  C   UNL A   1      41.626  31.337  35.412  1.00  0.00     0.074 A 
ATOM     59  C   UNL A   1      43.008  27.452  30.598  1.00  0.00     0.029 A 
ATOM     60  N   UNL A   1      42.092  28.978  31.931  1.00  0.00    -0.354 N 
ATOM     61  N   UNL A   1      41.878  30.603  34.355  1.00  0.00    -0.248 NA
ATOM     62  C   UNL A   1      42.436  30.983  36.588  1.00  0.00     0.031 C 
ATOM     63  C   UNL A   1      43.685  27.436  31.822  1.00  0.00     0.029 A 
ATOM     64  C   UNL A   1      43.119  28.392  32.651  1.00  0.00     0.049 A 
ATOM     65  H   UNL A   1      41.512  29.703  32.261  1.00  0.00     0.167 HD
ATOM     66  C   UNL A   1      42.883  29.715  34.731  1.00  0.00     0.074 A 
ATOM     67  C   UNL A   1      43.214  30.022  36.107  1.00  0.00     0.031 C 
ATOM     68  C   UNL A   1      43.466  28.726  34.009  1.00  0.00     0.034 A 
BRANCH  55  69
ATOM     69  C   UNL A   1      40.955  27.914  28.427  1.00  0.00     0.023 A 
ATOM     70  C   UNL A   1      41.576  28.395  27.257  1.00  0.00     0.012 A 
ATOM     71  C   UNL A   1      40.307  26.664  28.407  1.00  0.00     0.148 A 
ATOM     72  C   UNL A   1      41.521  27.658  26.073  1.00  0.00     0.002 A 
ATOM     73  C   UNL A   1      40.297  25.915  27.237  1.00  0.00     0.091 A 
ATOM     74  F   UNL A   1      39.696  26.241  29.522  1.00  0.00    -0.205 F 
ATOM     75  C   UNL A   1      40.892  26.416  26.066  1.00  0.00     0.022 A 
BRANCH  73  76
ATOM     76  S   UNL A   1      39.579  24.272  27.150  1.00  0.00     0.127 S 
ATOM     77  O   UNL A   1      39.715  23.966  25.727  1.00  0.00    -0.237 OA
ATOM     78  O   UNL A   1      40.463  23.503  28.026  1.00  0.00    -0.237 OA
ATOM     79  O   UNL A   1      38.212  24.406  27.635  1.00  0.00    -0.744 OA
ENDBRANCH  73  76
ENDBRANCH  55  69
BRANCH  56  80
ATOM     80  C   UNL A   1      40.519  33.194  36.871  1.00  0.00     0.023 A 
ATOM     81  C   UNL A   1      39.529  32.797  37.789  1.00  0.00     0.012 A 
ATOM     82  C   UNL A   1      41.389  34.249  37.214  1.00  0.00     0.148 A 
ATOM     83  C   UNL A   1      39.396  33.446  39.018  1.00  0.00     0.002 A 
ATOM     84  C   UNL A   1      41.289  34.854  38.462  1.00  0.00     0.091 A 
ATOM     85  F   UNL A   1      42.309  34.628  36.316  1.00  0.00    -0.205 F 
ATOM     86  C   UNL A   1      40.283  34.465  39.359  1.00  0.00     0.022 A 
BRANCH  84  87
ATOM     87  S   UNL A   1      42.461  36.088  39.037  1.00  0.00     0.127 S 
ATOM     88  O   UNL A   1      42.010  36.317  40.407  1.00  0.00    -0.237 OA
ATOM     89  O   UNL A   1      43.732  35.372  38.919  1.00  0.00    -0.237 OA
ATOM     90  O   UNL A   1      42.323  37.222  38.133  1.00  0.00    -0.744 OA
ENDBRANCH  84  87
ENDBRANCH  56  80
BRANCH  68  91
ATOM     91  C   UNL A   1      44.530  27.891  34.678  1.00  0.00     0.023 A 
ATOM     92  C   UNL A   1      45.845  28.385  34.776  1.00  0.00     0.012 A 
ATOM     93  C   UNL A   1      44.207  26.664  35.295  1.00  0.00     0.148 A 
ATOM     94  C   UNL A   1      46.828  27.663  35.452  1.00  0.00     0.002 A 
ATOM     95  C   UNL A   1      45.180  25.972  36.008  1.00  0.00     0.091 A 
ATOM     96  F   UNL A   1      42.953  26.204  35.183  1.00  0.00    -0.205 F 
ATOM     97  C   UNL A   1      46.494  26.465  36.078  1.00  0.00     0.022 A 
BRANCH  95  98
ATOM     98  S   UNL A   1      44.824  24.470  36.926  1.00  0.00     0.127 S 
ATOM     99  O   UNL A   1      46.070  24.269  37.665  1.00  0.00    -0.237 OA
ATOM    100  O   UNL A   1      43.685  24.872  37.750  1.00  0.00    -0.237 OA
ATOM    101  O   UNL A   1      44.522  23.450  35.931  1.00  0.00    -0.744 OA
ENDBRANCH  95  98
ENDBRANCH  68  91
ENDBRANCH  42  43
ENDBRANCH  35  37
ENDBRANCH  34  35
ENDBRANCH  33  34
ENDBRANCH  32  33
ENDBRANCH  31  32
ENDBRANCH  30  31
ENDBRANCH  29  30
ENDBRANCH   1  29
TORSDOF 26
ENDMDL
MODEL 2
REMARK VINA RESULT:      -9.7      1.537      7.357
REMARK SMILES Cc1ccc(Oc2ccc(NC(=O)CCCC(=O)OCCOCCOCCOC(=O)c3ccc(-c4c5nc(c(-c6cccc(S(=O)(=O)[O-])c6F)c6ccc([nH]6)c(-c6cccc(S(=O)(=O)[O-])c6F)c6nc(c(-c7cccc(S(=O)(=O)[O-])c7F)c7ccc4[nH]7)C=C6)C=C5)cc3)cc2)cc1C
REMARK SMILES IDX 22 1 21 2 20 3 19 4 17 5 18 6 16 7 15 8 14 9 12 10 11 11
REMARK SMILES IDX 13 13 10 14 7 15 8 16 95 17 9 18 94 19 6 20 5 21 1 22 2 23
REMARK SMILES IDX 3 24 97 25 4 26 96 27 98 28 23 29 24 30 25 31 26 32 27 33
REMARK SMILES IDX 28 34 29 35 30 36 31 37 32 38 93 39 33 40 92 41 34 42 35 43
REMARK SMILES IDX 36 44 86 45 37 46 91 47 85 48 87 49 38 50 90 51 84 52 83 53
REMARK SMILES IDX 39 55 71 56 51 57 70 58 52 59 55 60 69 61 88 62 53 63 54 64
REMARK SMILES IDX 68 66 89 67 56 68 40 69 41 70 49 71 42 72 44 73 50 74 43 75
REMARK SMILES IDX 45 76 46 77 47 78 48 79 72 80 73 81 81 82 74 83 76 84 82 85
REMARK SMILES IDX 75 86 77 87 78 88 79 89 80 90 57 91 58 92 66 93 59 94 61 95
REMARK SMILES IDX 67 96 60 97 62 98 63 99 64 100 65 101
REMARK H PARENT 11 12 87 54 55 65
REMARK Flexibility Score: inf
ROOT
ATOM      1  O   UNL A   1      31.660  27.399  26.264  1.00  0.00    -0.376 OA
ENDROOT
BRANCH   1   2
ATOM      2  C   UNL A   1      30.448  26.660  26.304  1.00  0.00     0.202 C 
BRANCH   2   3
ATOM      3  C   UNL A   1      30.277  25.740  25.103  1.00  0.00     0.261 C 
BRANCH   3   4
ATOM      4  O   UNL A   1      29.853  26.306  23.842  1.00  0.00    -0.463 OA
BRANCH   4   5
ATOM      5  C   UNL A   1      30.546  27.216  23.116  1.00  0.00     0.305 C 
ATOM      6  O   UNL A   1      30.518  28.425  23.284  1.00  0.00    -0.252 OA
BRANCH   5   7
ATOM      7  C   UNL A   1      31.412  26.554  22.058  1.00  0.00     0.123 C 
BRANCH   7   8
ATOM      8  C   UNL A   1      32.248  25.340  22.480  1.00  0.00     0.022 C 
BRANCH   8   9
ATOM      9  C   UNL A   1      33.720  25.562  22.857  1.00  0.00     0.101 C 
BRANCH   9  10
ATOM     10  C   UNL A   1      33.949  26.460  24.058  1.00  0.00     0.224 C 
ATOM     11  N   UNL A   1      34.151  25.978  25.318  1.00  0.00    -0.326 N 
ATOM     12  H   UNL A   1      34.444  26.663  25.962  1.00  0.00     0.169 HD
ATOM     13  O   UNL A   1      34.041  27.682  23.892  1.00  0.00    -0.275 OA
BRANCH  11  14
ATOM     14  C   UNL A   1      34.023  24.699  25.874  1.00  0.00     0.041 A 
ATOM     15  C   UNL A   1      33.684  21.994  26.573  1.00  0.00     0.127 A 
ATOM     16  C   UNL A   1      32.811  22.967  27.054  1.00  0.00     0.049 A 
ATOM     17  C   UNL A   1      34.795  22.397  25.835  1.00  0.00     0.049 A 
ATOM     18  C   UNL A   1      32.986  24.319  26.718  1.00  0.00     0.030 A 
ATOM     19  C   UNL A   1      34.983  23.747  25.517  1.00  0.00     0.030 A 
BRANCH  15  20
ATOM     20  O   UNL A   1      33.451  20.641  26.635  1.00  0.00    -0.457 OA
BRANCH  20  21
ATOM     21  C   UNL A   1      33.009  19.929  25.543  1.00  0.00     0.127 A 
ATOM     22  C   UNL A   1      32.181  17.949  21.799  1.00  0.00     0.044 C 
ATOM     23  C   UNL A   1      32.379  18.669  23.103  1.00  0.00    -0.048 A 
ATOM     24  C   UNL A   1      32.721  17.919  24.238  1.00  0.00     0.007 A 
ATOM     25  C   UNL A   1      32.310  20.073  23.201  1.00  0.00    -0.045 A 
ATOM     26  C   UNL A   1      33.059  18.544  25.438  1.00  0.00     0.047 A 
ATOM     27  C   UNL A   1      32.612  20.686  24.433  1.00  0.00     0.050 A 
ATOM     28  C   UNL A   1      31.918  20.955  22.043  1.00  0.00     0.045 C 
ENDBRANCH  20  21
ENDBRANCH  15  20
ENDBRANCH  11  14
ENDBRANCH   9  10
ENDBRANCH   8   9
ENDBRANCH   7   8
ENDBRANCH   5   7
ENDBRANCH   4   5
ENDBRANCH   3   4
ENDBRANCH   2   3
ENDBRANCH   1   2
BRANCH   1  29
ATOM     29  C   UNL A   1      31.721  28.506  27.152  1.00  0.00     0.188 C 
BRANCH  29  30
ATOM     30  C   UNL A   1      33.053  29.286  27.126  1.00  0.00     0.188 C 
BRANCH  30  31
ATOM     31  O   UNL A   1      33.123  30.574  26.534  1.00  0.00    -0.376 OA
BRANCH  31  32
ATOM     32  C   UNL A   1      32.428  31.630  27.179  1.00  0.00     0.202 C 
BRANCH  32  33
ATOM     33  C   UNL A   1      33.207  32.903  27.564  1.00  0.00     0.261 C 
BRANCH  33  34
ATOM     34  O   UNL A   1      32.397  34.026  27.964  1.00  0.00    -0.460 OA
BRANCH  34  35
ATOM     35  C   UNL A   1      33.012  34.988  28.704  1.00  0.00     0.338 C 
ATOM     36  O   UNL A   1      32.607  36.123  28.900  1.00  0.00    -0.246 OA
BRANCH  35  37
ATOM     37  C   UNL A   1      34.121  34.375  29.488  1.00  0.00     0.060 A 
ATOM     38  C   UNL A   1      35.444  34.580  29.051  1.00  0.00     0.016 A 
ATOM     39  C   UNL A   1      33.883  33.656  30.659  1.00  0.00     0.016 A 
ATOM     40  C   UNL A   1      36.525  34.074  29.776  1.00  0.00     0.010 A 
ATOM     41  C   UNL A   1      34.964  33.100  31.354  1.00  0.00     0.010 A 
ATOM     42  C   UNL A   1      36.286  33.285  30.903  1.00  0.00    -0.014 A 
BRANCH  42  43
ATOM     43  C   UNL A   1      37.371  32.438  31.458  1.00  0.00     0.031 A 
ATOM     44  C   UNL A   1      37.878  32.774  32.833  1.00  0.00     0.074 A 
ATOM     45  C   UNL A   1      37.933  31.435  30.762  1.00  0.00     0.049 A 
ATOM     46  N   UNL A   1      38.910  32.300  33.480  1.00  0.00    -0.248 NA
ATOM     47  C   UNL A   1      37.118  33.795  33.575  1.00  0.00     0.031 C 
ATOM     48  C   UNL A   1      37.516  30.981  29.439  1.00  0.00     0.029 A 
ATOM     49  N   UNL A   1      39.021  30.648  31.064  1.00  0.00    -0.354 N 
ATOM     50  C   UNL A   1      38.956  33.001  34.678  1.00  0.00     0.074 A 
ATOM     51  C   UNL A   1      37.841  33.921  34.677  1.00  0.00     0.031 C 
ATOM     52  C   UNL A   1      38.375  30.037  29.015  1.00  0.00     0.029 A 
ATOM     53  C   UNL A   1      39.422  29.849  30.019  1.00  0.00     0.049 A 
ATOM     54  H   UNL A   1      39.467  30.656  31.942  1.00  0.00     0.167 HD
ATOM     55  C   UNL A   1      39.847  32.893  35.690  1.00  0.00     0.034 A 
ATOM     56  C   UNL A   1      40.532  29.097  29.871  1.00  0.00     0.034 A 
ATOM     57  C   UNL A   1      40.947  31.971  35.700  1.00  0.00     0.049 A 
ATOM     58  C   UNL A   1      41.542  29.024  30.992  1.00  0.00     0.074 A 
ATOM     59  C   UNL A   1      41.864  31.740  36.710  1.00  0.00     0.029 A 
ATOM     60  N   UNL A   1      41.302  31.152  34.641  1.00  0.00    -0.354 N 
ATOM     61  N   UNL A   1      41.510  29.595  32.172  1.00  0.00    -0.248 NA
ATOM     62  C   UNL A   1      42.733  28.190  30.767  1.00  0.00     0.031 C 
ATOM     63  C   UNL A   1      42.797  30.808  36.244  1.00  0.00     0.029 A 
ATOM     64  C   UNL A   1      42.442  30.436  34.958  1.00  0.00     0.049 A 
ATOM     65  H   UNL A   1      40.812  31.088  33.788  1.00  0.00     0.167 HD
ATOM     66  C   UNL A   1      42.662  29.178  32.835  1.00  0.00     0.074 A 
ATOM     67  C   UNL A   1      43.358  28.283  31.934  1.00  0.00     0.031 C 
ATOM     68  C   UNL A   1      43.112  29.519  34.069  1.00  0.00     0.034 A 
BRANCH  55  69
ATOM     69  C   UNL A   1      39.666  33.811  36.868  1.00  0.00     0.023 A 
ATOM     70  C   UNL A   1      40.114  35.146  36.796  1.00  0.00     0.012 A 
ATOM     71  C   UNL A   1      39.031  33.353  38.039  1.00  0.00     0.148 A 
ATOM     72  C   UNL A   1      39.964  36.002  37.888  1.00  0.00     0.002 A 
ATOM     73  C   UNL A   1      38.844  34.225  39.104  1.00  0.00     0.091 A 
ATOM     74  F   UNL A   1      38.642  32.072  38.097  1.00  0.00    -0.205 F 
ATOM     75  C   UNL A   1      39.321  35.545  39.035  1.00  0.00     0.022 A 
BRANCH  73  76
ATOM     76  S   UNL A   1      37.960  33.752  40.593  1.00  0.00     0.127 S 
ATOM     77  O   UNL A   1      37.828  35.036  41.278  1.00  0.00    -0.237 OA
ATOM     78  O   UNL A   1      36.710  33.218  40.052  1.00  0.00    -0.237 OA
ATOM     79  O   UNL A   1      38.800  32.768  41.261  1.00  0.00    -0.744 OA
ENDBRANCH  73  76
ENDBRANCH  55  69
BRANCH  56  80
ATOM     80  C   UNL A   1      40.759  28.359  28.594  1.00  0.00     0.023 A 
ATOM     81  C   UNL A   1      41.473  28.974  27.549  1.00  0.00     0.012 A 
ATOM     82  C   UNL A   1      40.292  27.040  28.423  1.00  0.00     0.148 A 
ATOM     83  C   UNL A   1      41.705  28.297  26.351  1.00  0.00     0.002 A 
ATOM     84  C   UNL A   1      40.575  26.350  27.250  1.00  0.00     0.091 A 
ATOM     85  F   UNL A   1      39.593  26.481  29.420  1.00  0.00    -0.205 F 
ATOM     86  C   UNL A   1      41.268  26.982  26.206  1.00  0.00     0.022 A 
BRANCH  84  87
ATOM     87  S   UNL A   1      40.160  24.617  27.020  1.00  0.00     0.127 S 
ATOM     88  O   UNL A   1      38.712  24.675  26.844  1.00  0.00    -0.237 OA
ATOM     89  O   UNL A   1      40.915  24.286  25.811  1.00  0.00    -0.237 OA
ATOM     90  O   UNL A   1      40.620  23.934  28.222  1.00  0.00    -0.744 OA
ENDBRANCH  84  87
ENDBRANCH  56  80
BRANCH  68  91
ATOM     91  C   UNL A   1      44.417  28.927  34.537  1.00  0.00     0.023 A 
ATOM     92  C   UNL A   1      45.616  29.640  34.342  1.00  0.00     0.012 A 
ATOM     93  C   UNL A   1      44.446  27.713  35.255  1.00  0.00     0.148 A 
ATOM     94  C   UNL A   1      46.826  29.145  34.829  1.00  0.00     0.002 A 
ATOM     95  C   UNL A   1      45.648  27.250  35.779  1.00  0.00     0.091 A 
ATOM     96  F   UNL A   1      43.298  27.042  35.422  1.00  0.00    -0.205 F 
ATOM     97  C   UNL A   1      46.840  27.959  35.558  1.00  0.00     0.022 A 
BRANCH  95  98
ATOM     98  S   UNL A   1      45.754  25.782  36.810  1.00  0.00     0.127 S 
ATOM     99  O   UNL A   1      47.192  25.521  36.811  1.00  0.00    -0.237 OA
ATOM    100  O   UNL A   1      45.219  26.259  38.086  1.00  0.00    -0.237 OA
ATOM    101  O   UNL A   1      44.939  24.767  36.154  1.00  0.00    -0.744 OA
ENDBRANCH  95  98
ENDBRANCH  68  91
ENDBRANCH  42  43
ENDBRANCH  35  37
ENDBRANCH  34  35
ENDBRANCH  33  34
ENDBRANCH  32  33
ENDBRANCH  31  32
ENDBRANCH  30  31
ENDBRANCH  29  30
ENDBRANCH   1  29
TORSDOF 26
ENDMDL
MODEL 3
REMARK VINA RESULT:      -9.6      2.312      7.444
REMARK SMILES Cc1ccc(Oc2ccc(NC(=O)CCCC(=O)OCCOCCOCCOC(=O)c3ccc(-c4c5nc(c(-c6cccc(S(=O)(=O)[O-])c6F)c6ccc([nH]6)c(-c6cccc(S(=O)(=O)[O-])c6F)c6nc(c(-c7cccc(S(=O)(=O)[O-])c7F)c7ccc4[nH]7)C=C6)C=C5)cc3)cc2)cc1C
REMARK SMILES IDX 22 1 21 2 20 3 19 4 17 5 18 6 16 7 15 8 14 9 12 10 11 11
REMARK SMILES IDX 13 13 10 14 7 15 8 16 95 17 9 18 94 19 6 20 5 21 1 22 2 23
REMARK SMILES IDX 3 24 97 25 4 26 96 27 98 28 23 29 24 30 25 31 26 32 27 33
REMARK SMILES IDX 28 34 29 35 30 36 31 37 32 38 93 39 33 40 92 41 34 42 35 43
REMARK SMILES IDX 36 44 86 45 37 46 91 47 85 48 87 49 38 50 90 51 84 52 83 53
REMARK SMILES IDX 39 55 71 56 51 57 70 58 52 59 55 60 69 61 88 62 53 63 54 64
REMARK SMILES IDX 68 66 89 67 56 68 40 69 41 70 49 71 42 72 44 73 50 74 43 75
REMARK SMILES IDX 45 76 46 77 47 78 48 79 72 80 73 81 81 82 74 83 76 84 82 85
REMARK SMILES IDX 75 86 77 87 78 88 79 89 80 90 57 91 58 92 66 93 59 94 61 95
REMARK SMILES IDX 67 96 60 97 62 98 63 99 64 100 65 101
REMARK H PARENT 11 12 87 54 55 65
REMARK Flexibility Score: inf
ROOT
ATOM      1  O   UNL A   1      31.734  26.895  26.636  1.00  0.00    -0.376 OA
ENDROOT
BRANCH   1   2
ATOM      2  C   UNL A   1      30.473  26.310  26.350  1.00  0.00     0.202 C 
BRANCH   2   3
ATOM      3  C   UNL A   1      30.382  25.763  24.932  1.00  0.00     0.261 C 
BRANCH   3   4
ATOM      4  O   UNL A   1      29.772  26.577  23.905  1.00  0.00    -0.463 OA
BRANCH   4   5
ATOM      5  C   UNL A   1      30.314  27.692  23.361  1.00  0.00     0.305 C 
ATOM      6  O   UNL A   1      30.293  28.806  23.861  1.00  0.00    -0.252 OA
BRANCH   5   7
ATOM      7  C   UNL A   1      30.998  27.400  22.036  1.00  0.00     0.123 C 
BRANCH   7   8
ATOM      8  C   UNL A   1      31.907  26.168  21.961  1.00  0.00     0.022 C 
BRANCH   8   9
ATOM      9  C   UNL A   1      33.399  26.341  22.278  1.00  0.00     0.101 C 
BRANCH   9  10
ATOM     10  C   UNL A   1      33.711  26.758  23.703  1.00  0.00     0.224 C 
ATOM     11  N   UNL A   1      33.976  25.862  24.697  1.00  0.00    -0.326 N 
ATOM     12  H   UNL A   1      34.316  26.276  25.523  1.00  0.00     0.169 HD
ATOM     13  O   UNL A   1      33.814  27.960  23.974  1.00  0.00    -0.275 OA
BRANCH  11  14
ATOM     14  C   UNL A   1      33.857  24.468  24.772  1.00  0.00     0.041 A 
ATOM     15  C   UNL A   1      33.202  21.732  24.776  1.00  0.00     0.127 A 
ATOM     16  C   UNL A   1      33.511  22.389  25.965  1.00  0.00     0.049 A 
ATOM     17  C   UNL A   1      33.335  22.421  23.574  1.00  0.00     0.049 A 
ATOM     18  C   UNL A   1      33.852  23.752  25.963  1.00  0.00     0.030 A 
ATOM     19  C   UNL A   1      33.696  23.774  23.569  1.00  0.00     0.030 A 
BRANCH  15  20
ATOM     20  O   UNL A   1      32.618  20.490  24.706  1.00  0.00    -0.457 OA
BRANCH  20  21
ATOM     21  C   UNL A   1      33.341  19.335  24.904  1.00  0.00     0.127 A 
ATOM     22  C   UNL A   1      35.250  15.466  24.996  1.00  0.00     0.044 C 
ATOM     23  C   UNL A   1      34.571  16.805  25.058  1.00  0.00    -0.048 A 
ATOM     24  C   UNL A   1      35.306  17.947  24.703  1.00  0.00     0.007 A 
ATOM     25  C   UNL A   1      33.207  16.938  25.383  1.00  0.00    -0.045 A 
ATOM     26  C   UNL A   1      34.691  19.194  24.602  1.00  0.00     0.047 A 
ATOM     27  C   UNL A   1      32.612  18.214  25.317  1.00  0.00     0.050 A 
ATOM     28  C   UNL A   1      32.349  15.772  25.807  1.00  0.00     0.045 C 
ENDBRANCH  20  21
ENDBRANCH  15  20
ENDBRANCH  11  14
ENDBRANCH   9  10
ENDBRANCH   8   9
ENDBRANCH   7   8
ENDBRANCH   5   7
ENDBRANCH   4   5
ENDBRANCH   3   4
ENDBRANCH   2   3
ENDBRANCH   1   2
BRANCH   1  29
ATOM     29  C   UNL A   1      31.697  28.276  26.968  1.00  0.00     0.188 C 
BRANCH  29  30
ATOM     30  C   UNL A   1      33.070  28.900  27.301  1.00  0.00     0.188 C 
BRANCH  30  31
ATOM     31  O   UNL A   1      33.420  30.181  26.800  1.00  0.00    -0.376 OA
BRANCH  31  32
ATOM     32  C   UNL A   1      32.688  31.297  27.286  1.00  0.00     0.202 C 
BRANCH  32  33
ATOM     33  C   UNL A   1      33.458  32.569  27.690  1.00  0.00     0.261 C 
BRANCH  33  34
ATOM     34  O   UNL A   1      32.644  33.731  27.940  1.00  0.00    -0.460 OA
BRANCH  34  35
ATOM     35  C   UNL A   1      33.202  34.714  28.698  1.00  0.00     0.338 C 
ATOM     36  O   UNL A   1      32.761  35.840  28.865  1.00  0.00    -0.246 OA
BRANCH  35  37
ATOM     37  C   UNL A   1      34.290  34.135  29.536  1.00  0.00     0.060 A 
ATOM     38  C   UNL A   1      35.617  34.239  29.076  1.00  0.00     0.016 A 
ATOM     39  C   UNL A   1      34.031  33.547  30.772  1.00  0.00     0.016 A 
ATOM     40  C   UNL A   1      36.681  33.762  29.844  1.00  0.00     0.010 A 
ATOM     41  C   UNL A   1      35.093  33.017  31.517  1.00  0.00     0.010 A 
ATOM     42  C   UNL A   1      36.418  33.100  31.045  1.00  0.00    -0.014 A 
BRANCH  42  43
ATOM     43  C   UNL A   1      37.470  32.266  31.678  1.00  0.00     0.031 A 
ATOM     44  C   UNL A   1      38.012  32.723  33.005  1.00  0.00     0.074 A 
ATOM     45  C   UNL A   1      37.976  31.169  31.088  1.00  0.00     0.049 A 
ATOM     46  N   UNL A   1      39.029  32.273  33.689  1.00  0.00    -0.248 NA
ATOM     47  C   UNL A   1      37.310  33.852  33.639  1.00  0.00     0.031 C 
ATOM     48  C   UNL A   1      37.520  30.597  29.825  1.00  0.00     0.029 A 
ATOM     49  N   UNL A   1      39.030  30.369  31.464  1.00  0.00    -0.354 N 
ATOM     50  C   UNL A   1      39.123  33.094  34.805  1.00  0.00     0.074 A 
ATOM     51  C   UNL A   1      38.052  34.061  34.715  1.00  0.00     0.031 C 
ATOM     52  C   UNL A   1      38.329  29.573  29.498  1.00  0.00     0.029 A 
ATOM     53  C   UNL A   1      39.380  29.445  30.507  1.00  0.00     0.049 A 
ATOM     54  H   UNL A   1      39.488  30.449  32.332  1.00  0.00     0.167 HD
ATOM     55  C   UNL A   1      40.022  33.053  35.815  1.00  0.00     0.034 A 
ATOM     56  C   UNL A   1      40.452  28.629  30.431  1.00  0.00     0.034 A 
ATOM     57  C   UNL A   1      41.079  32.087  35.914  1.00  0.00     0.049 A 
ATOM     58  C   UNL A   1      41.473  28.629  31.545  1.00  0.00     0.074 A 
ATOM     59  C   UNL A   1      41.998  31.922  36.935  1.00  0.00     0.029 A 
ATOM     60  N   UNL A   1      41.381  31.143  34.946  1.00  0.00    -0.354 N 
ATOM     61  N   UNL A   1      41.484  29.324  32.657  1.00  0.00    -0.248 NA
ATOM     62  C   UNL A   1      42.621  27.721  31.400  1.00  0.00     0.031 C 
ATOM     63  C   UNL A   1      42.881  30.902  36.564  1.00  0.00     0.029 A 
ATOM     64  C   UNL A   1      42.492  30.412  35.328  1.00  0.00     0.049 A 
ATOM     65  H   UNL A   1      40.877  31.012  34.110  1.00  0.00     0.167 HD
ATOM     66  C   UNL A   1      42.624  28.926  33.350  1.00  0.00     0.074 A 
ATOM     67  C   UNL A   1      43.265  27.908  32.545  1.00  0.00     0.031 C 
ATOM     68  C   UNL A   1      43.106  29.375  34.536  1.00  0.00     0.034 A 
BRANCH  55  69
ATOM     69  C   UNL A   1      39.901  34.100  36.889  1.00  0.00     0.023 A 
ATOM     70  C   UNL A   1      40.318  35.421  36.636  1.00  0.00     0.012 A 
ATOM     71  C   UNL A   1      39.350  33.773  38.144  1.00  0.00     0.148 A 
ATOM     72  C   UNL A   1      40.223  36.396  37.630  1.00  0.00     0.002 A 
ATOM     73  C   UNL A   1      39.215  34.760  39.112  1.00  0.00     0.091 A 
ATOM     74  F   UNL A   1      38.988  32.503  38.373  1.00  0.00    -0.205 F 
ATOM     75  C   UNL A   1      39.662  36.068  38.861  1.00  0.00     0.022 A 
BRANCH  73  76
ATOM     76  S   UNL A   1      38.436  34.452  40.700  1.00  0.00     0.127 S 
ATOM     77  O   UNL A   1      39.491  33.732  41.411  1.00  0.00    -0.237 OA
ATOM     78  O   UNL A   1      38.189  35.809  41.189  1.00  0.00    -0.237 OA
ATOM     79  O   UNL A   1      37.234  33.683  40.413  1.00  0.00    -0.744 OA
ENDBRANCH  73  76
ENDBRANCH  55  69
BRANCH  56  80
ATOM     80  C   UNL A   1      40.628  27.750  29.239  1.00  0.00     0.023 A 
ATOM     81  C   UNL A   1      39.900  26.549  29.145  1.00  0.00     0.012 A 
ATOM     82  C   UNL A   1      41.493  28.113  28.187  1.00  0.00     0.148 A 
ATOM     83  C   UNL A   1      40.042  25.717  28.033  1.00  0.00     0.002 A 
ATOM     84  C   UNL A   1      41.587  27.308  27.057  1.00  0.00     0.091 A 
ATOM     85  F   UNL A   1      42.195  29.248  28.307  1.00  0.00    -0.205 F 
ATOM     86  C   UNL A   1      40.875  26.102  26.985  1.00  0.00     0.022 A 
BRANCH  84  87
ATOM     87  S   UNL A   1      42.537  27.782  25.607  1.00  0.00     0.127 S 
ATOM     88  O   UNL A   1      43.875  27.952  26.166  1.00  0.00    -0.237 OA
ATOM     89  O   UNL A   1      42.373  26.610  24.746  1.00  0.00    -0.237 OA
ATOM     90  O   UNL A   1      41.911  28.994  25.097  1.00  0.00    -0.744 OA
ENDBRANCH  84  87
ENDBRANCH  56  80
BRANCH  68  91
ATOM     91  C   UNL A   1      44.389  28.775  35.054  1.00  0.00     0.023 A 
ATOM     92  C   UNL A   1      44.340  27.677  35.935  1.00  0.00     0.012 A 
ATOM     93  C   UNL A   1      45.641  29.234  34.594  1.00  0.00     0.148 A 
ATOM     94  C   UNL A   1      45.513  27.062  36.371  1.00  0.00     0.002 A 
ATOM     95  C   UNL A   1      46.804  28.586  34.995  1.00  0.00     0.091 A 
ATOM     96  F   UNL A   1      45.670  30.287  33.764  1.00  0.00    -0.205 F 
ATOM     97  C   UNL A   1      46.743  27.507  35.891  1.00  0.00     0.022 A 
BRANCH  95  98
ATOM     98  S   UNL A   1      48.426  29.026  34.360  1.00  0.00     0.127 S 
ATOM     99  O   UNL A   1      49.109  29.476  35.572  1.00  0.00    -0.237 OA
ATOM    100  O   UNL A   1      48.907  27.751  33.827  1.00  0.00    -0.237 OA
ATOM    101  O   UNL A   1      48.202  30.056  33.354  1.00  0.00    -0.744 OA
ENDBRANCH  95  98
ENDBRANCH  68  91
ENDBRANCH  42  43
ENDBRANCH  35  37
ENDBRANCH  34  35
ENDBRANCH  33  34
ENDBRANCH  32  33
ENDBRANCH  31  32
ENDBRANCH  30  31
ENDBRANCH  29  30
ENDBRANCH   1  29
TORSDOF 26
ENDMDL
