MODEL 1
REMARK VINA RESULT:     -10.8      0.000      0.000
REMARK SMILES C[C@@H](C(=O)OCCOCCOCCOC(=O)c1ccc(-c2c3nc(c(-c4cccc(S(=O)(=O)[O-])c4F)c4ccc([nH]4)c(-c4cccc(S(=O)(=O)[O-])c4F)c4nc(c(-c5cccc(S(=O)(=O)[O-])c5F)c5ccc2[nH]5)C=C4)C=C3)cc1)c1ccc(C[C@H]2CCCC2=O)cc1Cl
REMARK SMILES IDX 9 1 8 2 7 3 6 4 5 5 3 6 4 7 2 8 1 9 80 10 81 11 92 12 82 13
REMARK SMILES IDX 91 14 93 15 83 16 84 17 85 18 86 19 89 20 87 21 88 22 90 23
REMARK SMILES IDX 10 24 11 25 12 26 13 27 14 28 15 29 16 30 17 31 18 32 79 33
REMARK SMILES IDX 19 34 78 35 20 36 21 37 22 38 72 39 23 40 77 41 71 42 73 43
REMARK SMILES IDX 24 44 76 45 70 46 69 47 25 49 57 50 37 51 56 52 38 53 41 54
REMARK SMILES IDX 55 55 74 56 39 57 40 58 54 60 75 61 42 62 26 63 27 64 35 65
REMARK SMILES IDX 28 66 30 67 36 68 29 69 31 70 32 71 33 72 34 73 58 74 59 75
REMARK SMILES IDX 67 76 60 77 62 78 68 79 61 80 63 81 64 82 65 83 66 84 43 85
REMARK SMILES IDX 44 86 52 87 45 88 47 89 53 90 46 91 48 92 49 93 50 94 51 95
REMARK H PARENT 73 48 41 59
REMARK Flexibility Score: inf
ROOT
ATOM      1  C   UNL A   1      36.234  22.715  24.258  1.00  0.00     0.188 C 
ENDROOT
BRANCH   1   2
ATOM      2  O   UNL A   1      35.444  23.896  24.199  1.00  0.00    -0.376 OA
BRANCH   2   3
ATOM      3  C   UNL A   1      34.895  24.403  25.409  1.00  0.00     0.202 C 
BRANCH   3   4
ATOM      4  C   UNL A   1      34.304  25.808  25.340  1.00  0.00     0.261 C 
BRANCH   4   5
ATOM      5  O   UNL A   1      32.949  25.803  25.814  1.00  0.00    -0.463 OA
BRANCH   5   6
ATOM      6  C   UNL A   1      32.055  26.425  25.003  1.00  0.00     0.313 C 
ATOM      7  O   UNL A   1      31.988  27.640  24.857  1.00  0.00    -0.252 OA
BRANCH   6   8
ATOM      8  C   UNL A   1      31.115  25.440  24.328  1.00  0.00     0.127 C 
ATOM      9  C   UNL A   1      29.674  25.682  24.829  1.00  0.00     0.025 C 
BRANCH   8  10
ATOM     10  C   UNL A   1      31.491  23.950  24.268  1.00  0.00    -0.015 A 
ATOM     11  C   UNL A   1      32.105  23.510  23.074  1.00  0.00     0.006 A 
ATOM     12  C   UNL A   1      31.419  23.002  25.304  1.00  0.00     0.045 A 
ATOM     13  C   UNL A   1      32.629  22.219  22.919  1.00  0.00     0.004 A 
ATOM     14  C   UNL A   1      31.913  21.689  25.128  1.00  0.00     0.024 A 
ATOM     15  Cl  UNL A   1      30.821  23.342  26.887  1.00  0.00    -0.084 Cl
ATOM     16  C   UNL A   1      32.538  21.279  23.941  1.00  0.00    -0.046 A 
BRANCH  16  17
ATOM     17  C   UNL A   1      33.267  19.948  23.887  1.00  0.00     0.047 C 
BRANCH  17  18
ATOM     18  C   UNL A   1      32.509  18.616  23.792  1.00  0.00     0.060 C 
ATOM     19  C   UNL A   1      32.936  17.700  22.648  1.00  0.00     0.012 C 
ATOM     20  C   UNL A   1      32.643  17.704  24.989  1.00  0.00     0.136 C 
ATOM     21  C   UNL A   1      33.836  16.642  23.270  1.00  0.00     0.009 C 
ATOM     22  C   UNL A   1      33.211  16.356  24.624  1.00  0.00     0.076 C 
ATOM     23  O   UNL A   1      32.326  18.013  26.132  1.00  0.00    -0.299 OA
ENDBRANCH  17  18
ENDBRANCH  16  17
ENDBRANCH   8  10
ENDBRANCH   6   8
ENDBRANCH   5   6
ENDBRANCH   4   5
ENDBRANCH   3   4
ENDBRANCH   2   3
ENDBRANCH   1   2
BRANCH   1  24
ATOM     24  C   UNL A   1      36.103  21.783  25.480  1.00  0.00     0.188 C 
BRANCH  24  25
ATOM     25  O   UNL A   1      36.461  20.413  25.370  1.00  0.00    -0.376 OA
BRANCH  25  26
ATOM     26  C   UNL A   1      37.710  20.109  24.758  1.00  0.00     0.202 C 
BRANCH  26  27
ATOM     27  C   UNL A   1      38.735  19.406  25.645  1.00  0.00     0.261 C 
BRANCH  27  28
ATOM     28  O   UNL A   1      40.078  19.795  25.305  1.00  0.00    -0.460 OA
BRANCH  28  29
ATOM     29  C   UNL A   1      40.949  19.829  26.341  1.00  0.00     0.338 C 
ATOM     30  O   UNL A   1      41.686  18.938  26.722  1.00  0.00    -0.246 OA
BRANCH  29  31
ATOM     31  C   UNL A   1      40.997  21.194  26.885  1.00  0.00     0.060 A 
ATOM     32  C   UNL A   1      40.505  22.236  26.099  1.00  0.00     0.016 A 
ATOM     33  C   UNL A   1      41.620  21.460  28.105  1.00  0.00     0.016 A 
ATOM     34  C   UNL A   1      40.658  23.551  26.523  1.00  0.00     0.010 A 
ATOM     35  C   UNL A   1      41.806  22.790  28.508  1.00  0.00     0.010 A 
ATOM     36  C   UNL A   1      41.366  23.847  27.694  1.00  0.00    -0.014 A 
BRANCH  36  37
ATOM     37  C   UNL A   1      41.814  25.246  27.934  1.00  0.00     0.031 A 
ATOM     38  C   UNL A   1      43.141  25.691  27.374  1.00  0.00     0.074 A 
ATOM     39  C   UNL A   1      41.016  26.153  28.529  1.00  0.00     0.049 A 
ATOM     40  N   UNL A   1      43.735  26.853  27.470  1.00  0.00    -0.248 NA
ATOM     41  C   UNL A   1      43.891  24.699  26.583  1.00  0.00     0.031 C 
ATOM     42  C   UNL A   1      39.661  25.900  29.013  1.00  0.00     0.029 A 
ATOM     43  N   UNL A   1      41.221  27.489  28.784  1.00  0.00    -0.354 N 
ATOM     44  C   UNL A   1      44.957  26.709  26.824  1.00  0.00     0.074 A 
ATOM     45  C   UNL A   1      45.004  25.362  26.300  1.00  0.00     0.031 C 
ATOM     46  C   UNL A   1      39.145  27.049  29.483  1.00  0.00     0.029 A 
ATOM     47  C   UNL A   1      40.150  28.108  29.385  1.00  0.00     0.049 A 
ATOM     48  H   UNL A   1      42.056  27.958  28.557  1.00  0.00     0.167 HD
ATOM     49  C   UNL A   1      45.957  27.611  26.681  1.00  0.00     0.034 A 
ATOM     50  C   UNL A   1      40.005  29.376  29.824  1.00  0.00     0.034 A 
ATOM     51  C   UNL A   1      45.906  28.968  27.146  1.00  0.00     0.049 A 
ATOM     52  C   UNL A   1      41.148  30.351  29.685  1.00  0.00     0.074 A 
ATOM     53  C   UNL A   1      46.881  29.946  27.051  1.00  0.00     0.029 A 
ATOM     54  N   UNL A   1      44.824  29.545  27.791  1.00  0.00    -0.354 N 
ATOM     55  N   UNL A   1      42.288  30.206  29.056  1.00  0.00    -0.248 NA
ATOM     56  C   UNL A   1      40.978  31.668  30.319  1.00  0.00     0.031 C 
ATOM     57  C   UNL A   1      46.392  31.112  27.649  1.00  0.00     0.029 A 
ATOM     58  C   UNL A   1      45.107  30.863  28.104  1.00  0.00     0.049 A 
ATOM     59  H   UNL A   1      43.977  29.085  27.995  1.00  0.00     0.167 HD
ATOM     60  C   UNL A   1      42.965  31.413  29.209  1.00  0.00     0.074 A 
ATOM     61  C   UNL A   1      42.091  32.293  29.954  1.00  0.00     0.031 C 
ATOM     62  C   UNL A   1      44.213  31.751  28.798  1.00  0.00     0.034 A 
BRANCH  49  63
ATOM     63  C   UNL A   1      47.215  27.149  26.000  1.00  0.00     0.023 A 
ATOM     64  C   UNL A   1      47.397  27.380  24.624  1.00  0.00     0.012 A 
ATOM     65  C   UNL A   1      48.239  26.533  26.745  1.00  0.00     0.148 A 
ATOM     66  C   UNL A   1      48.577  26.984  23.993  1.00  0.00     0.002 A 
ATOM     67  C   UNL A   1      49.426  26.176  26.118  1.00  0.00     0.091 A 
ATOM     68  F   UNL A   1      48.028  26.295  28.048  1.00  0.00    -0.205 F 
ATOM     69  C   UNL A   1      49.594  26.394  24.741  1.00  0.00     0.022 A 
BRANCH  67  70
ATOM     70  S   UNL A   1      50.811  25.476  27.022  1.00  0.00     0.127 S 
ATOM     71  O   UNL A   1      50.181  24.339  27.690  1.00  0.00    -0.237 OA
ATOM     72  O   UNL A   1      51.736  25.116  25.947  1.00  0.00    -0.237 OA
ATOM     73  O   UNL A   1      51.288  26.537  27.898  1.00  0.00    -0.744 OA
ENDBRANCH  67  70
ENDBRANCH  49  63
BRANCH  50  74
ATOM     74  C   UNL A   1      38.717  29.816  30.434  1.00  0.00     0.023 A 
ATOM     75  C   UNL A   1      38.446  29.504  31.782  1.00  0.00     0.012 A 
ATOM     76  C   UNL A   1      37.760  30.535  29.693  1.00  0.00     0.148 A 
ATOM     77  C   UNL A   1      37.241  29.888  32.372  1.00  0.00     0.002 A 
ATOM     78  C   UNL A   1      36.590  30.968  30.305  1.00  0.00     0.091 A 
ATOM     79  F   UNL A   1      38.010  30.783  28.400  1.00  0.00    -0.205 F 
ATOM     80  C   UNL A   1      36.320  30.633  31.639  1.00  0.00     0.022 A 
BRANCH  78  81
ATOM     81  S   UNL A   1      35.432  32.053  29.462  1.00  0.00     0.127 S 
ATOM     82  O   UNL A   1      34.472  32.347  30.521  1.00  0.00    -0.237 OA
ATOM     83  O   UNL A   1      36.287  33.174  29.072  1.00  0.00    -0.237 OA
ATOM     84  O   UNL A   1      34.931  31.270  28.340  1.00  0.00    -0.744 OA
ENDBRANCH  78  81
ENDBRANCH  50  74
BRANCH  62  85
ATOM     85  C   UNL A   1      44.720  33.130  29.135  1.00  0.00     0.023 A 
ATOM     86  C   UNL A   1      45.321  33.357  30.389  1.00  0.00     0.012 A 
ATOM     87  C   UNL A   1      44.690  34.170  28.186  1.00  0.00     0.148 A 
ATOM     88  C   UNL A   1      45.860  34.604  30.703  1.00  0.00     0.002 A 
ATOM     89  C   UNL A   1      45.268  35.398  28.490  1.00  0.00     0.091 A 
ATOM     90  F   UNL A   1      44.099  33.941  27.004  1.00  0.00    -0.205 F 
ATOM     91  C   UNL A   1      45.845  35.620  29.751  1.00  0.00     0.022 A 
BRANCH  89  92
ATOM     92  S   UNL A   1      45.375  36.732  27.289  1.00  0.00     0.127 S 
ATOM     93  O   UNL A   1      43.965  37.045  27.065  1.00  0.00    -0.237 OA
ATOM     94  O   UNL A   1      46.117  37.758  28.024  1.00  0.00    -0.237 OA
ATOM     95  O   UNL A   1      46.087  36.179  26.145  1.00  0.00    -0.744 OA
ENDBRANCH  89  92
ENDBRANCH  62  85
ENDBRANCH  36  37
ENDBRANCH  29  31
ENDBRANCH  28  29
ENDBRANCH  27  28
ENDBRANCH  26  27
ENDBRANCH  25  26
ENDBRANCH  24  25
ENDBRANCH   1  24
TORSDOF 23
ENDMDL
MODEL 2
REMARK VINA RESULT:     -10.1      0.730      7.591
REMARK SMILES C[C@@H](C(=O)OCCOCCOCCOC(=O)c1ccc(-c2c3nc(c(-c4cccc(S(=O)(=O)[O-])c4F)c4ccc([nH]4)c(-c4cccc(S(=O)(=O)[O-])c4F)c4nc(c(-c5cccc(S(=O)(=O)[O-])c5F)c5ccc2[nH]5)C=C4)C=C3)cc1)c1ccc(C[C@H]2CCCC2=O)cc1Cl
REMARK SMILES IDX 9 1 8 2 7 3 6 4 5 5 3 6 4 7 2 8 1 9 80 10 81 11 92 12 82 13
REMARK SMILES IDX 91 14 93 15 83 16 84 17 85 18 86 19 89 20 87 21 88 22 90 23
REMARK SMILES IDX 10 24 11 25 12 26 13 27 14 28 15 29 16 30 17 31 18 32 79 33
REMARK SMILES IDX 19 34 78 35 20 36 21 37 22 38 72 39 23 40 77 41 71 42 73 43
REMARK SMILES IDX 24 44 76 45 70 46 69 47 25 49 57 50 37 51 56 52 38 53 41 54
REMARK SMILES IDX 55 55 74 56 39 57 40 58 54 60 75 61 42 62 26 63 27 64 35 65
REMARK SMILES IDX 28 66 30 67 36 68 29 69 31 70 32 71 33 72 34 73 58 74 59 75
REMARK SMILES IDX 67 76 60 77 62 78 68 79 61 80 63 81 64 82 65 83 66 84 43 85
REMARK SMILES IDX 44 86 52 87 45 88 47 89 53 90 46 91 48 92 49 93 50 94 51 95
REMARK H PARENT 73 48 41 59
REMARK Flexibility Score: inf
ROOT
ATOM      1  C   UNL A   1      35.088  23.432  23.238  1.00  0.00     0.188 C 
ENDROOT
BRANCH   1   2
ATOM      2  O   UNL A   1      34.179  24.205  24.013  1.00  0.00    -0.376 OA
BRANCH   2   3
ATOM      3  C   UNL A   1      34.430  25.597  24.162  1.00  0.00     0.202 C 
BRANCH   3   4
ATOM      4  C   UNL A   1      33.709  26.289  25.314  1.00  0.00     0.261 C 
BRANCH   4   5
ATOM      5  O   UNL A   1      32.359  26.604  24.940  1.00  0.00    -0.463 OA
BRANCH   5   6
ATOM      6  C   UNL A   1      31.417  26.276  25.860  1.00  0.00     0.313 C 
ATOM      7  O   UNL A   1      31.378  26.729  26.998  1.00  0.00    -0.252 OA
BRANCH   6   8
ATOM      8  C   UNL A   1      30.434  25.245  25.328  1.00  0.00     0.127 C 
ATOM      9  C   UNL A   1      29.171  25.235  26.216  1.00  0.00     0.025 C 
BRANCH   8  10
ATOM     10  C   UNL A   1      30.932  23.835  24.971  1.00  0.00    -0.015 A 
ATOM     11  C   UNL A   1      30.917  23.497  23.598  1.00  0.00     0.006 A 
ATOM     12  C   UNL A   1      31.523  22.889  25.826  1.00  0.00     0.045 A 
ATOM     13  C   UNL A   1      31.466  22.308  23.101  1.00  0.00     0.004 A 
ATOM     14  C   UNL A   1      32.039  21.671  25.324  1.00  0.00     0.024 A 
ATOM     15  Cl  UNL A   1      31.761  23.130  27.519  1.00  0.00    -0.084 Cl
ATOM     16  C   UNL A   1      32.033  21.366  23.955  1.00  0.00    -0.046 A 
BRANCH  16  17
ATOM     17  C   UNL A   1      32.813  20.169  23.440  1.00  0.00     0.047 C 
BRANCH  17  18
ATOM     18  C   UNL A   1      32.252  18.742  23.525  1.00  0.00     0.060 C 
ATOM     19  C   UNL A   1      32.683  17.801  22.403  1.00  0.00     0.012 C 
ATOM     20  C   UNL A   1      32.642  17.961  24.757  1.00  0.00     0.136 C 
ATOM     21  C   UNL A   1      33.788  16.932  22.986  1.00  0.00     0.009 C 
ATOM     22  C   UNL A   1      33.359  16.678  24.420  1.00  0.00     0.076 C 
ATOM     23  O   UNL A   1      32.407  18.318  25.906  1.00  0.00    -0.299 OA
ENDBRANCH  17  18
ENDBRANCH  16  17
ENDBRANCH   8  10
ENDBRANCH   6   8
ENDBRANCH   5   6
ENDBRANCH   4   5
ENDBRANCH   3   4
ENDBRANCH   2   3
ENDBRANCH   1   2
BRANCH   1  24
ATOM     24  C   UNL A   1      36.026  22.437  23.952  1.00  0.00     0.188 C 
BRANCH  24  25
ATOM     25  O   UNL A   1      35.485  21.304  24.616  1.00  0.00    -0.376 OA
BRANCH  25  26
ATOM     26  C   UNL A   1      36.385  20.261  24.972  1.00  0.00     0.202 C 
BRANCH  26  27
ATOM     27  C   UNL A   1      37.869  20.623  24.954  1.00  0.00     0.261 C 
BRANCH  27  28
ATOM     28  O   UNL A   1      38.518  20.239  26.179  1.00  0.00    -0.460 OA
BRANCH  28  29
ATOM     29  C   UNL A   1      39.860  20.418  26.202  1.00  0.00     0.338 C 
ATOM     30  O   UNL A   1      40.715  19.696  25.723  1.00  0.00    -0.246 OA
BRANCH  29  31
ATOM     31  C   UNL A   1      40.160  21.734  26.786  1.00  0.00     0.060 A 
ATOM     32  C   UNL A   1      39.665  22.869  26.145  1.00  0.00     0.016 A 
ATOM     33  C   UNL A   1      41.010  21.855  27.886  1.00  0.00     0.016 A 
ATOM     34  C   UNL A   1      40.041  24.131  26.590  1.00  0.00     0.010 A 
ATOM     35  C   UNL A   1      41.417  23.130  28.305  1.00  0.00     0.010 A 
ATOM     36  C   UNL A   1      40.970  24.277  27.628  1.00  0.00    -0.014 A 
BRANCH  36  37
ATOM     37  C   UNL A   1      41.612  25.601  27.843  1.00  0.00     0.031 A 
ATOM     38  C   UNL A   1      40.875  26.647  28.642  1.00  0.00     0.074 A 
ATOM     39  C   UNL A   1      42.876  25.848  27.450  1.00  0.00     0.049 A 
ATOM     40  N   UNL A   1      41.235  27.869  28.941  1.00  0.00    -0.248 NA
ATOM     41  C   UNL A   1      39.566  26.256  29.193  1.00  0.00     0.031 C 
ATOM     42  C   UNL A   1      43.753  24.894  26.775  1.00  0.00     0.029 A 
ATOM     43  N   UNL A   1      43.656  26.970  27.607  1.00  0.00    -0.354 N 
ATOM     44  C   UNL A   1      40.168  28.416  29.644  1.00  0.00     0.074 A 
ATOM     45  C   UNL A   1      39.165  27.382  29.766  1.00  0.00     0.031 C 
ATOM     46  C   UNL A   1      44.960  25.461  26.600  1.00  0.00     0.029 A 
ATOM     47  C   UNL A   1      44.926  26.836  27.098  1.00  0.00     0.049 A 
ATOM     48  H   UNL A   1      43.334  27.792  28.044  1.00  0.00     0.167 HD
ATOM     49  C   UNL A   1      40.027  29.668  30.140  1.00  0.00     0.034 A 
ATOM     50  C   UNL A   1      45.938  27.727  27.024  1.00  0.00     0.034 A 
ATOM     51  C   UNL A   1      41.033  30.690  30.076  1.00  0.00     0.049 A 
ATOM     52  C   UNL A   1      45.743  29.126  27.552  1.00  0.00     0.074 A 
ATOM     53  C   UNL A   1      40.968  31.991  30.546  1.00  0.00     0.029 A 
ATOM     54  N   UNL A   1      42.289  30.532  29.512  1.00  0.00    -0.354 N 
ATOM     55  N   UNL A   1      44.737  29.622  28.230  1.00  0.00    -0.248 NA
ATOM     56  C   UNL A   1      46.829  30.087  27.304  1.00  0.00     0.031 C 
ATOM     57  C   UNL A   1      42.181  32.624  30.255  1.00  0.00     0.029 A 
ATOM     58  C   UNL A   1      43.006  31.712  29.617  1.00  0.00     0.049 A 
ATOM     59  H   UNL A   1      42.622  29.704  29.100  1.00  0.00     0.167 HD
ATOM     60  C   UNL A   1      45.073  30.947  28.497  1.00  0.00     0.074 A 
ATOM     61  C   UNL A   1      46.393  31.165  27.945  1.00  0.00     0.031 C 
ATOM     62  C   UNL A   1      44.340  31.907  29.114  1.00  0.00     0.034 A 
BRANCH  49  63
ATOM     63  C   UNL A   1      38.716  30.014  30.789  1.00  0.00     0.023 A 
ATOM     64  C   UNL A   1      38.465  29.629  32.119  1.00  0.00     0.012 A 
ATOM     65  C   UNL A   1      37.755  30.769  30.089  1.00  0.00     0.148 A 
ATOM     66  C   UNL A   1      37.264  29.975  32.739  1.00  0.00     0.002 A 
ATOM     67  C   UNL A   1      36.579  31.143  30.725  1.00  0.00     0.091 A 
ATOM     68  F   UNL A   1      38.005  31.095  28.812  1.00  0.00    -0.205 F 
ATOM     69  C   UNL A   1      36.328  30.741  32.047  1.00  0.00     0.022 A 
BRANCH  67  70
ATOM     70  S   UNL A   1      35.353  32.187  29.928  1.00  0.00     0.127 S 
ATOM     71  O   UNL A   1      36.176  33.298  29.456  1.00  0.00    -0.237 OA
ATOM     72  O   UNL A   1      34.840  31.315  28.871  1.00  0.00    -0.237 OA
ATOM     73  O   UNL A   1      34.382  32.516  30.962  1.00  0.00    -0.744 OA
ENDBRANCH  67  70
ENDBRANCH  49  63
BRANCH  50  74
ATOM     74  C   UNL A   1      47.248  27.327  26.433  1.00  0.00     0.023 A 
ATOM     75  C   UNL A   1      47.545  27.681  25.101  1.00  0.00     0.012 A 
ATOM     76  C   UNL A   1      48.198  26.598  27.174  1.00  0.00     0.148 A 
ATOM     77  C   UNL A   1      48.755  27.303  24.518  1.00  0.00     0.002 A 
ATOM     78  C   UNL A   1      49.426  26.281  26.608  1.00  0.00     0.091 A 
ATOM     79  F   UNL A   1      47.882  26.228  28.423  1.00  0.00    -0.205 F 
ATOM     80  C   UNL A   1      49.702  26.617  25.275  1.00  0.00     0.022 A 
BRANCH  78  81
ATOM     81  S   UNL A   1      50.742  25.529  27.572  1.00  0.00     0.127 S 
ATOM     82  O   UNL A   1      50.837  26.438  28.710  1.00  0.00    -0.237 OA
ATOM     83  O   UNL A   1      50.185  24.211  27.879  1.00  0.00    -0.237 OA
ATOM     84  O   UNL A   1      51.892  25.494  26.678  1.00  0.00    -0.744 OA
ENDBRANCH  78  81
ENDBRANCH  50  74
BRANCH  62  85
ATOM     85  C   UNL A   1      44.938  33.286  29.236  1.00  0.00     0.023 A 
ATOM     86  C   UNL A   1      45.721  33.601  30.363  1.00  0.00     0.012 A 
ATOM     87  C   UNL A   1      44.805  34.232  28.201  1.00  0.00     0.148 A 
ATOM     88  C   UNL A   1      46.342  34.845  30.471  1.00  0.00     0.002 A 
ATOM     89  C   UNL A   1      45.463  35.454  28.296  1.00  0.00     0.091 A 
ATOM     90  F   UNL A   1      44.041  33.921  27.143  1.00  0.00    -0.205 F 
ATOM     91  C   UNL A   1      46.224  35.766  29.434  1.00  0.00     0.022 A 
BRANCH  89  92
ATOM     92  S   UNL A   1      45.438  36.662  26.965  1.00  0.00     0.127 S 
ATOM     93  O   UNL A   1      46.301  37.714  27.500  1.00  0.00    -0.237 OA
ATOM     94  O   UNL A   1      46.015  35.911  25.848  1.00  0.00    -0.237 OA
ATOM     95  O   UNL A   1      44.039  37.025  26.785  1.00  0.00    -0.744 OA
ENDBRANCH  89  92
ENDBRANCH  62  85
ENDBRANCH  36  37
ENDBRANCH  29  31
ENDBRANCH  28  29
ENDBRANCH  27  28
ENDBRANCH  26  27
ENDBRANCH  25  26
ENDBRANCH  24  25
ENDBRANCH   1  24
TORSDOF 23
ENDMDL
MODEL 3
REMARK VINA RESULT:      -9.8      1.486      7.865
REMARK SMILES C[C@@H](C(=O)OCCOCCOCCOC(=O)c1ccc(-c2c3nc(c(-c4cccc(S(=O)(=O)[O-])c4F)c4ccc([nH]4)c(-c4cccc(S(=O)(=O)[O-])c4F)c4nc(c(-c5cccc(S(=O)(=O)[O-])c5F)c5ccc2[nH]5)C=C4)C=C3)cc1)c1ccc(C[C@H]2CCCC2=O)cc1Cl
REMARK SMILES IDX 9 1 8 2 7 3 6 4 5 5 3 6 4 7 2 8 1 9 80 10 81 11 92 12 82 13
REMARK SMILES IDX 91 14 93 15 83 16 84 17 85 18 86 19 89 20 87 21 88 22 90 23
REMARK SMILES IDX 10 24 11 25 12 26 13 27 14 28 15 29 16 30 17 31 18 32 79 33
REMARK SMILES IDX 19 34 78 35 20 36 21 37 22 38 72 39 23 40 77 41 71 42 73 43
REMARK SMILES IDX 24 44 76 45 70 46 69 47 25 49 57 50 37 51 56 52 38 53 41 54
REMARK SMILES IDX 55 55 74 56 39 57 40 58 54 60 75 61 42 62 26 63 27 64 35 65
REMARK SMILES IDX 28 66 30 67 36 68 29 69 31 70 32 71 33 72 34 73 58 74 59 75
REMARK SMILES IDX 67 76 60 77 62 78 68 79 61 80 63 81 64 82 65 83 66 84 43 85
REMARK SMILES IDX 44 86 52 87 45 88 47 89 53 90 46 91 48 92 49 93 50 94 51 95
REMARK H PARENT 73 48 41 59
REMARK Flexibility Score: inf
ROOT
ATOM      1  C   UNL A   1      33.721  25.162  22.674  1.00  0.00     0.188 C 
ENDROOT
BRANCH   1   2
ATOM      2  O   UNL A   1      32.368  24.826  22.387  1.00  0.00    -0.376 OA
BRANCH   2   3
ATOM      3  C   UNL A   1      31.388  25.854  22.453  1.00  0.00     0.202 C 
BRANCH   3   4
ATOM      4  C   UNL A   1      31.878  27.268  22.156  1.00  0.00     0.261 C 
BRANCH   4   5
ATOM      5  O   UNL A   1      32.004  28.018  23.373  1.00  0.00    -0.463 OA
BRANCH   5   6
ATOM      6  C   UNL A   1      30.841  28.227  24.042  1.00  0.00     0.313 C 
ATOM      7  O   UNL A   1      29.829  28.694  23.533  1.00  0.00    -0.252 OA
BRANCH   6   8
ATOM      8  C   UNL A   1      30.952  27.853  25.511  1.00  0.00     0.127 C 
ATOM      9  C   UNL A   1      31.754  28.941  26.257  1.00  0.00     0.025 C 
BRANCH   8  10
ATOM     10  C   UNL A   1      31.363  26.424  25.902  1.00  0.00    -0.015 A 
ATOM     11  C   UNL A   1      30.327  25.463  25.936  1.00  0.00     0.006 A 
ATOM     12  C   UNL A   1      32.663  25.927  26.101  1.00  0.00     0.045 A 
ATOM     13  C   UNL A   1      30.562  24.097  26.137  1.00  0.00     0.004 A 
ATOM     14  C   UNL A   1      32.891  24.553  26.346  1.00  0.00     0.024 A 
ATOM     15  Cl  UNL A   1      34.094  26.886  25.989  1.00  0.00    -0.084 Cl
ATOM     16  C   UNL A   1      31.849  23.613  26.354  1.00  0.00    -0.046 A 
BRANCH  16  17
ATOM     17  C   UNL A   1      32.166  22.128  26.373  1.00  0.00     0.047 C 
BRANCH  17  18
ATOM     18  C   UNL A   1      33.053  21.478  25.301  1.00  0.00     0.060 C 
ATOM     19  C   UNL A   1      33.670  20.136  25.686  1.00  0.00     0.012 C 
ATOM     20  C   UNL A   1      32.363  21.144  24.000  1.00  0.00     0.136 C 
ATOM     21  C   UNL A   1      32.821  19.073  25.005  1.00  0.00     0.009 C 
ATOM     22  C   UNL A   1      32.457  19.678  23.661  1.00  0.00     0.076 C 
ATOM     23  O   UNL A   1      31.790  21.963  23.291  1.00  0.00    -0.299 OA
ENDBRANCH  17  18
ENDBRANCH  16  17
ENDBRANCH   8  10
ENDBRANCH   6   8
ENDBRANCH   5   6
ENDBRANCH   4   5
ENDBRANCH   3   4
ENDBRANCH   2   3
ENDBRANCH   1   2
BRANCH   1  24
ATOM     24  C   UNL A   1      34.612  24.133  23.400  1.00  0.00     0.188 C 
BRANCH  24  25
ATOM     25  O   UNL A   1      35.435  23.252  22.648  1.00  0.00    -0.376 OA
BRANCH  25  26
ATOM     26  C   UNL A   1      36.560  22.682  23.308  1.00  0.00     0.202 C 
BRANCH  26  27
ATOM     27  C   UNL A   1      36.673  22.969  24.804  1.00  0.00     0.261 C 
BRANCH  27  28
ATOM     28  O   UNL A   1      36.941  21.769  25.550  1.00  0.00    -0.460 OA
BRANCH  28  29
ATOM     29  C   UNL A   1      38.251  21.476  25.724  1.00  0.00     0.338 C 
ATOM     30  O   UNL A   1      38.867  20.529  25.273  1.00  0.00    -0.246 OA
BRANCH  29  31
ATOM     31  C   UNL A   1      38.900  22.581  26.446  1.00  0.00     0.060 A 
ATOM     32  C   UNL A   1      38.321  23.848  26.373  1.00  0.00     0.016 A 
ATOM     33  C   UNL A   1      40.121  22.396  27.095  1.00  0.00     0.016 A 
ATOM     34  C   UNL A   1      38.978  24.939  26.929  1.00  0.00     0.010 A 
ATOM     35  C   UNL A   1      40.798  23.508  27.619  1.00  0.00     0.010 A 
ATOM     36  C   UNL A   1      40.250  24.795  27.498  1.00  0.00    -0.014 A 
BRANCH  36  37
ATOM     37  C   UNL A   1      41.067  26.011  27.759  1.00  0.00     0.031 A 
ATOM     38  C   UNL A   1      40.495  27.098  28.634  1.00  0.00     0.074 A 
ATOM     39  C   UNL A   1      42.342  26.112  27.338  1.00  0.00     0.049 A 
ATOM     40  N   UNL A   1      41.020  28.244  28.983  1.00  0.00    -0.248 NA
ATOM     41  C   UNL A   1      39.160  26.852  29.206  1.00  0.00     0.031 C 
ATOM     42  C   UNL A   1      43.068  25.090  26.587  1.00  0.00     0.029 A 
ATOM     43  N   UNL A   1      43.267  27.112  27.527  1.00  0.00    -0.354 N 
ATOM     44  C   UNL A   1      40.053  28.887  29.748  1.00  0.00     0.074 A 
ATOM     45  C   UNL A   1      38.926  27.987  29.849  1.00  0.00     0.031 C 
ATOM     46  C   UNL A   1      44.334  25.504  26.402  1.00  0.00     0.029 A 
ATOM     47  C   UNL A   1      44.495  26.842  26.971  1.00  0.00     0.049 A 
ATOM     48  H   UNL A   1      43.068  27.944  28.016  1.00  0.00     0.167 HD
ATOM     49  C   UNL A   1      40.092  30.117  30.311  1.00  0.00     0.034 A 
ATOM     50  C   UNL A   1      45.613  27.596  26.909  1.00  0.00     0.034 A 
ATOM     51  C   UNL A   1      41.222  31.002  30.267  1.00  0.00     0.049 A 
ATOM     52  C   UNL A   1      45.618  28.977  27.514  1.00  0.00     0.074 A 
ATOM     53  C   UNL A   1      41.341  32.272  30.805  1.00  0.00     0.029 A 
ATOM     54  N   UNL A   1      42.431  30.712  29.655  1.00  0.00    -0.354 N 
ATOM     55  N   UNL A   1      44.704  29.563  28.249  1.00  0.00    -0.248 NA
ATOM     56  C   UNL A   1      46.815  29.801  27.280  1.00  0.00     0.031 C 
ATOM     57  C   UNL A   1      42.619  32.756  30.507  1.00  0.00     0.029 A 
ATOM     58  C   UNL A   1      43.300  31.781  29.797  1.00  0.00     0.049 A 
ATOM     59  H   UNL A   1      42.641  29.871  29.190  1.00  0.00     0.167 HD
ATOM     60  C   UNL A   1      45.219  30.816  28.572  1.00  0.00     0.074 A 
ATOM     61  C   UNL A   1      46.541  30.889  27.989  1.00  0.00     0.031 C 
ATOM     62  C   UNL A   1      44.635  31.828  29.261  1.00  0.00     0.034 A 
BRANCH  49  63
ATOM     63  C   UNL A   1      38.855  30.595  31.020  1.00  0.00     0.023 A 
ATOM     64  C   UNL A   1      38.754  30.479  32.419  1.00  0.00     0.012 A 
ATOM     65  C   UNL A   1      37.815  31.208  30.295  1.00  0.00     0.148 A 
ATOM     66  C   UNL A   1      37.623  30.950  33.086  1.00  0.00     0.002 A 
ATOM     67  C   UNL A   1      36.710  31.710  30.970  1.00  0.00     0.091 A 
ATOM     68  F   UNL A   1      37.920  31.277  28.960  1.00  0.00    -0.205 F 
ATOM     69  C   UNL A   1      36.608  31.575  32.364  1.00  0.00     0.022 A 
BRANCH  67  70
ATOM     70  S   UNL A   1      35.392  32.590  30.124  1.00  0.00     0.127 S 
ATOM     71  O   UNL A   1      34.927  31.581  29.175  1.00  0.00    -0.237 OA
ATOM     72  O   UNL A   1      34.459  32.878  31.214  1.00  0.00    -0.237 OA
ATOM     73  O   UNL A   1      36.016  33.767  29.537  1.00  0.00    -0.744 OA
ENDBRANCH  67  70
ENDBRANCH  49  63
BRANCH  50  74
ATOM     74  C   UNL A   1      46.843  27.061  26.256  1.00  0.00     0.023 A 
ATOM     75  C   UNL A   1      46.995  27.183  24.860  1.00  0.00     0.012 A 
ATOM     76  C   UNL A   1      47.858  26.433  27.002  1.00  0.00     0.148 A 
ATOM     77  C   UNL A   1      48.127  26.676  24.221  1.00  0.00     0.002 A 
ATOM     78  C   UNL A   1      49.011  25.987  26.368  1.00  0.00     0.091 A 
ATOM     79  F   UNL A   1      47.678  26.283  28.322  1.00  0.00    -0.205 F 
ATOM     80  C   UNL A   1      49.142  26.092  24.976  1.00  0.00     0.022 A 
BRANCH  78  81
ATOM     81  S   UNL A   1      50.415  25.359  27.297  1.00  0.00     0.127 S 
ATOM     82  O   UNL A   1      50.735  26.493  28.159  1.00  0.00    -0.237 OA
ATOM     83  O   UNL A   1      49.839  24.203  27.984  1.00  0.00    -0.237 OA
ATOM     84  O   UNL A   1      51.411  25.016  26.291  1.00  0.00    -0.744 OA
ENDBRANCH  78  81
ENDBRANCH  50  74
BRANCH  62  85
ATOM     85  C   UNL A   1      45.412  33.108  29.434  1.00  0.00     0.023 A 
ATOM     86  C   UNL A   1      46.177  33.299  30.601  1.00  0.00     0.012 A 
ATOM     87  C   UNL A   1      45.463  34.074  28.410  1.00  0.00     0.148 A 
ATOM     88  C   UNL A   1      46.959  34.442  30.759  1.00  0.00     0.002 A 
ATOM     89  C   UNL A   1      46.279  35.191  28.556  1.00  0.00     0.091 A 
ATOM     90  F   UNL A   1      44.714  33.884  27.313  1.00  0.00    -0.205 F 
ATOM     91  C   UNL A   1      47.020  35.381  29.733  1.00  0.00     0.022 A 
BRANCH  89  92
ATOM     92  S   UNL A   1      46.487  36.404  27.246  1.00  0.00     0.127 S 
ATOM     93  O   UNL A   1      47.194  37.477  27.941  1.00  0.00    -0.237 OA
ATOM     94  O   UNL A   1      47.296  35.675  26.268  1.00  0.00    -0.237 OA
ATOM     95  O   UNL A   1      45.142  36.729  26.789  1.00  0.00    -0.744 OA
ENDBRANCH  89  92
ENDBRANCH  62  85
ENDBRANCH  36  37
ENDBRANCH  29  31
ENDBRANCH  28  29
ENDBRANCH  27  28
ENDBRANCH  26  27
ENDBRANCH  25  26
ENDBRANCH  24  25
ENDBRANCH   1  24
TORSDOF 23
ENDMDL
