MODEL 1
REMARK VINA RESULT:      -9.5      0.000      0.000
REMARK SMILES Cc1cc([C@H](C)NC(=O)N2CC[C@H](C(=O)OCCOCCOCCOC(=O)c3ccc(-c4c5nc(c(-c6cccc(S(=O)(=O)[O-])c6F)c6ccc([nH]6)c(-c6cccc(S(=O)(=O)[O-])c6F)c6nc(c(-c7cccc(S(=O)(=O)[O-])c7F)c7ccc4[nH]7)C=C6)C=C5)cc3)[C@@H]2C)c(C)s1
REMARK SMILES IDX 20 1 19 2 18 3 17 4 16 5 14 6 15 7 13 8 10 9 11 10 91 11
REMARK SMILES IDX 12 12 92 13 8 14 7 15 9 17 5 18 6 19 4 20 1 21 2 22 3 23
REMARK SMILES IDX 95 24 93 25 94 26 21 27 22 28 23 29 24 30 25 31 26 32 27 33
REMARK SMILES IDX 28 34 29 35 90 36 30 37 89 38 31 39 32 40 33 41 83 42 34 43
REMARK SMILES IDX 88 44 82 45 84 46 35 47 87 48 81 49 80 50 36 52 68 53 48 54
REMARK SMILES IDX 67 55 49 56 52 57 66 58 85 59 50 60 51 61 65 63 86 64 53 65
REMARK SMILES IDX 37 66 38 67 46 68 39 69 41 70 47 71 40 72 42 73 43 74 44 75
REMARK SMILES IDX 45 76 69 77 70 78 78 79 71 80 73 81 79 82 72 83 74 84 75 85
REMARK SMILES IDX 76 86 77 87 54 88 55 89 63 90 56 91 58 92 64 93 57 94 59 95
REMARK SMILES IDX 60 96 61 97 62 98
REMARK H PARENT 7 16 84 51 52 62
REMARK Flexibility Score: inf
ROOT
ATOM      1  C   UNL A   1      36.175  21.167  24.646  1.00  0.00     0.188 C 
ENDROOT
BRANCH   1   2
ATOM      2  O   UNL A   1      35.157  20.623  25.475  1.00  0.00    -0.376 OA
BRANCH   2   3
ATOM      3  C   UNL A   1      34.533  19.420  24.995  1.00  0.00     0.202 C 
BRANCH   3   4
ATOM      4  C   UNL A   1      33.027  19.494  24.669  1.00  0.00     0.261 C 
BRANCH   4   5
ATOM      5  O   UNL A   1      32.537  20.855  24.699  1.00  0.00    -0.463 OA
BRANCH   5   6
ATOM      6  C   UNL A   1      32.392  21.482  23.497  1.00  0.00     0.311 C 
ATOM      7  O   UNL A   1      31.882  20.957  22.517  1.00  0.00    -0.252 OA
BRANCH   6   8
ATOM      8  C   UNL A   1      32.905  22.921  23.590  1.00  0.00     0.123 C 
ATOM      9  N   UNL A   1      32.372  24.952  22.449  1.00  0.00    -0.321 N 
ATOM     10  C   UNL A   1      33.167  24.154  21.541  1.00  0.00     0.122 C 
ATOM     11  C   UNL A   1      31.856  24.077  23.508  1.00  0.00     0.098 C 
ATOM     12  C   UNL A   1      33.908  23.211  22.470  1.00  0.00     0.039 C 
ATOM     13  C   UNL A   1      30.437  23.602  23.179  1.00  0.00     0.032 C 
BRANCH   9  14
ATOM     14  C   UNL A   1      31.953  26.196  22.056  1.00  0.00     0.318 C 
ATOM     15  N   UNL A   1      32.111  27.269  22.877  1.00  0.00    -0.331 N 
ATOM     16  H   UNL A   1      31.297  27.721  23.198  1.00  0.00     0.165 HD
ATOM     17  O   UNL A   1      31.431  26.385  20.959  1.00  0.00    -0.249 OA
BRANCH  15  18
ATOM     18  C   UNL A   1      33.393  27.800  23.319  1.00  0.00     0.112 C 
ATOM     19  C   UNL A   1      33.866  28.913  22.376  1.00  0.00     0.036 C 
BRANCH  18  20
ATOM     20  C   UNL A   1      33.320  28.319  24.759  1.00  0.00    -0.012 A 
ATOM     21  C   UNL A   1      33.159  31.121  27.369  1.00  0.00     0.056 C 
ATOM     22  C   UNL A   1      33.219  29.873  26.549  1.00  0.00     0.002 A 
ATOM     23  C   UNL A   1      33.121  29.695  25.179  1.00  0.00     0.021 A 
ATOM     24  S   UNL A   1      33.441  28.388  27.350  1.00  0.00    -0.146 S 
ATOM     25  C   UNL A   1      33.537  27.530  25.880  1.00  0.00     0.007 A 
ATOM     26  C   UNL A   1      33.807  26.072  25.934  1.00  0.00     0.057 C 
ENDBRANCH  18  20
ENDBRANCH  15  18
ENDBRANCH   9  14
ENDBRANCH   6   8
ENDBRANCH   5   6
ENDBRANCH   4   5
ENDBRANCH   3   4
ENDBRANCH   2   3
ENDBRANCH   1   2
BRANCH   1  27
ATOM     27  C   UNL A   1      37.189  22.074  25.328  1.00  0.00     0.188 C 
BRANCH  27  28
ATOM     28  O   UNL A   1      38.322  21.456  25.906  1.00  0.00    -0.376 OA
BRANCH  28  29
ATOM     29  C   UNL A   1      38.761  20.284  25.230  1.00  0.00     0.202 C 
BRANCH  29  30
ATOM     30  C   UNL A   1      39.824  19.433  25.948  1.00  0.00     0.261 C 
BRANCH  30  31
ATOM     31  O   UNL A   1      40.274  19.911  27.238  1.00  0.00    -0.460 OA
BRANCH  31  32
ATOM     32  C   UNL A   1      41.556  20.383  27.237  1.00  0.00     0.338 C 
ATOM     33  O   UNL A   1      42.560  19.712  27.049  1.00  0.00    -0.246 OA
BRANCH  32  34
ATOM     34  C   UNL A   1      41.658  21.832  27.546  1.00  0.00     0.060 A 
ATOM     35  C   UNL A   1      41.219  22.795  26.655  1.00  0.00     0.016 A 
ATOM     36  C   UNL A   1      42.374  22.247  28.678  1.00  0.00     0.016 A 
ATOM     37  C   UNL A   1      41.541  24.143  26.875  1.00  0.00     0.010 A 
ATOM     38  C   UNL A   1      42.661  23.611  28.904  1.00  0.00     0.010 A 
ATOM     39  C   UNL A   1      42.279  24.587  27.975  1.00  0.00    -0.014 A 
BRANCH  39  40
ATOM     40  C   UNL A   1      42.730  26.022  28.044  1.00  0.00     0.031 A 
ATOM     41  C   UNL A   1      44.059  26.431  27.451  1.00  0.00     0.074 A 
ATOM     42  C   UNL A   1      41.933  27.011  28.504  1.00  0.00     0.049 A 
ATOM     43  N   UNL A   1      44.659  27.597  27.453  1.00  0.00    -0.248 NA
ATOM     44  C   UNL A   1      44.790  25.394  26.712  1.00  0.00     0.031 C 
ATOM     45  C   UNL A   1      40.557  26.845  28.968  1.00  0.00     0.029 A 
ATOM     46  N   UNL A   1      42.164  28.365  28.649  1.00  0.00    -0.354 N 
ATOM     47  C   UNL A   1      45.854  27.418  26.764  1.00  0.00     0.074 A 
ATOM     48  C   UNL A   1      45.873  26.044  26.315  1.00  0.00     0.031 C 
ATOM     49  C   UNL A   1      40.063  28.041  29.327  1.00  0.00     0.029 A 
ATOM     50  C   UNL A   1      41.116  29.048  29.226  1.00  0.00     0.049 A 
ATOM     51  H   UNL A   1      43.000  28.800  28.364  1.00  0.00     0.167 HD
ATOM     52  C   UNL A   1      46.861  28.299  26.545  1.00  0.00     0.034 A 
ATOM     53  C   UNL A   1      41.026  30.314  29.689  1.00  0.00     0.034 A 
ATOM     54  C   UNL A   1      46.878  29.659  27.015  1.00  0.00     0.049 A 
ATOM     55  C   UNL A   1      42.219  31.232  29.588  1.00  0.00     0.074 A 
ATOM     56  C   UNL A   1      47.903  30.585  26.929  1.00  0.00     0.029 A 
ATOM     57  N   UNL A   1      45.836  30.280  27.680  1.00  0.00    -0.354 N 
ATOM     58  N   UNL A   1      43.362  31.039  28.976  1.00  0.00    -0.248 NA
ATOM     59  C   UNL A   1      42.115  32.543  30.251  1.00  0.00     0.031 C 
ATOM     60  C   UNL A   1      47.500  31.749  27.592  1.00  0.00     0.029 A 
ATOM     61  C   UNL A   1      46.202  31.567  28.038  1.00  0.00     0.049 A 
ATOM     62  H   UNL A   1      44.962  29.868  27.870  1.00  0.00     0.167 HD
ATOM     63  C   UNL A   1      44.098  32.207  29.160  1.00  0.00     0.074 A 
ATOM     64  C   UNL A   1      43.264  33.114  29.917  1.00  0.00     0.031 C 
ATOM     65  C   UNL A   1      45.359  32.490  28.752  1.00  0.00     0.034 A 
BRANCH  52  66
ATOM     66  C   UNL A   1      48.088  27.785  25.840  1.00  0.00     0.023 A 
ATOM     67  C   UNL A   1      49.168  27.252  26.570  1.00  0.00     0.012 A 
ATOM     68  C   UNL A   1      48.147  27.811  24.432  1.00  0.00     0.148 A 
ATOM     69  C   UNL A   1      50.301  26.778  25.907  1.00  0.00     0.002 A 
ATOM     70  C   UNL A   1      49.260  27.301  23.778  1.00  0.00     0.091 A 
ATOM     71  F   UNL A   1      47.114  28.340  23.762  1.00  0.00    -0.205 F 
ATOM     72  C   UNL A   1      50.344  26.795  24.513  1.00  0.00     0.022 A 
BRANCH  70  73
ATOM     73  S   UNL A   1      49.379  27.228  21.988  1.00  0.00     0.127 S 
ATOM     74  O   UNL A   1      50.811  26.998  21.798  1.00  0.00    -0.237 OA
ATOM     75  O   UNL A   1      48.528  26.082  21.671  1.00  0.00    -0.237 OA
ATOM     76  O   UNL A   1      48.885  28.508  21.498  1.00  0.00    -0.744 OA
ENDBRANCH  70  73
ENDBRANCH  52  66
BRANCH  53  77
ATOM     77  C   UNL A   1      39.779  30.785  30.374  1.00  0.00     0.023 A 
ATOM     78  C   UNL A   1      38.692  31.264  29.617  1.00  0.00     0.012 A 
ATOM     79  C   UNL A   1      39.685  30.793  31.781  1.00  0.00     0.148 A 
ATOM     80  C   UNL A   1      37.550  31.765  30.249  1.00  0.00     0.002 A 
ATOM     81  C   UNL A   1      38.520  31.224  32.400  1.00  0.00     0.091 A 
ATOM     82  F   UNL A   1      40.745  30.383  32.492  1.00  0.00    -0.205 F 
ATOM     83  C   UNL A   1      37.458  31.732  31.639  1.00  0.00     0.022 A 
BRANCH  81  84
ATOM     84  S   UNL A   1      38.271  31.087  34.174  1.00  0.00     0.127 S 
ATOM     85  O   UNL A   1      37.092  31.924  34.378  1.00  0.00    -0.237 OA
ATOM     86  O   UNL A   1      38.042  29.650  34.338  1.00  0.00    -0.237 OA
ATOM     87  O   UNL A   1      39.503  31.570  34.784  1.00  0.00    -0.744 OA
ENDBRANCH  81  84
ENDBRANCH  53  77
BRANCH  65  88
ATOM     88  C   UNL A   1      45.924  33.852  29.072  1.00  0.00     0.023 A 
ATOM     89  C   UNL A   1      46.769  34.025  30.186  1.00  0.00     0.012 A 
ATOM     90  C   UNL A   1      45.685  34.944  28.212  1.00  0.00     0.148 A 
ATOM     91  C   UNL A   1      47.342  35.268  30.455  1.00  0.00     0.002 A 
ATOM     92  C   UNL A   1      46.300  36.164  28.458  1.00  0.00     0.091 A 
ATOM     93  F   UNL A   1      44.864  34.765  27.167  1.00  0.00    -0.205 F 
ATOM     94  C   UNL A   1      47.119  36.332  29.587  1.00  0.00     0.022 A 
BRANCH  92  95
ATOM     95  S   UNL A   1      46.153  37.563  27.339  1.00  0.00     0.127 S 
ATOM     96  O   UNL A   1      47.040  37.165  26.247  1.00  0.00    -0.237 OA
ATOM     97  O   UNL A   1      44.729  37.545  27.005  1.00  0.00    -0.237 OA
ATOM     98  O   UNL A   1      46.583  38.731  28.096  1.00  0.00    -0.744 OA
ENDBRANCH  92  95
ENDBRANCH  65  88
ENDBRANCH  39  40
ENDBRANCH  32  34
ENDBRANCH  31  32
ENDBRANCH  30  31
ENDBRANCH  29  30
ENDBRANCH  28  29
ENDBRANCH  27  28
ENDBRANCH   1  27
TORSDOF 23
ENDMDL
MODEL 2
REMARK VINA RESULT:      -9.2      6.195     11.140
REMARK SMILES Cc1cc([C@H](C)NC(=O)N2CC[C@H](C(=O)OCCOCCOCCOC(=O)c3ccc(-c4c5nc(c(-c6cccc(S(=O)(=O)[O-])c6F)c6ccc([nH]6)c(-c6cccc(S(=O)(=O)[O-])c6F)c6nc(c(-c7cccc(S(=O)(=O)[O-])c7F)c7ccc4[nH]7)C=C6)C=C5)cc3)[C@@H]2C)c(C)s1
REMARK SMILES IDX 20 1 19 2 18 3 17 4 16 5 14 6 15 7 13 8 10 9 11 10 91 11
REMARK SMILES IDX 12 12 92 13 8 14 7 15 9 17 5 18 6 19 4 20 1 21 2 22 3 23
REMARK SMILES IDX 95 24 93 25 94 26 21 27 22 28 23 29 24 30 25 31 26 32 27 33
REMARK SMILES IDX 28 34 29 35 90 36 30 37 89 38 31 39 32 40 33 41 83 42 34 43
REMARK SMILES IDX 88 44 82 45 84 46 35 47 87 48 81 49 80 50 36 52 68 53 48 54
REMARK SMILES IDX 67 55 49 56 52 57 66 58 85 59 50 60 51 61 65 63 86 64 53 65
REMARK SMILES IDX 37 66 38 67 46 68 39 69 41 70 47 71 40 72 42 73 43 74 44 75
REMARK SMILES IDX 45 76 69 77 70 78 78 79 71 80 73 81 79 82 72 83 74 84 75 85
REMARK SMILES IDX 76 86 77 87 54 88 55 89 63 90 56 91 58 92 64 93 57 94 59 95
REMARK SMILES IDX 60 96 61 97 62 98
REMARK H PARENT 7 16 84 51 52 62
REMARK Flexibility Score: inf
ROOT
ATOM      1  C   UNL A   1      33.840  31.067  27.295  1.00  0.00     0.188 C 
ENDROOT
BRANCH   1   2
ATOM      2  O   UNL A   1      32.576  30.699  26.762  1.00  0.00    -0.376 OA
BRANCH   2   3
ATOM      3  C   UNL A   1      32.022  29.467  27.255  1.00  0.00     0.202 C 
BRANCH   3   4
ATOM      4  C   UNL A   1      31.416  28.505  26.212  1.00  0.00     0.261 C 
BRANCH   4   5
ATOM      5  O   UNL A   1      32.371  28.157  25.183  1.00  0.00    -0.463 OA
BRANCH   5   6
ATOM      6  C   UNL A   1      31.873  27.567  24.058  1.00  0.00     0.311 C 
ATOM      7  O   UNL A   1      31.304  28.182  23.167  1.00  0.00    -0.252 OA
BRANCH   6   8
ATOM      8  C   UNL A   1      32.184  26.068  24.070  1.00  0.00     0.123 C 
ATOM      9  N   UNL A   1      31.719  24.288  25.596  1.00  0.00    -0.321 N 
ATOM     10  C   UNL A   1      32.795  25.067  26.171  1.00  0.00     0.122 C 
ATOM     11  C   UNL A   1      31.063  25.095  24.560  1.00  0.00     0.098 C 
ATOM     12  C   UNL A   1      33.390  25.773  24.967  1.00  0.00     0.039 C 
ATOM     13  C   UNL A   1      29.829  25.806  25.123  1.00  0.00     0.032 C 
BRANCH   9  14
ATOM     14  C   UNL A   1      31.271  23.175  26.255  1.00  0.00     0.318 C 
ATOM     15  N   UNL A   1      31.486  21.933  25.741  1.00  0.00    -0.331 N 
ATOM     16  H   UNL A   1      30.696  21.403  25.488  1.00  0.00     0.165 HD
ATOM     17  O   UNL A   1      30.671  23.257  27.326  1.00  0.00    -0.249 OA
BRANCH  15  18
ATOM     18  C   UNL A   1      32.796  21.330  25.537  1.00  0.00     0.112 C 
ATOM     19  C   UNL A   1      33.553  21.230  26.867  1.00  0.00     0.036 C 
BRANCH  18  20
ATOM     20  C   UNL A   1      32.682  19.949  24.885  1.00  0.00    -0.012 A 
ATOM     21  C   UNL A   1      33.156  16.146  24.847  1.00  0.00     0.056 C 
ATOM     22  C   UNL A   1      32.876  17.598  24.631  1.00  0.00     0.002 A 
ATOM     23  C   UNL A   1      32.952  18.666  25.509  1.00  0.00     0.021 A 
ATOM     24  S   UNL A   1      32.379  18.104  23.085  1.00  0.00    -0.146 S 
ATOM     25  C   UNL A   1      32.389  19.747  23.542  1.00  0.00     0.007 A 
ATOM     26  C   UNL A   1      32.072  20.766  22.512  1.00  0.00     0.057 C 
ENDBRANCH  18  20
ENDBRANCH  15  18
ENDBRANCH   9  14
ENDBRANCH   6   8
ENDBRANCH   5   6
ENDBRANCH   4   5
ENDBRANCH   3   4
ENDBRANCH   2   3
ENDBRANCH   1   2
BRANCH   1  27
ATOM     27  C   UNL A   1      34.839  29.938  27.504  1.00  0.00     0.188 C 
BRANCH  27  28
ATOM     28  O   UNL A   1      36.210  30.253  27.354  1.00  0.00    -0.376 OA
BRANCH  28  29
ATOM     29  C   UNL A   1      36.737  31.087  28.379  1.00  0.00     0.202 C 
BRANCH  29  30
ATOM     30  C   UNL A   1      37.081  30.401  29.714  1.00  0.00     0.261 C 
BRANCH  30  31
ATOM     31  O   UNL A   1      37.592  31.253  30.767  1.00  0.00    -0.460 OA
BRANCH  31  32
ATOM     32  C   UNL A   1      37.528  30.694  32.012  1.00  0.00     0.338 C 
ATOM     33  O   UNL A   1      36.571  30.755  32.770  1.00  0.00    -0.246 OA
BRANCH  32  34
ATOM     34  C   UNL A   1      38.781  30.013  32.426  1.00  0.00     0.060 A 
ATOM     35  C   UNL A   1      39.963  30.713  32.597  1.00  0.00     0.016 A 
ATOM     36  C   UNL A   1      38.822  28.612  32.472  1.00  0.00     0.016 A 
ATOM     37  C   UNL A   1      41.168  30.012  32.758  1.00  0.00     0.010 A 
ATOM     38  C   UNL A   1      40.038  27.921  32.670  1.00  0.00     0.010 A 
ATOM     39  C   UNL A   1      41.248  28.617  32.777  1.00  0.00    -0.014 A 
BRANCH  39  40
ATOM     40  C   UNL A   1      42.596  27.945  32.778  1.00  0.00     0.031 A 
ATOM     41  C   UNL A   1      43.250  27.557  34.085  1.00  0.00     0.074 A 
ATOM     42  C   UNL A   1      43.209  27.545  31.642  1.00  0.00     0.049 A 
ATOM     43  N   UNL A   1      44.427  27.024  34.312  1.00  0.00    -0.248 NA
ATOM     44  C   UNL A   1      42.448  27.752  35.299  1.00  0.00     0.031 C 
ATOM     45  C   UNL A   1      42.665  27.682  30.293  1.00  0.00     0.029 A 
ATOM     46  N   UNL A   1      44.428  26.929  31.442  1.00  0.00    -0.354 N 
ATOM     47  C   UNL A   1      44.522  26.869  35.691  1.00  0.00     0.074 A 
ATOM     48  C   UNL A   1      43.265  27.318  36.247  1.00  0.00     0.031 C 
ATOM     49  C   UNL A   1      43.530  27.154  29.411  1.00  0.00     0.029 A 
ATOM     50  C   UNL A   1      44.741  26.739  30.114  1.00  0.00     0.049 A 
ATOM     51  H   UNL A   1      45.016  26.650  32.181  1.00  0.00     0.167 HD
ATOM     52  C   UNL A   1      45.562  26.424  36.437  1.00  0.00     0.034 A 
ATOM     53  C   UNL A   1      45.888  26.346  29.517  1.00  0.00     0.034 A 
ATOM     54  C   UNL A   1      46.833  26.008  35.907  1.00  0.00     0.049 A 
ATOM     55  C   UNL A   1      47.094  26.016  30.363  1.00  0.00     0.074 A 
ATOM     56  C   UNL A   1      47.976  25.644  36.598  1.00  0.00     0.029 A 
ATOM     57  N   UNL A   1      47.140  25.924  34.560  1.00  0.00    -0.354 N 
ATOM     58  N   UNL A   1      47.188  25.917  31.666  1.00  0.00    -0.248 NA
ATOM     59  C   UNL A   1      48.357  25.750  29.654  1.00  0.00     0.031 C 
ATOM     60  C   UNL A   1      48.991  25.395  35.669  1.00  0.00     0.029 A 
ATOM     61  C   UNL A   1      48.462  25.544  34.398  1.00  0.00     0.049 A 
ATOM     62  H   UNL A   1      46.511  26.106  33.825  1.00  0.00     0.167 HD
ATOM     63  C   UNL A   1      48.508  25.557  31.929  1.00  0.00     0.074 A 
ATOM     64  C   UNL A   1      49.171  25.428  30.651  1.00  0.00     0.031 C 
ATOM     65  C   UNL A   1      49.115  25.370  33.127  1.00  0.00     0.034 A 
BRANCH  52  66
ATOM     66  C   UNL A   1      45.404  26.459  37.934  1.00  0.00     0.023 A 
ATOM     67  C   UNL A   1      45.108  25.285  38.655  1.00  0.00     0.012 A 
ATOM     68  C   UNL A   1      45.582  27.673  38.628  1.00  0.00     0.148 A 
ATOM     69  C   UNL A   1      44.964  25.328  40.042  1.00  0.00     0.002 A 
ATOM     70  C   UNL A   1      45.476  27.700  40.011  1.00  0.00     0.091 A 
ATOM     71  F   UNL A   1      45.845  28.779  37.917  1.00  0.00    -0.205 F 
ATOM     72  C   UNL A   1      45.155  26.532  40.720  1.00  0.00     0.022 A 
BRANCH  70  73
ATOM     73  S   UNL A   1      45.763  29.189  40.973  1.00  0.00     0.127 S 
ATOM     74  O   UNL A   1      45.681  28.676  42.340  1.00  0.00    -0.237 OA
ATOM     75  O   UNL A   1      47.107  29.575  40.545  1.00  0.00    -0.237 OA
ATOM     76  O   UNL A   1      44.711  30.123  40.595  1.00  0.00    -0.744 OA
ENDBRANCH  70  73
ENDBRANCH  52  66
BRANCH  53  77
ATOM     77  C   UNL A   1      45.995  26.316  28.024  1.00  0.00     0.023 A 
ATOM     78  C   UNL A   1      46.234  27.505  27.306  1.00  0.00     0.012 A 
ATOM     79  C   UNL A   1      45.824  25.112  27.309  1.00  0.00     0.148 A 
ATOM     80  C   UNL A   1      46.271  27.498  25.908  1.00  0.00     0.002 A 
ATOM     81  C   UNL A   1      45.935  25.100  25.925  1.00  0.00     0.091 A 
ATOM     82  F   UNL A   1      45.548  23.997  27.999  1.00  0.00    -0.205 F 
ATOM     83  C   UNL A   1      46.136  26.294  25.219  1.00  0.00     0.022 A 
BRANCH  81  84
ATOM     84  S   UNL A   1      45.909  23.575  24.976  1.00  0.00     0.127 S 
ATOM     85  O   UNL A   1      46.408  22.608  25.950  1.00  0.00    -0.237 OA
ATOM     86  O   UNL A   1      44.488  23.445  24.651  1.00  0.00    -0.237 OA
ATOM     87  O   UNL A   1      46.768  23.813  23.823  1.00  0.00    -0.744 OA
ENDBRANCH  81  84
ENDBRANCH  53  77
BRANCH  65  88
ATOM     88  C   UNL A   1      50.568  24.964  33.134  1.00  0.00     0.023 A 
ATOM     89  C   UNL A   1      51.577  25.945  33.188  1.00  0.00     0.012 A 
ATOM     90  C   UNL A   1      50.928  23.601  33.176  1.00  0.00     0.148 A 
ATOM     91  C   UNL A   1      52.922  25.577  33.255  1.00  0.00     0.002 A 
ATOM     92  C   UNL A   1      52.264  23.243  33.294  1.00  0.00     0.091 A 
ATOM     93  F   UNL A   1      49.955  22.681  33.106  1.00  0.00    -0.205 F 
ATOM     94  C   UNL A   1      53.265  24.229  33.320  1.00  0.00     0.022 A 
BRANCH  92  95
ATOM     95  S   UNL A   1      52.794  21.536  33.488  1.00  0.00     0.127 S 
ATOM     96  O   UNL A   1      53.531  21.309  32.247  1.00  0.00    -0.237 OA
ATOM     97  O   UNL A   1      53.626  21.604  34.689  1.00  0.00    -0.237 OA
ATOM     98  O   UNL A   1      51.575  20.752  33.641  1.00  0.00    -0.744 OA
ENDBRANCH  92  95
ENDBRANCH  65  88
ENDBRANCH  39  40
ENDBRANCH  32  34
ENDBRANCH  31  32
ENDBRANCH  30  31
ENDBRANCH  29  30
ENDBRANCH  28  29
ENDBRANCH  27  28
ENDBRANCH   1  27
TORSDOF 23
ENDMDL
MODEL 3
REMARK VINA RESULT:      -9.0      2.524      3.114
REMARK SMILES Cc1cc([C@H](C)NC(=O)N2CC[C@H](C(=O)OCCOCCOCCOC(=O)c3ccc(-c4c5nc(c(-c6cccc(S(=O)(=O)[O-])c6F)c6ccc([nH]6)c(-c6cccc(S(=O)(=O)[O-])c6F)c6nc(c(-c7cccc(S(=O)(=O)[O-])c7F)c7ccc4[nH]7)C=C6)C=C5)cc3)[C@@H]2C)c(C)s1
REMARK SMILES IDX 20 1 19 2 18 3 17 4 16 5 14 6 15 7 13 8 10 9 11 10 91 11
REMARK SMILES IDX 12 12 92 13 8 14 7 15 9 17 5 18 6 19 4 20 1 21 2 22 3 23
REMARK SMILES IDX 95 24 93 25 94 26 21 27 22 28 23 29 24 30 25 31 26 32 27 33
REMARK SMILES IDX 28 34 29 35 90 36 30 37 89 38 31 39 32 40 33 41 83 42 34 43
REMARK SMILES IDX 88 44 82 45 84 46 35 47 87 48 81 49 80 50 36 52 68 53 48 54
REMARK SMILES IDX 67 55 49 56 52 57 66 58 85 59 50 60 51 61 65 63 86 64 53 65
REMARK SMILES IDX 37 66 38 67 46 68 39 69 41 70 47 71 40 72 42 73 43 74 44 75
REMARK SMILES IDX 45 76 69 77 70 78 78 79 71 80 73 81 79 82 72 83 74 84 75 85
REMARK SMILES IDX 76 86 77 87 54 88 55 89 63 90 56 91 58 92 64 93 57 94 59 95
REMARK SMILES IDX 60 96 61 97 62 98
REMARK H PARENT 7 16 84 51 52 62
REMARK Flexibility Score: inf
ROOT
ATOM      1  C   UNL A   1      35.366  20.648  25.404  1.00  0.00     0.188 C 
ENDROOT
BRANCH   1   2
ATOM      2  O   UNL A   1      34.504  21.105  26.437  1.00  0.00    -0.376 OA
BRANCH   2   3
ATOM      3  C   UNL A   1      33.171  20.564  26.426  1.00  0.00     0.202 C 
BRANCH   3   4
ATOM      4  C   UNL A   1      32.080  21.405  25.732  1.00  0.00     0.261 C 
BRANCH   4   5
ATOM      5  O   UNL A   1      32.485  22.784  25.573  1.00  0.00    -0.463 OA
BRANCH   5   6
ATOM      6  C   UNL A   1      31.809  23.712  26.310  1.00  0.00     0.311 C 
ATOM      7  O   UNL A   1      31.743  23.688  27.532  1.00  0.00    -0.252 OA
BRANCH   6   8
ATOM      8  C   UNL A   1      31.212  24.781  25.391  1.00  0.00     0.123 C 
ATOM      9  N   UNL A   1      31.521  27.140  25.168  1.00  0.00    -0.321 N 
ATOM     10  C   UNL A   1      30.711  26.930  26.348  1.00  0.00     0.122 C 
ATOM     11  C   UNL A   1      32.175  25.872  24.821  1.00  0.00     0.098 C 
ATOM     12  C   UNL A   1      30.107  25.558  26.111  1.00  0.00     0.039 C 
ATOM     13  C   UNL A   1      33.591  25.812  25.402  1.00  0.00     0.032 C 
BRANCH   9  14
ATOM     14  C   UNL A   1      31.827  28.418  24.783  1.00  0.00     0.318 C 
ATOM     15  N   UNL A   1      32.208  28.683  23.504  1.00  0.00    -0.331 N 
ATOM     16  H   UNL A   1      33.117  29.031  23.362  1.00  0.00     0.165 HD
ATOM     17  O   UNL A   1      31.764  29.362  25.570  1.00  0.00    -0.249 OA
BRANCH  15  18
ATOM     18  C   UNL A   1      31.371  28.489  22.327  1.00  0.00     0.112 C 
ATOM     19  C   UNL A   1      31.067  26.999  22.125  1.00  0.00     0.036 C 
BRANCH  18  20
ATOM     20  C   UNL A   1      30.068  29.288  22.429  1.00  0.00    -0.012 A 
ATOM     21  C   UNL A   1      28.055  32.550  22.388  1.00  0.00     0.056 C 
ATOM     22  C   UNL A   1      28.619  31.167  22.449  1.00  0.00     0.002 A 
ATOM     23  C   UNL A   1      29.890  30.703  22.154  1.00  0.00     0.021 A 
ATOM     24  S   UNL A   1      27.601  29.900  22.952  1.00  0.00    -0.146 S 
ATOM     25  C   UNL A   1      28.872  28.765  22.904  1.00  0.00     0.007 A 
ATOM     26  C   UNL A   1      28.589  27.374  23.332  1.00  0.00     0.057 C 
ENDBRANCH  18  20
ENDBRANCH  15  18
ENDBRANCH   9  14
ENDBRANCH   6   8
ENDBRANCH   5   6
ENDBRANCH   4   5
ENDBRANCH   3   4
ENDBRANCH   2   3
ENDBRANCH   1   2
BRANCH   1  27
ATOM     27  C   UNL A   1      36.264  21.695  24.762  1.00  0.00     0.188 C 
BRANCH  27  28
ATOM     28  O   UNL A   1      37.449  21.235  24.141  1.00  0.00    -0.376 OA
BRANCH  28  29
ATOM     29  C   UNL A   1      38.086  20.157  24.816  1.00  0.00     0.202 C 
BRANCH  29  30
ATOM     30  C   UNL A   1      39.451  20.461  25.461  1.00  0.00     0.261 C 
BRANCH  30  31
ATOM     31  O   UNL A   1      39.722  19.828  26.733  1.00  0.00    -0.460 OA
BRANCH  31  32
ATOM     32  C   UNL A   1      40.930  20.167  27.275  1.00  0.00     0.338 C 
ATOM     33  O   UNL A   1      41.860  19.399  27.473  1.00  0.00    -0.246 OA
BRANCH  32  34
ATOM     34  C   UNL A   1      41.026  21.594  27.674  1.00  0.00     0.060 A 
ATOM     35  C   UNL A   1      40.250  22.569  27.070  1.00  0.00     0.016 A 
ATOM     36  C   UNL A   1      42.045  21.998  28.549  1.00  0.00     0.016 A 
ATOM     37  C   UNL A   1      40.531  23.923  27.305  1.00  0.00     0.010 A 
ATOM     38  C   UNL A   1      42.293  23.366  28.802  1.00  0.00     0.010 A 
ATOM     39  C   UNL A   1      41.558  24.361  28.146  1.00  0.00    -0.014 A 
BRANCH  39  40
ATOM     40  C   UNL A   1      41.903  25.825  28.205  1.00  0.00     0.031 A 
ATOM     41  C   UNL A   1      43.146  26.342  27.516  1.00  0.00     0.074 A 
ATOM     42  C   UNL A   1      41.074  26.745  28.745  1.00  0.00     0.049 A 
ATOM     43  N   UNL A   1      43.655  27.550  27.492  1.00  0.00    -0.248 NA
ATOM     44  C   UNL A   1      43.892  25.372  26.703  1.00  0.00     0.031 C 
ATOM     45  C   UNL A   1      39.757  26.468  29.313  1.00  0.00     0.029 A 
ATOM     46  N   UNL A   1      41.214  28.110  28.895  1.00  0.00    -0.354 N 
ATOM     47  C   UNL A   1      44.802  27.471  26.707  1.00  0.00     0.074 A 
ATOM     48  C   UNL A   1      44.888  26.108  26.233  1.00  0.00     0.031 C 
ATOM     49  C   UNL A   1      39.204  27.619  29.732  1.00  0.00     0.029 A 
ATOM     50  C   UNL A   1      40.168  28.704  29.566  1.00  0.00     0.049 A 
ATOM     51  H   UNL A   1      41.989  28.611  28.553  1.00  0.00     0.167 HD
ATOM     52  C   UNL A   1      45.718  28.429  26.426  1.00  0.00     0.034 A 
ATOM     53  C   UNL A   1      40.020  29.954  30.058  1.00  0.00     0.034 A 
ATOM     54  C   UNL A   1      45.671  29.780  26.918  1.00  0.00     0.049 A 
ATOM     55  C   UNL A   1      41.129  30.961  29.880  1.00  0.00     0.074 A 
ATOM     56  C   UNL A   1      46.613  30.783  26.767  1.00  0.00     0.029 A 
ATOM     57  N   UNL A   1      44.642  30.311  27.674  1.00  0.00    -0.354 N 
ATOM     58  N   UNL A   1      42.230  30.864  29.176  1.00  0.00    -0.248 NA
ATOM     59  C   UNL A   1      40.980  32.252  30.573  1.00  0.00     0.031 C 
ATOM     60  C   UNL A   1      46.179  31.905  27.482  1.00  0.00     0.029 A 
ATOM     61  C   UNL A   1      44.938  31.618  28.026  1.00  0.00     0.049 A 
ATOM     62  H   UNL A   1      43.819  29.832  27.925  1.00  0.00     0.167 HD
ATOM     63  C   UNL A   1      42.889  32.082  29.323  1.00  0.00     0.074 A 
ATOM     64  C   UNL A   1      42.053  32.913  30.160  1.00  0.00     0.031 C 
ATOM     65  C   UNL A   1      44.088  32.465  28.821  1.00  0.00     0.034 A 
BRANCH  52  66
ATOM     66  C   UNL A   1      46.920  28.018  25.617  1.00  0.00     0.023 A 
ATOM     67  C   UNL A   1      46.873  28.011  24.209  1.00  0.00     0.012 A 
ATOM     68  C   UNL A   1      48.117  27.665  26.273  1.00  0.00     0.148 A 
ATOM     69  C   UNL A   1      47.993  27.629  23.469  1.00  0.00     0.002 A 
ATOM     70  C   UNL A   1      49.238  27.324  25.529  1.00  0.00     0.091 A 
ATOM     71  F   UNL A   1      48.130  27.662  27.613  1.00  0.00    -0.205 F 
ATOM     72  C   UNL A   1      49.175  27.294  24.127  1.00  0.00     0.022 A 
BRANCH  70  73
ATOM     73  S   UNL A   1      50.818  26.936  26.287  1.00  0.00     0.127 S 
ATOM     74  O   UNL A   1      50.713  25.487  26.459  1.00  0.00    -0.237 OA
ATOM     75  O   UNL A   1      51.765  27.361  25.257  1.00  0.00    -0.237 OA
ATOM     76  O   UNL A   1      50.873  27.706  27.522  1.00  0.00    -0.744 OA
ENDBRANCH  70  73
ENDBRANCH  52  66
BRANCH  53  77
ATOM     77  C   UNL A   1      38.801  30.320  30.848  1.00  0.00     0.023 A 
ATOM     78  C   UNL A   1      38.690  29.939  32.199  1.00  0.00     0.012 A 
ATOM     79  C   UNL A   1      37.731  31.016  30.247  1.00  0.00     0.148 A 
ATOM     80  C   UNL A   1      37.530  30.219  32.926  1.00  0.00     0.002 A 
ATOM     81  C   UNL A   1      36.611  31.356  30.996  1.00  0.00     0.091 A 
ATOM     82  F   UNL A   1      37.825  31.330  28.948  1.00  0.00    -0.205 F 
ATOM     83  C   UNL A   1      36.497  30.940  32.330  1.00  0.00     0.022 A 
BRANCH  81  84
ATOM     84  S   UNL A   1      35.302  32.397  30.341  1.00  0.00     0.127 S 
ATOM     85  O   UNL A   1      34.812  31.594  29.223  1.00  0.00    -0.237 OA
ATOM     86  O   UNL A   1      34.388  32.487  31.481  1.00  0.00    -0.237 OA
ATOM     87  O   UNL A   1      35.941  33.657  29.984  1.00  0.00    -0.744 OA
ENDBRANCH  81  84
ENDBRANCH  53  77
BRANCH  65  88
ATOM     88  C   UNL A   1      44.573  33.862  29.121  1.00  0.00     0.023 A 
ATOM     89  C   UNL A   1      45.423  34.097  30.219  1.00  0.00     0.012 A 
ATOM     90  C   UNL A   1      44.254  34.930  28.255  1.00  0.00     0.148 A 
ATOM     91  C   UNL A   1      45.923  35.376  30.469  1.00  0.00     0.002 A 
ATOM     92  C   UNL A   1      44.797  36.188  28.480  1.00  0.00     0.091 A 
ATOM     93  F   UNL A   1      43.430  34.691  27.225  1.00  0.00    -0.205 F 
ATOM     94  C   UNL A   1      45.622  36.416  29.595  1.00  0.00     0.022 A 
BRANCH  92  95
ATOM     95  S   UNL A   1      44.548  37.564  27.352  1.00  0.00     0.127 S 
ATOM     96  O   UNL A   1      43.290  37.195  26.705  1.00  0.00    -0.237 OA
ATOM     97  O   UNL A   1      44.453  38.702  28.266  1.00  0.00    -0.237 OA
ATOM     98  O   UNL A   1      45.714  37.585  26.479  1.00  0.00    -0.744 OA
ENDBRANCH  92  95
ENDBRANCH  65  88
ENDBRANCH  39  40
ENDBRANCH  32  34
ENDBRANCH  31  32
ENDBRANCH  30  31
ENDBRANCH  29  30
ENDBRANCH  28  29
ENDBRANCH  27  28
ENDBRANCH   1  27
TORSDOF 23
ENDMDL
