MODEL 1
REMARK VINA RESULT:     -10.8      0.000      0.000
REMARK SMILES O=C(OCCOCCOCCOC(=O)c1ccccc1/N=C/c1coc2ccccc2c1=O)c1ccc(-c2c3nc(c(-c4cccc(S(=O)(=O)[O-])c4F)c4ccc([nH]4)c(-c4cccc(S(=O)(=O)[O-])c4F)c4nc(c(-c5cccc(S(=O)(=O)[O-])c5F)c5ccc2[nH]5)C=C4)C=C3)cc1
REMARK SMILES IDX 7 1 6 2 5 3 4 4 3 5 2 6 1 7 34 8 35 9 96 10 36 11 95 12
REMARK SMILES IDX 37 13 38 14 39 15 89 16 40 17 94 18 88 19 90 20 41 21 93 22
REMARK SMILES IDX 87 23 86 24 42 26 74 27 54 28 73 29 55 30 58 31 72 32 91 33
REMARK SMILES IDX 56 34 57 35 71 37 92 38 59 39 43 40 44 41 52 42 45 43 47 44
REMARK SMILES IDX 53 45 46 46 48 47 49 48 50 49 51 50 75 51 76 52 84 53 77 54
REMARK SMILES IDX 79 55 85 56 78 57 80 58 81 59 82 60 83 61 60 62 61 63 69 64
REMARK SMILES IDX 62 65 64 66 70 67 63 68 65 69 66 70 67 71 68 72 8 73 9 74
REMARK SMILES IDX 10 75 11 76 12 77 13 78 14 79 15 80 16 81 20 82 17 83 19 84
REMARK SMILES IDX 18 85 21 86 22 87 23 88 24 89 32 90 25 91 31 92 33 93 26 94
REMARK SMILES IDX 30 95 27 96 29 97 28 98
REMARK H PARENT 90 25 58 36
REMARK Flexibility Score: inf
ROOT
ATOM      1  C   UNL A   1      33.458  28.193  22.424  1.00  0.00     0.188 C 
ENDROOT
BRANCH   1   2
ATOM      2  O   UNL A   1      33.794  28.443  23.799  1.00  0.00    -0.376 OA
BRANCH   2   3
ATOM      3  C   UNL A   1      33.097  29.555  24.361  1.00  0.00     0.202 C 
BRANCH   3   4
ATOM      4  C   UNL A   1      33.099  29.579  25.892  1.00  0.00     0.261 C 
BRANCH   4   5
ATOM      5  O   UNL A   1      32.825  30.893  26.403  1.00  0.00    -0.460 OA
BRANCH   5   6
ATOM      6  C   UNL A   1      33.590  31.598  27.279  1.00  0.00     0.338 C 
ATOM      7  O   UNL A   1      33.142  32.632  27.768  1.00  0.00    -0.246 OA
BRANCH   6   8
ATOM      8  C   UNL A   1      34.892  31.078  27.787  1.00  0.00     0.060 A 
ATOM      9  C   UNL A   1      35.165  29.735  28.059  1.00  0.00     0.016 A 
ATOM     10  C   UNL A   1      35.922  32.017  27.952  1.00  0.00     0.016 A 
ATOM     11  C   UNL A   1      36.376  29.363  28.651  1.00  0.00     0.010 A 
ATOM     12  C   UNL A   1      37.162  31.635  28.474  1.00  0.00     0.010 A 
ATOM     13  C   UNL A   1      37.375  30.315  28.890  1.00  0.00    -0.014 A 
BRANCH  13  14
ATOM     14  C   UNL A   1      38.604  29.939  29.635  1.00  0.00     0.031 A 
ATOM     15  C   UNL A   1      38.829  30.460  31.024  1.00  0.00     0.074 A 
ATOM     16  C   UNL A   1      39.516  29.115  29.087  1.00  0.00     0.049 A 
ATOM     17  N   UNL A   1      39.819  30.212  31.841  1.00  0.00    -0.248 NA
ATOM     18  C   UNL A   1      37.818  31.382  31.563  1.00  0.00     0.031 C 
ATOM     19  C   UNL A   1      39.438  28.576  27.735  1.00  0.00     0.029 A 
ATOM     20  N   UNL A   1      40.682  28.592  29.592  1.00  0.00    -0.354 N 
ATOM     21  C   UNL A   1      39.576  30.977  32.970  1.00  0.00     0.074 A 
ATOM     22  C   UNL A   1      38.343  31.699  32.737  1.00  0.00     0.031 C 
ATOM     23  C   UNL A   1      40.498  27.781  27.533  1.00  0.00     0.029 A 
ATOM     24  C   UNL A   1      41.325  27.745  28.723  1.00  0.00     0.049 A 
ATOM     25  H   UNL A   1      41.024  28.804  30.491  1.00  0.00     0.167 HD
ATOM     26  C   UNL A   1      40.305  31.065  34.107  1.00  0.00     0.034 A 
ATOM     27  C   UNL A   1      42.441  27.001  28.848  1.00  0.00     0.034 A 
ATOM     28  C   UNL A   1      41.516  30.334  34.356  1.00  0.00     0.049 A 
ATOM     29  C   UNL A   1      43.196  27.064  30.138  1.00  0.00     0.074 A 
ATOM     30  C   UNL A   1      42.325  30.364  35.479  1.00  0.00     0.029 A 
ATOM     31  N   UNL A   1      42.095  29.438  33.471  1.00  0.00    -0.354 N 
ATOM     32  N   UNL A   1      42.903  27.735  31.224  1.00  0.00    -0.248 NA
ATOM     33  C   UNL A   1      44.426  26.264  30.228  1.00  0.00     0.031 C 
ATOM     34  C   UNL A   1      43.393  29.482  35.271  1.00  0.00     0.029 A 
ATOM     35  C   UNL A   1      43.247  28.904  34.021  1.00  0.00     0.049 A 
ATOM     36  H   UNL A   1      41.737  29.215  32.581  1.00  0.00     0.167 HD
ATOM     37  C   UNL A   1      43.912  27.445  32.128  1.00  0.00     0.074 A 
ATOM     38  C   UNL A   1      44.802  26.502  31.478  1.00  0.00     0.031 C 
ATOM     39  C   UNL A   1      44.101  27.942  33.373  1.00  0.00     0.034 A 
BRANCH  26  40
ATOM     40  C   UNL A   1      39.775  31.981  35.171  1.00  0.00     0.023 A 
ATOM     41  C   UNL A   1      40.147  33.340  35.158  1.00  0.00     0.012 A 
ATOM     42  C   UNL A   1      38.943  31.495  36.196  1.00  0.00     0.148 A 
ATOM     43  C   UNL A   1      39.718  34.199  36.168  1.00  0.00     0.002 A 
ATOM     44  C   UNL A   1      38.500  32.365  37.187  1.00  0.00     0.091 A 
ATOM     45  F   UNL A   1      38.636  30.190  36.208  1.00  0.00    -0.205 F 
ATOM     46  C   UNL A   1      38.892  33.713  37.178  1.00  0.00     0.022 A 
BRANCH  44  47
ATOM     47  S   UNL A   1      37.413  31.831  38.512  1.00  0.00     0.127 S 
ATOM     48  O   UNL A   1      38.273  31.996  39.683  1.00  0.00    -0.237 OA
ATOM     49  O   UNL A   1      36.315  32.795  38.420  1.00  0.00    -0.237 OA
ATOM     50  O   UNL A   1      37.040  30.461  38.191  1.00  0.00    -0.744 OA
ENDBRANCH  44  47
ENDBRANCH  26  40
BRANCH  27  51
ATOM     51  C   UNL A   1      42.854  26.071  27.756  1.00  0.00     0.023 A 
ATOM     52  C   UNL A   1      43.937  26.426  26.927  1.00  0.00     0.012 A 
ATOM     53  C   UNL A   1      42.239  24.820  27.569  1.00  0.00     0.148 A 
ATOM     54  C   UNL A   1      44.384  25.562  25.924  1.00  0.00     0.002 A 
ATOM     55  C   UNL A   1      42.720  23.943  26.600  1.00  0.00     0.091 A 
ATOM     56  F   UNL A   1      41.206  24.487  28.358  1.00  0.00    -0.205 F 
ATOM     57  C   UNL A   1      43.782  24.316  25.767  1.00  0.00     0.022 A 
BRANCH  55  58
ATOM     58  S   UNL A   1      42.095  22.260  26.508  1.00  0.00     0.127 S 
ATOM     59  O   UNL A   1      42.465  21.716  27.810  1.00  0.00    -0.237 OA
ATOM     60  O   UNL A   1      40.658  22.459  26.307  1.00  0.00    -0.237 OA
ATOM     61  O   UNL A   1      42.771  21.696  25.344  1.00  0.00    -0.744 OA
ENDBRANCH  55  58
ENDBRANCH  27  51
BRANCH  39  62
ATOM     62  C   UNL A   1      45.330  27.487  34.102  1.00  0.00     0.023 A 
ATOM     63  C   UNL A   1      46.516  28.237  33.980  1.00  0.00     0.012 A 
ATOM     64  C   UNL A   1      45.304  26.351  34.929  1.00  0.00     0.148 A 
ATOM     65  C   UNL A   1      47.669  27.847  34.657  1.00  0.00     0.002 A 
ATOM     66  C   UNL A   1      46.449  25.988  35.628  1.00  0.00     0.091 A 
ATOM     67  F   UNL A   1      44.173  25.634  35.003  1.00  0.00    -0.205 F 
ATOM     68  C   UNL A   1      47.633  26.730  35.489  1.00  0.00     0.022 A 
BRANCH  66  69
ATOM     69  S   UNL A   1      46.455  24.602  36.769  1.00  0.00     0.127 S 
ATOM     70  O   UNL A   1      47.886  24.350  36.927  1.00  0.00    -0.237 OA
ATOM     71  O   UNL A   1      45.800  25.161  37.953  1.00  0.00    -0.237 OA
ATOM     72  O   UNL A   1      45.694  23.550  36.108  1.00  0.00    -0.744 OA
ENDBRANCH  66  69
ENDBRANCH  39  62
ENDBRANCH  13  14
ENDBRANCH   6   8
ENDBRANCH   5   6
ENDBRANCH   4   5
ENDBRANCH   3   4
ENDBRANCH   2   3
ENDBRANCH   1   2
BRANCH   1  73
ATOM     73  C   UNL A   1      33.663  26.713  22.100  1.00  0.00     0.188 C 
BRANCH  73  74
ATOM     74  O   UNL A   1      33.392  25.825  23.192  1.00  0.00    -0.376 OA
BRANCH  74  75
ATOM     75  C   UNL A   1      34.484  25.036  23.649  1.00  0.00     0.202 C 
BRANCH  75  76
ATOM     76  C   UNL A   1      34.495  23.554  23.262  1.00  0.00     0.261 C 
BRANCH  76  77
ATOM     77  O   UNL A   1      35.380  22.707  24.005  1.00  0.00    -0.460 OA
BRANCH  77  78
ATOM     78  C   UNL A   1      34.852  22.244  25.165  1.00  0.00     0.340 C 
ATOM     79  O   UNL A   1      35.025  22.689  26.288  1.00  0.00    -0.246 OA
BRANCH  78  80
ATOM     80  C   UNL A   1      34.146  20.988  24.917  1.00  0.00     0.085 A 
ATOM     81  C   UNL A   1      34.917  19.828  24.713  1.00  0.00     0.018 A 
ATOM     82  C   UNL A   1      32.742  20.956  24.860  1.00  0.00     0.077 A 
ATOM     83  C   UNL A   1      34.294  18.616  24.423  1.00  0.00     0.001 A 
ATOM     84  C   UNL A   1      32.153  19.728  24.508  1.00  0.00     0.029 A 
ATOM     85  C   UNL A   1      32.911  18.570  24.296  1.00  0.00     0.002 A 
BRANCH  82  86
ATOM     86  N   UNL A   1      31.845  21.855  25.468  1.00  0.00    -0.255 NA
ATOM     87  C   UNL A   1      31.707  23.118  25.226  1.00  0.00     0.127 C 
BRANCH  87  88
ATOM     88  C   UNL A   1      31.572  23.985  26.441  1.00  0.00     0.076 A 
ATOM     89  C   UNL A   1      32.435  25.019  26.463  1.00  0.00     0.209 A 
ATOM     90  C   UNL A   1      30.164  24.399  26.738  1.00  0.00     0.201 A 
ATOM     91  O   UNL A   1      31.995  26.347  26.493  1.00  0.00    -0.463 OA
ATOM     92  C   UNL A   1      29.793  25.571  25.927  1.00  0.00     0.065 A 
ATOM     93  O   UNL A   1      29.393  23.742  27.419  1.00  0.00    -0.288 OA
ATOM     94  C   UNL A   1      30.824  26.508  25.761  1.00  0.00     0.137 A 
ATOM     95  C   UNL A   1      28.736  25.476  25.028  1.00  0.00     0.016 A 
ATOM     96  C   UNL A   1      30.801  27.391  24.693  1.00  0.00     0.048 A 
ATOM     97  C   UNL A   1      28.781  26.289  23.901  1.00  0.00     0.001 A 
ATOM     98  C   UNL A   1      29.788  27.250  23.744  1.00  0.00     0.004 A 
ENDBRANCH  87  88
ENDBRANCH  82  86
ENDBRANCH  78  80
ENDBRANCH  77  78
ENDBRANCH  76  77
ENDBRANCH  75  76
ENDBRANCH  74  75
ENDBRANCH  73  74
ENDBRANCH   1  73
TORSDOF 22
ENDMDL
MODEL 2
REMARK VINA RESULT:     -10.7      1.877      2.179
REMARK SMILES O=C(OCCOCCOCCOC(=O)c1ccccc1/N=C/c1coc2ccccc2c1=O)c1ccc(-c2c3nc(c(-c4cccc(S(=O)(=O)[O-])c4F)c4ccc([nH]4)c(-c4cccc(S(=O)(=O)[O-])c4F)c4nc(c(-c5cccc(S(=O)(=O)[O-])c5F)c5ccc2[nH]5)C=C4)C=C3)cc1
REMARK SMILES IDX 7 1 6 2 5 3 4 4 3 5 2 6 1 7 34 8 35 9 96 10 36 11 95 12
REMARK SMILES IDX 37 13 38 14 39 15 89 16 40 17 94 18 88 19 90 20 41 21 93 22
REMARK SMILES IDX 87 23 86 24 42 26 74 27 54 28 73 29 55 30 58 31 72 32 91 33
REMARK SMILES IDX 56 34 57 35 71 37 92 38 59 39 43 40 44 41 52 42 45 43 47 44
REMARK SMILES IDX 53 45 46 46 48 47 49 48 50 49 51 50 75 51 76 52 84 53 77 54
REMARK SMILES IDX 79 55 85 56 78 57 80 58 81 59 82 60 83 61 60 62 61 63 69 64
REMARK SMILES IDX 62 65 64 66 70 67 63 68 65 69 66 70 67 71 68 72 8 73 9 74
REMARK SMILES IDX 10 75 11 76 12 77 13 78 14 79 15 80 16 81 20 82 17 83 19 84
REMARK SMILES IDX 18 85 21 86 22 87 23 88 24 89 32 90 25 91 31 92 33 93 26 94
REMARK SMILES IDX 30 95 27 96 29 97 28 98
REMARK H PARENT 90 25 58 36
REMARK Flexibility Score: inf
ROOT
ATOM      1  C   UNL A   1      33.425  28.271  22.673  1.00  0.00     0.188 C 
ENDROOT
BRANCH   1   2
ATOM      2  O   UNL A   1      34.013  28.526  23.960  1.00  0.00    -0.376 OA
BRANCH   2   3
ATOM      3  C   UNL A   1      33.293  29.489  24.731  1.00  0.00     0.202 C 
BRANCH   3   4
ATOM      4  C   UNL A   1      33.618  29.453  26.227  1.00  0.00     0.261 C 
BRANCH   4   5
ATOM      5  O   UNL A   1      33.276  30.689  26.875  1.00  0.00    -0.460 OA
BRANCH   5   6
ATOM      6  C   UNL A   1      34.118  31.499  27.571  1.00  0.00     0.338 C 
ATOM      7  O   UNL A   1      33.778  32.655  27.808  1.00  0.00    -0.246 OA
BRANCH   6   8
ATOM      8  C   UNL A   1      35.373  30.987  28.193  1.00  0.00     0.060 A 
ATOM      9  C   UNL A   1      35.557  29.685  28.664  1.00  0.00     0.016 A 
ATOM     10  C   UNL A   1      36.453  31.880  28.257  1.00  0.00     0.016 A 
ATOM     11  C   UNL A   1      36.728  29.336  29.344  1.00  0.00     0.010 A 
ATOM     12  C   UNL A   1      37.654  31.511  28.871  1.00  0.00     0.010 A 
ATOM     13  C   UNL A   1      37.777  30.255  29.479  1.00  0.00    -0.014 A 
BRANCH  13  14
ATOM     14  C   UNL A   1      38.961  29.923  30.312  1.00  0.00     0.031 A 
ATOM     15  C   UNL A   1      39.099  30.508  31.688  1.00  0.00     0.074 A 
ATOM     16  C   UNL A   1      39.909  29.085  29.857  1.00  0.00     0.049 A 
ATOM     17  N   UNL A   1      40.039  30.305  32.572  1.00  0.00    -0.248 NA
ATOM     18  C   UNL A   1      38.051  31.443  32.123  1.00  0.00     0.031 C 
ATOM     19  C   UNL A   1      39.915  28.485  28.528  1.00  0.00     0.029 A 
ATOM     20  N   UNL A   1      41.046  28.595  30.454  1.00  0.00    -0.354 N 
ATOM     21  C   UNL A   1      39.724  31.118  33.650  1.00  0.00     0.074 A 
ATOM     22  C   UNL A   1      38.502  31.817  33.311  1.00  0.00     0.031 C 
ATOM     23  C   UNL A   1      40.991  27.692  28.426  1.00  0.00     0.029 A 
ATOM     24  C   UNL A   1      41.745  27.716  29.664  1.00  0.00     0.049 A 
ATOM     25  H   UNL A   1      41.332  28.850  31.361  1.00  0.00     0.167 HD
ATOM     26  C   UNL A   1      40.382  31.262  34.823  1.00  0.00     0.034 A 
ATOM     27  C   UNL A   1      42.857  26.988  29.888  1.00  0.00     0.034 A 
ATOM     28  C   UNL A   1      41.581  30.554  35.177  1.00  0.00     0.049 A 
ATOM     29  C   UNL A   1      43.532  27.115  31.216  1.00  0.00     0.074 A 
ATOM     30  C   UNL A   1      42.321  30.641  36.343  1.00  0.00     0.029 A 
ATOM     31  N   UNL A   1      42.217  29.624  34.368  1.00  0.00    -0.354 N 
ATOM     32  N   UNL A   1      43.171  27.831  32.252  1.00  0.00    -0.248 NA
ATOM     33  C   UNL A   1      44.759  26.332  31.416  1.00  0.00     0.031 C 
ATOM     34  C   UNL A   1      43.405  29.760  36.239  1.00  0.00     0.029 A 
ATOM     35  C   UNL A   1      43.338  29.126  35.009  1.00  0.00     0.049 A 
ATOM     36  H   UNL A   1      41.916  29.359  33.469  1.00  0.00     0.167 HD
ATOM     37  C   UNL A   1      44.125  27.590  33.227  1.00  0.00     0.074 A 
ATOM     38  C   UNL A   1      45.058  26.627  32.674  1.00  0.00     0.031 C 
ATOM     39  C   UNL A   1      44.235  28.144  34.458  1.00  0.00     0.034 A 
BRANCH  26  40
ATOM     40  C   UNL A   1      39.783  32.219  35.811  1.00  0.00     0.023 A 
ATOM     41  C   UNL A   1      38.744  31.779  36.655  1.00  0.00     0.012 A 
ATOM     42  C   UNL A   1      40.220  33.555  35.881  1.00  0.00     0.148 A 
ATOM     43  C   UNL A   1      38.130  32.663  37.539  1.00  0.00     0.002 A 
ATOM     44  C   UNL A   1      39.617  34.425  36.783  1.00  0.00     0.091 A 
ATOM     45  F   UNL A   1      41.182  33.960  35.039  1.00  0.00    -0.205 F 
ATOM     46  C   UNL A   1      38.569  33.983  37.606  1.00  0.00     0.022 A 
BRANCH  44  47
ATOM     47  S   UNL A   1      40.136  36.135  36.955  1.00  0.00     0.127 S 
ATOM     48  O   UNL A   1      39.379  36.555  38.134  1.00  0.00    -0.237 OA
ATOM     49  O   UNL A   1      41.578  36.002  37.170  1.00  0.00    -0.237 OA
ATOM     50  O   UNL A   1      39.771  36.787  35.706  1.00  0.00    -0.744 OA
ENDBRANCH  44  47
ENDBRANCH  26  40
BRANCH  27  51
ATOM     51  C   UNL A   1      43.340  26.014  28.865  1.00  0.00     0.023 A 
ATOM     52  C   UNL A   1      42.760  24.731  28.815  1.00  0.00     0.012 A 
ATOM     53  C   UNL A   1      44.310  26.358  27.907  1.00  0.00     0.148 A 
ATOM     54  C   UNL A   1      43.152  23.806  27.844  1.00  0.00     0.002 A 
ATOM     55  C   UNL A   1      44.660  25.450  26.911  1.00  0.00     0.091 A 
ATOM     56  F   UNL A   1      44.862  27.580  27.960  1.00  0.00    -0.205 F 
ATOM     57  C   UNL A   1      44.094  24.169  26.885  1.00  0.00     0.022 A 
BRANCH  55  58
ATOM     58  S   UNL A   1      45.722  25.958  25.552  1.00  0.00     0.127 S 
ATOM     59  O   UNL A   1      47.013  26.127  26.208  1.00  0.00    -0.237 OA
ATOM     60  O   UNL A   1      45.638  24.819  24.635  1.00  0.00    -0.237 OA
ATOM     61  O   UNL A   1      45.083  27.165  25.038  1.00  0.00    -0.744 OA
ENDBRANCH  55  58
ENDBRANCH  27  51
BRANCH  39  62
ATOM     62  C   UNL A   1      45.422  27.732  35.278  1.00  0.00     0.023 A 
ATOM     63  C   UNL A   1      46.612  28.480  35.184  1.00  0.00     0.012 A 
ATOM     64  C   UNL A   1      45.350  26.642  36.161  1.00  0.00     0.148 A 
ATOM     65  C   UNL A   1      47.725  28.131  35.946  1.00  0.00     0.002 A 
ATOM     66  C   UNL A   1      46.453  26.321  36.942  1.00  0.00     0.091 A 
ATOM     67  F   UNL A   1      44.217  25.925  36.208  1.00  0.00    -0.205 F 
ATOM     68  C   UNL A   1      47.643  27.059  36.832  1.00  0.00     0.022 A 
BRANCH  66  69
ATOM     69  S   UNL A   1      46.395  24.996  38.153  1.00  0.00     0.127 S 
ATOM     70  O   UNL A   1      45.332  25.453  39.046  1.00  0.00    -0.237 OA
ATOM     71  O   UNL A   1      46.048  23.832  37.336  1.00  0.00    -0.237 OA
ATOM     72  O   UNL A   1      47.732  24.941  38.733  1.00  0.00    -0.744 OA
ENDBRANCH  66  69
ENDBRANCH  39  62
ENDBRANCH  13  14
ENDBRANCH   6   8
ENDBRANCH   5   6
ENDBRANCH   4   5
ENDBRANCH   3   4
ENDBRANCH   2   3
ENDBRANCH   1   2
BRANCH   1  73
ATOM     73  C   UNL A   1      33.768  26.852  22.219  1.00  0.00     0.188 C 
BRANCH  73  74
ATOM     74  O   UNL A   1      33.393  25.827  23.147  1.00  0.00    -0.376 OA
BRANCH  74  75
ATOM     75  C   UNL A   1      34.456  25.059  23.699  1.00  0.00     0.202 C 
BRANCH  75  76
ATOM     76  C   UNL A   1      34.554  23.588  23.284  1.00  0.00     0.261 C 
BRANCH  76  77
ATOM     77  O   UNL A   1      35.424  22.760  24.065  1.00  0.00    -0.460 OA
BRANCH  77  78
ATOM     78  C   UNL A   1      34.862  22.299  25.209  1.00  0.00     0.340 C 
ATOM     79  O   UNL A   1      34.999  22.748  26.336  1.00  0.00    -0.246 OA
BRANCH  78  80
ATOM     80  C   UNL A   1      34.167  21.040  24.944  1.00  0.00     0.085 A 
ATOM     81  C   UNL A   1      34.947  19.888  24.735  1.00  0.00     0.018 A 
ATOM     82  C   UNL A   1      32.764  20.999  24.875  1.00  0.00     0.077 A 
ATOM     83  C   UNL A   1      34.335  18.674  24.429  1.00  0.00     0.001 A 
ATOM     84  C   UNL A   1      32.185  19.771  24.506  1.00  0.00     0.029 A 
ATOM     85  C   UNL A   1      32.954  18.621  24.289  1.00  0.00     0.002 A 
BRANCH  82  86
ATOM     86  N   UNL A   1      31.855  21.886  25.484  1.00  0.00    -0.255 NA
ATOM     87  C   UNL A   1      31.706  23.149  25.248  1.00  0.00     0.127 C 
BRANCH  87  88
ATOM     88  C   UNL A   1      31.558  24.009  26.467  1.00  0.00     0.076 A 
ATOM     89  C   UNL A   1      32.425  25.038  26.510  1.00  0.00     0.209 A 
ATOM     90  C   UNL A   1      30.147  24.428  26.746  1.00  0.00     0.201 A 
ATOM     91  O   UNL A   1      31.991  26.368  26.543  1.00  0.00    -0.463 OA
ATOM     92  C   UNL A   1      29.794  25.607  25.938  1.00  0.00     0.065 A 
ATOM     93  O   UNL A   1      29.362  23.770  27.411  1.00  0.00    -0.288 OA
ATOM     94  C   UNL A   1      30.833  26.540  25.795  1.00  0.00     0.137 A 
ATOM     95  C   UNL A   1      28.751  25.524  25.023  1.00  0.00     0.016 A 
ATOM     96  C   UNL A   1      30.830  27.431  24.733  1.00  0.00     0.048 A 
ATOM     97  C   UNL A   1      28.816  26.346  23.902  1.00  0.00     0.001 A 
ATOM     98  C   UNL A   1      29.830  27.303  23.768  1.00  0.00     0.004 A 
ENDBRANCH  87  88
ENDBRANCH  82  86
ENDBRANCH  78  80
ENDBRANCH  77  78
ENDBRANCH  76  77
ENDBRANCH  75  76
ENDBRANCH  74  75
ENDBRANCH  73  74
ENDBRANCH   1  73
TORSDOF 22
ENDMDL
MODEL 3
REMARK VINA RESULT:     -10.6      2.733      5.224
REMARK SMILES O=C(OCCOCCOCCOC(=O)c1ccccc1/N=C/c1coc2ccccc2c1=O)c1ccc(-c2c3nc(c(-c4cccc(S(=O)(=O)[O-])c4F)c4ccc([nH]4)c(-c4cccc(S(=O)(=O)[O-])c4F)c4nc(c(-c5cccc(S(=O)(=O)[O-])c5F)c5ccc2[nH]5)C=C4)C=C3)cc1
REMARK SMILES IDX 7 1 6 2 5 3 4 4 3 5 2 6 1 7 34 8 35 9 96 10 36 11 95 12
REMARK SMILES IDX 37 13 38 14 39 15 89 16 40 17 94 18 88 19 90 20 41 21 93 22
REMARK SMILES IDX 87 23 86 24 42 26 74 27 54 28 73 29 55 30 58 31 72 32 91 33
REMARK SMILES IDX 56 34 57 35 71 37 92 38 59 39 43 40 44 41 52 42 45 43 47 44
REMARK SMILES IDX 53 45 46 46 48 47 49 48 50 49 51 50 75 51 76 52 84 53 77 54
REMARK SMILES IDX 79 55 85 56 78 57 80 58 81 59 82 60 83 61 60 62 61 63 69 64
REMARK SMILES IDX 62 65 64 66 70 67 63 68 65 69 66 70 67 71 68 72 8 73 9 74
REMARK SMILES IDX 10 75 11 76 12 77 13 78 14 79 15 80 16 81 20 82 17 83 19 84
REMARK SMILES IDX 18 85 21 86 22 87 23 88 24 89 32 90 25 91 31 92 33 93 26 94
REMARK SMILES IDX 30 95 27 96 29 97 28 98
REMARK H PARENT 90 25 58 36
REMARK Flexibility Score: inf
ROOT
ATOM      1  C   UNL A   1      35.883  33.095  28.309  1.00  0.00     0.188 C 
ENDROOT
BRANCH   1   2
ATOM      2  O   UNL A   1      35.000  33.923  27.533  1.00  0.00    -0.376 OA
BRANCH   2   3
ATOM      3  C   UNL A   1      34.389  34.968  28.291  1.00  0.00     0.202 C 
BRANCH   3   4
ATOM      4  C   UNL A   1      33.119  34.537  29.029  1.00  0.00     0.261 C 
BRANCH   4   5
ATOM      5  O   UNL A   1      32.796  35.438  30.100  1.00  0.00    -0.460 OA
BRANCH   5   6
ATOM      6  C   UNL A   1      32.974  35.215  31.429  1.00  0.00     0.338 C 
ATOM      7  O   UNL A   1      32.017  35.330  32.191  1.00  0.00    -0.246 OA
BRANCH   6   8
ATOM      8  C   UNL A   1      34.255  34.682  31.977  1.00  0.00     0.060 A 
ATOM      9  C   UNL A   1      35.404  35.443  32.206  1.00  0.00     0.016 A 
ATOM     10  C   UNL A   1      34.273  33.323  32.327  1.00  0.00     0.016 A 
ATOM     11  C   UNL A   1      36.595  34.828  32.604  1.00  0.00     0.010 A 
ATOM     12  C   UNL A   1      35.443  32.719  32.797  1.00  0.00     0.010 A 
ATOM     13  C   UNL A   1      36.632  33.454  32.876  1.00  0.00    -0.014 A 
BRANCH  13  14
ATOM     14  C   UNL A   1      37.924  32.785  33.172  1.00  0.00     0.031 A 
ATOM     15  C   UNL A   1      38.560  32.943  34.523  1.00  0.00     0.074 A 
ATOM     16  C   UNL A   1      38.529  32.016  32.249  1.00  0.00     0.049 A 
ATOM     17  N   UNL A   1      39.662  32.408  34.977  1.00  0.00    -0.248 NA
ATOM     18  C   UNL A   1      37.874  33.820  35.484  1.00  0.00     0.031 C 
ATOM     19  C   UNL A   1      38.040  31.816  30.890  1.00  0.00     0.029 A 
ATOM     20  N   UNL A   1      39.680  31.267  32.307  1.00  0.00    -0.354 N 
ATOM     21  C   UNL A   1      39.828  32.912  36.257  1.00  0.00     0.074 A 
ATOM     22  C   UNL A   1      38.711  33.798  36.511  1.00  0.00     0.031 C 
ATOM     23  C   UNL A   1      38.876  30.979  30.258  1.00  0.00     0.029 A 
ATOM     24  C   UNL A   1      39.946  30.579  31.149  1.00  0.00     0.049 A 
ATOM     25  H   UNL A   1      40.258  31.227  33.104  1.00  0.00     0.167 HD
ATOM     26  C   UNL A   1      40.812  32.655  37.148  1.00  0.00     0.034 A 
ATOM     27  C   UNL A   1      40.922  29.710  30.819  1.00  0.00     0.034 A 
ATOM     28  C   UNL A   1      41.910  31.759  36.913  1.00  0.00     0.049 A 
ATOM     29  C   UNL A   1      41.964  29.390  31.844  1.00  0.00     0.074 A 
ATOM     30  C   UNL A   1      42.959  31.441  37.759  1.00  0.00     0.029 A 
ATOM     31  N   UNL A   1      42.103  31.035  35.747  1.00  0.00    -0.354 N 
ATOM     32  N   UNL A   1      42.056  29.820  33.077  1.00  0.00    -0.248 NA
ATOM     33  C   UNL A   1      43.030  28.463  31.440  1.00  0.00     0.031 C 
ATOM     34  C   UNL A   1      43.784  30.520  37.102  1.00  0.00     0.029 A 
ATOM     35  C   UNL A   1      43.249  30.266  35.849  1.00  0.00     0.049 A 
ATOM     36  H   UNL A   1      41.510  31.064  34.961  1.00  0.00     0.167 HD
ATOM     37  C   UNL A   1      43.190  29.221  33.600  1.00  0.00     0.074 A 
ATOM     38  C   UNL A   1      43.729  28.363  32.563  1.00  0.00     0.031 C 
ATOM     39  C   UNL A   1      43.752  29.393  34.821  1.00  0.00     0.034 A 
BRANCH  26  40
ATOM     40  C   UNL A   1      40.712  33.353  38.473  1.00  0.00     0.023 A 
ATOM     41  C   UNL A   1      39.988  32.745  39.519  1.00  0.00     0.012 A 
ATOM     42  C   UNL A   1      41.298  34.616  38.673  1.00  0.00     0.148 A 
ATOM     43  C   UNL A   1      39.829  33.398  40.739  1.00  0.00     0.002 A 
ATOM     44  C   UNL A   1      41.154  35.250  39.902  1.00  0.00     0.091 A 
ATOM     45  F   UNL A   1      41.946  35.191  37.649  1.00  0.00    -0.205 F 
ATOM     46  C   UNL A   1      40.415  34.647  40.932  1.00  0.00     0.022 A 
BRANCH  44  47
ATOM     47  S   UNL A   1      41.896  36.847  40.247  1.00  0.00     0.127 S 
ATOM     48  O   UNL A   1      41.175  37.714  39.315  1.00  0.00    -0.237 OA
ATOM     49  O   UNL A   1      41.556  37.050  41.656  1.00  0.00    -0.237 OA
ATOM     50  O   UNL A   1      43.319  36.688  39.987  1.00  0.00    -0.744 OA
ENDBRANCH  44  47
ENDBRANCH  26  40
BRANCH  27  51
ATOM     51  C   UNL A   1      40.900  29.018  29.497  1.00  0.00     0.023 A 
ATOM     52  C   UNL A   1      41.482  29.654  28.383  1.00  0.00     0.012 A 
ATOM     53  C   UNL A   1      40.376  27.722  29.341  1.00  0.00     0.148 A 
ATOM     54  C   UNL A   1      41.524  29.021  27.138  1.00  0.00     0.002 A 
ATOM     55  C   UNL A   1      40.465  27.077  28.111  1.00  0.00     0.091 A 
ATOM     56  F   UNL A   1      39.821  27.121  30.404  1.00  0.00    -0.205 F 
ATOM     57  C   UNL A   1      41.026  27.727  27.004  1.00  0.00     0.022 A 
BRANCH  55  58
ATOM     58  S   UNL A   1      40.011  25.343  27.960  1.00  0.00     0.127 S 
ATOM     59  O   UNL A   1      38.799  25.265  28.767  1.00  0.00    -0.237 OA
ATOM     60  O   UNL A   1      39.805  25.188  26.518  1.00  0.00    -0.237 OA
ATOM     61  O   UNL A   1      41.181  24.628  28.459  1.00  0.00    -0.744 OA
ENDBRANCH  55  58
ENDBRANCH  27  51
BRANCH  39  62
ATOM     62  C   UNL A   1      45.028  28.651  35.086  1.00  0.00     0.023 A 
ATOM     63  C   UNL A   1      46.257  29.286  34.821  1.00  0.00     0.012 A 
ATOM     64  C   UNL A   1      45.014  27.355  35.628  1.00  0.00     0.148 A 
ATOM     65  C   UNL A   1      47.459  28.627  35.072  1.00  0.00     0.002 A 
ATOM     66  C   UNL A   1      46.216  26.717  35.907  1.00  0.00     0.091 A 
ATOM     67  F   UNL A   1      43.831  26.759  35.840  1.00  0.00    -0.205 F 
ATOM     68  C   UNL A   1      47.439  27.348  35.625  1.00  0.00     0.022 A 
BRANCH  66  69
ATOM     69  S   UNL A   1      46.266  25.098  36.683  1.00  0.00     0.127 S 
ATOM     70  O   UNL A   1      45.651  24.257  35.657  1.00  0.00    -0.237 OA
ATOM     71  O   UNL A   1      47.701  24.880  36.872  1.00  0.00    -0.237 OA
ATOM     72  O   UNL A   1      45.514  25.238  37.924  1.00  0.00    -0.744 OA
ENDBRANCH  66  69
ENDBRANCH  39  62
ENDBRANCH  13  14
ENDBRANCH   6   8
ENDBRANCH   5   6
ENDBRANCH   4   5
ENDBRANCH   3   4
ENDBRANCH   2   3
ENDBRANCH   1   2
BRANCH   1  73
ATOM     73  C   UNL A   1      35.507  31.624  28.129  1.00  0.00     0.188 C 
BRANCH  73  74
ATOM     74  O   UNL A   1      34.500  31.388  27.137  1.00  0.00    -0.376 OA
BRANCH  74  75
ATOM     75  C   UNL A   1      33.296  30.784  27.594  1.00  0.00     0.202 C 
BRANCH  75  76
ATOM     76  C   UNL A   1      32.748  29.603  26.788  1.00  0.00     0.261 C 
BRANCH  76  77
ATOM     77  O   UNL A   1      32.381  29.872  25.430  1.00  0.00    -0.460 OA
BRANCH  77  78
ATOM     78  C   UNL A   1      32.554  28.818  24.594  1.00  0.00     0.340 C 
ATOM     79  O   UNL A   1      33.606  28.396  24.141  1.00  0.00    -0.246 OA
BRANCH  78  80
ATOM     80  C   UNL A   1      31.252  28.323  24.151  1.00  0.00     0.085 A 
ATOM     81  C   UNL A   1      30.460  29.171  23.355  1.00  0.00     0.018 A 
ATOM     82  C   UNL A   1      30.804  27.048  24.536  1.00  0.00     0.077 A 
ATOM     83  C   UNL A   1      29.190  28.766  22.949  1.00  0.00     0.001 A 
ATOM     84  C   UNL A   1      29.495  26.698  24.156  1.00  0.00     0.029 A 
ATOM     85  C   UNL A   1      28.696  27.538  23.371  1.00  0.00     0.002 A 
BRANCH  82  86
ATOM     86  N   UNL A   1      31.595  25.943  24.906  1.00  0.00    -0.255 NA
ATOM     87  C   UNL A   1      32.172  25.088  24.125  1.00  0.00     0.127 C 
BRANCH  87  88
ATOM     88  C   UNL A   1      32.045  23.656  24.549  1.00  0.00     0.076 A 
ATOM     89  C   UNL A   1      32.287  22.777  23.558  1.00  0.00     0.209 A 
ATOM     90  C   UNL A   1      32.787  23.328  25.808  1.00  0.00     0.201 A 
ATOM     91  O   UNL A   1      33.322  21.839  23.640  1.00  0.00    -0.463 OA
ATOM     92  C   UNL A   1      34.204  23.059  25.512  1.00  0.00     0.065 A 
ATOM     93  O   UNL A   1      32.313  23.449  26.927  1.00  0.00    -0.288 OA
ATOM     94  C   UNL A   1      34.420  22.356  24.317  1.00  0.00     0.137 A 
ATOM     95  C   UNL A   1      35.188  23.861  26.079  1.00  0.00     0.016 A 
ATOM     96  C   UNL A   1      35.647  22.427  23.676  1.00  0.00     0.048 A 
ATOM     97  C   UNL A   1      36.376  24.014  25.371  1.00  0.00     0.001 A 
ATOM     98  C   UNL A   1      36.613  23.290  24.195  1.00  0.00     0.004 A 
ENDBRANCH  87  88
ENDBRANCH  82  86
ENDBRANCH  78  80
ENDBRANCH  77  78
ENDBRANCH  76  77
ENDBRANCH  75  76
ENDBRANCH  74  75
ENDBRANCH  73  74
ENDBRANCH   1  73
TORSDOF 22
ENDMDL
