MODEL 1
REMARK VINA RESULT:     -11.4      0.000      0.000
REMARK SMILES Cc1[nH]c2c(C(=O)N3CC[C@H](O)C[C@@H]3C(=O)OCCOCCOCCOC(=O)c3ccc(-c4c5nc(c(-c6cccc(S(=O)(=O)[O-])c6F)c6ccc([nH]6)c(-c6cccc(S(=O)(=O)[O-])c6F)c6nc(c(-c7cccc(S(=O)(=O)[O-])c7F)c7ccc4[nH]7)C=C6)C=C5)cc3)cccc2c1C
REMARK SMILES IDX 22 1 21 2 20 3 19 4 18 5 17 6 15 7 16 8 14 9 8 10 9 11 10 12
REMARK SMILES IDX 13 13 11 14 6 15 7 16 5 17 1 18 2 19 3 20 96 21 4 22 95 24
REMARK SMILES IDX 97 25 94 26 92 27 93 28 12 29 23 31 24 32 25 33 26 34 27 35
REMARK SMILES IDX 28 36 29 37 30 38 91 39 31 40 90 41 32 42 33 43 34 44 84 45
REMARK SMILES IDX 35 46 89 47 83 48 85 49 36 50 88 51 82 52 81 53 37 55 69 56
REMARK SMILES IDX 49 57 68 58 50 59 53 60 67 61 86 62 51 63 52 64 66 66 87 67
REMARK SMILES IDX 54 68 38 69 39 70 47 71 40 72 42 73 48 74 41 75 43 76 44 77
REMARK SMILES IDX 45 78 46 79 70 80 71 81 79 82 72 83 74 84 80 85 73 86 75 87
REMARK SMILES IDX 76 88 77 89 78 90 55 91 56 92 64 93 57 94 59 95 65 96 58 97
REMARK SMILES IDX 60 98 61 99 62 100 63 101
REMARK H PARENT 3 23 12 30 85 54 53 65
REMARK Flexibility Score: inf
ROOT
ATOM      1  C   UNL A   1      28.789  31.552  23.859  1.00  0.00     0.188 C 
ENDROOT
BRANCH   1   2
ATOM      2  C   UNL A   1      28.832  31.305  22.349  1.00  0.00     0.188 C 
BRANCH   2   3
ATOM      3  O   UNL A   1      29.326  30.041  21.934  1.00  0.00    -0.376 OA
BRANCH   3   4
ATOM      4  C   UNL A   1      29.477  29.052  22.942  1.00  0.00     0.202 C 
BRANCH   4   5
ATOM      5  C   UNL A   1      30.486  27.931  22.666  1.00  0.00     0.261 C 
BRANCH   5   6
ATOM      6  O   UNL A   1      30.605  26.917  23.691  1.00  0.00    -0.462 OA
BRANCH   6   7
ATOM      7  C   UNL A   1      31.468  25.897  23.407  1.00  0.00     0.329 C 
ATOM      8  O   UNL A   1      31.221  25.005  22.602  1.00  0.00    -0.250 OA
BRANCH   7   9
ATOM      9  C   UNL A   1      32.672  25.828  24.355  1.00  0.00     0.198 C 
ATOM     10  N   UNL A   1      32.144  25.720  25.720  1.00  0.00    -0.325 N 
ATOM     11  C   UNL A   1      32.071  26.911  26.559  1.00  0.00     0.123 C 
ATOM     12  C   UNL A   1      33.386  27.679  26.515  1.00  0.00     0.053 C 
ATOM     13  C   UNL A   1      33.800  26.843  24.175  1.00  0.00     0.069 C 
ATOM     14  C   UNL A   1      33.696  28.072  25.073  1.00  0.00     0.118 C 
BRANCH  10  15
ATOM     15  C   UNL A   1      31.971  24.447  26.238  1.00  0.00     0.256 C 
ATOM     16  O   UNL A   1      31.355  24.274  27.289  1.00  0.00    -0.269 OA
BRANCH  15  17
ATOM     17  C   UNL A   1      32.634  23.294  25.566  1.00  0.00     0.064 A 
ATOM     18  C   UNL A   1      37.570  23.825  26.146  1.00  0.00     0.064 C 
ATOM     19  C   UNL A   1      36.284  23.178  25.782  1.00  0.00     0.016 A 
ATOM     20  N   UNL A   1      35.082  23.768  26.068  1.00  0.00    -0.358 N 
ATOM     21  C   UNL A   1      36.007  21.959  25.194  1.00  0.00    -0.023 A 
ATOM     22  C   UNL A   1      34.025  23.053  25.557  1.00  0.00     0.059 A 
ATOM     23  H   UNL A   1      34.986  24.605  26.579  1.00  0.00     0.166 HD
ATOM     24  C   UNL A   1      34.583  21.886  25.028  1.00  0.00     0.003 A 
ATOM     25  C   UNL A   1      36.990  20.912  24.810  1.00  0.00     0.047 C 
ATOM     26  C   UNL A   1      33.722  20.907  24.490  1.00  0.00     0.010 A 
ATOM     27  C   UNL A   1      31.811  22.296  25.015  1.00  0.00     0.016 A 
ATOM     28  C   UNL A   1      32.342  21.122  24.487  1.00  0.00     0.002 A 
ENDBRANCH  15  17
ENDBRANCH  10  15
BRANCH  14  29
ATOM     29  O   UNL A   1      32.680  28.966  24.628  1.00  0.00    -0.393 OA
ATOM     30  H   UNL A   1      32.684  29.004  23.659  1.00  0.00     0.210 HD
ENDBRANCH  14  29
ENDBRANCH   7   9
ENDBRANCH   6   7
ENDBRANCH   5   6
ENDBRANCH   4   5
ENDBRANCH   3   4
ENDBRANCH   2   3
ENDBRANCH   1   2
BRANCH   1  31
ATOM     31  O   UNL A   1      29.902  32.252  24.412  1.00  0.00    -0.376 OA
BRANCH  31  32
ATOM     32  C   UNL A   1      30.654  31.547  25.413  1.00  0.00     0.202 C 
BRANCH  32  33
ATOM     33  C   UNL A   1      31.206  32.365  26.595  1.00  0.00     0.261 C 
BRANCH  33  34
ATOM     34  O   UNL A   1      32.560  32.026  26.957  1.00  0.00    -0.460 OA
BRANCH  34  35
ATOM     35  C   UNL A   1      33.272  32.955  27.640  1.00  0.00     0.338 C 
ATOM     36  O   UNL A   1      32.862  34.034  28.038  1.00  0.00    -0.246 OA
BRANCH  35  37
ATOM     37  C   UNL A   1      34.542  32.326  28.086  1.00  0.00     0.060 A 
ATOM     38  C   UNL A   1      34.560  30.936  28.283  1.00  0.00     0.016 A 
ATOM     39  C   UNL A   1      35.725  33.063  28.206  1.00  0.00     0.016 A 
ATOM     40  C   UNL A   1      35.743  30.293  28.657  1.00  0.00     0.010 A 
ATOM     41  C   UNL A   1      36.906  32.420  28.583  1.00  0.00     0.010 A 
ATOM     42  C   UNL A   1      36.911  31.041  28.854  1.00  0.00    -0.014 A 
BRANCH  42  43
ATOM     43  C   UNL A   1      38.065  30.441  29.567  1.00  0.00     0.031 A 
ATOM     44  C   UNL A   1      38.313  30.877  30.988  1.00  0.00     0.074 A 
ATOM     45  C   UNL A   1      38.886  29.550  28.984  1.00  0.00     0.049 A 
ATOM     46  N   UNL A   1      39.266  30.527  31.809  1.00  0.00    -0.248 NA
ATOM     47  C   UNL A   1      37.355  31.844  31.554  1.00  0.00     0.031 C 
ATOM     48  C   UNL A   1      38.763  29.042  27.620  1.00  0.00     0.029 A 
ATOM     49  N   UNL A   1      40.011  28.930  29.475  1.00  0.00    -0.354 N 
ATOM     50  C   UNL A   1      39.044  31.251  32.975  1.00  0.00     0.074 A 
ATOM     51  C   UNL A   1      37.873  32.070  32.751  1.00  0.00     0.031 C 
ATOM     52  C   UNL A   1      39.788  28.206  27.373  1.00  0.00     0.029 A 
ATOM     53  C   UNL A   1      40.650  28.134  28.554  1.00  0.00     0.049 A 
ATOM     54  H   UNL A   1      40.329  29.046  30.399  1.00  0.00     0.167 HD
ATOM     55  C   UNL A   1      39.736  31.227  34.136  1.00  0.00     0.034 A 
ATOM     56  C   UNL A   1      41.803  27.442  28.651  1.00  0.00     0.034 A 
ATOM     57  C   UNL A   1      40.884  30.399  34.375  1.00  0.00     0.049 A 
ATOM     58  C   UNL A   1      42.572  27.452  29.950  1.00  0.00     0.074 A 
ATOM     59  C   UNL A   1      41.617  30.267  35.542  1.00  0.00     0.029 A 
ATOM     60  N   UNL A   1      41.475  29.575  33.433  1.00  0.00    -0.354 N 
ATOM     61  N   UNL A   1      42.271  28.033  31.086  1.00  0.00    -0.248 NA
ATOM     62  C   UNL A   1      43.827  26.683  29.988  1.00  0.00     0.031 C 
ATOM     63  C   UNL A   1      42.668  29.378  35.296  1.00  0.00     0.029 A 
ATOM     64  C   UNL A   1      42.574  28.940  33.985  1.00  0.00     0.049 A 
ATOM     65  H   UNL A   1      41.161  29.458  32.508  1.00  0.00     0.167 HD
ATOM     66  C   UNL A   1      43.274  27.667  31.982  1.00  0.00     0.074 A 
ATOM     67  C   UNL A   1      44.181  26.801  31.261  1.00  0.00     0.031 C 
ATOM     68  C   UNL A   1      43.435  28.027  33.279  1.00  0.00     0.034 A 
BRANCH  55  69
ATOM     69  C   UNL A   1      39.248  32.109  35.251  1.00  0.00     0.023 A 
ATOM     70  C   UNL A   1      38.266  31.627  36.140  1.00  0.00     0.012 A 
ATOM     71  C   UNL A   1      39.793  33.392  35.446  1.00  0.00     0.148 A 
ATOM     72  C   UNL A   1      37.813  32.421  37.191  1.00  0.00     0.002 A 
ATOM     73  C   UNL A   1      39.367  34.160  36.522  1.00  0.00     0.091 A 
ATOM     74  F   UNL A   1      40.703  33.841  34.570  1.00  0.00    -0.205 F 
ATOM     75  C   UNL A   1      38.371  33.681  37.389  1.00  0.00     0.022 A 
BRANCH  73  76
ATOM     76  S   UNL A   1      40.077  35.765  36.901  1.00  0.00     0.127 S 
ATOM     77  O   UNL A   1      39.676  36.548  35.732  1.00  0.00    -0.237 OA
ATOM     78  O   UNL A   1      39.386  36.122  38.140  1.00  0.00    -0.237 OA
ATOM     79  O   UNL A   1      41.508  35.546  37.046  1.00  0.00    -0.744 OA
ENDBRANCH  73  76
ENDBRANCH  55  69
BRANCH  56  80
ATOM     80  C   UNL A   1      42.298  26.639  27.495  1.00  0.00     0.023 A 
ATOM     81  C   UNL A   1      43.041  27.275  26.479  1.00  0.00     0.012 A 
ATOM     82  C   UNL A   1      42.024  25.262  27.385  1.00  0.00     0.148 A 
ATOM     83  C   UNL A   1      43.474  26.561  25.361  1.00  0.00     0.002 A 
ATOM     84  C   UNL A   1      42.502  24.546  26.293  1.00  0.00     0.091 A 
ATOM     85  F   UNL A   1      41.295  24.682  28.348  1.00  0.00    -0.205 F 
ATOM     86  C   UNL A   1      43.213  25.196  25.272  1.00  0.00     0.022 A 
BRANCH  84  87
ATOM     87  S   UNL A   1      42.305  22.766  26.149  1.00  0.00     0.127 S 
ATOM     88  O   UNL A   1      42.967  22.495  24.876  1.00  0.00    -0.237 OA
ATOM     89  O   UNL A   1      43.022  22.286  27.331  1.00  0.00    -0.237 OA
ATOM     90  O   UNL A   1      40.868  22.528  26.179  1.00  0.00    -0.744 OA
ENDBRANCH  84  87
ENDBRANCH  56  80
BRANCH  68  91
ATOM     91  C   UNL A   1      44.612  27.461  34.032  1.00  0.00     0.023 A 
ATOM     92  C   UNL A   1      45.870  28.089  33.941  1.00  0.00     0.012 A 
ATOM     93  C   UNL A   1      44.450  26.364  34.903  1.00  0.00     0.148 A 
ATOM     94  C   UNL A   1      46.954  27.617  34.680  1.00  0.00     0.002 A 
ATOM     95  C   UNL A   1      45.523  25.929  35.673  1.00  0.00     0.091 A 
ATOM     96  F   UNL A   1      43.249  25.770  34.966  1.00  0.00    -0.205 F 
ATOM     97  C   UNL A   1      46.778  26.547  35.555  1.00  0.00     0.022 A 
BRANCH  95  98
ATOM     98  S   UNL A   1      45.360  24.624  36.897  1.00  0.00     0.127 S 
ATOM     99  O   UNL A   1      46.448  24.941  37.819  1.00  0.00    -0.237 OA
ATOM    100  O   UNL A   1      44.019  24.863  37.431  1.00  0.00    -0.237 OA
ATOM    101  O   UNL A   1      45.501  23.372  36.166  1.00  0.00    -0.744 OA
ENDBRANCH  95  98
ENDBRANCH  68  91
ENDBRANCH  42  43
ENDBRANCH  35  37
ENDBRANCH  34  35
ENDBRANCH  33  34
ENDBRANCH  32  33
ENDBRANCH  31  32
ENDBRANCH   1  31
TORSDOF 23
ENDMDL
MODEL 2
REMARK VINA RESULT:     -10.7      1.184      7.682
REMARK SMILES Cc1[nH]c2c(C(=O)N3CC[C@H](O)C[C@@H]3C(=O)OCCOCCOCCOC(=O)c3ccc(-c4c5nc(c(-c6cccc(S(=O)(=O)[O-])c6F)c6ccc([nH]6)c(-c6cccc(S(=O)(=O)[O-])c6F)c6nc(c(-c7cccc(S(=O)(=O)[O-])c7F)c7ccc4[nH]7)C=C6)C=C5)cc3)cccc2c1C
REMARK SMILES IDX 22 1 21 2 20 3 19 4 18 5 17 6 15 7 16 8 14 9 8 10 9 11 10 12
REMARK SMILES IDX 13 13 11 14 6 15 7 16 5 17 1 18 2 19 3 20 96 21 4 22 95 24
REMARK SMILES IDX 97 25 94 26 92 27 93 28 12 29 23 31 24 32 25 33 26 34 27 35
REMARK SMILES IDX 28 36 29 37 30 38 91 39 31 40 90 41 32 42 33 43 34 44 84 45
REMARK SMILES IDX 35 46 89 47 83 48 85 49 36 50 88 51 82 52 81 53 37 55 69 56
REMARK SMILES IDX 49 57 68 58 50 59 53 60 67 61 86 62 51 63 52 64 66 66 87 67
REMARK SMILES IDX 54 68 38 69 39 70 47 71 40 72 42 73 48 74 41 75 43 76 44 77
REMARK SMILES IDX 45 78 46 79 70 80 71 81 79 82 72 83 74 84 80 85 73 86 75 87
REMARK SMILES IDX 76 88 77 89 78 90 55 91 56 92 64 93 57 94 59 95 65 96 58 97
REMARK SMILES IDX 60 98 61 99 62 100 63 101
REMARK H PARENT 3 23 12 30 85 54 53 65
REMARK Flexibility Score: inf
ROOT
ATOM      1  C   UNL A   1      29.859  29.899  23.551  1.00  0.00     0.188 C 
ENDROOT
BRANCH   1   2
ATOM      2  C   UNL A   1      29.006  29.790  22.285  1.00  0.00     0.188 C 
BRANCH   2   3
ATOM      3  O   UNL A   1      28.095  28.702  22.233  1.00  0.00    -0.376 OA
BRANCH   3   4
ATOM      4  C   UNL A   1      27.900  27.975  23.437  1.00  0.00     0.202 C 
BRANCH   4   5
ATOM      5  C   UNL A   1      28.519  26.575  23.508  1.00  0.00     0.261 C 
BRANCH   5   6
ATOM      6  O   UNL A   1      29.652  26.425  24.396  1.00  0.00    -0.462 OA
BRANCH   6   7
ATOM      7  C   UNL A   1      30.820  26.052  23.796  1.00  0.00     0.329 C 
ATOM      8  O   UNL A   1      31.022  26.142  22.589  1.00  0.00    -0.250 OA
BRANCH   7   9
ATOM      9  C   UNL A   1      31.774  25.290  24.725  1.00  0.00     0.198 C 
ATOM     10  N   UNL A   1      31.830  23.903  24.245  1.00  0.00    -0.325 N 
ATOM     11  C   UNL A   1      31.025  22.881  24.905  1.00  0.00     0.123 C 
ATOM     12  C   UNL A   1      31.183  22.968  26.417  1.00  0.00     0.053 C 
ATOM     13  C   UNL A   1      31.599  25.445  26.235  1.00  0.00     0.069 C 
ATOM     14  C   UNL A   1      30.758  24.355  26.893  1.00  0.00     0.118 C 
BRANCH  10  15
ATOM     15  C   UNL A   1      32.835  23.580  23.348  1.00  0.00     0.256 C 
ATOM     16  O   UNL A   1      32.621  23.579  22.137  1.00  0.00    -0.269 OA
BRANCH  15  17
ATOM     17  C   UNL A   1      34.155  23.125  23.871  1.00  0.00     0.064 A 
ATOM     18  C   UNL A   1      33.833  18.217  24.757  1.00  0.00     0.064 C 
ATOM     19  C   UNL A   1      34.460  19.553  24.602  1.00  0.00     0.016 A 
ATOM     20  N   UNL A   1      33.740  20.632  24.162  1.00  0.00    -0.358 N 
ATOM     21  C   UNL A   1      35.761  19.980  24.781  1.00  0.00    -0.023 A 
ATOM     22  C   UNL A   1      34.483  21.788  24.186  1.00  0.00     0.059 A 
ATOM     23  H   UNL A   1      32.803  20.585  23.863  1.00  0.00     0.166 HD
ATOM     24  C   UNL A   1      35.776  21.396  24.543  1.00  0.00     0.003 A 
ATOM     25  C   UNL A   1      36.932  19.139  25.145  1.00  0.00     0.047 C 
ATOM     26  C   UNL A   1      36.794  22.371  24.582  1.00  0.00     0.010 A 
ATOM     27  C   UNL A   1      35.197  24.067  23.925  1.00  0.00     0.016 A 
ATOM     28  C   UNL A   1      36.494  23.700  24.273  1.00  0.00     0.002 A 
ENDBRANCH  15  17
ENDBRANCH  10  15
BRANCH  14  29
ATOM     29  O   UNL A   1      29.371  24.516  26.611  1.00  0.00    -0.393 OA
ATOM     30  H   UNL A   1      29.253  24.707  25.667  1.00  0.00     0.210 HD
ENDBRANCH  14  29
ENDBRANCH   7   9
ENDBRANCH   6   7
ENDBRANCH   5   6
ENDBRANCH   4   5
ENDBRANCH   3   4
ENDBRANCH   2   3
ENDBRANCH   1   2
BRANCH   1  31
ATOM     31  O   UNL A   1      31.216  29.475  23.431  1.00  0.00    -0.376 OA
BRANCH  31  32
ATOM     32  C   UNL A   1      31.972  29.429  24.652  1.00  0.00     0.202 C 
BRANCH  32  33
ATOM     33  C   UNL A   1      31.725  30.547  25.682  1.00  0.00     0.261 C 
BRANCH  33  34
ATOM     34  O   UNL A   1      32.595  30.485  26.830  1.00  0.00    -0.460 OA
BRANCH  34  35
ATOM     35  C   UNL A   1      33.194  31.636  27.218  1.00  0.00     0.338 C 
ATOM     36  O   UNL A   1      32.672  32.737  27.289  1.00  0.00    -0.246 OA
BRANCH  35  37
ATOM     37  C   UNL A   1      34.505  31.291  27.828  1.00  0.00     0.060 A 
ATOM     38  C   UNL A   1      34.782  29.939  28.082  1.00  0.00     0.016 A 
ATOM     39  C   UNL A   1      35.491  32.258  28.048  1.00  0.00     0.016 A 
ATOM     40  C   UNL A   1      36.018  29.560  28.610  1.00  0.00     0.010 A 
ATOM     41  C   UNL A   1      36.726  31.880  28.580  1.00  0.00     0.010 A 
ATOM     42  C   UNL A   1      36.979  30.536  28.905  1.00  0.00    -0.014 A 
BRANCH  42  43
ATOM     43  C   UNL A   1      38.139  30.200  29.766  1.00  0.00     0.031 A 
ATOM     44  C   UNL A   1      39.139  29.205  29.236  1.00  0.00     0.074 A 
ATOM     45  C   UNL A   1      38.307  30.736  30.988  1.00  0.00     0.049 A 
ATOM     46  N   UNL A   1      40.212  28.724  29.804  1.00  0.00    -0.248 NA
ATOM     47  C   UNL A   1      38.887  28.679  27.883  1.00  0.00     0.031 C 
ATOM     48  C   UNL A   1      37.419  31.707  31.622  1.00  0.00     0.029 A 
ATOM     49  N   UNL A   1      39.287  30.512  31.926  1.00  0.00    -0.354 N 
ATOM     50  C   UNL A   1      40.746  27.819  28.894  1.00  0.00     0.074 A 
ATOM     51  C   UNL A   1      39.873  27.807  27.742  1.00  0.00     0.031 C 
ATOM     52  C   UNL A   1      37.881  31.977  32.857  1.00  0.00     0.029 A 
ATOM     53  C   UNL A   1      39.086  31.185  33.107  1.00  0.00     0.049 A 
ATOM     54  H   UNL A   1      40.060  29.924  31.766  1.00  0.00     0.167 HD
ATOM     55  C   UNL A   1      41.872  27.076  28.994  1.00  0.00     0.034 A 
ATOM     56  C   UNL A   1      39.786  31.152  34.259  1.00  0.00     0.034 A 
ATOM     57  C   UNL A   1      42.759  27.100  30.123  1.00  0.00     0.049 A 
ATOM     58  C   UNL A   1      41.025  30.294  34.355  1.00  0.00     0.074 A 
ATOM     59  C   UNL A   1      43.953  26.423  30.288  1.00  0.00     0.029 A 
ATOM     60  N   UNL A   1      42.544  27.827  31.282  1.00  0.00    -0.354 N 
ATOM     61  N   UNL A   1      41.591  29.551  33.435  1.00  0.00    -0.248 NA
ATOM     62  C   UNL A   1      41.739  30.296  35.643  1.00  0.00     0.031 C 
ATOM     63  C   UNL A   1      44.451  26.723  31.561  1.00  0.00     0.029 A 
ATOM     64  C   UNL A   1      43.576  27.605  32.176  1.00  0.00     0.049 A 
ATOM     65  H   UNL A   1      41.771  28.415  31.446  1.00  0.00     0.167 HD
ATOM     66  C   UNL A   1      42.745  29.032  34.018  1.00  0.00     0.074 A 
ATOM     67  C   UNL A   1      42.806  29.560  35.365  1.00  0.00     0.031 C 
ATOM     68  C   UNL A   1      43.663  28.185  33.491  1.00  0.00     0.034 A 
BRANCH  55  69
ATOM     69  C   UNL A   1      42.222  26.191  27.832  1.00  0.00     0.023 A 
ATOM     70  C   UNL A   1      43.060  26.682  26.811  1.00  0.00     0.012 A 
ATOM     71  C   UNL A   1      41.761  24.862  27.774  1.00  0.00     0.148 A 
ATOM     72  C   UNL A   1      43.413  25.871  25.734  1.00  0.00     0.002 A 
ATOM     73  C   UNL A   1      42.152  24.047  26.719  1.00  0.00     0.091 A 
ATOM     74  F   UNL A   1      40.940  24.426  28.740  1.00  0.00    -0.205 F 
ATOM     75  C   UNL A   1      42.969  24.552  25.694  1.00  0.00     0.022 A 
BRANCH  73  76
ATOM     76  S   UNL A   1      41.690  22.315  26.616  1.00  0.00     0.127 S 
ATOM     77  O   UNL A   1      42.313  21.918  25.354  1.00  0.00    -0.237 OA
ATOM     78  O   UNL A   1      42.323  21.756  27.811  1.00  0.00    -0.237 OA
ATOM     79  O   UNL A   1      40.235  22.288  26.633  1.00  0.00    -0.744 OA
ENDBRANCH  73  76
ENDBRANCH  55  69
BRANCH  56  80
ATOM     80  C   UNL A   1      39.362  31.987  35.421  1.00  0.00     0.023 A 
ATOM     81  C   UNL A   1      38.445  31.460  36.353  1.00  0.00     0.012 A 
ATOM     82  C   UNL A   1      39.845  33.297  35.600  1.00  0.00     0.148 A 
ATOM     83  C   UNL A   1      37.991  32.235  37.421  1.00  0.00     0.002 A 
ATOM     84  C   UNL A   1      39.428  34.046  36.694  1.00  0.00     0.091 A 
ATOM     85  F   UNL A   1      40.698  33.788  34.690  1.00  0.00    -0.205 F 
ATOM     86  C   UNL A   1      38.489  33.524  37.597  1.00  0.00     0.022 A 
BRANCH  84  87
ATOM     87  S   UNL A   1      40.098  35.673  37.058  1.00  0.00     0.127 S 
ATOM     88  O   UNL A   1      39.659  36.443  35.897  1.00  0.00    -0.237 OA
ATOM     89  O   UNL A   1      39.418  36.006  38.311  1.00  0.00    -0.237 OA
ATOM     90  O   UNL A   1      41.536  35.484  37.186  1.00  0.00    -0.744 OA
ENDBRANCH  84  87
ENDBRANCH  56  80
BRANCH  68  91
ATOM     91  C   UNL A   1      44.843  27.796  34.344  1.00  0.00     0.023 A 
ATOM     92  C   UNL A   1      45.962  28.649  34.426  1.00  0.00     0.012 A 
ATOM     93  C   UNL A   1      44.804  26.632  35.139  1.00  0.00     0.148 A 
ATOM     94  C   UNL A   1      47.034  28.335  35.260  1.00  0.00     0.002 A 
ATOM     95  C   UNL A   1      45.855  26.351  36.005  1.00  0.00     0.091 A 
ATOM     96  F   UNL A   1      43.738  25.824  35.038  1.00  0.00    -0.205 F 
ATOM     97  C   UNL A   1      46.975  27.195  36.058  1.00  0.00     0.022 A 
BRANCH  95  98
ATOM     98  S   UNL A   1      45.819  24.958  37.140  1.00  0.00     0.127 S 
ATOM     99  O   UNL A   1      45.856  23.823  36.220  1.00  0.00    -0.237 OA
ATOM    100  O   UNL A   1      47.045  25.155  37.914  1.00  0.00    -0.237 OA
ATOM    101  O   UNL A   1      44.592  25.102  37.911  1.00  0.00    -0.744 OA
ENDBRANCH  95  98
ENDBRANCH  68  91
ENDBRANCH  42  43
ENDBRANCH  35  37
ENDBRANCH  34  35
ENDBRANCH  33  34
ENDBRANCH  32  33
ENDBRANCH  31  32
ENDBRANCH   1  31
TORSDOF 23
ENDMDL
MODEL 3
REMARK VINA RESULT:      -9.8      2.838      4.099
REMARK SMILES Cc1[nH]c2c(C(=O)N3CC[C@H](O)C[C@@H]3C(=O)OCCOCCOCCOC(=O)c3ccc(-c4c5nc(c(-c6cccc(S(=O)(=O)[O-])c6F)c6ccc([nH]6)c(-c6cccc(S(=O)(=O)[O-])c6F)c6nc(c(-c7cccc(S(=O)(=O)[O-])c7F)c7ccc4[nH]7)C=C6)C=C5)cc3)cccc2c1C
REMARK SMILES IDX 22 1 21 2 20 3 19 4 18 5 17 6 15 7 16 8 14 9 8 10 9 11 10 12
REMARK SMILES IDX 13 13 11 14 6 15 7 16 5 17 1 18 2 19 3 20 96 21 4 22 95 24
REMARK SMILES IDX 97 25 94 26 92 27 93 28 12 29 23 31 24 32 25 33 26 34 27 35
REMARK SMILES IDX 28 36 29 37 30 38 91 39 31 40 90 41 32 42 33 43 34 44 84 45
REMARK SMILES IDX 35 46 89 47 83 48 85 49 36 50 88 51 82 52 81 53 37 55 69 56
REMARK SMILES IDX 49 57 68 58 50 59 53 60 67 61 86 62 51 63 52 64 66 66 87 67
REMARK SMILES IDX 54 68 38 69 39 70 47 71 40 72 42 73 48 74 41 75 43 76 44 77
REMARK SMILES IDX 45 78 46 79 70 80 71 81 79 82 72 83 74 84 80 85 73 86 75 87
REMARK SMILES IDX 76 88 77 89 78 90 55 91 56 92 64 93 57 94 59 95 65 96 58 97
REMARK SMILES IDX 60 98 61 99 62 100 63 101
REMARK H PARENT 3 23 12 30 85 54 53 65
REMARK Flexibility Score: inf
ROOT
ATOM      1  C   UNL A   1      31.017  28.601  23.686  1.00  0.00     0.188 C 
ENDROOT
BRANCH   1   2
ATOM      2  C   UNL A   1      29.798  28.194  22.855  1.00  0.00     0.188 C 
BRANCH   2   3
ATOM      3  O   UNL A   1      29.124  27.014  23.265  1.00  0.00    -0.376 OA
BRANCH   3   4
ATOM      4  C   UNL A   1      29.367  26.568  24.591  1.00  0.00     0.202 C 
BRANCH   4   5
ATOM      5  C   UNL A   1      30.250  25.326  24.753  1.00  0.00     0.261 C 
BRANCH   5   6
ATOM      6  O   UNL A   1      30.799  25.104  26.073  1.00  0.00    -0.462 OA
BRANCH   6   7
ATOM      7  C   UNL A   1      32.156  25.221  26.170  1.00  0.00     0.329 C 
ATOM      8  O   UNL A   1      32.759  26.278  26.014  1.00  0.00    -0.250 OA
BRANCH   7   9
ATOM      9  C   UNL A   1      32.886  23.874  26.255  1.00  0.00     0.198 C 
ATOM     10  N   UNL A   1      33.113  23.417  24.878  1.00  0.00    -0.325 N 
ATOM     11  C   UNL A   1      32.214  22.429  24.292  1.00  0.00     0.123 C 
ATOM     12  C   UNL A   1      31.996  21.266  25.251  1.00  0.00     0.053 C 
ATOM     13  C   UNL A   1      32.344  22.811  27.209  1.00  0.00     0.069 C 
ATOM     14  C   UNL A   1      31.413  21.791  26.561  1.00  0.00     0.118 C 
BRANCH  10  15
ATOM     15  C   UNL A   1      34.318  23.756  24.284  1.00  0.00     0.256 C 
ATOM     16  O   UNL A   1      34.343  24.416  23.246  1.00  0.00    -0.269 OA
BRANCH  15  17
ATOM     17  C   UNL A   1      35.585  23.221  24.857  1.00  0.00     0.064 A 
ATOM     18  C   UNL A   1      35.431  18.238  24.505  1.00  0.00     0.064 C 
ATOM     19  C   UNL A   1      35.996  19.587  24.756  1.00  0.00     0.016 A 
ATOM     20  N   UNL A   1      35.278  20.722  24.491  1.00  0.00    -0.358 N 
ATOM     21  C   UNL A   1      37.239  19.989  25.205  1.00  0.00    -0.023 A 
ATOM     22  C   UNL A   1      35.946  21.856  24.889  1.00  0.00     0.059 A 
ATOM     23  H   UNL A   1      34.390  20.726  24.066  1.00  0.00     0.166 HD
ATOM     24  C   UNL A   1      37.204  21.421  25.314  1.00  0.00     0.003 A 
ATOM     25  C   UNL A   1      38.401  19.115  25.514  1.00  0.00     0.047 C 
ATOM     26  C   UNL A   1      38.153  22.382  25.719  1.00  0.00     0.010 A 
ATOM     27  C   UNL A   1      36.558  24.147  25.273  1.00  0.00     0.016 A 
ATOM     28  C   UNL A   1      37.820  23.738  25.696  1.00  0.00     0.002 A 
ENDBRANCH  15  17
ENDBRANCH  10  15
BRANCH  14  29
ATOM     29  O   UNL A   1      30.131  22.346  26.285  1.00  0.00    -0.393 OA
ATOM     30  H   UNL A   1      29.535  21.646  25.975  1.00  0.00     0.210 HD
ENDBRANCH  14  29
ENDBRANCH   7   9
ENDBRANCH   6   7
ENDBRANCH   5   6
ENDBRANCH   4   5
ENDBRANCH   3   4
ENDBRANCH   2   3
ENDBRANCH   1   2
BRANCH   1  31
ATOM     31  O   UNL A   1      32.185  28.963  22.950  1.00  0.00    -0.376 OA
BRANCH  31  32
ATOM     32  C   UNL A   1      33.379  29.163  23.724  1.00  0.00     0.202 C 
BRANCH  32  33
ATOM     33  C   UNL A   1      33.211  29.473  25.223  1.00  0.00     0.261 C 
BRANCH  33  34
ATOM     34  O   UNL A   1      34.429  29.350  25.984  1.00  0.00    -0.460 OA
BRANCH  34  35
ATOM     35  C   UNL A   1      34.526  30.076  27.124  1.00  0.00     0.338 C 
ATOM     36  O   UNL A   1      33.628  30.705  27.661  1.00  0.00    -0.246 OA
BRANCH  35  37
ATOM     37  C   UNL A   1      35.819  29.741  27.775  1.00  0.00     0.060 A 
ATOM     38  C   UNL A   1      36.989  29.820  27.004  1.00  0.00     0.016 A 
ATOM     39  C   UNL A   1      35.902  29.461  29.143  1.00  0.00     0.016 A 
ATOM     40  C   UNL A   1      38.233  29.561  27.583  1.00  0.00     0.010 A 
ATOM     41  C   UNL A   1      37.147  29.198  29.721  1.00  0.00     0.010 A 
ATOM     42  C   UNL A   1      38.312  29.203  28.935  1.00  0.00    -0.014 A 
BRANCH  42  43
ATOM     43  C   UNL A   1      39.558  28.602  29.473  1.00  0.00     0.031 A 
ATOM     44  C   UNL A   1      40.336  29.397  30.489  1.00  0.00     0.074 A 
ATOM     45  C   UNL A   1      40.007  27.400  29.071  1.00  0.00     0.049 A 
ATOM     46  N   UNL A   1      41.464  29.109  31.081  1.00  0.00    -0.248 NA
ATOM     47  C   UNL A   1      39.763  30.696  30.884  1.00  0.00     0.031 C 
ATOM     48  C   UNL A   1      39.356  26.528  28.097  1.00  0.00     0.029 A 
ATOM     49  N   UNL A   1      41.146  26.718  29.427  1.00  0.00    -0.354 N 
ATOM     50  C   UNL A   1      41.752  30.199  31.893  1.00  0.00     0.074 A 
ATOM     51  C   UNL A   1      40.688  31.161  31.709  1.00  0.00     0.031 C 
ATOM     52  C   UNL A   1      40.119  25.435  27.914  1.00  0.00     0.029 A 
ATOM     53  C   UNL A   1      41.321  25.538  28.743  1.00  0.00     0.049 A 
ATOM     54  H   UNL A   1      41.778  27.042  30.109  1.00  0.00     0.167 HD
ATOM     55  C   UNL A   1      42.796  30.382  32.733  1.00  0.00     0.034 A 
ATOM     56  C   UNL A   1      42.340  24.656  28.772  1.00  0.00     0.034 A 
ATOM     57  C   UNL A   1      43.843  29.422  32.941  1.00  0.00     0.049 A 
ATOM     58  C   UNL A   1      43.507  24.895  29.699  1.00  0.00     0.074 A 
ATOM     59  C   UNL A   1      44.912  29.497  33.816  1.00  0.00     0.029 A 
ATOM     60  N   UNL A   1      43.962  28.222  32.262  1.00  0.00    -0.354 N 
ATOM     61  N   UNL A   1      43.695  25.864  30.562  1.00  0.00    -0.248 NA
ATOM     62  C   UNL A   1      44.591  23.898  29.678  1.00  0.00     0.031 C 
ATOM     63  C   UNL A   1      45.694  28.349  33.647  1.00  0.00     0.029 A 
ATOM     64  C   UNL A   1      45.096  27.550  32.685  1.00  0.00     0.049 A 
ATOM     65  H   UNL A   1      43.334  27.894  31.579  1.00  0.00     0.167 HD
ATOM     66  C   UNL A   1      44.892  25.573  31.212  1.00  0.00     0.074 A 
ATOM     67  C   UNL A   1      45.377  24.328  30.656  1.00  0.00     0.031 C 
ATOM     68  C   UNL A   1      45.538  26.280  32.173  1.00  0.00     0.034 A 
BRANCH  55  69
ATOM     69  C   UNL A   1      42.839  31.665  33.514  1.00  0.00     0.023 A 
ATOM     70  C   UNL A   1      43.568  32.761  33.010  1.00  0.00     0.012 A 
ATOM     71  C   UNL A   1      42.123  31.800  34.718  1.00  0.00     0.148 A 
ATOM     72  C   UNL A   1      43.606  33.966  33.709  1.00  0.00     0.002 A 
ATOM     73  C   UNL A   1      42.131  33.018  35.386  1.00  0.00     0.091 A 
ATOM     74  F   UNL A   1      41.463  30.735  35.194  1.00  0.00    -0.205 F 
ATOM     75  C   UNL A   1      42.879  34.098  34.889  1.00  0.00     0.022 A 
BRANCH  73  76
ATOM     76  S   UNL A   1      41.170  33.307  36.875  1.00  0.00     0.127 S 
ATOM     77  O   UNL A   1      39.809  33.365  36.342  1.00  0.00    -0.237 OA
ATOM     78  O   UNL A   1      41.464  32.113  37.668  1.00  0.00    -0.237 OA
ATOM     79  O   UNL A   1      41.674  34.550  37.441  1.00  0.00    -0.744 OA
ENDBRANCH  73  76
ENDBRANCH  55  69
BRANCH  56  80
ATOM     80  C   UNL A   1      42.298  23.430  27.922  1.00  0.00     0.023 A 
ATOM     81  C   UNL A   1      41.292  22.468  28.144  1.00  0.00     0.012 A 
ATOM     82  C   UNL A   1      43.253  23.203  26.913  1.00  0.00     0.148 A 
ATOM     83  C   UNL A   1      41.258  21.289  27.399  1.00  0.00     0.002 A 
ATOM     84  C   UNL A   1      43.184  22.049  26.140  1.00  0.00     0.091 A 
ATOM     85  F   UNL A   1      44.216  24.118  26.734  1.00  0.00    -0.205 F 
ATOM     86  C   UNL A   1      42.197  21.083  26.392  1.00  0.00     0.022 A 
BRANCH  84  87
ATOM     87  S   UNL A   1      44.286  21.752  24.753  1.00  0.00     0.127 S 
ATOM     88  O   UNL A   1      43.998  20.355  24.437  1.00  0.00    -0.237 OA
ATOM     89  O   UNL A   1      43.799  22.719  23.768  1.00  0.00    -0.237 OA
ATOM     90  O   UNL A   1      45.626  22.025  25.253  1.00  0.00    -0.744 OA
ENDBRANCH  84  87
ENDBRANCH  56  80
BRANCH  68  91
ATOM     91  C   UNL A   1      46.823  25.717  32.725  1.00  0.00     0.023 A 
ATOM     92  C   UNL A   1      46.799  24.933  33.895  1.00  0.00     0.012 A 
ATOM     93  C   UNL A   1      48.039  25.888  32.033  1.00  0.00     0.148 A 
ATOM     94  C   UNL A   1      47.968  24.351  34.383  1.00  0.00     0.002 A 
ATOM     95  C   UNL A   1      49.192  25.265  32.499  1.00  0.00     0.091 A 
ATOM     96  F   UNL A   1      48.046  26.649  30.930  1.00  0.00    -0.205 F 
ATOM     97  C   UNL A   1      49.161  24.506  33.680  1.00  0.00     0.022 A 
BRANCH  95  98
ATOM     98  S   UNL A   1      50.748  25.330  31.603  1.00  0.00     0.127 S 
ATOM     99  O   UNL A   1      51.209  26.684  31.904  1.00  0.00    -0.237 OA
ATOM    100  O   UNL A   1      51.522  24.267  32.245  1.00  0.00    -0.237 OA
ATOM    101  O   UNL A   1      50.418  25.075  30.208  1.00  0.00    -0.744 OA
ENDBRANCH  95  98
ENDBRANCH  68  91
ENDBRANCH  42  43
ENDBRANCH  35  37
ENDBRANCH  34  35
ENDBRANCH  33  34
ENDBRANCH  32  33
ENDBRANCH  31  32
ENDBRANCH   1  31
TORSDOF 23
ENDMDL
