MODEL 1
REMARK VINA RESULT:      -8.4      0.000      0.000
REMARK SMILES O=C(OCCOCCOCCOC(=O)[C@H](Cc1ccccn1)c1ccc(F)cc1)c1ccc(-c2c3nc(c(-c4cccc(S(=O)(=O)[O-])c4F)c4ccc([nH]4)c(-c4cccc(S(=O)(=O)[O-])c4F)c4nc(c(-c5cccc(S(=O)(=O)[O-])c5F)c5ccc2[nH]5)C=C4)C=C3)cc1
REMARK SMILES IDX 7 1 6 2 5 3 4 4 3 5 2 6 1 7 30 8 31 9 92 10 32 11 91 12
REMARK SMILES IDX 33 13 34 14 35 15 85 16 36 17 90 18 84 19 86 20 37 21 89 22
REMARK SMILES IDX 83 23 82 24 38 26 70 27 50 28 69 29 51 30 54 31 68 32 87 33
REMARK SMILES IDX 52 34 53 35 67 37 88 38 55 39 39 40 40 41 48 42 41 43 43 44
REMARK SMILES IDX 49 45 42 46 44 47 45 48 46 49 47 50 71 51 72 52 80 53 73 54
REMARK SMILES IDX 75 55 81 56 74 57 76 58 77 59 78 60 79 61 56 62 57 63 65 64
REMARK SMILES IDX 58 65 60 66 66 67 59 68 61 69 62 70 63 71 64 72 8 73 9 74
REMARK SMILES IDX 10 75 11 76 12 77 13 78 14 79 15 80 23 81 24 82 29 83 25 84
REMARK SMILES IDX 28 85 26 86 27 87 16 88 17 89 18 90 22 91 19 92 21 93 20 94
REMARK H PARENT 86 25 54 36
REMARK Flexibility Score: inf
ROOT
ATOM      1  C   UNL A   1      35.099  29.245  27.265  1.00  0.00     0.188 C 
ENDROOT
BRANCH   1   2
ATOM      2  O   UNL A   1      35.160  30.663  27.422  1.00  0.00    -0.376 OA
BRANCH   2   3
ATOM      3  C   UNL A   1      36.216  31.113  28.270  1.00  0.00     0.202 C 
BRANCH   3   4
ATOM      4  C   UNL A   1      36.052  30.765  29.755  1.00  0.00     0.261 C 
BRANCH   4   5
ATOM      5  O   UNL A   1      37.074  29.891  30.247  1.00  0.00    -0.460 OA
BRANCH   5   6
ATOM      6  C   UNL A   1      38.379  30.196  30.459  1.00  0.00     0.338 C 
ATOM      7  O   UNL A   1      39.202  29.806  29.631  1.00  0.00    -0.246 OA
BRANCH   6   8
ATOM      8  C   UNL A   1      38.852  31.019  31.618  1.00  0.00     0.060 A 
ATOM      9  C   UNL A   1      39.886  30.686  32.504  1.00  0.00     0.016 A 
ATOM     10  C   UNL A   1      38.272  32.279  31.754  1.00  0.00     0.016 A 
ATOM     11  C   UNL A   1      40.303  31.544  33.525  1.00  0.00     0.010 A 
ATOM     12  C   UNL A   1      38.742  33.174  32.718  1.00  0.00     0.010 A 
ATOM     13  C   UNL A   1      39.752  32.811  33.631  1.00  0.00    -0.014 A 
BRANCH  13  14
ATOM     14  C   UNL A   1      40.104  33.746  34.730  1.00  0.00     0.031 A 
ATOM     15  C   UNL A   1      41.208  34.723  34.446  1.00  0.00     0.074 A 
ATOM     16  C   UNL A   1      39.540  33.688  35.956  1.00  0.00     0.049 A 
ATOM     17  N   UNL A   1      41.917  35.437  35.272  1.00  0.00    -0.248 NA
ATOM     18  C   UNL A   1      41.585  34.886  33.027  1.00  0.00     0.031 C 
ATOM     19  C   UNL A   1      38.397  32.865  36.348  1.00  0.00     0.029 A 
ATOM     20  N   UNL A   1      39.901  34.301  37.132  1.00  0.00    -0.354 N 
ATOM     21  C   UNL A   1      42.840  36.101  34.476  1.00  0.00     0.074 A 
ATOM     22  C   UNL A   1      42.676  35.625  33.124  1.00  0.00     0.031 C 
ATOM     23  C   UNL A   1      38.225  32.924  37.679  1.00  0.00     0.029 A 
ATOM     24  C   UNL A   1      39.224  33.823  38.236  1.00  0.00     0.049 A 
ATOM     25  H   UNL A   1      40.578  35.013  37.183  1.00  0.00     0.167 HD
ATOM     26  C   UNL A   1      43.693  37.089  34.824  1.00  0.00     0.034 A 
ATOM     27  C   UNL A   1      39.390  34.086  39.548  1.00  0.00     0.034 A 
ATOM     28  C   UNL A   1      43.768  37.625  36.150  1.00  0.00     0.049 A 
ATOM     29  C   UNL A   1      40.387  35.147  39.927  1.00  0.00     0.074 A 
ATOM     30  C   UNL A   1      44.538  38.674  36.608  1.00  0.00     0.029 A 
ATOM     31  N   UNL A   1      43.022  37.164  37.222  1.00  0.00    -0.354 N 
ATOM     32  N   UNL A   1      41.199  35.824  39.150  1.00  0.00    -0.248 NA
ATOM     33  C   UNL A   1      40.436  35.545  41.341  1.00  0.00     0.031 C 
ATOM     34  C   UNL A   1      44.262  38.844  37.966  1.00  0.00     0.029 A 
ATOM     35  C   UNL A   1      43.301  37.917  38.345  1.00  0.00     0.049 A 
ATOM     36  H   UNL A   1      42.387  36.413  37.189  1.00  0.00     0.167 HD
ATOM     37  C   UNL A   1      41.791  36.781  39.962  1.00  0.00     0.074 A 
ATOM     38  C   UNL A   1      41.253  36.588  41.294  1.00  0.00     0.031 C 
ATOM     39  C   UNL A   1      42.693  37.739  39.638  1.00  0.00     0.034 A 
BRANCH  26  40
ATOM     40  C   UNL A   1      44.519  37.702  33.731  1.00  0.00     0.023 A 
ATOM     41  C   UNL A   1      45.769  37.135  33.405  1.00  0.00     0.012 A 
ATOM     42  C   UNL A   1      44.056  38.820  33.015  1.00  0.00     0.148 A 
ATOM     43  C   UNL A   1      46.567  37.697  32.412  1.00  0.00     0.002 A 
ATOM     44  C   UNL A   1      44.832  39.341  31.988  1.00  0.00     0.091 A 
ATOM     45  F   UNL A   1      42.874  39.353  33.357  1.00  0.00    -0.205 F 
ATOM     46  C   UNL A   1      46.093  38.794  31.697  1.00  0.00     0.022 A 
BRANCH  44  47
ATOM     47  S   UNL A   1      44.285  40.700  30.952  1.00  0.00     0.127 S 
ATOM     48  O   UNL A   1      43.855  41.680  31.949  1.00  0.00    -0.237 OA
ATOM     49  O   UNL A   1      45.514  41.048  30.242  1.00  0.00    -0.237 OA
ATOM     50  O   UNL A   1      43.217  40.168  30.117  1.00  0.00    -0.744 OA
ENDBRANCH  44  47
ENDBRANCH  26  40
BRANCH  27  51
ATOM     51  C   UNL A   1      38.522  33.443  40.579  1.00  0.00     0.023 A 
ATOM     52  C   UNL A   1      37.244  33.981  40.829  1.00  0.00     0.012 A 
ATOM     53  C   UNL A   1      38.945  32.320  41.317  1.00  0.00     0.148 A 
ATOM     54  C   UNL A   1      36.424  33.449  41.826  1.00  0.00     0.002 A 
ATOM     55  C   UNL A   1      38.108  31.770  42.286  1.00  0.00     0.091 A 
ATOM     56  F   UNL A   1      40.162  31.815  41.062  1.00  0.00    -0.205 F 
ATOM     57  C   UNL A   1      36.854  32.344  42.552  1.00  0.00     0.022 A 
BRANCH  55  58
ATOM     58  S   UNL A   1      38.529  30.294  43.220  1.00  0.00     0.127 S 
ATOM     59  O   UNL A   1      38.266  29.239  42.248  1.00  0.00    -0.237 OA
ATOM     60  O   UNL A   1      39.941  30.521  43.522  1.00  0.00    -0.237 OA
ATOM     61  O   UNL A   1      37.652  30.310  44.388  1.00  0.00    -0.744 OA
ENDBRANCH  55  58
ENDBRANCH  27  51
BRANCH  39  62
ATOM     62  C   UNL A   1      43.112  38.700  40.714  1.00  0.00     0.023 A 
ATOM     63  C   UNL A   1      44.259  38.435  41.484  1.00  0.00     0.012 A 
ATOM     64  C   UNL A   1      42.435  39.926  40.864  1.00  0.00     0.148 A 
ATOM     65  C   UNL A   1      44.717  39.372  42.407  1.00  0.00     0.002 A 
ATOM     66  C   UNL A   1      42.933  40.880  41.739  1.00  0.00     0.091 A 
ATOM     67  F   UNL A   1      41.333  40.143  40.131  1.00  0.00    -0.205 F 
ATOM     68  C   UNL A   1      44.066  40.600  42.521  1.00  0.00     0.022 A 
BRANCH  66  69
ATOM     69  S   UNL A   1      42.239  42.532  41.852  1.00  0.00     0.127 S 
ATOM     70  O   UNL A   1      42.187  42.928  40.446  1.00  0.00    -0.237 OA
ATOM     71  O   UNL A   1      40.935  42.276  42.464  1.00  0.00    -0.237 OA
ATOM     72  O   UNL A   1      43.157  43.298  42.684  1.00  0.00    -0.744 OA
ENDBRANCH  66  69
ENDBRANCH  39  62
ENDBRANCH  13  14
ENDBRANCH   6   8
ENDBRANCH   5   6
ENDBRANCH   4   5
ENDBRANCH   3   4
ENDBRANCH   2   3
ENDBRANCH   1   2
BRANCH   1  73
ATOM     73  C   UNL A   1      34.081  28.844  26.202  1.00  0.00     0.188 C 
BRANCH  73  74
ATOM     74  O   UNL A   1      32.895  29.627  26.102  1.00  0.00    -0.376 OA
BRANCH  74  75
ATOM     75  C   UNL A   1      31.769  29.177  26.854  1.00  0.00     0.202 C 
BRANCH  75  76
ATOM     76  C   UNL A   1      31.755  27.720  27.367  1.00  0.00     0.261 C 
BRANCH  76  77
ATOM     77  O   UNL A   1      30.795  26.834  26.751  1.00  0.00    -0.463 OA
BRANCH  77  78
ATOM     78  C   UNL A   1      31.250  25.597  26.361  1.00  0.00     0.313 C 
ATOM     79  O   UNL A   1      31.354  24.649  27.133  1.00  0.00    -0.252 OA
BRANCH  78  80
ATOM     80  C   UNL A   1      31.545  25.483  24.847  1.00  0.00     0.135 C 
BRANCH  80  81
ATOM     81  C   UNL A   1      30.757  26.485  23.992  1.00  0.00    -0.033 A 
ATOM     82  C   UNL A   1      29.365  26.426  23.844  1.00  0.00     0.007 A 
ATOM     83  C   UNL A   1      31.426  27.619  23.494  1.00  0.00     0.007 A 
ATOM     84  C   UNL A   1      28.649  27.550  23.433  1.00  0.00     0.039 A 
ATOM     85  C   UNL A   1      30.712  28.749  23.096  1.00  0.00     0.039 A 
ATOM     86  C   UNL A   1      29.327  28.717  23.111  1.00  0.00     0.123 A 
ATOM     87  F   UNL A   1      28.635  29.825  22.814  1.00  0.00    -0.207 F 
ENDBRANCH  80  81
BRANCH  80  88
ATOM     88  C   UNL A   1      33.065  25.601  24.568  1.00  0.00     0.076 C 
BRANCH  88  89
ATOM     89  C   UNL A   1      33.914  24.347  24.595  1.00  0.00     0.042 A 
ATOM     90  C   UNL A   1      35.275  24.363  24.894  1.00  0.00     0.024 A 
ATOM     91  N   UNL A   1      33.275  23.195  24.265  1.00  0.00    -0.261 NA
ATOM     92  C   UNL A   1      36.008  23.179  24.787  1.00  0.00     0.003 A 
ATOM     93  C   UNL A   1      33.999  22.054  24.219  1.00  0.00     0.111 A 
ATOM     94  C   UNL A   1      35.360  21.999  24.446  1.00  0.00     0.020 A 
ENDBRANCH  88  89
ENDBRANCH  80  88
ENDBRANCH  78  80
ENDBRANCH  77  78
ENDBRANCH  76  77
ENDBRANCH  75  76
ENDBRANCH  74  75
ENDBRANCH  73  74
ENDBRANCH   1  73
TORSDOF 23
ENDMDL
MODEL 2
REMARK VINA RESULT:      -8.4      9.821     14.362
REMARK SMILES O=C(OCCOCCOCCOC(=O)[C@H](Cc1ccccn1)c1ccc(F)cc1)c1ccc(-c2c3nc(c(-c4cccc(S(=O)(=O)[O-])c4F)c4ccc([nH]4)c(-c4cccc(S(=O)(=O)[O-])c4F)c4nc(c(-c5cccc(S(=O)(=O)[O-])c5F)c5ccc2[nH]5)C=C4)C=C3)cc1
REMARK SMILES IDX 7 1 6 2 5 3 4 4 3 5 2 6 1 7 30 8 31 9 92 10 32 11 91 12
REMARK SMILES IDX 33 13 34 14 35 15 85 16 36 17 90 18 84 19 86 20 37 21 89 22
REMARK SMILES IDX 83 23 82 24 38 26 70 27 50 28 69 29 51 30 54 31 68 32 87 33
REMARK SMILES IDX 52 34 53 35 67 37 88 38 55 39 39 40 40 41 48 42 41 43 43 44
REMARK SMILES IDX 49 45 42 46 44 47 45 48 46 49 47 50 71 51 72 52 80 53 73 54
REMARK SMILES IDX 75 55 81 56 74 57 76 58 77 59 78 60 79 61 56 62 57 63 65 64
REMARK SMILES IDX 58 65 60 66 66 67 59 68 61 69 62 70 63 71 64 72 8 73 9 74
REMARK SMILES IDX 10 75 11 76 12 77 13 78 14 79 15 80 23 81 24 82 29 83 25 84
REMARK SMILES IDX 28 85 26 86 27 87 16 88 17 89 18 90 22 91 19 92 21 93 20 94
REMARK H PARENT 86 25 54 36
REMARK Flexibility Score: inf
ROOT
ATOM      1  C   UNL A   1      42.634  31.909  29.704  1.00  0.00     0.188 C 
ENDROOT
BRANCH   1   2
ATOM      2  O   UNL A   1      41.502  32.435  30.397  1.00  0.00    -0.376 OA
BRANCH   2   3
ATOM      3  C   UNL A   1      40.391  31.542  30.466  1.00  0.00     0.202 C 
BRANCH   3   4
ATOM      4  C   UNL A   1      39.225  32.020  31.342  1.00  0.00     0.261 C 
BRANCH   4   5
ATOM      5  O   UNL A   1      38.742  31.013  32.238  1.00  0.00    -0.460 OA
BRANCH   5   6
ATOM      6  C   UNL A   1      39.393  30.488  33.306  1.00  0.00     0.338 C 
ATOM      7  O   UNL A   1      38.817  30.502  34.394  1.00  0.00    -0.246 OA
BRANCH   6   8
ATOM      8  C   UNL A   1      40.747  29.855  33.213  1.00  0.00     0.060 A 
ATOM      9  C   UNL A   1      41.980  30.518  33.290  1.00  0.00     0.016 A 
ATOM     10  C   UNL A   1      40.772  28.462  33.148  1.00  0.00     0.016 A 
ATOM     11  C   UNL A   1      43.201  29.838  33.253  1.00  0.00     0.010 A 
ATOM     12  C   UNL A   1      41.986  27.772  33.196  1.00  0.00     0.010 A 
ATOM     13  C   UNL A   1      43.219  28.453  33.229  1.00  0.00    -0.014 A 
BRANCH  13  14
ATOM     14  C   UNL A   1      44.478  27.672  33.125  1.00  0.00     0.031 A 
ATOM     15  C   UNL A   1      45.272  27.515  34.390  1.00  0.00     0.074 A 
ATOM     16  C   UNL A   1      44.953  27.193  31.955  1.00  0.00     0.049 A 
ATOM     17  N   UNL A   1      46.514  27.157  34.552  1.00  0.00    -0.248 NA
ATOM     18  C   UNL A   1      44.567  27.843  35.646  1.00  0.00     0.031 C 
ATOM     19  C   UNL A   1      44.252  27.183  30.672  1.00  0.00     0.029 A 
ATOM     20  N   UNL A   1      46.185  26.668  31.641  1.00  0.00    -0.354 N 
ATOM     21  C   UNL A   1      46.742  27.253  35.917  1.00  0.00     0.074 A 
ATOM     22  C   UNL A   1      45.555  27.804  36.523  1.00  0.00     0.031 C 
ATOM     23  C   UNL A   1      45.091  26.799  29.695  1.00  0.00     0.029 A 
ATOM     24  C   UNL A   1      46.384  26.495  30.287  1.00  0.00     0.049 A 
ATOM     25  H   UNL A   1      46.860  26.437  32.319  1.00  0.00     0.167 HD
ATOM     26  C   UNL A   1      47.818  26.837  36.619  1.00  0.00     0.034 A 
ATOM     27  C   UNL A   1      47.487  26.128  29.603  1.00  0.00     0.034 A 
ATOM     28  C   UNL A   1      48.945  26.194  36.015  1.00  0.00     0.049 A 
ATOM     29  C   UNL A   1      48.699  25.723  30.397  1.00  0.00     0.074 A 
ATOM     30  C   UNL A   1      50.061  25.661  36.629  1.00  0.00     0.029 A 
ATOM     31  N   UNL A   1      49.082  25.975  34.653  1.00  0.00    -0.354 N 
ATOM     32  N   UNL A   1      48.872  25.745  31.697  1.00  0.00    -0.248 NA
ATOM     33  C   UNL A   1      49.832  25.164  29.648  1.00  0.00     0.031 C 
ATOM     34  C   UNL A   1      50.880  25.125  35.633  1.00  0.00     0.029 A 
ATOM     35  C   UNL A   1      50.260  25.301  34.403  1.00  0.00     0.049 A 
ATOM     36  H   UNL A   1      48.436  26.258  33.966  1.00  0.00     0.167 HD
ATOM     37  C   UNL A   1      50.094  25.128  31.928  1.00  0.00     0.074 A 
ATOM     38  C   UNL A   1      50.622  24.754  30.631  1.00  0.00     0.031 C 
ATOM     39  C   UNL A   1      50.721  24.885  33.104  1.00  0.00     0.034 A 
BRANCH  26  40
ATOM     40  C   UNL A   1      47.761  26.976  38.113  1.00  0.00     0.023 A 
ATOM     41  C   UNL A   1      47.213  25.930  38.887  1.00  0.00     0.012 A 
ATOM     42  C   UNL A   1      48.262  28.122  38.752  1.00  0.00     0.148 A 
ATOM     43  C   UNL A   1      47.126  26.042  40.272  1.00  0.00     0.002 A 
ATOM     44  C   UNL A   1      48.223  28.203  40.138  1.00  0.00     0.091 A 
ATOM     45  F   UNL A   1      48.758  29.111  37.995  1.00  0.00    -0.205 F 
ATOM     46  C   UNL A   1      47.640  27.174  40.898  1.00  0.00     0.022 A 
BRANCH  44  47
ATOM     47  S   UNL A   1      48.928  29.577  41.052  1.00  0.00     0.127 S 
ATOM     48  O   UNL A   1      50.340  29.488  40.679  1.00  0.00    -0.237 OA
ATOM     49  O   UNL A   1      48.215  30.716  40.477  1.00  0.00    -0.237 OA
ATOM     50  O   UNL A   1      48.648  29.316  42.457  1.00  0.00    -0.744 OA
ENDBRANCH  44  47
ENDBRANCH  26  40
BRANCH  27  51
ATOM     51  C   UNL A   1      47.465  26.002  28.115  1.00  0.00     0.023 A 
ATOM     52  C   UNL A   1      48.124  26.975  27.337  1.00  0.00     0.012 A 
ATOM     53  C   UNL A   1      46.798  24.945  27.464  1.00  0.00     0.148 A 
ATOM     54  C   UNL A   1      48.078  26.929  25.942  1.00  0.00     0.002 A 
ATOM     55  C   UNL A   1      46.787  24.884  26.072  1.00  0.00     0.091 A 
ATOM     56  F   UNL A   1      46.183  24.023  28.219  1.00  0.00    -0.205 F 
ATOM     57  C   UNL A   1      47.412  25.884  25.311  1.00  0.00     0.022 A 
BRANCH  55  58
ATOM     58  S   UNL A   1      46.032  23.533  25.157  1.00  0.00     0.127 S 
ATOM     59  O   UNL A   1      44.628  23.929  25.143  1.00  0.00    -0.237 OA
ATOM     60  O   UNL A   1      46.715  23.625  23.869  1.00  0.00    -0.237 OA
ATOM     61  O   UNL A   1      46.341  22.327  25.921  1.00  0.00    -0.744 OA
ENDBRANCH  55  58
ENDBRANCH  27  51
BRANCH  39  62
ATOM     62  C   UNL A   1      52.015  24.123  33.063  1.00  0.00     0.023 A 
ATOM     63  C   UNL A   1      53.230  24.813  32.906  1.00  0.00     0.012 A 
ATOM     64  C   UNL A   1      52.023  22.737  33.313  1.00  0.00     0.148 A 
ATOM     65  C   UNL A   1      54.441  24.128  32.978  1.00  0.00     0.002 A 
ATOM     66  C   UNL A   1      53.233  22.073  33.447  1.00  0.00     0.091 A 
ATOM     67  F   UNL A   1      50.849  22.102  33.440  1.00  0.00    -0.205 F 
ATOM     68  C   UNL A   1      54.443  22.764  33.266  1.00  0.00     0.022 A 
BRANCH  66  69
ATOM     69  S   UNL A   1      53.332  20.351  33.947  1.00  0.00     0.127 S 
ATOM     70  O   UNL A   1      53.652  19.694  32.681  1.00  0.00    -0.237 OA
ATOM     71  O   UNL A   1      54.427  20.376  34.916  1.00  0.00    -0.237 OA
ATOM     72  O   UNL A   1      52.031  20.020  34.511  1.00  0.00    -0.744 OA
ENDBRANCH  66  69
ENDBRANCH  39  62
ENDBRANCH  13  14
ENDBRANCH   6   8
ENDBRANCH   5   6
ENDBRANCH   4   5
ENDBRANCH   3   4
ENDBRANCH   2   3
ENDBRANCH   1   2
BRANCH   1  73
ATOM     73  C   UNL A   1      42.435  30.441  29.341  1.00  0.00     0.188 C 
BRANCH  73  74
ATOM     74  O   UNL A   1      43.428  29.828  28.523  1.00  0.00    -0.376 OA
BRANCH  74  75
ATOM     75  C   UNL A   1      43.077  29.597  27.160  1.00  0.00     0.202 C 
BRANCH  75  76
ATOM     76  C   UNL A   1      43.634  28.341  26.453  1.00  0.00     0.261 C 
BRANCH  76  77
ATOM     77  O   UNL A   1      43.091  27.072  26.881  1.00  0.00    -0.463 OA
BRANCH  77  78
ATOM     78  C   UNL A   1      41.725  26.935  26.846  1.00  0.00     0.313 C 
ATOM     79  O   UNL A   1      41.079  26.942  25.803  1.00  0.00    -0.252 OA
BRANCH  78  80
ATOM     80  C   UNL A   1      41.080  26.692  28.230  1.00  0.00     0.135 C 
BRANCH  80  81
ATOM     81  C   UNL A   1      40.076  27.779  28.636  1.00  0.00    -0.033 A 
ATOM     82  C   UNL A   1      39.632  28.771  27.751  1.00  0.00     0.007 A 
ATOM     83  C   UNL A   1      39.427  27.668  29.881  1.00  0.00     0.007 A 
ATOM     84  C   UNL A   1      38.445  29.461  27.998  1.00  0.00     0.039 A 
ATOM     85  C   UNL A   1      38.233  28.345  30.124  1.00  0.00     0.039 A 
ATOM     86  C   UNL A   1      37.730  29.204  29.160  1.00  0.00     0.123 A 
ATOM     87  F   UNL A   1      36.541  29.791  29.349  1.00  0.00    -0.207 F 
ENDBRANCH  80  81
BRANCH  80  88
ATOM     88  C   UNL A   1      40.425  25.289  28.298  1.00  0.00     0.076 C 
BRANCH  88  89
ATOM     89  C   UNL A   1      41.274  24.069  28.003  1.00  0.00     0.042 A 
ATOM     90  C   UNL A   1      42.409  23.743  28.740  1.00  0.00     0.024 A 
ATOM     91  N   UNL A   1      40.884  23.325  26.935  1.00  0.00    -0.261 NA
ATOM     92  C   UNL A   1      43.199  22.667  28.332  1.00  0.00     0.003 A 
ATOM     93  C   UNL A   1      41.639  22.257  26.593  1.00  0.00     0.111 A 
ATOM     94  C   UNL A   1      42.807  21.904  27.238  1.00  0.00     0.020 A 
ENDBRANCH  88  89
ENDBRANCH  80  88
ENDBRANCH  78  80
ENDBRANCH  77  78
ENDBRANCH  76  77
ENDBRANCH  75  76
ENDBRANCH  74  75
ENDBRANCH  73  74
ENDBRANCH   1  73
TORSDOF 23
ENDMDL
MODEL 3
REMARK VINA RESULT:      -8.3      5.066     10.213
REMARK SMILES O=C(OCCOCCOCCOC(=O)[C@H](Cc1ccccn1)c1ccc(F)cc1)c1ccc(-c2c3nc(c(-c4cccc(S(=O)(=O)[O-])c4F)c4ccc([nH]4)c(-c4cccc(S(=O)(=O)[O-])c4F)c4nc(c(-c5cccc(S(=O)(=O)[O-])c5F)c5ccc2[nH]5)C=C4)C=C3)cc1
REMARK SMILES IDX 7 1 6 2 5 3 4 4 3 5 2 6 1 7 30 8 31 9 92 10 32 11 91 12
REMARK SMILES IDX 33 13 34 14 35 15 85 16 36 17 90 18 84 19 86 20 37 21 89 22
REMARK SMILES IDX 83 23 82 24 38 26 70 27 50 28 69 29 51 30 54 31 68 32 87 33
REMARK SMILES IDX 52 34 53 35 67 37 88 38 55 39 39 40 40 41 48 42 41 43 43 44
REMARK SMILES IDX 49 45 42 46 44 47 45 48 46 49 47 50 71 51 72 52 80 53 73 54
REMARK SMILES IDX 75 55 81 56 74 57 76 58 77 59 78 60 79 61 56 62 57 63 65 64
REMARK SMILES IDX 58 65 60 66 66 67 59 68 61 69 62 70 63 71 64 72 8 73 9 74
REMARK SMILES IDX 10 75 11 76 12 77 13 78 14 79 15 80 23 81 24 82 29 83 25 84
REMARK SMILES IDX 28 85 26 86 27 87 16 88 17 89 18 90 22 91 19 92 21 93 20 94
REMARK H PARENT 86 25 54 36
REMARK Flexibility Score: inf
ROOT
ATOM      1  C   UNL A   1      44.218  33.700  27.582  1.00  0.00     0.188 C 
ENDROOT
BRANCH   1   2
ATOM      2  O   UNL A   1      45.213  34.671  27.259  1.00  0.00    -0.376 OA
BRANCH   2   3
ATOM      3  C   UNL A   1      44.689  35.951  26.908  1.00  0.00     0.202 C 
BRANCH   3   4
ATOM      4  C   UNL A   1      44.177  36.790  28.087  1.00  0.00     0.261 C 
BRANCH   4   5
ATOM      5  O   UNL A   1      45.078  37.835  28.470  1.00  0.00    -0.460 OA
BRANCH   5   6
ATOM      6  C   UNL A   1      45.642  38.021  29.690  1.00  0.00     0.338 C 
ATOM      7  O   UNL A   1      46.759  38.536  29.735  1.00  0.00    -0.246 OA
BRANCH   6   8
ATOM      8  C   UNL A   1      44.954  37.674  30.975  1.00  0.00     0.060 A 
ATOM      9  C   UNL A   1      44.027  38.471  31.660  1.00  0.00     0.016 A 
ATOM     10  C   UNL A   1      45.187  36.392  31.471  1.00  0.00     0.016 A 
ATOM     11  C   UNL A   1      43.386  38.042  32.826  1.00  0.00     0.010 A 
ATOM     12  C   UNL A   1      44.487  35.926  32.586  1.00  0.00     0.010 A 
ATOM     13  C   UNL A   1      43.591  36.753  33.291  1.00  0.00    -0.014 A 
BRANCH  13  14
ATOM     14  C   UNL A   1      42.991  36.256  34.557  1.00  0.00     0.031 A 
ATOM     15  C   UNL A   1      41.745  35.429  34.424  1.00  0.00     0.074 A 
ATOM     16  C   UNL A   1      43.468  36.584  35.777  1.00  0.00     0.049 A 
ATOM     17  N   UNL A   1      40.858  35.116  35.324  1.00  0.00    -0.248 NA
ATOM     18  C   UNL A   1      41.445  34.914  33.073  1.00  0.00     0.031 C 
ATOM     19  C   UNL A   1      44.716  37.292  36.060  1.00  0.00     0.029 A 
ATOM     20  N   UNL A   1      42.916  36.416  37.024  1.00  0.00    -0.354 N 
ATOM     21  C   UNL A   1      39.884  34.402  34.639  1.00  0.00     0.074 A 
ATOM     22  C   UNL A   1      40.230  34.422  33.239  1.00  0.00     0.031 C 
ATOM     23  C   UNL A   1      44.780  37.605  37.365  1.00  0.00     0.029 A 
ATOM     24  C   UNL A   1      43.592  37.085  38.024  1.00  0.00     0.049 A 
ATOM     25  H   UNL A   1      42.114  35.869  37.189  1.00  0.00     0.167 HD
ATOM     26  C   UNL A   1      38.838  33.714  35.143  1.00  0.00     0.034 A 
ATOM     27  C   UNL A   1      43.288  37.254  39.327  1.00  0.00     0.034 A 
ATOM     28  C   UNL A   1      38.569  33.615  36.546  1.00  0.00     0.049 A 
ATOM     29  C   UNL A   1      42.083  36.528  39.863  1.00  0.00     0.074 A 
ATOM     30  C   UNL A   1      37.584  32.887  37.182  1.00  0.00     0.029 A 
ATOM     31  N   UNL A   1      39.312  34.248  37.530  1.00  0.00    -0.354 N 
ATOM     32  N   UNL A   1      41.215  35.790  39.213  1.00  0.00    -0.248 NA
ATOM     33  C   UNL A   1      41.861  36.582  41.314  1.00  0.00     0.031 C 
ATOM     34  C   UNL A   1      37.726  33.088  38.556  1.00  0.00     0.029 A 
ATOM     35  C   UNL A   1      38.817  33.918  38.775  1.00  0.00     0.049 A 
ATOM     36  H   UNL A   1      40.078  34.844  37.365  1.00  0.00     0.167 HD
ATOM     37  C   UNL A   1      40.397  35.226  40.182  1.00  0.00     0.074 A 
ATOM     38  C   UNL A   1      40.867  35.717  41.462  1.00  0.00     0.031 C 
ATOM     39  C   UNL A   1      39.355  34.373  40.031  1.00  0.00     0.034 A 
BRANCH  26  40
ATOM     40  C   UNL A   1      37.989  32.944  34.173  1.00  0.00     0.023 A 
ATOM     41  C   UNL A   1      38.328  31.609  33.863  1.00  0.00     0.012 A 
ATOM     42  C   UNL A   1      36.853  33.525  33.585  1.00  0.00     0.148 A 
ATOM     43  C   UNL A   1      37.573  30.879  32.949  1.00  0.00     0.002 A 
ATOM     44  C   UNL A   1      36.072  32.773  32.717  1.00  0.00     0.091 A 
ATOM     45  F   UNL A   1      36.564  34.801  33.879  1.00  0.00    -0.205 F 
ATOM     46  C   UNL A   1      36.440  31.457  32.384  1.00  0.00     0.022 A 
BRANCH  44  47
ATOM     47  S   UNL A   1      34.550  33.390  31.996  1.00  0.00     0.127 S 
ATOM     48  O   UNL A   1      33.626  33.296  33.127  1.00  0.00    -0.237 OA
ATOM     49  O   UNL A   1      34.925  34.753  31.626  1.00  0.00    -0.237 OA
ATOM     50  O   UNL A   1      34.243  32.507  30.880  1.00  0.00    -0.744 OA
ENDBRANCH  44  47
ENDBRANCH  26  40
BRANCH  27  51
ATOM     51  C   UNL A   1      44.187  38.027  40.235  1.00  0.00     0.023 A 
ATOM     52  C   UNL A   1      45.249  37.358  40.877  1.00  0.00     0.012 A 
ATOM     53  C   UNL A   1      44.001  39.402  40.478  1.00  0.00     0.148 A 
ATOM     54  C   UNL A   1      46.076  38.028  41.780  1.00  0.00     0.002 A 
ATOM     55  C   UNL A   1      44.852  40.074  41.352  1.00  0.00     0.091 A 
ATOM     56  F   UNL A   1      42.991  40.026  39.853  1.00  0.00    -0.205 F 
ATOM     57  C   UNL A   1      45.880  39.384  42.016  1.00  0.00     0.022 A 
BRANCH  55  58
ATOM     58  S   UNL A   1      44.742  41.841  41.663  1.00  0.00     0.127 S 
ATOM     59  O   UNL A   1      45.561  42.386  40.586  1.00  0.00    -0.237 OA
ATOM     60  O   UNL A   1      43.306  42.080  41.531  1.00  0.00    -0.237 OA
ATOM     61  O   UNL A   1      45.265  42.031  43.013  1.00  0.00    -0.744 OA
ENDBRANCH  55  58
ENDBRANCH  27  51
BRANCH  39  62
ATOM     62  C   UNL A   1      38.687  33.856  41.273  1.00  0.00     0.023 A 
ATOM     63  C   UNL A   1      37.656  34.598  41.877  1.00  0.00     0.012 A 
ATOM     64  C   UNL A   1      39.002  32.571  41.757  1.00  0.00     0.148 A 
ATOM     65  C   UNL A   1      36.958  34.076  42.962  1.00  0.00     0.002 A 
ATOM     66  C   UNL A   1      38.260  32.032  42.797  1.00  0.00     0.091 A 
ATOM     67  F   UNL A   1      40.002  31.894  41.175  1.00  0.00    -0.205 F 
ATOM     68  C   UNL A   1      37.247  32.788  43.410  1.00  0.00     0.022 A 
BRANCH  66  69
ATOM     69  S   UNL A   1      38.473  30.336  43.349  1.00  0.00     0.127 S 
ATOM     70  O   UNL A   1      37.379  30.197  44.308  1.00  0.00    -0.237 OA
ATOM     71  O   UNL A   1      38.295  29.585  42.106  1.00  0.00    -0.237 OA
ATOM     72  O   UNL A   1      39.813  30.262  43.914  1.00  0.00    -0.744 OA
ENDBRANCH  66  69
ENDBRANCH  39  62
ENDBRANCH  13  14
ENDBRANCH   6   8
ENDBRANCH   5   6
ENDBRANCH   4   5
ENDBRANCH   3   4
ENDBRANCH   2   3
ENDBRANCH   1   2
BRANCH   1  73
ATOM     73  C   UNL A   1      44.319  32.474  26.681  1.00  0.00     0.188 C 
BRANCH  73  74
ATOM     74  O   UNL A   1      44.519  31.211  27.310  1.00  0.00    -0.376 OA
BRANCH  74  75
ATOM     75  C   UNL A   1      43.391  30.645  27.975  1.00  0.00     0.202 C 
BRANCH  75  76
ATOM     76  C   UNL A   1      43.611  29.427  28.900  1.00  0.00     0.261 C 
BRANCH  76  77
ATOM     77  O   UNL A   1      42.940  29.464  30.179  1.00  0.00    -0.463 OA
BRANCH  77  78
ATOM     78  C   UNL A   1      41.579  29.282  30.174  1.00  0.00     0.313 C 
ATOM     79  O   UNL A   1      41.023  28.412  29.510  1.00  0.00    -0.252 OA
BRANCH  78  80
ATOM     80  C   UNL A   1      40.813  30.219  31.138  1.00  0.00     0.135 C 
BRANCH  80  81
ATOM     81  C   UNL A   1      41.354  30.192  32.574  1.00  0.00    -0.033 A 
ATOM     82  C   UNL A   1      41.963  31.302  33.177  1.00  0.00     0.007 A 
ATOM     83  C   UNL A   1      41.060  29.081  33.386  1.00  0.00     0.007 A 
ATOM     84  C   UNL A   1      42.055  31.392  34.566  1.00  0.00     0.039 A 
ATOM     85  C   UNL A   1      41.138  29.173  34.775  1.00  0.00     0.039 A 
ATOM     86  C   UNL A   1      41.595  30.346  35.353  1.00  0.00     0.123 A 
ATOM     87  F   UNL A   1      41.591  30.474  36.687  1.00  0.00    -0.207 F 
ENDBRANCH  80  81
BRANCH  80  88
ATOM     88  C   UNL A   1      40.780  31.668  30.592  1.00  0.00     0.076 C 
BRANCH  88  89
ATOM     89  C   UNL A   1      39.487  32.201  30.008  1.00  0.00     0.042 A 
ATOM     90  C   UNL A   1      39.122  33.543  30.083  1.00  0.00     0.024 A 
ATOM     91  N   UNL A   1      38.673  31.276  29.438  1.00  0.00    -0.261 NA
ATOM     92  C   UNL A   1      37.863  33.932  29.621  1.00  0.00     0.003 A 
ATOM     93  C   UNL A   1      37.481  31.688  28.951  1.00  0.00     0.111 A 
ATOM     94  C   UNL A   1      37.024  32.988  29.039  1.00  0.00     0.020 A 
ENDBRANCH  88  89
ENDBRANCH  80  88
ENDBRANCH  78  80
ENDBRANCH  77  78
ENDBRANCH  76  77
ENDBRANCH  75  76
ENDBRANCH  74  75
ENDBRANCH  73  74
ENDBRANCH   1  73
TORSDOF 23
ENDMDL
