MODEL 1
REMARK VINA RESULT:     -10.1      0.000      0.000
REMARK SMILES Cc1oc(C[N@H+]2C[C@@H](C)[C@@H](C)C2)cc1C(=O)OCCOCCOCCOC(=O)c1ccc(-c2c3nc(c(-c4cccc(S(=O)(=O)[O-])c4F)c4ccc([nH]4)c(-c4cccc(S(=O)(=O)[O-])c4F)c4nc(c(-c5cccc(S(=O)(=O)[O-])c5F)c5ccc2[nH]5)C=C4)C=C3)cc1
REMARK SMILES IDX 22 1 21 2 20 3 19 4 18 5 17 6 15 7 16 8 14 9 1 10 2 11 3 12
REMARK SMILES IDX 4 13 13 14 5 15 6 16 7 17 12 18 8 20 10 21 9 22 11 23 23 24
REMARK SMILES IDX 24 25 25 26 26 27 27 28 28 29 29 30 30 31 91 32 31 33 90 34
REMARK SMILES IDX 32 35 33 36 34 37 84 38 35 39 89 40 83 41 85 42 36 43 88 44
REMARK SMILES IDX 82 45 81 46 37 48 69 49 49 50 68 51 50 52 53 53 67 54 86 55
REMARK SMILES IDX 51 56 52 57 66 59 87 60 54 61 38 62 39 63 47 64 40 65 42 66
REMARK SMILES IDX 48 67 41 68 43 69 44 70 45 71 46 72 70 73 71 74 79 75 72 76
REMARK SMILES IDX 74 77 80 78 73 79 75 80 76 81 77 82 78 83 55 84 56 85 64 86
REMARK SMILES IDX 57 87 59 88 65 89 58 90 60 91 61 92 62 93 63 94
REMARK H PARENT 6 19 85 47 53 58
REMARK Flexibility Score: inf
ROOT
ATOM      1  C   UNL A   1      38.130  22.747  25.711  1.00  0.00     0.188 C 
ENDROOT
BRANCH   1   2
ATOM      2  C   UNL A   1      36.811  23.024  24.957  1.00  0.00     0.188 C 
BRANCH   2   3
ATOM      3  O   UNL A   1      35.571  22.687  25.557  1.00  0.00    -0.376 OA
BRANCH   3   4
ATOM      4  C   UNL A   1      35.035  21.383  25.362  1.00  0.00     0.202 C 
BRANCH   4   5
ATOM      5  C   UNL A   1      33.702  21.281  24.628  1.00  0.00     0.261 C 
BRANCH   5   6
ATOM      6  O   UNL A   1      33.682  22.186  23.513  1.00  0.00    -0.460 OA
BRANCH   6   7
ATOM      7  C   UNL A   1      32.461  22.389  22.948  1.00  0.00     0.341 C 
ATOM      8  O   UNL A   1      31.815  21.531  22.359  1.00  0.00    -0.246 OA
BRANCH   7   9
ATOM      9  C   UNL A   1      31.924  23.704  23.239  1.00  0.00     0.101 A 
ATOM     10  C   UNL A   1      30.654  23.441  25.544  1.00  0.00     0.088 C 
ATOM     11  C   UNL A   1      31.157  24.103  24.322  1.00  0.00     0.115 A 
ATOM     12  O   UNL A   1      30.830  25.421  24.200  1.00  0.00    -0.459 OA
ATOM     13  C   UNL A   1      31.356  25.877  23.028  1.00  0.00     0.159 A 
ATOM     14  C   UNL A   1      32.059  24.862  22.419  1.00  0.00     0.067 A 
BRANCH  13  15
ATOM     15  C   UNL A   1      31.129  27.306  22.640  1.00  0.00     0.338 C 
BRANCH  15  16
ATOM     16  N   UNL A   1      31.862  28.329  23.380  1.00  0.00    -0.328 N 
ATOM     17  C   UNL A   1      31.194  28.882  24.551  1.00  0.00     0.266 C 
ATOM     18  C   UNL A   1      33.248  28.007  23.716  1.00  0.00     0.266 C 
ATOM     19  H   UNL A   1      31.881  29.062  22.670  1.00  0.00     0.348 HD
ATOM     20  C   UNL A   1      32.332  29.639  25.230  1.00  0.00     0.049 C 
ATOM     21  C   UNL A   1      33.522  28.681  25.070  1.00  0.00     0.049 C 
ATOM     22  C   UNL A   1      32.001  30.076  26.649  1.00  0.00     0.014 C 
ATOM     23  C   UNL A   1      33.649  27.641  26.185  1.00  0.00     0.014 C 
ENDBRANCH  15  16
ENDBRANCH  13  15
ENDBRANCH   7   9
ENDBRANCH   6   7
ENDBRANCH   5   6
ENDBRANCH   4   5
ENDBRANCH   3   4
ENDBRANCH   2   3
ENDBRANCH   1   2
BRANCH   1  24
ATOM     24  O   UNL A   1      38.481  21.443  26.145  1.00  0.00    -0.376 OA
BRANCH  24  25
ATOM     25  C   UNL A   1      38.509  20.369  25.219  1.00  0.00     0.202 C 
BRANCH  25  26
ATOM     26  C   UNL A   1      39.496  19.219  25.421  1.00  0.00     0.261 C 
BRANCH  26  27
ATOM     27  O   UNL A   1      40.346  19.380  26.561  1.00  0.00    -0.460 OA
BRANCH  27  28
ATOM     28  C   UNL A   1      41.613  19.767  26.274  1.00  0.00     0.338 C 
ATOM     29  O   UNL A   1      42.476  19.117  25.709  1.00  0.00    -0.246 OA
BRANCH  28  30
ATOM     30  C   UNL A   1      41.779  21.189  26.618  1.00  0.00     0.060 A 
ATOM     31  C   UNL A   1      41.880  22.111  25.568  1.00  0.00     0.016 A 
ATOM     32  C   UNL A   1      41.897  21.600  27.947  1.00  0.00     0.016 A 
ATOM     33  C   UNL A   1      42.141  23.451  25.847  1.00  0.00     0.010 A 
ATOM     34  C   UNL A   1      42.174  22.939  28.223  1.00  0.00     0.010 A 
ATOM     35  C   UNL A   1      42.327  23.862  27.173  1.00  0.00    -0.014 A 
BRANCH  35  36
ATOM     36  C   UNL A   1      42.834  25.224  27.457  1.00  0.00     0.031 A 
ATOM     37  C   UNL A   1      41.910  26.221  28.094  1.00  0.00     0.074 A 
ATOM     38  C   UNL A   1      44.089  25.571  27.125  1.00  0.00     0.049 A 
ATOM     39  N   UNL A   1      42.135  27.468  28.418  1.00  0.00    -0.248 NA
ATOM     40  C   UNL A   1      40.549  25.753  28.408  1.00  0.00     0.031 C 
ATOM     41  C   UNL A   1      45.070  24.694  26.489  1.00  0.00     0.029 A 
ATOM     42  N   UNL A   1      44.742  26.770  27.257  1.00  0.00    -0.354 N 
ATOM     43  C   UNL A   1      40.945  27.939  28.957  1.00  0.00     0.074 A 
ATOM     44  C   UNL A   1      39.994  26.849  28.906  1.00  0.00     0.031 C 
ATOM     45  C   UNL A   1      46.193  25.395  26.254  1.00  0.00     0.029 A 
ATOM     46  C   UNL A   1      46.004  26.770  26.712  1.00  0.00     0.049 A 
ATOM     47  H   UNL A   1      44.345  27.555  27.698  1.00  0.00     0.167 HD
ATOM     48  C   UNL A   1      40.673  29.162  29.467  1.00  0.00     0.034 A 
ATOM     49  C   UNL A   1      46.897  27.773  26.588  1.00  0.00     0.034 A 
ATOM     50  C   UNL A   1      41.621  30.240  29.528  1.00  0.00     0.049 A 
ATOM     51  C   UNL A   1      46.562  29.132  27.148  1.00  0.00     0.074 A 
ATOM     52  C   UNL A   1      41.455  31.501  30.071  1.00  0.00     0.029 A 
ATOM     53  N   UNL A   1      42.909  30.189  29.019  1.00  0.00    -0.354 N 
ATOM     54  N   UNL A   1      45.485  29.519  27.788  1.00  0.00    -0.248 NA
ATOM     55  C   UNL A   1      47.580  30.184  26.996  1.00  0.00     0.031 C 
ATOM     56  C   UNL A   1      42.641  32.219  29.877  1.00  0.00     0.029 A 
ATOM     57  C   UNL A   1      43.547  31.399  29.223  1.00  0.00     0.049 A 
ATOM     58  H   UNL A   1      43.310  29.406  28.576  1.00  0.00     0.167 HD
ATOM     59  C   UNL A   1      45.709  30.845  28.145  1.00  0.00     0.074 A 
ATOM     60  C   UNL A   1      47.031  31.190  27.665  1.00  0.00     0.031 C 
ATOM     61  C   UNL A   1      44.888  31.707  28.795  1.00  0.00     0.034 A 
BRANCH  48  62
ATOM     62  C   UNL A   1      39.302  29.383  30.042  1.00  0.00     0.023 A 
ATOM     63  C   UNL A   1      39.021  28.923  31.344  1.00  0.00     0.012 A 
ATOM     64  C   UNL A   1      38.312  30.078  29.322  1.00  0.00     0.148 A 
ATOM     65  C   UNL A   1      37.766  29.132  31.914  1.00  0.00     0.002 A 
ATOM     66  C   UNL A   1      37.075  30.312  29.911  1.00  0.00     0.091 A 
ATOM     67  F   UNL A   1      38.591  30.480  28.075  1.00  0.00    -0.205 F 
ATOM     68  C   UNL A   1      36.797  29.834  31.202  1.00  0.00     0.022 A 
BRANCH  66  69
ATOM     69  S   UNL A   1      35.786  31.261  29.094  1.00  0.00     0.127 S 
ATOM     70  O   UNL A   1      36.568  32.281  28.396  1.00  0.00    -0.237 OA
ATOM     71  O   UNL A   1      35.171  30.262  28.219  1.00  0.00    -0.237 OA
ATOM     72  O   UNL A   1      34.918  31.749  30.156  1.00  0.00    -0.744 OA
ENDBRANCH  66  69
ENDBRANCH  48  62
BRANCH  49  73
ATOM     73  C   UNL A   1      48.218  27.516  25.950  1.00  0.00     0.023 A 
ATOM     74  C   UNL A   1      49.319  27.170  26.757  1.00  0.00     0.012 A 
ATOM     75  C   UNL A   1      48.386  27.597  24.555  1.00  0.00     0.148 A 
ATOM     76  C   UNL A   1      50.570  26.933  26.189  1.00  0.00     0.002 A 
ATOM     77  C   UNL A   1      49.625  27.312  23.990  1.00  0.00     0.091 A 
ATOM     78  F   UNL A   1      47.332  27.950  23.806  1.00  0.00    -0.205 F 
ATOM     79  C   UNL A   1      50.721  26.994  24.806  1.00  0.00     0.022 A 
BRANCH  77  80
ATOM     80  S   UNL A   1      49.874  27.254  22.212  1.00  0.00     0.127 S 
ATOM     81  O   UNL A   1      49.690  28.654  21.837  1.00  0.00    -0.237 OA
ATOM     82  O   UNL A   1      51.250  26.767  22.111  1.00  0.00    -0.237 OA
ATOM     83  O   UNL A   1      48.873  26.322  21.711  1.00  0.00    -0.744 OA
ENDBRANCH  77  80
ENDBRANCH  49  73
BRANCH  61  84
ATOM     84  C   UNL A   1      45.393  33.101  29.054  1.00  0.00     0.023 A 
ATOM     85  C   UNL A   1      46.091  33.376  30.247  1.00  0.00     0.012 A 
ATOM     86  C   UNL A   1      45.259  34.112  28.083  1.00  0.00     0.148 A 
ATOM     87  C   UNL A   1      46.626  34.641  30.479  1.00  0.00     0.002 A 
ATOM     88  C   UNL A   1      45.832  35.360  28.303  1.00  0.00     0.091 A 
ATOM     89  F   UNL A   1      44.574  33.839  26.963  1.00  0.00    -0.205 F 
ATOM     90  C   UNL A   1      46.509  35.629  29.504  1.00  0.00     0.022 A 
BRANCH  88  91
ATOM     91  S   UNL A   1      45.806  36.657  27.059  1.00  0.00     0.127 S 
ATOM     92  O   UNL A   1      46.738  37.630  27.624  1.00  0.00    -0.237 OA
ATOM     93  O   UNL A   1      46.297  35.962  25.868  1.00  0.00    -0.237 OA
ATOM     94  O   UNL A   1      44.417  37.091  26.971  1.00  0.00    -0.744 OA
ENDBRANCH  88  91
ENDBRANCH  61  84
ENDBRANCH  35  36
ENDBRANCH  28  30
ENDBRANCH  27  28
ENDBRANCH  26  27
ENDBRANCH  25  26
ENDBRANCH  24  25
ENDBRANCH   1  24
TORSDOF 22
ENDMDL
MODEL 2
REMARK VINA RESULT:     -10.1      6.109      9.899
REMARK SMILES Cc1oc(C[N@H+]2C[C@@H](C)[C@@H](C)C2)cc1C(=O)OCCOCCOCCOC(=O)c1ccc(-c2c3nc(c(-c4cccc(S(=O)(=O)[O-])c4F)c4ccc([nH]4)c(-c4cccc(S(=O)(=O)[O-])c4F)c4nc(c(-c5cccc(S(=O)(=O)[O-])c5F)c5ccc2[nH]5)C=C4)C=C3)cc1
REMARK SMILES IDX 22 1 21 2 20 3 19 4 18 5 17 6 15 7 16 8 14 9 1 10 2 11 3 12
REMARK SMILES IDX 4 13 13 14 5 15 6 16 7 17 12 18 8 20 10 21 9 22 11 23 23 24
REMARK SMILES IDX 24 25 25 26 26 27 27 28 28 29 29 30 30 31 91 32 31 33 90 34
REMARK SMILES IDX 32 35 33 36 34 37 84 38 35 39 89 40 83 41 85 42 36 43 88 44
REMARK SMILES IDX 82 45 81 46 37 48 69 49 49 50 68 51 50 52 53 53 67 54 86 55
REMARK SMILES IDX 51 56 52 57 66 59 87 60 54 61 38 62 39 63 47 64 40 65 42 66
REMARK SMILES IDX 48 67 41 68 43 69 44 70 45 71 46 72 70 73 71 74 79 75 72 76
REMARK SMILES IDX 74 77 80 78 73 79 75 80 76 81 77 82 78 83 55 84 56 85 64 86
REMARK SMILES IDX 57 87 59 88 65 89 58 90 60 91 61 92 62 93 63 94
REMARK H PARENT 6 19 85 47 53 58
REMARK Flexibility Score: inf
ROOT
ATOM      1  C   UNL A   1      31.974  30.514  26.113  1.00  0.00     0.188 C 
ENDROOT
BRANCH   1   2
ATOM      2  C   UNL A   1      31.656  29.197  25.373  1.00  0.00     0.188 C 
BRANCH   2   3
ATOM      3  O   UNL A   1      32.618  28.155  25.341  1.00  0.00    -0.376 OA
BRANCH   3   4
ATOM      4  C   UNL A   1      33.697  28.232  24.417  1.00  0.00     0.202 C 
BRANCH   4   5
ATOM      5  C   UNL A   1      33.376  27.970  22.948  1.00  0.00     0.261 C 
BRANCH   5   6
ATOM      6  O   UNL A   1      33.965  26.730  22.529  1.00  0.00    -0.460 OA
BRANCH   6   7
ATOM      7  C   UNL A   1      33.083  25.737  22.230  1.00  0.00     0.341 C 
ATOM      8  O   UNL A   1      32.945  25.242  21.118  1.00  0.00    -0.246 OA
BRANCH   7   9
ATOM      9  C   UNL A   1      32.413  25.215  23.403  1.00  0.00     0.101 A 
ATOM     10  C   UNL A   1      30.013  26.326  23.386  1.00  0.00     0.088 C 
ATOM     11  C   UNL A   1      31.138  25.497  23.868  1.00  0.00     0.115 A 
ATOM     12  O   UNL A   1      30.904  24.818  25.027  1.00  0.00    -0.459 OA
ATOM     13  C   UNL A   1      32.030  24.116  25.338  1.00  0.00     0.159 A 
ATOM     14  C   UNL A   1      32.973  24.310  24.352  1.00  0.00     0.067 A 
BRANCH  13  15
ATOM     15  C   UNL A   1      32.046  23.287  26.585  1.00  0.00     0.338 C 
BRANCH  15  16
ATOM     16  N   UNL A   1      32.353  21.866  26.445  1.00  0.00    -0.328 N 
ATOM     17  C   UNL A   1      31.956  21.241  25.190  1.00  0.00     0.266 C 
ATOM     18  C   UNL A   1      33.720  21.472  26.775  1.00  0.00     0.266 C 
ATOM     19  H   UNL A   1      31.742  21.496  27.174  1.00  0.00     0.348 HD
ATOM     20  C   UNL A   1      32.694  19.908  25.260  1.00  0.00     0.049 C 
ATOM     21  C   UNL A   1      34.063  20.306  25.833  1.00  0.00     0.049 C 
ATOM     22  C   UNL A   1      32.707  19.157  23.937  1.00  0.00     0.014 C 
ATOM     23  C   UNL A   1      35.087  20.734  24.781  1.00  0.00     0.014 C 
ENDBRANCH  15  16
ENDBRANCH  13  15
ENDBRANCH   7   9
ENDBRANCH   6   7
ENDBRANCH   5   6
ENDBRANCH   4   5
ENDBRANCH   3   4
ENDBRANCH   2   3
ENDBRANCH   1   2
BRANCH   1  24
ATOM     24  O   UNL A   1      33.206  30.710  26.788  1.00  0.00    -0.376 OA
BRANCH  24  25
ATOM     25  C   UNL A   1      33.353  31.785  27.703  1.00  0.00     0.202 C 
BRANCH  25  26
ATOM     26  C   UNL A   1      32.556  33.072  27.494  1.00  0.00     0.261 C 
BRANCH  26  27
ATOM     27  O   UNL A   1      33.346  34.262  27.579  1.00  0.00    -0.460 OA
BRANCH  27  28
ATOM     28  C   UNL A   1      33.316  34.879  28.784  1.00  0.00     0.338 C 
ATOM     29  O   UNL A   1      32.450  35.622  29.215  1.00  0.00    -0.246 OA
BRANCH  28  30
ATOM     30  C   UNL A   1      34.443  34.405  29.604  1.00  0.00     0.060 A 
ATOM     31  C   UNL A   1      35.736  34.536  29.082  1.00  0.00     0.016 A 
ATOM     32  C   UNL A   1      34.227  33.785  30.837  1.00  0.00     0.016 A 
ATOM     33  C   UNL A   1      36.820  34.007  29.779  1.00  0.00     0.010 A 
ATOM     34  C   UNL A   1      35.312  33.244  31.525  1.00  0.00     0.010 A 
ATOM     35  C   UNL A   1      36.607  33.325  30.984  1.00  0.00    -0.014 A 
BRANCH  35  36
ATOM     36  C   UNL A   1      37.715  32.563  31.604  1.00  0.00     0.031 A 
ATOM     37  C   UNL A   1      38.257  33.022  32.927  1.00  0.00     0.074 A 
ATOM     38  C   UNL A   1      38.244  31.496  30.983  1.00  0.00     0.049 A 
ATOM     39  N   UNL A   1      39.228  32.518  33.642  1.00  0.00    -0.248 NA
ATOM     40  C   UNL A   1      37.622  34.210  33.525  1.00  0.00     0.031 C 
ATOM     41  C   UNL A   1      37.812  30.967  29.691  1.00  0.00     0.029 A 
ATOM     42  N   UNL A   1      39.286  30.681  31.350  1.00  0.00    -0.354 N 
ATOM     43  C   UNL A   1      39.333  33.332  34.763  1.00  0.00     0.074 A 
ATOM     44  C   UNL A   1      38.336  34.372  34.628  1.00  0.00     0.031 C 
ATOM     45  C   UNL A   1      38.605  29.935  29.356  1.00  0.00     0.029 A 
ATOM     46  C   UNL A   1      39.606  29.738  30.403  1.00  0.00     0.049 A 
ATOM     47  H   UNL A   1      39.759  30.765  32.210  1.00  0.00     0.167 HD
ATOM     48  C   UNL A   1      40.170  33.213  35.819  1.00  0.00     0.034 A 
ATOM     49  C   UNL A   1      40.602  28.831  30.383  1.00  0.00     0.034 A 
ATOM     50  C   UNL A   1      41.153  32.174  35.958  1.00  0.00     0.049 A 
ATOM     51  C   UNL A   1      41.535  28.732  31.563  1.00  0.00     0.074 A 
ATOM     52  C   UNL A   1      42.015  31.941  37.014  1.00  0.00     0.029 A 
ATOM     53  N   UNL A   1      41.412  31.201  35.006  1.00  0.00    -0.354 N 
ATOM     54  N   UNL A   1      41.525  29.415  32.683  1.00  0.00    -0.248 NA
ATOM     55  C   UNL A   1      42.594  27.714  31.491  1.00  0.00     0.031 C 
ATOM     56  C   UNL A   1      42.807  30.832  36.694  1.00  0.00     0.029 A 
ATOM     57  C   UNL A   1      42.429  30.371  35.443  1.00  0.00     0.049 A 
ATOM     58  H   UNL A   1      40.943  31.114  34.145  1.00  0.00     0.167 HD
ATOM     59  C   UNL A   1      42.552  28.888  33.460  1.00  0.00     0.074 A 
ATOM     60  C   UNL A   1      43.151  27.817  32.691  1.00  0.00     0.031 C 
ATOM     61  C   UNL A   1      42.973  29.268  34.692  1.00  0.00     0.034 A 
BRANCH  48  62
ATOM     62  C   UNL A   1      40.027  34.213  36.932  1.00  0.00     0.023 A 
ATOM     63  C   UNL A   1      40.423  35.547  36.712  1.00  0.00     0.012 A 
ATOM     64  C   UNL A   1      39.464  33.851  38.171  1.00  0.00     0.148 A 
ATOM     65  C   UNL A   1      40.282  36.504  37.718  1.00  0.00     0.002 A 
ATOM     66  C   UNL A   1      39.295  34.818  39.156  1.00  0.00     0.091 A 
ATOM     67  F   UNL A   1      39.122  32.570  38.369  1.00  0.00    -0.205 F 
ATOM     68  C   UNL A   1      39.710  36.141  38.934  1.00  0.00     0.022 A 
BRANCH  66  69
ATOM     69  S   UNL A   1      38.511  34.457  40.732  1.00  0.00     0.127 S 
ATOM     70  O   UNL A   1      38.300  35.800  41.270  1.00  0.00    -0.237 OA
ATOM     71  O   UNL A   1      37.289  33.767  40.320  1.00  0.00    -0.237 OA
ATOM     72  O   UNL A   1      39.456  33.626  41.464  1.00  0.00    -0.744 OA
ENDBRANCH  66  69
ENDBRANCH  48  62
BRANCH  49  73
ATOM     73  C   UNL A   1      40.740  27.906  29.224  1.00  0.00     0.023 A 
ATOM     74  C   UNL A   1      40.000  26.708  29.205  1.00  0.00     0.012 A 
ATOM     75  C   UNL A   1      41.583  28.210  28.138  1.00  0.00     0.148 A 
ATOM     76  C   UNL A   1      40.115  25.818  28.137  1.00  0.00     0.002 A 
ATOM     77  C   UNL A   1      41.657  27.342  27.055  1.00  0.00     0.091 A 
ATOM     78  F   UNL A   1      42.297  29.344  28.185  1.00  0.00    -0.205 F 
ATOM     79  C   UNL A   1      40.935  26.139  27.058  1.00  0.00     0.022 A 
BRANCH  77  80
ATOM     80  S   UNL A   1      42.598  27.736  25.576  1.00  0.00     0.127 S 
ATOM     81  O   UNL A   1      43.948  27.892  26.112  1.00  0.00    -0.237 OA
ATOM     82  O   UNL A   1      42.396  26.540  24.757  1.00  0.00    -0.237 OA
ATOM     83  O   UNL A   1      41.983  28.940  25.036  1.00  0.00    -0.744 OA
ENDBRANCH  77  80
ENDBRANCH  49  73
BRANCH  61  84
ATOM     84  C   UNL A   1      44.120  28.512  35.307  1.00  0.00     0.023 A 
ATOM     85  C   UNL A   1      45.443  28.859  34.967  1.00  0.00     0.012 A 
ATOM     86  C   UNL A   1      43.895  27.524  36.285  1.00  0.00     0.148 A 
ATOM     87  C   UNL A   1      46.522  28.218  35.573  1.00  0.00     0.002 A 
ATOM     88  C   UNL A   1      44.975  26.919  36.916  1.00  0.00     0.091 A 
ATOM     89  F   UNL A   1      42.629  27.192  36.581  1.00  0.00    -0.205 F 
ATOM     90  C   UNL A   1      46.290  27.259  36.556  1.00  0.00     0.022 A 
BRANCH  88  91
ATOM     91  S   UNL A   1      44.763  25.741  38.257  1.00  0.00     0.127 S 
ATOM     92  O   UNL A   1      46.144  25.511  38.674  1.00  0.00    -0.237 OA
ATOM     93  O   UNL A   1      43.954  26.495  39.215  1.00  0.00    -0.237 OA
ATOM     94  O   UNL A   1      44.082  24.594  37.670  1.00  0.00    -0.744 OA
ENDBRANCH  88  91
ENDBRANCH  61  84
ENDBRANCH  35  36
ENDBRANCH  28  30
ENDBRANCH  27  28
ENDBRANCH  26  27
ENDBRANCH  25  26
ENDBRANCH  24  25
ENDBRANCH   1  24
TORSDOF 22
ENDMDL
MODEL 3
REMARK VINA RESULT:     -10.0      2.150      3.295
REMARK SMILES Cc1oc(C[N@H+]2C[C@@H](C)[C@@H](C)C2)cc1C(=O)OCCOCCOCCOC(=O)c1ccc(-c2c3nc(c(-c4cccc(S(=O)(=O)[O-])c4F)c4ccc([nH]4)c(-c4cccc(S(=O)(=O)[O-])c4F)c4nc(c(-c5cccc(S(=O)(=O)[O-])c5F)c5ccc2[nH]5)C=C4)C=C3)cc1
REMARK SMILES IDX 22 1 21 2 20 3 19 4 18 5 17 6 15 7 16 8 14 9 1 10 2 11 3 12
REMARK SMILES IDX 4 13 13 14 5 15 6 16 7 17 12 18 8 20 10 21 9 22 11 23 23 24
REMARK SMILES IDX 24 25 25 26 26 27 27 28 28 29 29 30 30 31 91 32 31 33 90 34
REMARK SMILES IDX 32 35 33 36 34 37 84 38 35 39 89 40 83 41 85 42 36 43 88 44
REMARK SMILES IDX 82 45 81 46 37 48 69 49 49 50 68 51 50 52 53 53 67 54 86 55
REMARK SMILES IDX 51 56 52 57 66 59 87 60 54 61 38 62 39 63 47 64 40 65 42 66
REMARK SMILES IDX 48 67 41 68 43 69 44 70 45 71 46 72 70 73 71 74 79 75 72 76
REMARK SMILES IDX 74 77 80 78 73 79 75 80 76 81 77 82 78 83 55 84 56 85 64 86
REMARK SMILES IDX 57 87 59 88 65 89 58 90 60 91 61 92 62 93 63 94
REMARK H PARENT 6 19 85 47 53 58
REMARK Flexibility Score: inf
ROOT
ATOM      1  C   UNL A   1      34.149  21.722  25.099  1.00  0.00     0.188 C 
ENDROOT
BRANCH   1   2
ATOM      2  C   UNL A   1      32.909  20.915  24.660  1.00  0.00     0.188 C 
BRANCH   2   3
ATOM      3  O   UNL A   1      31.928  21.520  23.833  1.00  0.00    -0.376 OA
BRANCH   3   4
ATOM      4  C   UNL A   1      31.982  22.922  23.601  1.00  0.00     0.202 C 
BRANCH   4   5
ATOM      5  C   UNL A   1      30.979  23.792  24.353  1.00  0.00     0.261 C 
BRANCH   5   6
ATOM      6  O   UNL A   1      31.666  24.828  25.071  1.00  0.00    -0.460 OA
BRANCH   6   7
ATOM      7  C   UNL A   1      30.885  25.591  25.884  1.00  0.00     0.341 C 
ATOM      8  O   UNL A   1      30.132  25.145  26.742  1.00  0.00    -0.246 OA
BRANCH   7   9
ATOM      9  C   UNL A   1      31.141  27.009  25.733  1.00  0.00     0.101 A 
ATOM     10  C   UNL A   1      30.374  27.595  23.271  1.00  0.00     0.088 C 
ATOM     11  C   UNL A   1      30.934  27.810  24.622  1.00  0.00     0.115 A 
ATOM     12  O   UNL A   1      31.338  29.086  24.886  1.00  0.00    -0.459 OA
ATOM     13  C   UNL A   1      31.834  29.115  26.156  1.00  0.00     0.159 A 
ATOM     14  C   UNL A   1      31.707  27.866  26.722  1.00  0.00     0.067 A 
BRANCH  13  15
ATOM     15  C   UNL A   1      32.363  30.407  26.697  1.00  0.00     0.338 C 
BRANCH  15  16
ATOM     16  N   UNL A   1      33.469  30.337  27.648  1.00  0.00    -0.328 N 
ATOM     17  C   UNL A   1      34.722  29.792  27.140  1.00  0.00     0.266 C 
ATOM     18  C   UNL A   1      33.739  31.556  28.406  1.00  0.00     0.266 C 
ATOM     19  H   UNL A   1      33.082  29.651  28.296  1.00  0.00     0.348 HD
ATOM     20  C   UNL A   1      35.695  30.162  28.256  1.00  0.00     0.049 C 
ATOM     21  C   UNL A   1      35.260  31.587  28.630  1.00  0.00     0.049 C 
ATOM     22  C   UNL A   1      37.154  29.981  27.865  1.00  0.00     0.014 C 
ATOM     23  C   UNL A   1      35.916  32.687  27.794  1.00  0.00     0.014 C 
ENDBRANCH  15  16
ENDBRANCH  13  15
ENDBRANCH   7   9
ENDBRANCH   6   7
ENDBRANCH   5   6
ENDBRANCH   4   5
ENDBRANCH   3   4
ENDBRANCH   2   3
ENDBRANCH   1   2
BRANCH   1  24
ATOM     24  O   UNL A   1      35.418  21.524  24.499  1.00  0.00    -0.376 OA
BRANCH  24  25
ATOM     25  C   UNL A   1      36.434  20.820  25.196  1.00  0.00     0.202 C 
BRANCH  25  26
ATOM     26  C   UNL A   1      37.899  21.205  24.993  1.00  0.00     0.261 C 
BRANCH  26  27
ATOM     27  O   UNL A   1      38.377  22.177  25.928  1.00  0.00    -0.460 OA
BRANCH  27  28
ATOM     28  C   UNL A   1      39.546  21.856  26.533  1.00  0.00     0.338 C 
ATOM     29  O   UNL A   1      40.090  20.765  26.561  1.00  0.00    -0.246 OA
BRANCH  28  30
ATOM     30  C   UNL A   1      40.179  23.079  27.055  1.00  0.00     0.060 A 
ATOM     31  C   UNL A   1      39.820  24.302  26.475  1.00  0.00     0.016 A 
ATOM     32  C   UNL A   1      41.155  23.016  28.052  1.00  0.00     0.016 A 
ATOM     33  C   UNL A   1      40.470  25.470  26.867  1.00  0.00     0.010 A 
ATOM     34  C   UNL A   1      41.814  24.185  28.432  1.00  0.00     0.010 A 
ATOM     35  C   UNL A   1      41.496  25.409  27.818  1.00  0.00    -0.014 A 
BRANCH  35  36
ATOM     36  C   UNL A   1      42.343  26.598  28.064  1.00  0.00     0.031 A 
ATOM     37  C   UNL A   1      41.747  27.777  28.779  1.00  0.00     0.074 A 
ATOM     38  C   UNL A   1      43.615  26.635  27.631  1.00  0.00     0.049 A 
ATOM     39  N   UNL A   1      42.297  28.922  29.087  1.00  0.00    -0.248 NA
ATOM     40  C   UNL A   1      40.342  27.650  29.203  1.00  0.00     0.031 C 
ATOM     41  C   UNL A   1      44.296  25.560  26.913  1.00  0.00     0.029 A 
ATOM     42  N   UNL A   1      44.552  27.634  27.712  1.00  0.00    -0.354 N 
ATOM     43  C   UNL A   1      41.307  29.658  29.724  1.00  0.00     0.074 A 
ATOM     44  C   UNL A   1      40.116  28.836  29.748  1.00  0.00     0.031 C 
ATOM     45  C   UNL A   1      45.535  25.970  26.588  1.00  0.00     0.029 A 
ATOM     46  C   UNL A   1      45.728  27.338  27.065  1.00  0.00     0.049 A 
ATOM     47  H   UNL A   1      44.396  28.482  28.188  1.00  0.00     0.167 HD
ATOM     48  C   UNL A   1      41.386  30.898  30.259  1.00  0.00     0.034 A 
ATOM     49  C   UNL A   1      46.827  28.093  26.871  1.00  0.00     0.034 A 
ATOM     50  C   UNL A   1      42.571  31.709  30.245  1.00  0.00     0.049 A 
ATOM     51  C   UNL A   1      46.882  29.480  27.461  1.00  0.00     0.074 A 
ATOM     52  C   UNL A   1      42.765  32.959  30.804  1.00  0.00     0.029 A 
ATOM     53  N   UNL A   1      43.762  31.356  29.631  1.00  0.00    -0.354 N 
ATOM     54  N   UNL A   1      45.988  30.104  28.190  1.00  0.00    -0.248 NA
ATOM     55  C   UNL A   1      48.112  30.253  27.229  1.00  0.00     0.031 C 
ATOM     56  C   UNL A   1      44.072  33.369  30.515  1.00  0.00     0.029 A 
ATOM     57  C   UNL A   1      44.693  32.367  29.786  1.00  0.00     0.049 A 
ATOM     58  H   UNL A   1      43.922  30.509  29.154  1.00  0.00     0.167 HD
ATOM     59  C   UNL A   1      46.560  31.326  28.531  1.00  0.00     0.074 A 
ATOM     60  C   UNL A   1      47.884  31.347  27.944  1.00  0.00     0.031 C 
ATOM     61  C   UNL A   1      46.030  32.347  29.249  1.00  0.00     0.034 A 
BRANCH  48  62
ATOM     62  C   UNL A   1      40.161  31.434  30.947  1.00  0.00     0.023 A 
ATOM     63  C   UNL A   1      39.176  32.090  30.182  1.00  0.00     0.012 A 
ATOM     64  C   UNL A   1      39.962  31.254  32.329  1.00  0.00     0.148 A 
ATOM     65  C   UNL A   1      38.019  32.580  30.787  1.00  0.00     0.002 A 
ATOM     66  C   UNL A   1      38.790  31.715  32.918  1.00  0.00     0.091 A 
ATOM     67  F   UNL A   1      40.926  30.655  33.042  1.00  0.00    -0.205 F 
ATOM     68  C   UNL A   1      37.822  32.384  32.151  1.00  0.00     0.022 A 
BRANCH  66  69
ATOM     69  S   UNL A   1      38.421  31.453  34.657  1.00  0.00     0.127 S 
ATOM     70  O   UNL A   1      38.602  30.008  34.782  1.00  0.00    -0.237 OA
ATOM     71  O   UNL A   1      39.452  32.255  35.317  1.00  0.00    -0.237 OA
ATOM     72  O   UNL A   1      37.063  31.939  34.852  1.00  0.00    -0.744 OA
ENDBRANCH  66  69
ENDBRANCH  48  62
BRANCH  49  73
ATOM     73  C   UNL A   1      47.989  27.536  26.125  1.00  0.00     0.023 A 
ATOM     74  C   UNL A   1      49.011  26.875  26.833  1.00  0.00     0.012 A 
ATOM     75  C   UNL A   1      48.080  27.641  24.724  1.00  0.00     0.148 A 
ATOM     76  C   UNL A   1      50.116  26.351  26.162  1.00  0.00     0.002 A 
ATOM     77  C   UNL A   1      49.160  27.075  24.057  1.00  0.00     0.091 A 
ATOM     78  F   UNL A   1      47.109  28.294  24.070  1.00  0.00    -0.205 F 
ATOM     79  C   UNL A   1      50.186  26.441  24.775  1.00  0.00     0.022 A 
BRANCH  77  80
ATOM     80  S   UNL A   1      49.268  27.044  22.264  1.00  0.00     0.127 S 
ATOM     81  O   UNL A   1      48.479  25.859  21.937  1.00  0.00    -0.237 OA
ATOM     82  O   UNL A   1      48.645  28.317  21.898  1.00  0.00    -0.237 OA
ATOM     83  O   UNL A   1      50.690  26.967  21.962  1.00  0.00    -0.744 OA
ENDBRANCH  77  80
ENDBRANCH  49  73
BRANCH  61  84
ATOM     84  C   UNL A   1      46.882  33.568  29.470  1.00  0.00     0.023 A 
ATOM     85  C   UNL A   1      47.736  33.625  30.589  1.00  0.00     0.012 A 
ATOM     86  C   UNL A   1      46.906  34.615  28.528  1.00  0.00     0.148 A 
ATOM     87  C   UNL A   1      48.584  34.715  30.779  1.00  0.00     0.002 A 
ATOM     88  C   UNL A   1      47.784  35.679  28.702  1.00  0.00     0.091 A 
ATOM     89  F   UNL A   1      46.071  34.554  27.480  1.00  0.00    -0.205 F 
ATOM     90  C   UNL A   1      48.618  35.735  29.831  1.00  0.00     0.022 A 
BRANCH  88  91
ATOM     91  S   UNL A   1      47.956  36.986  27.480  1.00  0.00     0.127 S 
ATOM     92  O   UNL A   1      46.715  37.734  27.667  1.00  0.00    -0.237 OA
ATOM     93  O   UNL A   1      49.162  37.683  27.931  1.00  0.00    -0.237 OA
ATOM     94  O   UNL A   1      48.098  36.310  26.197  1.00  0.00    -0.744 OA
ENDBRANCH  88  91
ENDBRANCH  61  84
ENDBRANCH  35  36
ENDBRANCH  28  30
ENDBRANCH  27  28
ENDBRANCH  26  27
ENDBRANCH  25  26
ENDBRANCH  24  25
ENDBRANCH   1  24
TORSDOF 22
ENDMDL
