MODEL 1
REMARK VINA RESULT:     -10.2      0.000      0.000
REMARK SMILES O=C(OCCOCCOCCOC(=O)c1cn(C2CN(C(=O)Nc3ccsc3)C2)nn1)c1ccc(-c2c3nc(c(-c4cccc(S(=O)(=O)[O-])c4F)c4ccc([nH]4)c(-c4cccc(S(=O)(=O)[O-])c4F)c4nc(c(-c5cccc(S(=O)(=O)[O-])c5F)c5ccc2[nH]5)C=C4)C=C3)cc1
REMARK SMILES IDX 7 1 6 2 5 3 4 4 3 5 2 6 1 7 32 8 33 9 94 10 34 11 93 12
REMARK SMILES IDX 35 13 36 14 37 15 87 16 38 17 92 18 86 19 88 20 39 21 91 22
REMARK SMILES IDX 85 23 84 24 40 26 72 27 52 28 71 29 53 30 56 31 70 32 89 33
REMARK SMILES IDX 54 34 55 35 69 37 90 38 57 39 41 40 42 41 50 42 43 43 45 44
REMARK SMILES IDX 51 45 44 46 46 47 47 48 48 49 49 50 73 51 74 52 82 53 75 54
REMARK SMILES IDX 77 55 83 56 76 57 78 58 79 59 80 60 81 61 58 62 59 63 67 64
REMARK SMILES IDX 60 65 62 66 68 67 61 68 63 69 64 70 65 71 66 72 8 73 9 74
REMARK SMILES IDX 10 75 11 76 12 77 13 78 14 79 15 80 16 81 31 82 17 83 30 84
REMARK SMILES IDX 18 85 19 86 29 87 20 88 21 89 22 90 23 91 24 93 25 94 28 95
REMARK SMILES IDX 26 96 27 97
REMARK H PARENT 88 25 56 36 23 92
REMARK Flexibility Score: inf
ROOT
ATOM      1  C   UNL A   1      36.039  23.916  26.079  1.00  0.00     0.188 C 
ENDROOT
BRANCH   1   2
ATOM      2  O   UNL A   1      37.175  23.585  25.305  1.00  0.00    -0.376 OA
BRANCH   2   3
ATOM      3  C   UNL A   1      37.220  22.334  24.646  1.00  0.00     0.202 C 
BRANCH   3   4
ATOM      4  C   UNL A   1      38.088  21.209  25.228  1.00  0.00     0.261 C 
BRANCH   4   5
ATOM      5  O   UNL A   1      38.720  21.487  26.482  1.00  0.00    -0.460 OA
BRANCH   5   6
ATOM      6  C   UNL A   1      40.018  21.565  26.833  1.00  0.00     0.338 C 
ATOM      7  O   UNL A   1      40.636  20.513  26.991  1.00  0.00    -0.246 OA
BRANCH   6   8
ATOM      8  C   UNL A   1      40.731  22.841  27.133  1.00  0.00     0.060 A 
ATOM      9  C   UNL A   1      41.758  23.021  28.062  1.00  0.00     0.016 A 
ATOM     10  C   UNL A   1      40.261  23.961  26.418  1.00  0.00     0.016 A 
ATOM     11  C   UNL A   1      42.140  24.300  28.434  1.00  0.00     0.010 A 
ATOM     12  C   UNL A   1      40.655  25.239  26.766  1.00  0.00     0.010 A 
ATOM     13  C   UNL A   1      41.512  25.393  27.844  1.00  0.00    -0.014 A 
BRANCH  13  14
ATOM     14  C   UNL A   1      41.781  26.707  28.392  1.00  0.00     0.031 A 
ATOM     15  C   UNL A   1      43.072  27.290  27.961  1.00  0.00     0.074 A 
ATOM     16  C   UNL A   1      40.870  27.323  29.175  1.00  0.00     0.049 A 
ATOM     17  N   UNL A   1      44.120  27.509  28.686  1.00  0.00    -0.248 NA
ATOM     18  C   UNL A   1      43.289  27.488  26.521  1.00  0.00     0.031 C 
ATOM     19  C   UNL A   1      39.482  26.915  29.422  1.00  0.00     0.029 A 
ATOM     20  N   UNL A   1      40.946  28.527  29.801  1.00  0.00    -0.354 N 
ATOM     21  C   UNL A   1      45.037  28.120  27.832  1.00  0.00     0.074 A 
ATOM     22  C   UNL A   1      44.565  27.876  26.495  1.00  0.00     0.031 C 
ATOM     23  C   UNL A   1      38.787  27.975  29.892  1.00  0.00     0.029 A 
ATOM     24  C   UNL A   1      39.704  29.080  30.104  1.00  0.00     0.049 A 
ATOM     25  H   UNL A   1      41.799  28.968  30.020  1.00  0.00     0.167 HD
ATOM     26  C   UNL A   1      45.950  29.014  28.302  1.00  0.00     0.034 A 
ATOM     27  C   UNL A   1      39.448  30.380  30.401  1.00  0.00     0.034 A 
ATOM     28  C   UNL A   1      46.076  28.927  29.734  1.00  0.00     0.049 A 
ATOM     29  C   UNL A   1      40.732  30.995  30.812  1.00  0.00     0.074 A 
ATOM     30  C   UNL A   1      46.438  27.941  30.628  1.00  0.00     0.029 A 
ATOM     31  N   UNL A   1      45.425  29.889  30.467  1.00  0.00    -0.354 N 
ATOM     32  N   UNL A   1      41.368  30.664  31.900  1.00  0.00    -0.248 NA
ATOM     33  C   UNL A   1      41.537  31.636  29.783  1.00  0.00     0.031 C 
ATOM     34  C   UNL A   1      45.582  28.134  31.751  1.00  0.00     0.029 A 
ATOM     35  C   UNL A   1      44.801  29.266  31.513  1.00  0.00     0.049 A 
ATOM     36  H   UNL A   1      45.411  30.855  30.276  1.00  0.00     0.167 HD
ATOM     37  C   UNL A   1      42.701  30.611  31.511  1.00  0.00     0.074 A 
ATOM     38  C   UNL A   1      42.755  31.319  30.233  1.00  0.00     0.031 C 
ATOM     39  C   UNL A   1      43.569  29.738  32.103  1.00  0.00     0.034 A 
BRANCH  26  40
ATOM     40  C   UNL A   1      46.429  30.239  27.553  1.00  0.00     0.023 A 
ATOM     41  C   UNL A   1      47.798  30.568  27.672  1.00  0.00     0.012 A 
ATOM     42  C   UNL A   1      45.580  31.227  27.003  1.00  0.00     0.148 A 
ATOM     43  C   UNL A   1      48.282  31.836  27.331  1.00  0.00     0.002 A 
ATOM     44  C   UNL A   1      46.078  32.458  26.594  1.00  0.00     0.091 A 
ATOM     45  F   UNL A   1      44.258  31.045  26.988  1.00  0.00    -0.205 F 
ATOM     46  C   UNL A   1      47.422  32.782  26.789  1.00  0.00     0.022 A 
BRANCH  44  47
ATOM     47  S   UNL A   1      45.020  33.706  25.848  1.00  0.00     0.127 S 
ATOM     48  O   UNL A   1      44.597  34.467  27.020  1.00  0.00    -0.237 OA
ATOM     49  O   UNL A   1      45.957  34.396  24.963  1.00  0.00    -0.237 OA
ATOM     50  O   UNL A   1      43.973  32.970  25.152  1.00  0.00    -0.744 OA
ENDBRANCH  44  47
ENDBRANCH  26  40
BRANCH  27  51
ATOM     51  C   UNL A   1      38.263  31.204  30.055  1.00  0.00     0.023 A 
ATOM     52  C   UNL A   1      37.633  31.035  28.806  1.00  0.00     0.012 A 
ATOM     53  C   UNL A   1      37.583  31.947  31.046  1.00  0.00     0.148 A 
ATOM     54  C   UNL A   1      36.358  31.563  28.562  1.00  0.00     0.002 A 
ATOM     55  C   UNL A   1      36.320  32.477  30.798  1.00  0.00     0.091 A 
ATOM     56  F   UNL A   1      38.130  32.053  32.264  1.00  0.00    -0.205 F 
ATOM     57  C   UNL A   1      35.699  32.277  29.560  1.00  0.00     0.022 A 
BRANCH  55  58
ATOM     58  S   UNL A   1      35.398  33.380  32.049  1.00  0.00     0.127 S 
ATOM     59  O   UNL A   1      36.219  34.579  32.223  1.00  0.00    -0.237 OA
ATOM     60  O   UNL A   1      34.121  33.605  31.378  1.00  0.00    -0.237 OA
ATOM     61  O   UNL A   1      35.355  32.510  33.217  1.00  0.00    -0.744 OA
ENDBRANCH  55  58
ENDBRANCH  27  51
BRANCH  39  62
ATOM     62  C   UNL A   1      43.118  29.025  33.351  1.00  0.00     0.023 A 
ATOM     63  C   UNL A   1      42.243  27.918  33.324  1.00  0.00     0.012 A 
ATOM     64  C   UNL A   1      43.741  29.370  34.561  1.00  0.00     0.148 A 
ATOM     65  C   UNL A   1      41.982  27.185  34.486  1.00  0.00     0.002 A 
ATOM     66  C   UNL A   1      43.518  28.610  35.701  1.00  0.00     0.091 A 
ATOM     67  F   UNL A   1      44.574  30.421  34.565  1.00  0.00    -0.205 F 
ATOM     68  C   UNL A   1      42.632  27.523  35.672  1.00  0.00     0.022 A 
BRANCH  66  69
ATOM     69  S   UNL A   1      44.426  28.917  37.216  1.00  0.00     0.127 S 
ATOM     70  O   UNL A   1      43.719  30.070  37.767  1.00  0.00    -0.237 OA
ATOM     71  O   UNL A   1      44.233  27.668  37.955  1.00  0.00    -0.237 OA
ATOM     72  O   UNL A   1      45.807  29.160  36.813  1.00  0.00    -0.744 OA
ENDBRANCH  66  69
ENDBRANCH  39  62
ENDBRANCH  13  14
ENDBRANCH   6   8
ENDBRANCH   5   6
ENDBRANCH   4   5
ENDBRANCH   3   4
ENDBRANCH   2   3
ENDBRANCH   1   2
BRANCH   1  73
ATOM     73  C   UNL A   1      35.152  22.702  26.463  1.00  0.00     0.188 C 
BRANCH  73  74
ATOM     74  O   UNL A   1      34.153  22.776  27.481  1.00  0.00    -0.376 OA
BRANCH  74  75
ATOM     75  C   UNL A   1      32.956  22.026  27.380  1.00  0.00     0.202 C 
BRANCH  75  76
ATOM     76  C   UNL A   1      31.822  22.589  26.510  1.00  0.00     0.261 C 
BRANCH  76  77
ATOM     77  O   UNL A   1      31.251  21.649  25.591  1.00  0.00    -0.458 OA
BRANCH  77  78
ATOM     78  C   UNL A   1      32.069  21.186  24.602  1.00  0.00     0.360 C 
ATOM     79  O   UNL A   1      32.333  20.016  24.390  1.00  0.00    -0.244 OA
BRANCH  78  80
ATOM     80  C   UNL A   1      32.566  22.277  23.785  1.00  0.00     0.190 A 
ATOM     81  C   UNL A   1      31.905  23.407  23.355  1.00  0.00     0.147 A 
ATOM     82  N   UNL A   1      33.853  22.303  23.306  1.00  0.00    -0.123 NA
ATOM     83  N   UNL A   1      32.852  24.086  22.635  1.00  0.00    -0.245 N 
ATOM     84  N   UNL A   1      33.997  23.385  22.561  1.00  0.00    -0.066 NA
BRANCH  83  85
ATOM     85  C   UNL A   1      32.838  25.456  22.236  1.00  0.00     0.148 C 
ATOM     86  C   UNL A   1      31.565  26.049  21.625  1.00  0.00     0.150 C 
ATOM     87  C   UNL A   1      32.530  26.319  23.477  1.00  0.00     0.150 C 
ATOM     88  N   UNL A   1      31.736  27.139  22.591  1.00  0.00    -0.320 N 
ATOM     89  C   UNL A   1      30.951  28.236  22.728  1.00  0.00     0.322 C 
ATOM     90  O   UNL A   1      30.091  28.508  21.884  1.00  0.00    -0.248 OA
ATOM     91  N   UNL A   1      30.976  28.979  23.866  1.00  0.00    -0.307 N 
ATOM     92  H   UNL A   1      30.183  29.549  23.992  1.00  0.00     0.171 HD
BRANCH  91  93
ATOM     93  C   UNL A   1      31.912  29.082  24.880  1.00  0.00     0.053 A 
ATOM     94  C   UNL A   1      33.296  29.406  24.773  1.00  0.00     0.038 A 
ATOM     95  C   UNL A   1      31.544  28.943  26.203  1.00  0.00     0.091 A 
ATOM     96  C   UNL A   1      33.963  29.281  25.973  1.00  0.00     0.067 A 
ATOM     97  S   UNL A   1      32.891  28.946  27.261  1.00  0.00    -0.150 S 
ENDBRANCH  91  93
ENDBRANCH  83  85
ENDBRANCH  78  80
ENDBRANCH  77  78
ENDBRANCH  76  77
ENDBRANCH  75  76
ENDBRANCH  74  75
ENDBRANCH  73  74
ENDBRANCH   1  73
TORSDOF 22
ENDMDL
MODEL 2
REMARK VINA RESULT:      -9.9      2.088      2.716
REMARK SMILES O=C(OCCOCCOCCOC(=O)c1cn(C2CN(C(=O)Nc3ccsc3)C2)nn1)c1ccc(-c2c3nc(c(-c4cccc(S(=O)(=O)[O-])c4F)c4ccc([nH]4)c(-c4cccc(S(=O)(=O)[O-])c4F)c4nc(c(-c5cccc(S(=O)(=O)[O-])c5F)c5ccc2[nH]5)C=C4)C=C3)cc1
REMARK SMILES IDX 7 1 6 2 5 3 4 4 3 5 2 6 1 7 32 8 33 9 94 10 34 11 93 12
REMARK SMILES IDX 35 13 36 14 37 15 87 16 38 17 92 18 86 19 88 20 39 21 91 22
REMARK SMILES IDX 85 23 84 24 40 26 72 27 52 28 71 29 53 30 56 31 70 32 89 33
REMARK SMILES IDX 54 34 55 35 69 37 90 38 57 39 41 40 42 41 50 42 43 43 45 44
REMARK SMILES IDX 51 45 44 46 46 47 47 48 48 49 49 50 73 51 74 52 82 53 75 54
REMARK SMILES IDX 77 55 83 56 76 57 78 58 79 59 80 60 81 61 58 62 59 63 67 64
REMARK SMILES IDX 60 65 62 66 68 67 61 68 63 69 64 70 65 71 66 72 8 73 9 74
REMARK SMILES IDX 10 75 11 76 12 77 13 78 14 79 15 80 16 81 31 82 17 83 30 84
REMARK SMILES IDX 18 85 19 86 29 87 20 88 21 89 22 90 23 91 24 93 25 94 28 95
REMARK SMILES IDX 26 96 27 97
REMARK H PARENT 88 25 56 36 23 92
REMARK Flexibility Score: inf
ROOT
ATOM      1  C   UNL A   1      36.282  19.059  25.132  1.00  0.00     0.188 C 
ENDROOT
BRANCH   1   2
ATOM      2  O   UNL A   1      36.182  20.351  24.566  1.00  0.00    -0.376 OA
BRANCH   2   3
ATOM      3  C   UNL A   1      36.774  21.447  25.238  1.00  0.00     0.202 C 
BRANCH   3   4
ATOM      4  C   UNL A   1      38.274  21.409  25.560  1.00  0.00     0.261 C 
BRANCH   4   5
ATOM      5  O   UNL A   1      38.802  22.559  26.229  1.00  0.00    -0.460 OA
BRANCH   5   6
ATOM      6  C   UNL A   1      39.907  22.729  26.982  1.00  0.00     0.338 C 
ATOM      7  O   UNL A   1      40.461  21.725  27.426  1.00  0.00    -0.246 OA
BRANCH   6   8
ATOM      8  C   UNL A   1      40.448  24.058  27.389  1.00  0.00     0.060 A 
ATOM      9  C   UNL A   1      41.533  24.290  28.238  1.00  0.00     0.016 A 
ATOM     10  C   UNL A   1      39.738  25.165  26.882  1.00  0.00     0.016 A 
ATOM     11  C   UNL A   1      41.756  25.559  28.747  1.00  0.00     0.010 A 
ATOM     12  C   UNL A   1      39.970  26.438  27.366  1.00  0.00     0.010 A 
ATOM     13  C   UNL A   1      40.909  26.598  28.373  1.00  0.00    -0.014 A 
BRANCH  13  14
ATOM     14  C   UNL A   1      41.035  27.862  29.070  1.00  0.00     0.031 A 
ATOM     15  C   UNL A   1      42.105  28.740  28.541  1.00  0.00     0.074 A 
ATOM     16  C   UNL A   1      40.187  28.181  30.069  1.00  0.00     0.049 A 
ATOM     17  N   UNL A   1      43.211  29.074  29.122  1.00  0.00    -0.248 NA
ATOM     18  C   UNL A   1      42.020  29.153  27.133  1.00  0.00     0.031 C 
ATOM     19  C   UNL A   1      38.960  27.476  30.460  1.00  0.00     0.029 A 
ATOM     20  N   UNL A   1      40.161  29.290  30.855  1.00  0.00    -0.354 N 
ATOM     21  C   UNL A   1      43.836  29.956  28.242  1.00  0.00     0.074 A 
ATOM     22  C   UNL A   1      43.181  29.789  26.973  1.00  0.00     0.031 C 
ATOM     23  C   UNL A   1      38.186  28.309  31.190  1.00  0.00     0.029 A 
ATOM     24  C   UNL A   1      38.915  29.541  31.427  1.00  0.00     0.049 A 
ATOM     25  H   UNL A   1      40.948  29.862  31.007  1.00  0.00     0.167 HD
ATOM     26  C   UNL A   1      44.646  30.950  28.700  1.00  0.00     0.034 A 
ATOM     27  C   UNL A   1      38.492  30.717  31.959  1.00  0.00     0.034 A 
ATOM     28  C   UNL A   1      45.041  30.715  30.065  1.00  0.00     0.049 A 
ATOM     29  C   UNL A   1      39.700  31.522  32.258  1.00  0.00     0.074 A 
ATOM     30  C   UNL A   1      45.727  29.719  30.729  1.00  0.00     0.029 A 
ATOM     31  N   UNL A   1      44.374  31.430  31.030  1.00  0.00    -0.354 N 
ATOM     32  N   UNL A   1      40.570  31.194  33.171  1.00  0.00    -0.248 NA
ATOM     33  C   UNL A   1      40.180  32.432  31.230  1.00  0.00     0.031 C 
ATOM     34  C   UNL A   1      45.068  29.597  31.985  1.00  0.00     0.029 A 
ATOM     35  C   UNL A   1      44.069  30.571  32.049  1.00  0.00     0.049 A 
ATOM     36  H   UNL A   1      44.156  32.389  30.995  1.00  0.00     0.167 HD
ATOM     37  C   UNL A   1      41.799  31.456  32.578  1.00  0.00     0.074 A 
ATOM     38  C   UNL A   1      41.495  32.313  31.433  1.00  0.00     0.031 C 
ATOM     39  C   UNL A   1      42.900  30.709  32.887  1.00  0.00     0.034 A 
BRANCH  26  40
ATOM     40  C   UNL A   1      44.758  32.330  28.086  1.00  0.00     0.023 A 
ATOM     41  C   UNL A   1      46.007  32.683  27.527  1.00  0.00     0.012 A 
ATOM     42  C   UNL A   1      43.830  33.377  28.288  1.00  0.00     0.148 A 
ATOM     43  C   UNL A   1      46.341  34.013  27.255  1.00  0.00     0.002 A 
ATOM     44  C   UNL A   1      44.137  34.688  27.945  1.00  0.00     0.091 A 
ATOM     45  F   UNL A   1      42.687  33.146  28.938  1.00  0.00    -0.205 F 
ATOM     46  C   UNL A   1      45.405  35.018  27.461  1.00  0.00     0.022 A 
BRANCH  44  47
ATOM     47  S   UNL A   1      42.950  36.022  28.151  1.00  0.00     0.127 S 
ATOM     48  O   UNL A   1      42.779  36.039  29.602  1.00  0.00    -0.237 OA
ATOM     49  O   UNL A   1      43.685  37.159  27.599  1.00  0.00    -0.237 OA
ATOM     50  O   UNL A   1      41.781  35.633  27.375  1.00  0.00    -0.744 OA
ENDBRANCH  44  47
ENDBRANCH  26  40
BRANCH  27  51
ATOM     51  C   UNL A   1      37.138  31.323  31.931  1.00  0.00     0.023 A 
ATOM     52  C   UNL A   1      36.558  31.798  33.124  1.00  0.00     0.012 A 
ATOM     53  C   UNL A   1      36.534  31.691  30.708  1.00  0.00     0.148 A 
ATOM     54  C   UNL A   1      35.434  32.636  33.099  1.00  0.00     0.002 A 
ATOM     55  C   UNL A   1      35.413  32.516  30.686  1.00  0.00     0.091 A 
ATOM     56  F   UNL A   1      37.114  31.314  29.561  1.00  0.00    -0.205 F 
ATOM     57  C   UNL A   1      34.867  33.000  31.880  1.00  0.00     0.022 A 
BRANCH  55  58
ATOM     58  S   UNL A   1      34.648  33.053  29.149  1.00  0.00     0.127 S 
ATOM     59  O   UNL A   1      33.551  33.890  29.634  1.00  0.00    -0.237 OA
ATOM     60  O   UNL A   1      35.739  33.783  28.509  1.00  0.00    -0.237 OA
ATOM     61  O   UNL A   1      34.219  31.835  28.473  1.00  0.00    -0.744 OA
ENDBRANCH  55  58
ENDBRANCH  27  51
BRANCH  39  62
ATOM     62  C   UNL A   1      42.815  29.772  34.064  1.00  0.00     0.023 A 
ATOM     63  C   UNL A   1      42.220  28.495  33.981  1.00  0.00     0.012 A 
ATOM     64  C   UNL A   1      43.516  30.121  35.228  1.00  0.00     0.148 A 
ATOM     65  C   UNL A   1      42.309  27.595  35.047  1.00  0.00     0.002 A 
ATOM     66  C   UNL A   1      43.645  29.207  36.265  1.00  0.00     0.091 A 
ATOM     67  F   UNL A   1      44.080  31.337  35.285  1.00  0.00    -0.205 F 
ATOM     68  C   UNL A   1      43.035  27.947  36.184  1.00  0.00     0.022 A 
BRANCH  66  69
ATOM     69  S   UNL A   1      44.676  29.555  37.690  1.00  0.00     0.127 S 
ATOM     70  O   UNL A   1      43.931  30.623  38.351  1.00  0.00    -0.237 OA
ATOM     71  O   UNL A   1      44.672  28.275  38.399  1.00  0.00    -0.237 OA
ATOM     72  O   UNL A   1      45.980  29.934  37.158  1.00  0.00    -0.744 OA
ENDBRANCH  66  69
ENDBRANCH  39  62
ENDBRANCH  13  14
ENDBRANCH   6   8
ENDBRANCH   5   6
ENDBRANCH   4   5
ENDBRANCH   3   4
ENDBRANCH   2   3
ENDBRANCH   1   2
BRANCH   1  73
ATOM     73  C   UNL A   1      35.695  17.926  24.249  1.00  0.00     0.188 C 
BRANCH  73  74
ATOM     74  O   UNL A   1      35.052  16.779  24.804  1.00  0.00    -0.376 OA
BRANCH  74  75
ATOM     75  C   UNL A   1      33.890  16.236  24.205  1.00  0.00     0.202 C 
BRANCH  75  76
ATOM     76  C   UNL A   1      32.523  16.656  24.769  1.00  0.00     0.261 C 
BRANCH  76  77
ATOM     77  O   UNL A   1      32.109  17.980  24.409  1.00  0.00    -0.458 OA
BRANCH  77  78
ATOM     78  C   UNL A   1      32.413  18.976  25.291  1.00  0.00     0.360 C 
ATOM     79  O   UNL A   1      32.522  18.845  26.497  1.00  0.00    -0.244 OA
BRANCH  78  80
ATOM     80  C   UNL A   1      32.637  20.232  24.601  1.00  0.00     0.190 A 
ATOM     81  C   UNL A   1      33.271  21.368  25.056  1.00  0.00     0.147 A 
ATOM     82  N   UNL A   1      32.201  20.449  23.317  1.00  0.00    -0.123 NA
ATOM     83  N   UNL A   1      33.202  22.229  23.993  1.00  0.00    -0.245 N 
ATOM     84  N   UNL A   1      32.505  21.689  22.979  1.00  0.00    -0.066 NA
BRANCH  83  85
ATOM     85  C   UNL A   1      33.965  23.415  23.770  1.00  0.00     0.148 C 
ATOM     86  C   UNL A   1      33.936  24.079  22.392  1.00  0.00     0.150 C 
ATOM     87  C   UNL A   1      33.140  24.621  24.263  1.00  0.00     0.150 C 
ATOM     88  N   UNL A   1      33.661  25.325  23.114  1.00  0.00    -0.320 N 
ATOM     89  C   UNL A   1      33.499  26.559  22.576  1.00  0.00     0.322 C 
ATOM     90  O   UNL A   1      33.767  26.772  21.389  1.00  0.00    -0.248 OA
ATOM     91  N   UNL A   1      32.894  27.556  23.276  1.00  0.00    -0.307 N 
ATOM     92  H   UNL A   1      32.557  28.292  22.718  1.00  0.00     0.171 HD
BRANCH  91  93
ATOM     93  C   UNL A   1      32.666  27.724  24.630  1.00  0.00     0.053 A 
ATOM     94  C   UNL A   1      31.467  27.476  25.361  1.00  0.00     0.038 A 
ATOM     95  C   UNL A   1      33.684  28.106  25.480  1.00  0.00     0.091 A 
ATOM     96  C   UNL A   1      31.553  27.887  26.674  1.00  0.00     0.067 A 
ATOM     97  S   UNL A   1      33.130  28.409  27.072  1.00  0.00    -0.150 S 
ENDBRANCH  91  93
ENDBRANCH  83  85
ENDBRANCH  78  80
ENDBRANCH  77  78
ENDBRANCH  76  77
ENDBRANCH  75  76
ENDBRANCH  74  75
ENDBRANCH  73  74
ENDBRANCH   1  73
TORSDOF 22
ENDMDL
MODEL 3
REMARK VINA RESULT:      -9.9      3.528      7.606
REMARK SMILES O=C(OCCOCCOCCOC(=O)c1cn(C2CN(C(=O)Nc3ccsc3)C2)nn1)c1ccc(-c2c3nc(c(-c4cccc(S(=O)(=O)[O-])c4F)c4ccc([nH]4)c(-c4cccc(S(=O)(=O)[O-])c4F)c4nc(c(-c5cccc(S(=O)(=O)[O-])c5F)c5ccc2[nH]5)C=C4)C=C3)cc1
REMARK SMILES IDX 7 1 6 2 5 3 4 4 3 5 2 6 1 7 32 8 33 9 94 10 34 11 93 12
REMARK SMILES IDX 35 13 36 14 37 15 87 16 38 17 92 18 86 19 88 20 39 21 91 22
REMARK SMILES IDX 85 23 84 24 40 26 72 27 52 28 71 29 53 30 56 31 70 32 89 33
REMARK SMILES IDX 54 34 55 35 69 37 90 38 57 39 41 40 42 41 50 42 43 43 45 44
REMARK SMILES IDX 51 45 44 46 46 47 47 48 48 49 49 50 73 51 74 52 82 53 75 54
REMARK SMILES IDX 77 55 83 56 76 57 78 58 79 59 80 60 81 61 58 62 59 63 67 64
REMARK SMILES IDX 60 65 62 66 68 67 61 68 63 69 64 70 65 71 66 72 8 73 9 74
REMARK SMILES IDX 10 75 11 76 12 77 13 78 14 79 15 80 16 81 31 82 17 83 30 84
REMARK SMILES IDX 18 85 19 86 29 87 20 88 21 89 22 90 23 91 24 93 25 94 28 95
REMARK SMILES IDX 26 96 27 97
REMARK H PARENT 88 25 56 36 23 92
REMARK Flexibility Score: inf
ROOT
ATOM      1  C   UNL A   1      34.732  17.242  24.086  1.00  0.00     0.188 C 
ENDROOT
BRANCH   1   2
ATOM      2  O   UNL A   1      34.976  18.336  24.949  1.00  0.00    -0.376 OA
BRANCH   2   3
ATOM      3  C   UNL A   1      36.005  19.252  24.627  1.00  0.00     0.202 C 
BRANCH   3   4
ATOM      4  C   UNL A   1      37.457  18.911  24.993  1.00  0.00     0.261 C 
BRANCH   4   5
ATOM      5  O   UNL A   1      38.323  20.025  25.234  1.00  0.00    -0.460 OA
BRANCH   5   6
ATOM      6  C   UNL A   1      39.611  20.091  25.622  1.00  0.00     0.338 C 
ATOM      7  O   UNL A   1      40.252  19.043  25.670  1.00  0.00    -0.246 OA
BRANCH   6   8
ATOM      8  C   UNL A   1      40.285  21.338  26.087  1.00  0.00     0.060 A 
ATOM      9  C   UNL A   1      41.661  21.553  26.186  1.00  0.00     0.016 A 
ATOM     10  C   UNL A   1      39.409  22.362  26.502  1.00  0.00     0.016 A 
ATOM     11  C   UNL A   1      42.144  22.647  26.885  1.00  0.00     0.010 A 
ATOM     12  C   UNL A   1      39.883  23.469  27.179  1.00  0.00     0.010 A 
ATOM     13  C   UNL A   1      41.240  23.542  27.453  1.00  0.00    -0.014 A 
BRANCH  13  14
ATOM     14  C   UNL A   1      41.760  24.557  28.346  1.00  0.00     0.031 A 
ATOM     15  C   UNL A   1      40.957  25.802  28.379  1.00  0.00     0.074 A 
ATOM     16  C   UNL A   1      42.851  24.313  29.100  1.00  0.00     0.049 A 
ATOM     17  N   UNL A   1      41.293  26.969  27.938  1.00  0.00    -0.248 NA
ATOM     18  C   UNL A   1      39.549  25.699  28.788  1.00  0.00     0.031 C 
ATOM     19  C   UNL A   1      43.528  23.027  29.303  1.00  0.00     0.029 A 
ATOM     20  N   UNL A   1      43.502  25.136  29.964  1.00  0.00    -0.354 N 
ATOM     21  C   UNL A   1      40.225  27.805  28.259  1.00  0.00     0.074 A 
ATOM     22  C   UNL A   1      39.117  26.941  28.567  1.00  0.00     0.031 C 
ATOM     23  C   UNL A   1      44.286  23.098  30.420  1.00  0.00     0.029 A 
ATOM     24  C   UNL A   1      44.254  24.459  30.923  1.00  0.00     0.049 A 
ATOM     25  H   UNL A   1      43.449  26.118  29.919  1.00  0.00     0.167 HD
ATOM     26  C   UNL A   1      40.420  29.127  28.521  1.00  0.00     0.034 A 
ATOM     27  C   UNL A   1      44.718  24.967  32.093  1.00  0.00     0.034 A 
ATOM     28  C   UNL A   1      41.711  29.567  28.059  1.00  0.00     0.049 A 
ATOM     29  C   UNL A   1      44.709  26.443  31.963  1.00  0.00     0.074 A 
ATOM     30  C   UNL A   1      42.349  29.616  26.837  1.00  0.00     0.029 A 
ATOM     31  N   UNL A   1      42.693  29.696  29.010  1.00  0.00    -0.354 N 
ATOM     32  N   UNL A   1      45.484  27.094  31.143  1.00  0.00    -0.248 NA
ATOM     33  C   UNL A   1      43.518  27.155  32.401  1.00  0.00     0.031 C 
ATOM     34  C   UNL A   1      43.708  29.298  27.122  1.00  0.00     0.029 A 
ATOM     35  C   UNL A   1      43.839  29.147  28.504  1.00  0.00     0.049 A 
ATOM     36  H   UNL A   1      42.591  30.110  29.897  1.00  0.00     0.167 HD
ATOM     37  C   UNL A   1      44.659  28.069  30.598  1.00  0.00     0.074 A 
ATOM     38  C   UNL A   1      43.497  28.126  31.483  1.00  0.00     0.031 C 
ATOM     39  C   UNL A   1      44.850  28.515  29.320  1.00  0.00     0.034 A 
BRANCH  26  40
ATOM     40  C   UNL A   1      39.646  29.931  29.545  1.00  0.00     0.023 A 
ATOM     41  C   UNL A   1      39.113  31.169  29.118  1.00  0.00     0.012 A 
ATOM     42  C   UNL A   1      39.670  29.692  30.938  1.00  0.00     0.148 A 
ATOM     43  C   UNL A   1      38.696  32.143  30.030  1.00  0.00     0.002 A 
ATOM     44  C   UNL A   1      39.184  30.633  31.838  1.00  0.00     0.091 A 
ATOM     45  F   UNL A   1      40.283  28.612  31.425  1.00  0.00    -0.205 F 
ATOM     46  C   UNL A   1      38.729  31.876  31.392  1.00  0.00     0.022 A 
BRANCH  44  47
ATOM     47  S   UNL A   1      39.162  30.324  33.609  1.00  0.00     0.127 S 
ATOM     48  O   UNL A   1      38.178  29.249  33.705  1.00  0.00    -0.237 OA
ATOM     49  O   UNL A   1      40.547  29.923  33.856  1.00  0.00    -0.237 OA
ATOM     50  O   UNL A   1      38.788  31.590  34.226  1.00  0.00    -0.744 OA
ENDBRANCH  44  47
ENDBRANCH  26  40
BRANCH  27  51
ATOM     51  C   UNL A   1      44.863  24.301  33.411  1.00  0.00     0.023 A 
ATOM     52  C   UNL A   1      43.753  23.661  33.999  1.00  0.00     0.012 A 
ATOM     53  C   UNL A   1      46.140  24.046  33.959  1.00  0.00     0.148 A 
ATOM     54  C   UNL A   1      43.912  22.777  35.075  1.00  0.00     0.002 A 
ATOM     55  C   UNL A   1      46.295  23.174  35.032  1.00  0.00     0.091 A 
ATOM     56  F   UNL A   1      47.215  24.583  33.367  1.00  0.00    -0.205 F 
ATOM     57  C   UNL A   1      45.184  22.528  35.586  1.00  0.00     0.022 A 
BRANCH  55  58
ATOM     58  S   UNL A   1      47.908  22.781  35.722  1.00  0.00     0.127 S 
ATOM     59  O   UNL A   1      48.591  22.186  34.573  1.00  0.00    -0.237 OA
ATOM     60  O   UNL A   1      48.399  24.100  36.110  1.00  0.00    -0.237 OA
ATOM     61  O   UNL A   1      47.657  21.853  36.817  1.00  0.00    -0.744 OA
ENDBRANCH  55  58
ENDBRANCH  27  51
BRANCH  39  62
ATOM     62  C   UNL A   1      46.119  28.118  28.613  1.00  0.00     0.023 A 
ATOM     63  C   UNL A   1      47.339  28.807  28.789  1.00  0.00     0.012 A 
ATOM     64  C   UNL A   1      46.118  26.911  27.898  1.00  0.00     0.148 A 
ATOM     65  C   UNL A   1      48.526  28.308  28.245  1.00  0.00     0.002 A 
ATOM     66  C   UNL A   1      47.306  26.394  27.401  1.00  0.00     0.091 A 
ATOM     67  F   UNL A   1      44.950  26.268  27.746  1.00  0.00    -0.205 F 
ATOM     68  C   UNL A   1      48.511  27.093  27.563  1.00  0.00     0.022 A 
BRANCH  66  69
ATOM     69  S   UNL A   1      47.368  24.774  26.634  1.00  0.00     0.127 S 
ATOM     70  O   UNL A   1      46.773  25.034  25.326  1.00  0.00    -0.237 OA
ATOM     71  O   UNL A   1      48.804  24.493  26.610  1.00  0.00    -0.237 OA
ATOM     72  O   UNL A   1      46.605  23.888  27.507  1.00  0.00    -0.744 OA
ENDBRANCH  66  69
ENDBRANCH  39  62
ENDBRANCH  13  14
ENDBRANCH   6   8
ENDBRANCH   5   6
ENDBRANCH   4   5
ENDBRANCH   3   4
ENDBRANCH   2   3
ENDBRANCH   1   2
BRANCH   1  73
ATOM     73  C   UNL A   1      33.405  17.341  23.288  1.00  0.00     0.188 C 
BRANCH  73  74
ATOM     74  O   UNL A   1      32.336  18.202  23.684  1.00  0.00    -0.376 OA
BRANCH  74  75
ATOM     75  C   UNL A   1      32.148  19.460  23.062  1.00  0.00     0.202 C 
BRANCH  75  76
ATOM     76  C   UNL A   1      32.633  20.713  23.807  1.00  0.00     0.261 C 
BRANCH  76  77
ATOM     77  O   UNL A   1      31.981  20.953  25.061  1.00  0.00    -0.458 OA
BRANCH  77  78
ATOM     78  C   UNL A   1      32.634  21.762  25.945  1.00  0.00     0.360 C 
ATOM     79  O   UNL A   1      33.530  21.415  26.694  1.00  0.00    -0.244 OA
BRANCH  78  80
ATOM     80  C   UNL A   1      32.152  23.127  25.856  1.00  0.00     0.190 A 
ATOM     81  C   UNL A   1      32.819  24.301  26.135  1.00  0.00     0.147 A 
ATOM     82  N   UNL A   1      30.873  23.426  25.457  1.00  0.00    -0.123 NA
ATOM     83  N   UNL A   1      31.894  25.274  25.868  1.00  0.00    -0.245 N 
ATOM     84  N   UNL A   1      30.712  24.736  25.521  1.00  0.00    -0.066 NA
BRANCH  83  85
ATOM     85  C   UNL A   1      32.118  26.669  25.664  1.00  0.00     0.148 C 
ATOM     86  C   UNL A   1      33.223  27.120  24.706  1.00  0.00     0.150 C 
ATOM     87  C   UNL A   1      31.121  27.169  24.599  1.00  0.00     0.150 C 
ATOM     88  N   UNL A   1      32.204  27.991  24.109  1.00  0.00    -0.320 N 
ATOM     89  C   UNL A   1      32.376  28.859  23.082  1.00  0.00     0.322 C 
ATOM     90  O   UNL A   1      33.507  29.134  22.668  1.00  0.00    -0.248 OA
ATOM     91  N   UNL A   1      31.313  29.332  22.378  1.00  0.00    -0.307 N 
ATOM     92  H   UNL A   1      31.547  29.696  21.494  1.00  0.00     0.171 HD
BRANCH  91  93
ATOM     93  C   UNL A   1      29.964  29.394  22.676  1.00  0.00     0.053 A 
ATOM     94  C   UNL A   1      29.014  28.332  22.696  1.00  0.00     0.038 A 
ATOM     95  C   UNL A   1      29.383  30.576  23.090  1.00  0.00     0.091 A 
ATOM     96  C   UNL A   1      27.726  28.778  22.900  1.00  0.00     0.067 A 
ATOM     97  S   UNL A   1      27.681  30.451  23.242  1.00  0.00    -0.150 S 
ENDBRANCH  91  93
ENDBRANCH  83  85
ENDBRANCH  78  80
ENDBRANCH  77  78
ENDBRANCH  76  77
ENDBRANCH  75  76
ENDBRANCH  74  75
ENDBRANCH  73  74
ENDBRANCH   1  73
TORSDOF 22
ENDMDL
