MODEL 1
REMARK VINA RESULT:     -11.1      0.000      0.000
REMARK SMILES COc1cc2c(CC(=O)OCCOCCOCCOC(=O)c3ccc(-c4c5nc(c(-c6cccc(S(=O)(=O)[O-])c6F)c6ccc([nH]6)c(-c6cccc(S(=O)(=O)[O-])c6F)c6nc(c(-c7cccc(S(=O)(=O)[O-])c7F)c7ccc4[nH]7)C=C6)C=C5)cc3)c(C)n(C(=O)c3ccc(Cl)cc3)c2cc1Cl
REMARK SMILES IDX 14 1 13 2 12 3 11 4 10 5 8 6 9 7 7 8 6 9 3 10 4 11 99 12
REMARK SMILES IDX 5 13 98 14 100 15 97 16 85 17 87 18 86 19 2 20 1 21 88 22
REMARK SMILES IDX 89 23 90 24 91 25 96 26 92 27 95 28 93 29 94 30 15 31 16 32
REMARK SMILES IDX 17 33 18 34 19 35 20 36 21 37 22 38 23 39 84 40 24 41 83 42
REMARK SMILES IDX 25 43 26 44 27 45 77 46 28 47 82 48 76 49 78 50 29 51 81 52
REMARK SMILES IDX 75 53 74 54 30 56 62 57 42 58 61 59 43 60 46 61 60 62 79 63
REMARK SMILES IDX 44 64 45 65 59 67 80 68 47 69 31 70 32 71 40 72 33 73 35 74
REMARK SMILES IDX 41 75 34 76 36 77 37 78 38 79 39 80 63 81 64 82 72 83 65 84
REMARK SMILES IDX 67 85 73 86 66 87 68 88 69 89 70 90 71 91 48 92 49 93 57 94
REMARK SMILES IDX 50 95 52 96 58 97 51 98 53 99 54 100 55 101 56 102
REMARK H PARENT 78 55 46 66
REMARK Flexibility Score: inf
ROOT
ATOM      1  C   UNL A   1      39.847  20.890  26.105  1.00  0.00     0.188 C 
ENDROOT
BRANCH   1   2
ATOM      2  O   UNL A   1      39.463  22.258  26.110  1.00  0.00    -0.376 OA
BRANCH   2   3
ATOM      3  C   UNL A   1      38.070  22.541  26.050  1.00  0.00     0.202 C 
BRANCH   3   4
ATOM      4  C   UNL A   1      37.373  22.161  24.735  1.00  0.00     0.261 C 
BRANCH   4   5
ATOM      5  O   UNL A   1      36.780  23.319  24.091  1.00  0.00    -0.463 OA
BRANCH   5   6
ATOM      6  C   UNL A   1      35.508  23.156  23.629  1.00  0.00     0.310 C 
ATOM      7  O   UNL A   1      34.906  22.092  23.736  1.00  0.00    -0.252 OA
BRANCH   6   8
ATOM      8  C   UNL A   1      34.812  24.459  23.250  1.00  0.00     0.160 C 
BRANCH   8   9
ATOM      9  C   UNL A   1      33.540  24.959  23.873  1.00  0.00    -0.008 A 
ATOM     10  C   UNL A   1      32.128  22.939  26.902  1.00  0.00     0.138 A 
ATOM     11  C   UNL A   1      33.104  23.486  26.039  1.00  0.00     0.058 A 
ATOM     12  C   UNL A   1      30.804  23.259  26.669  1.00  0.00     0.085 A 
ATOM     13  C   UNL A   1      32.826  24.394  24.994  1.00  0.00     0.008 A 
ATOM     14  C   UNL A   1      30.484  24.162  25.643  1.00  0.00     0.051 A 
ATOM     15  Cl  UNL A   1      29.483  22.715  27.641  1.00  0.00    -0.080 Cl
ATOM     16  C   UNL A   1      31.501  24.792  24.881  1.00  0.00     0.058 A 
ATOM     17  C   UNL A   1      32.627  25.775  23.210  1.00  0.00     0.028 A 
ATOM     18  N   UNL A   1      31.493  25.884  24.007  1.00  0.00    -0.280 N 
ATOM     19  C   UNL A   1      32.757  26.362  21.842  1.00  0.00     0.065 C 
BRANCH  10  20
ATOM     20  O   UNL A   1      32.663  22.197  27.921  1.00  0.00    -0.495 OA
ATOM     21  C   UNL A   1      33.948  21.597  27.775  1.00  0.00     0.278 C 
ENDBRANCH  10  20
BRANCH  18  22
ATOM     22  C   UNL A   1      30.562  26.960  24.043  1.00  0.00     0.262 C 
ATOM     23  O   UNL A   1      29.469  26.854  23.541  1.00  0.00    -0.268 OA
BRANCH  22  24
ATOM     24  C   UNL A   1      30.983  28.293  24.530  1.00  0.00     0.040 A 
ATOM     25  C   UNL A   1      31.670  28.362  25.751  1.00  0.00     0.015 A 
ATOM     26  C   UNL A   1      30.489  29.438  23.904  1.00  0.00     0.015 A 
ATOM     27  C   UNL A   1      31.804  29.593  26.387  1.00  0.00     0.021 A 
ATOM     28  C   UNL A   1      30.624  30.668  24.554  1.00  0.00     0.021 A 
ATOM     29  C   UNL A   1      31.264  30.736  25.795  1.00  0.00     0.041 A 
ATOM     30  Cl  UNL A   1      31.342  32.237  26.634  1.00  0.00    -0.084 Cl
ENDBRANCH  22  24
ENDBRANCH  18  22
ENDBRANCH   8   9
ENDBRANCH   6   8
ENDBRANCH   5   6
ENDBRANCH   4   5
ENDBRANCH   3   4
ENDBRANCH   2   3
ENDBRANCH   1   2
BRANCH   1  31
ATOM     31  C   UNL A   1      41.338  20.571  26.289  1.00  0.00     0.188 C 
BRANCH  31  32
ATOM     32  O   UNL A   1      41.803  19.571  25.421  1.00  0.00    -0.376 OA
BRANCH  32  33
ATOM     33  C   UNL A   1      42.852  18.741  25.857  1.00  0.00     0.202 C 
BRANCH  33  34
ATOM     34  C   UNL A   1      44.206  18.647  25.106  1.00  0.00     0.261 C 
BRANCH  34  35
ATOM     35  O   UNL A   1      45.108  19.769  25.248  1.00  0.00    -0.460 OA
BRANCH  35  36
ATOM     36  C   UNL A   1      44.934  20.786  24.347  1.00  0.00     0.338 C 
ATOM     37  O   UNL A   1      44.574  20.650  23.188  1.00  0.00    -0.246 OA
BRANCH  36  38
ATOM     38  C   UNL A   1      44.861  22.092  25.074  1.00  0.00     0.060 A 
ATOM     39  C   UNL A   1      45.550  22.419  26.240  1.00  0.00     0.016 A 
ATOM     40  C   UNL A   1      43.916  22.995  24.589  1.00  0.00     0.016 A 
ATOM     41  C   UNL A   1      45.193  23.588  26.953  1.00  0.00     0.010 A 
ATOM     42  C   UNL A   1      43.503  24.103  25.324  1.00  0.00     0.010 A 
ATOM     43  C   UNL A   1      44.121  24.400  26.534  1.00  0.00    -0.014 A 
BRANCH  43  44
ATOM     44  C   UNL A   1      43.837  25.733  27.095  1.00  0.00     0.031 A 
ATOM     45  C   UNL A   1      44.866  26.718  26.739  1.00  0.00     0.074 A 
ATOM     46  C   UNL A   1      42.768  26.188  27.785  1.00  0.00     0.049 A 
ATOM     47  N   UNL A   1      45.927  26.903  27.451  1.00  0.00    -0.248 NA
ATOM     48  C   UNL A   1      44.830  27.449  25.474  1.00  0.00     0.031 C 
ATOM     49  C   UNL A   1      41.662  25.418  28.320  1.00  0.00     0.029 A 
ATOM     50  N   UNL A   1      42.429  27.469  28.147  1.00  0.00    -0.354 N 
ATOM     51  C   UNL A   1      46.540  27.994  26.881  1.00  0.00     0.074 A 
ATOM     52  C   UNL A   1      45.976  28.135  25.556  1.00  0.00     0.031 C 
ATOM     53  C   UNL A   1      40.665  26.234  28.740  1.00  0.00     0.029 A 
ATOM     54  C   UNL A   1      41.134  27.610  28.651  1.00  0.00     0.049 A 
ATOM     55  H   UNL A   1      43.049  28.228  28.060  1.00  0.00     0.167 HD
ATOM     56  C   UNL A   1      47.227  28.880  27.647  1.00  0.00     0.034 A 
ATOM     57  C   UNL A   1      40.606  28.635  29.368  1.00  0.00     0.034 A 
ATOM     58  C   UNL A   1      47.322  28.470  29.026  1.00  0.00     0.049 A 
ATOM     59  C   UNL A   1      41.734  29.228  30.109  1.00  0.00     0.074 A 
ATOM     60  C   UNL A   1      47.838  27.382  29.701  1.00  0.00     0.029 A 
ATOM     61  N   UNL A   1      46.429  29.072  29.882  1.00  0.00    -0.354 N 
ATOM     62  N   UNL A   1      42.322  28.639  31.112  1.00  0.00    -0.248 NA
ATOM     63  C   UNL A   1      42.440  30.362  29.540  1.00  0.00     0.031 C 
ATOM     64  C   UNL A   1      46.963  27.163  30.807  1.00  0.00     0.029 A 
ATOM     65  C   UNL A   1      45.972  28.143  30.781  1.00  0.00     0.049 A 
ATOM     66  H   UNL A   1      46.160  30.019  29.853  1.00  0.00     0.167 HD
ATOM     67  C   UNL A   1      43.647  29.020  30.989  1.00  0.00     0.074 A 
ATOM     68  C   UNL A   1      43.631  30.186  30.116  1.00  0.00     0.031 C 
ATOM     69  C   UNL A   1      44.649  28.183  31.376  1.00  0.00     0.034 A 
BRANCH  56  70
ATOM     70  C   UNL A   1      47.463  30.289  27.224  1.00  0.00     0.023 A 
ATOM     71  C   UNL A   1      48.770  30.799  27.279  1.00  0.00     0.012 A 
ATOM     72  C   UNL A   1      46.411  31.181  26.929  1.00  0.00     0.148 A 
ATOM     73  C   UNL A   1      49.026  32.142  26.992  1.00  0.00     0.002 A 
ATOM     74  C   UNL A   1      46.679  32.487  26.551  1.00  0.00     0.091 A 
ATOM     75  F   UNL A   1      45.144  30.787  27.122  1.00  0.00    -0.205 F 
ATOM     76  C   UNL A   1      47.985  32.978  26.595  1.00  0.00     0.022 A 
BRANCH  74  77
ATOM     77  S   UNL A   1      45.377  33.555  25.935  1.00  0.00     0.127 S 
ATOM     78  O   UNL A   1      44.676  33.903  27.166  1.00  0.00    -0.237 OA
ATOM     79  O   UNL A   1      46.143  34.642  25.324  1.00  0.00    -0.237 OA
ATOM     80  O   UNL A   1      44.642  32.736  24.978  1.00  0.00    -0.744 OA
ENDBRANCH  74  77
ENDBRANCH  56  70
BRANCH  57  81
ATOM     81  C   UNL A   1      39.318  29.365  29.197  1.00  0.00     0.023 A 
ATOM     82  C   UNL A   1      38.554  29.123  28.031  1.00  0.00     0.012 A 
ATOM     83  C   UNL A   1      38.708  30.084  30.245  1.00  0.00     0.148 A 
ATOM     84  C   UNL A   1      37.209  29.502  27.944  1.00  0.00     0.002 A 
ATOM     85  C   UNL A   1      37.365  30.461  30.154  1.00  0.00     0.091 A 
ATOM     86  F   UNL A   1      39.418  30.330  31.356  1.00  0.00    -0.205 F 
ATOM     87  C   UNL A   1      36.609  30.154  29.012  1.00  0.00     0.022 A 
BRANCH  85  88
ATOM     88  S   UNL A   1      36.508  31.307  31.492  1.00  0.00     0.127 S 
ATOM     89  O   UNL A   1      35.284  31.770  30.836  1.00  0.00    -0.237 OA
ATOM     90  O   UNL A   1      36.310  30.229  32.457  1.00  0.00    -0.237 OA
ATOM     91  O   UNL A   1      37.402  32.380  31.912  1.00  0.00    -0.744 OA
ENDBRANCH  85  88
ENDBRANCH  57  81
BRANCH  69  92
ATOM     92  C   UNL A   1      44.290  27.070  32.326  1.00  0.00     0.023 A 
ATOM     93  C   UNL A   1      44.243  25.717  31.936  1.00  0.00     0.012 A 
ATOM     94  C   UNL A   1      44.112  27.398  33.680  1.00  0.00     0.148 A 
ATOM     95  C   UNL A   1      44.022  24.710  32.881  1.00  0.00     0.002 A 
ATOM     96  C   UNL A   1      43.929  26.393  34.622  1.00  0.00     0.091 A 
ATOM     97  F   UNL A   1      44.144  28.693  34.027  1.00  0.00    -0.205 F 
ATOM     98  C   UNL A   1      43.880  25.047  34.227  1.00  0.00     0.022 A 
BRANCH  96  99
ATOM     99  S   UNL A   1      43.839  26.751  36.378  1.00  0.00     0.127 S 
ATOM    100  O   UNL A   1      43.666  25.419  36.955  1.00  0.00    -0.237 OA
ATOM    101  O   UNL A   1      45.142  27.366  36.637  1.00  0.00    -0.237 OA
ATOM    102  O   UNL A   1      42.708  27.655  36.550  1.00  0.00    -0.744 OA
ENDBRANCH  96  99
ENDBRANCH  69  92
ENDBRANCH  43  44
ENDBRANCH  36  38
ENDBRANCH  35  36
ENDBRANCH  34  35
ENDBRANCH  33  34
ENDBRANCH  32  33
ENDBRANCH  31  32
ENDBRANCH   1  31
TORSDOF 24
ENDMDL
MODEL 2
REMARK VINA RESULT:     -10.2      2.726      4.034
REMARK SMILES COc1cc2c(CC(=O)OCCOCCOCCOC(=O)c3ccc(-c4c5nc(c(-c6cccc(S(=O)(=O)[O-])c6F)c6ccc([nH]6)c(-c6cccc(S(=O)(=O)[O-])c6F)c6nc(c(-c7cccc(S(=O)(=O)[O-])c7F)c7ccc4[nH]7)C=C6)C=C5)cc3)c(C)n(C(=O)c3ccc(Cl)cc3)c2cc1Cl
REMARK SMILES IDX 14 1 13 2 12 3 11 4 10 5 8 6 9 7 7 8 6 9 3 10 4 11 99 12
REMARK SMILES IDX 5 13 98 14 100 15 97 16 85 17 87 18 86 19 2 20 1 21 88 22
REMARK SMILES IDX 89 23 90 24 91 25 96 26 92 27 95 28 93 29 94 30 15 31 16 32
REMARK SMILES IDX 17 33 18 34 19 35 20 36 21 37 22 38 23 39 84 40 24 41 83 42
REMARK SMILES IDX 25 43 26 44 27 45 77 46 28 47 82 48 76 49 78 50 29 51 81 52
REMARK SMILES IDX 75 53 74 54 30 56 62 57 42 58 61 59 43 60 46 61 60 62 79 63
REMARK SMILES IDX 44 64 45 65 59 67 80 68 47 69 31 70 32 71 40 72 33 73 35 74
REMARK SMILES IDX 41 75 34 76 36 77 37 78 38 79 39 80 63 81 64 82 72 83 65 84
REMARK SMILES IDX 67 85 73 86 66 87 68 88 69 89 70 90 71 91 48 92 49 93 57 94
REMARK SMILES IDX 50 95 52 96 58 97 51 98 53 99 54 100 55 101 56 102
REMARK H PARENT 78 55 46 66
REMARK Flexibility Score: inf
ROOT
ATOM      1  C   UNL A   1      36.312  20.588  25.071  1.00  0.00     0.188 C 
ENDROOT
BRANCH   1   2
ATOM      2  O   UNL A   1      35.226  21.067  24.290  1.00  0.00    -0.376 OA
BRANCH   2   3
ATOM      3  C   UNL A   1      33.927  20.598  24.629  1.00  0.00     0.202 C 
BRANCH   3   4
ATOM      4  C   UNL A   1      32.828  21.670  24.681  1.00  0.00     0.261 C 
BRANCH   4   5
ATOM      5  O   UNL A   1      33.274  22.860  25.382  1.00  0.00    -0.463 OA
BRANCH   5   6
ATOM      6  C   UNL A   1      32.829  22.999  26.662  1.00  0.00     0.310 C 
ATOM      7  O   UNL A   1      33.037  22.147  27.522  1.00  0.00    -0.252 OA
BRANCH   6   8
ATOM      8  C   UNL A   1      32.326  24.399  26.998  1.00  0.00     0.160 C 
BRANCH   8   9
ATOM      9  C   UNL A   1      32.095  25.488  25.990  1.00  0.00    -0.008 A 
ATOM     10  C   UNL A   1      33.098  29.117  27.029  1.00  0.00     0.138 A 
ATOM     11  C   UNL A   1      33.167  27.706  26.983  1.00  0.00     0.058 A 
ATOM     12  C   UNL A   1      32.154  29.746  26.240  1.00  0.00     0.085 A 
ATOM     13  C   UNL A   1      32.382  26.897  26.133  1.00  0.00     0.008 A 
ATOM     14  C   UNL A   1      31.356  28.979  25.376  1.00  0.00     0.051 A 
ATOM     15  Cl  UNL A   1      31.952  31.459  26.139  1.00  0.00    -0.080 Cl
ATOM     16  C   UNL A   1      31.543  27.578  25.262  1.00  0.00     0.058 A 
ATOM     17  C   UNL A   1      31.181  25.388  24.945  1.00  0.00     0.028 A 
ATOM     18  N   UNL A   1      31.092  26.633  24.334  1.00  0.00    -0.280 N 
ATOM     19  C   UNL A   1      30.347  24.205  24.577  1.00  0.00     0.065 C 
BRANCH  10  20
ATOM     20  O   UNL A   1      34.058  29.678  27.828  1.00  0.00    -0.495 OA
ATOM     21  C   UNL A   1      35.399  29.195  27.789  1.00  0.00     0.278 C 
ENDBRANCH  10  20
BRANCH  18  22
ATOM     22  C   UNL A   1      30.744  26.910  22.981  1.00  0.00     0.262 C 
ATOM     23  O   UNL A   1      31.306  26.353  22.069  1.00  0.00    -0.268 OA
BRANCH  22  24
ATOM     24  C   UNL A   1      29.823  28.023  22.662  1.00  0.00     0.040 A 
ATOM     25  C   UNL A   1      30.368  29.193  22.114  1.00  0.00     0.015 A 
ATOM     26  C   UNL A   1      28.507  27.977  23.125  1.00  0.00     0.015 A 
ATOM     27  C   UNL A   1      29.601  30.355  22.092  1.00  0.00     0.021 A 
ATOM     28  C   UNL A   1      27.748  29.150  23.103  1.00  0.00     0.021 A 
ATOM     29  C   UNL A   1      28.303  30.333  22.605  1.00  0.00     0.041 A 
ATOM     30  Cl  UNL A   1      27.397  31.795  22.669  1.00  0.00    -0.084 Cl
ENDBRANCH  22  24
ENDBRANCH  18  22
ENDBRANCH   8   9
ENDBRANCH   6   8
ENDBRANCH   5   6
ENDBRANCH   4   5
ENDBRANCH   3   4
ENDBRANCH   2   3
ENDBRANCH   1   2
BRANCH   1  31
ATOM     31  C   UNL A   1      37.617  21.397  25.046  1.00  0.00     0.188 C 
BRANCH  31  32
ATOM     32  O   UNL A   1      38.730  20.671  25.497  1.00  0.00    -0.376 OA
BRANCH  32  33
ATOM     33  C   UNL A   1      39.656  21.318  26.336  1.00  0.00     0.202 C 
BRANCH  33  34
ATOM     34  C   UNL A   1      40.981  20.650  26.785  1.00  0.00     0.261 C 
BRANCH  34  35
ATOM     35  O   UNL A   1      41.814  21.405  27.696  1.00  0.00    -0.460 OA
BRANCH  35  36
ATOM     36  C   UNL A   1      42.618  22.351  27.118  1.00  0.00     0.338 C 
ATOM     37  O   UNL A   1      43.403  22.149  26.205  1.00  0.00    -0.246 OA
BRANCH  36  38
ATOM     38  C   UNL A   1      42.125  23.717  27.479  1.00  0.00     0.060 A 
ATOM     39  C   UNL A   1      41.224  24.483  26.743  1.00  0.00     0.016 A 
ATOM     40  C   UNL A   1      42.735  24.299  28.589  1.00  0.00     0.016 A 
ATOM     41  C   UNL A   1      41.045  25.849  27.068  1.00  0.00     0.010 A 
ATOM     42  C   UNL A   1      42.626  25.659  28.867  1.00  0.00     0.010 A 
ATOM     43  C   UNL A   1      41.797  26.460  28.090  1.00  0.00    -0.014 A 
BRANCH  43  44
ATOM     44  C   UNL A   1      41.510  27.804  28.625  1.00  0.00     0.031 A 
ATOM     45  C   UNL A   1      42.413  28.825  28.080  1.00  0.00     0.074 A 
ATOM     46  C   UNL A   1      40.523  28.233  29.442  1.00  0.00     0.049 A 
ATOM     47  N   UNL A   1      43.551  29.109  28.621  1.00  0.00    -0.248 NA
ATOM     48  C   UNL A   1      42.151  29.483  26.801  1.00  0.00     0.031 C 
ATOM     49  C   UNL A   1      39.556  27.431  30.165  1.00  0.00     0.029 A 
ATOM     50  N   UNL A   1      40.157  29.510  29.791  1.00  0.00    -0.354 N 
ATOM     51  C   UNL A   1      44.004  30.201  27.919  1.00  0.00     0.074 A 
ATOM     52  C   UNL A   1      43.250  30.237  26.685  1.00  0.00     0.031 C 
ATOM     53  C   UNL A   1      38.578  28.211  30.688  1.00  0.00     0.029 A 
ATOM     54  C   UNL A   1      38.940  29.604  30.470  1.00  0.00     0.049 A 
ATOM     55  H   UNL A   1      40.709  30.298  29.581  1.00  0.00     0.167 HD
ATOM     56  C   UNL A   1      44.735  31.164  28.537  1.00  0.00     0.034 A 
ATOM     57  C   UNL A   1      38.455  30.635  31.209  1.00  0.00     0.034 A 
ATOM     58  C   UNL A   1      45.051  30.836  29.905  1.00  0.00     0.049 A 
ATOM     59  C   UNL A   1      39.636  31.330  31.751  1.00  0.00     0.074 A 
ATOM     60  C   UNL A   1      45.726  29.817  30.547  1.00  0.00     0.029 A 
ATOM     61  N   UNL A   1      44.251  31.430  30.853  1.00  0.00    -0.354 N 
ATOM     62  N   UNL A   1      40.397  30.831  32.684  1.00  0.00    -0.248 NA
ATOM     63  C   UNL A   1      40.179  32.470  31.035  1.00  0.00     0.031 C 
ATOM     64  C   UNL A   1      45.033  29.608  31.777  1.00  0.00     0.029 A 
ATOM     65  C   UNL A   1      43.987  30.527  31.850  1.00  0.00     0.049 A 
ATOM     66  H   UNL A   1      43.921  32.358  30.820  1.00  0.00     0.167 HD
ATOM     67  C   UNL A   1      41.664  31.280  32.353  1.00  0.00     0.074 A 
ATOM     68  C   UNL A   1      41.449  32.394  31.440  1.00  0.00     0.031 C 
ATOM     69  C   UNL A   1      42.763  30.523  32.628  1.00  0.00     0.034 A 
BRANCH  56  70
ATOM     70  C   UNL A   1      44.818  32.559  28.021  1.00  0.00     0.023 A 
ATOM     71  C   UNL A   1      46.003  32.977  27.395  1.00  0.00     0.012 A 
ATOM     72  C   UNL A   1      43.824  33.526  28.280  1.00  0.00     0.148 A 
ATOM     73  C   UNL A   1      46.166  34.303  26.987  1.00  0.00     0.002 A 
ATOM     74  C   UNL A   1      43.949  34.816  27.790  1.00  0.00     0.091 A 
ATOM     75  F   UNL A   1      42.807  33.219  29.098  1.00  0.00    -0.205 F 
ATOM     76  C   UNL A   1      45.127  35.215  27.154  1.00  0.00     0.022 A 
BRANCH  74  77
ATOM     77  S   UNL A   1      42.590  35.981  27.895  1.00  0.00     0.127 S 
ATOM     78  O   UNL A   1      41.526  35.252  27.214  1.00  0.00    -0.237 OA
ATOM     79  O   UNL A   1      42.424  36.121  29.342  1.00  0.00    -0.237 OA
ATOM     80  O   UNL A   1      43.078  37.185  27.234  1.00  0.00    -0.744 OA
ENDBRANCH  74  77
ENDBRANCH  56  70
BRANCH  57  81
ATOM     81  C   UNL A   1      37.112  31.280  31.194  1.00  0.00     0.023 A 
ATOM     82  C   UNL A   1      36.434  31.458  32.423  1.00  0.00     0.012 A 
ATOM     83  C   UNL A   1      36.601  31.943  30.059  1.00  0.00     0.148 A 
ATOM     84  C   UNL A   1      35.344  32.329  32.540  1.00  0.00     0.002 A 
ATOM     85  C   UNL A   1      35.512  32.812  30.181  1.00  0.00     0.091 A 
ATOM     86  F   UNL A   1      37.224  31.782  28.883  1.00  0.00    -0.205 F 
ATOM     87  C   UNL A   1      34.895  33.020  31.423  1.00  0.00     0.022 A 
BRANCH  85  88
ATOM     88  S   UNL A   1      34.867  33.750  28.786  1.00  0.00     0.127 S 
ATOM     89  O   UNL A   1      35.065  32.824  27.670  1.00  0.00    -0.237 OA
ATOM     90  O   UNL A   1      33.473  33.948  29.171  1.00  0.00    -0.237 OA
ATOM     91  O   UNL A   1      35.684  34.955  28.714  1.00  0.00    -0.744 OA
ENDBRANCH  85  88
ENDBRANCH  57  81
BRANCH  69  92
ATOM     92  C   UNL A   1      42.614  29.445  33.669  1.00  0.00     0.023 A 
ATOM     93  C   UNL A   1      41.903  28.251  33.438  1.00  0.00     0.012 A 
ATOM     94  C   UNL A   1      43.319  29.597  34.875  1.00  0.00     0.148 A 
ATOM     95  C   UNL A   1      41.894  27.229  34.393  1.00  0.00     0.002 A 
ATOM     96  C   UNL A   1      43.339  28.567  35.806  1.00  0.00     0.091 A 
ATOM     97  F   UNL A   1      43.976  30.749  35.081  1.00  0.00    -0.205 F 
ATOM     98  C   UNL A   1      42.625  27.381  35.571  1.00  0.00     0.022 A 
BRANCH  96  99
ATOM     99  S   UNL A   1      44.337  28.658  37.293  1.00  0.00     0.127 S 
ATOM    100  O   UNL A   1      45.691  28.745  36.751  1.00  0.00    -0.237 OA
ATOM    101  O   UNL A   1      43.849  29.888  37.920  1.00  0.00    -0.237 OA
ATOM    102  O   UNL A   1      44.047  27.447  38.052  1.00  0.00    -0.744 OA
ENDBRANCH  96  99
ENDBRANCH  69  92
ENDBRANCH  43  44
ENDBRANCH  36  38
ENDBRANCH  35  36
ENDBRANCH  34  35
ENDBRANCH  33  34
ENDBRANCH  32  33
ENDBRANCH  31  32
ENDBRANCH   1  31
TORSDOF 24
ENDMDL
MODEL 3
REMARK VINA RESULT:      -9.7      3.746      5.755
REMARK SMILES COc1cc2c(CC(=O)OCCOCCOCCOC(=O)c3ccc(-c4c5nc(c(-c6cccc(S(=O)(=O)[O-])c6F)c6ccc([nH]6)c(-c6cccc(S(=O)(=O)[O-])c6F)c6nc(c(-c7cccc(S(=O)(=O)[O-])c7F)c7ccc4[nH]7)C=C6)C=C5)cc3)c(C)n(C(=O)c3ccc(Cl)cc3)c2cc1Cl
REMARK SMILES IDX 14 1 13 2 12 3 11 4 10 5 8 6 9 7 7 8 6 9 3 10 4 11 99 12
REMARK SMILES IDX 5 13 98 14 100 15 97 16 85 17 87 18 86 19 2 20 1 21 88 22
REMARK SMILES IDX 89 23 90 24 91 25 96 26 92 27 95 28 93 29 94 30 15 31 16 32
REMARK SMILES IDX 17 33 18 34 19 35 20 36 21 37 22 38 23 39 84 40 24 41 83 42
REMARK SMILES IDX 25 43 26 44 27 45 77 46 28 47 82 48 76 49 78 50 29 51 81 52
REMARK SMILES IDX 75 53 74 54 30 56 62 57 42 58 61 59 43 60 46 61 60 62 79 63
REMARK SMILES IDX 44 64 45 65 59 67 80 68 47 69 31 70 32 71 40 72 33 73 35 74
REMARK SMILES IDX 41 75 34 76 36 77 37 78 38 79 39 80 63 81 64 82 72 83 65 84
REMARK SMILES IDX 67 85 73 86 66 87 68 88 69 89 70 90 71 91 48 92 49 93 57 94
REMARK SMILES IDX 50 95 52 96 58 97 51 98 53 99 54 100 55 101 56 102
REMARK H PARENT 78 55 46 66
REMARK Flexibility Score: inf
ROOT
ATOM      1  C   UNL A   1      36.015  22.897  26.133  1.00  0.00     0.188 C 
ENDROOT
BRANCH   1   2
ATOM      2  O   UNL A   1      34.806  23.089  25.413  1.00  0.00    -0.376 OA
BRANCH   2   3
ATOM      3  C   UNL A   1      33.611  23.220  26.174  1.00  0.00     0.202 C 
BRANCH   3   4
ATOM      4  C   UNL A   1      32.423  22.374  25.694  1.00  0.00     0.261 C 
BRANCH   4   5
ATOM      5  O   UNL A   1      31.350  23.204  25.178  1.00  0.00    -0.463 OA
BRANCH   5   6
ATOM      6  C   UNL A   1      31.308  23.349  23.824  1.00  0.00     0.310 C 
ATOM      7  O   UNL A   1      31.674  22.460  23.060  1.00  0.00    -0.252 OA
BRANCH   6   8
ATOM      8  C   UNL A   1      30.509  24.560  23.351  1.00  0.00     0.160 C 
BRANCH   8   9
ATOM      9  C   UNL A   1      30.963  25.986  23.483  1.00  0.00    -0.008 A 
ATOM     10  C   UNL A   1      28.267  28.764  22.967  1.00  0.00     0.138 A 
ATOM     11  C   UNL A   1      28.790  27.507  23.346  1.00  0.00     0.058 A 
ATOM     12  C   UNL A   1      29.149  29.719  22.498  1.00  0.00     0.085 A 
ATOM     13  C   UNL A   1      30.164  27.181  23.341  1.00  0.00     0.008 A 
ATOM     14  C   UNL A   1      30.524  29.438  22.481  1.00  0.00     0.051 A 
ATOM     15  Cl  UNL A   1      28.696  31.319  22.028  1.00  0.00    -0.080 Cl
ATOM     16  C   UNL A   1      31.025  28.212  22.991  1.00  0.00     0.058 A 
ATOM     17  C   UNL A   1      32.286  26.390  23.331  1.00  0.00     0.028 A 
ATOM     18  N   UNL A   1      32.312  27.780  23.329  1.00  0.00    -0.280 N 
ATOM     19  C   UNL A   1      33.481  25.523  23.103  1.00  0.00     0.065 C 
BRANCH  10  20
ATOM     20  O   UNL A   1      26.921  28.879  23.193  1.00  0.00    -0.495 OA
ATOM     21  C   UNL A   1      26.200  27.807  23.796  1.00  0.00     0.278 C 
ENDBRANCH  10  20
BRANCH  18  22
ATOM     22  C   UNL A   1      33.386  28.626  23.725  1.00  0.00     0.262 C 
ATOM     23  O   UNL A   1      34.299  28.864  22.972  1.00  0.00    -0.268 OA
BRANCH  22  24
ATOM     24  C   UNL A   1      33.500  29.075  25.130  1.00  0.00     0.040 A 
ATOM     25  C   UNL A   1      32.667  30.119  25.558  1.00  0.00     0.015 A 
ATOM     26  C   UNL A   1      34.571  28.631  25.906  1.00  0.00     0.015 A 
ATOM     27  C   UNL A   1      32.953  30.772  26.754  1.00  0.00     0.021 A 
ATOM     28  C   UNL A   1      34.853  29.296  27.102  1.00  0.00     0.021 A 
ATOM     29  C   UNL A   1      34.056  30.371  27.510  1.00  0.00     0.041 A 
ATOM     30  Cl  UNL A   1      34.466  31.246  28.934  1.00  0.00    -0.084 Cl
ENDBRANCH  22  24
ENDBRANCH  18  22
ENDBRANCH   8   9
ENDBRANCH   6   8
ENDBRANCH   5   6
ENDBRANCH   4   5
ENDBRANCH   3   4
ENDBRANCH   2   3
ENDBRANCH   1   2
BRANCH   1  31
ATOM     31  C   UNL A   1      37.301  22.693  25.320  1.00  0.00     0.188 C 
BRANCH  31  32
ATOM     32  O   UNL A   1      38.168  21.743  25.881  1.00  0.00    -0.376 OA
BRANCH  32  33
ATOM     33  C   UNL A   1      39.433  22.170  26.325  1.00  0.00     0.202 C 
BRANCH  33  34
ATOM     34  C   UNL A   1      40.398  21.245  27.111  1.00  0.00     0.261 C 
BRANCH  34  35
ATOM     35  O   UNL A   1      41.665  21.816  27.511  1.00  0.00    -0.460 OA
BRANCH  35  36
ATOM     36  C   UNL A   1      42.641  21.826  26.550  1.00  0.00     0.338 C 
ATOM     37  O   UNL A   1      42.806  20.964  25.701  1.00  0.00    -0.246 OA
BRANCH  36  38
ATOM     38  C   UNL A   1      43.216  23.203  26.434  1.00  0.00     0.060 A 
ATOM     39  C   UNL A   1      43.123  24.037  25.322  1.00  0.00     0.016 A 
ATOM     40  C   UNL A   1      44.018  23.609  27.498  1.00  0.00     0.016 A 
ATOM     41  C   UNL A   1      43.925  25.201  25.256  1.00  0.00     0.010 A 
ATOM     42  C   UNL A   1      44.870  24.707  27.409  1.00  0.00     0.010 A 
ATOM     43  C   UNL A   1      44.853  25.505  26.271  1.00  0.00    -0.014 A 
BRANCH  43  44
ATOM     44  C   UNL A   1      45.555  26.797  26.377  1.00  0.00     0.031 A 
ATOM     45  C   UNL A   1      46.931  26.727  25.869  1.00  0.00     0.074 A 
ATOM     46  C   UNL A   1      45.111  28.009  26.775  1.00  0.00     0.049 A 
ATOM     47  N   UNL A   1      47.931  26.389  26.613  1.00  0.00    -0.248 NA
ATOM     48  C   UNL A   1      47.238  26.890  24.449  1.00  0.00     0.031 C 
ATOM     49  C   UNL A   1      43.834  28.333  27.380  1.00  0.00     0.029 A 
ATOM     50  N   UNL A   1      45.716  29.240  26.702  1.00  0.00    -0.354 N 
ATOM     51  C   UNL A   1      49.036  26.598  25.821  1.00  0.00     0.074 A 
ATOM     52  C   UNL A   1      48.557  26.664  24.458  1.00  0.00     0.031 C 
ATOM     53  C   UNL A   1      43.648  29.675  27.423  1.00  0.00     0.029 A 
ATOM     54  C   UNL A   1      44.878  30.321  26.988  1.00  0.00     0.049 A 
ATOM     55  H   UNL A   1      46.665  29.353  26.468  1.00  0.00     0.167 HD
ATOM     56  C   UNL A   1      50.209  27.011  26.367  1.00  0.00     0.034 A 
ATOM     57  C   UNL A   1      45.215  31.598  27.305  1.00  0.00     0.034 A 
ATOM     58  C   UNL A   1      50.165  27.071  27.807  1.00  0.00     0.049 A 
ATOM     59  C   UNL A   1      46.531  31.514  27.964  1.00  0.00     0.074 A 
ATOM     60  C   UNL A   1      49.929  26.172  28.827  1.00  0.00     0.029 A 
ATOM     61  N   UNL A   1      49.966  28.324  28.338  1.00  0.00    -0.354 N 
ATOM     62  N   UNL A   1      46.705  31.019  29.157  1.00  0.00    -0.248 NA
ATOM     63  C   UNL A   1      47.734  31.694  27.173  1.00  0.00     0.031 C 
ATOM     64  C   UNL A   1      49.242  26.907  29.840  1.00  0.00     0.029 A 
ATOM     65  C   UNL A   1      49.119  28.229  29.412  1.00  0.00     0.049 A 
ATOM     66  H   UNL A   1      50.369  29.157  28.001  1.00  0.00     0.167 HD
ATOM     67  C   UNL A   1      47.942  30.401  29.082  1.00  0.00     0.074 A 
ATOM     68  C   UNL A   1      48.586  30.976  27.909  1.00  0.00     0.031 C 
ATOM     69  C   UNL A   1      48.205  29.282  29.812  1.00  0.00     0.034 A 
BRANCH  56  70
ATOM     70  C   UNL A   1      51.249  27.730  25.579  1.00  0.00     0.023 A 
ATOM     71  C   UNL A   1      51.184  29.129  25.496  1.00  0.00     0.012 A 
ATOM     72  C   UNL A   1      52.196  27.057  24.778  1.00  0.00     0.148 A 
ATOM     73  C   UNL A   1      52.074  29.839  24.685  1.00  0.00     0.002 A 
ATOM     74  C   UNL A   1      53.137  27.768  24.052  1.00  0.00     0.091 A 
ATOM     75  F   UNL A   1      52.110  25.726  24.639  1.00  0.00    -0.205 F 
ATOM     76  C   UNL A   1      53.073  29.162  23.990  1.00  0.00     0.022 A 
BRANCH  74  77
ATOM     77  S   UNL A   1      54.496  26.932  23.233  1.00  0.00     0.127 S 
ATOM     78  O   UNL A   1      54.728  25.803  24.128  1.00  0.00    -0.237 OA
ATOM     79  O   UNL A   1      53.905  26.592  21.938  1.00  0.00    -0.237 OA
ATOM     80  O   UNL A   1      55.557  27.929  23.158  1.00  0.00    -0.744 OA
ENDBRANCH  74  77
ENDBRANCH  56  70
BRANCH  57  81
ATOM     81  C   UNL A   1      44.689  32.889  26.780  1.00  0.00     0.023 A 
ATOM     82  C   UNL A   1      44.449  33.005  25.389  1.00  0.00     0.012 A 
ATOM     83  C   UNL A   1      44.185  33.902  27.620  1.00  0.00     0.148 A 
ATOM     84  C   UNL A   1      43.665  34.039  24.864  1.00  0.00     0.002 A 
ATOM     85  C   UNL A   1      43.402  34.933  27.091  1.00  0.00     0.091 A 
ATOM     86  F   UNL A   1      44.407  33.815  28.939  1.00  0.00    -0.205 F 
ATOM     87  C   UNL A   1      43.126  34.992  25.717  1.00  0.00     0.022 A 
BRANCH  85  88
ATOM     88  S   UNL A   1      42.662  36.208  28.124  1.00  0.00     0.127 S 
ATOM     89  O   UNL A   1      41.787  35.429  29.001  1.00  0.00    -0.237 OA
ATOM     90  O   UNL A   1      43.830  36.782  28.785  1.00  0.00    -0.237 OA
ATOM     91  O   UNL A   1      41.953  37.092  27.207  1.00  0.00    -0.744 OA
ENDBRANCH  85  88
ENDBRANCH  57  81
BRANCH  69  92
ATOM     92  C   UNL A   1      47.318  29.008  30.999  1.00  0.00     0.023 A 
ATOM     93  C   UNL A   1      47.515  29.613  32.256  1.00  0.00     0.012 A 
ATOM     94  C   UNL A   1      46.183  28.207  30.797  1.00  0.00     0.148 A 
ATOM     95  C   UNL A   1      46.597  29.420  33.292  1.00  0.00     0.002 A 
ATOM     96  C   UNL A   1      45.253  28.046  31.816  1.00  0.00     0.091 A 
ATOM     97  F   UNL A   1      46.024  27.627  29.597  1.00  0.00    -0.205 F 
ATOM     98  C   UNL A   1      45.457  28.648  33.067  1.00  0.00     0.022 A 
BRANCH  96  99
ATOM     99  S   UNL A   1      43.720  27.150  31.561  1.00  0.00     0.127 S 
ATOM    100  O   UNL A   1      43.352  26.776  32.925  1.00  0.00    -0.237 OA
ATOM    101  O   UNL A   1      42.862  28.168  30.953  1.00  0.00    -0.237 OA
ATOM    102  O   UNL A   1      44.043  26.037  30.676  1.00  0.00    -0.744 OA
ENDBRANCH  96  99
ENDBRANCH  69  92
ENDBRANCH  43  44
ENDBRANCH  36  38
ENDBRANCH  35  36
ENDBRANCH  34  35
ENDBRANCH  33  34
ENDBRANCH  32  33
ENDBRANCH  31  32
ENDBRANCH   1  31
TORSDOF 24
ENDMDL
