MODEL 1
REMARK VINA RESULT:      -9.8      0.000      0.000
REMARK SMILES Cn1cc(C(c2ccccc2OCC(=O)OCCOCCOCCOC(=O)c2ccc(-c3c4nc(c(-c5cccc(S(=O)(=O)[O-])c5F)c5ccc([nH]5)c(-c5cccc(S(=O)(=O)[O-])c5F)c5nc(c(-c6cccc(S(=O)(=O)[O-])c6F)c6ccc3[nH]6)C=C5)C=C4)cc2)c2cn(C)c3ccccc23)c2ccccc21
REMARK SMILES IDX 20 1 19 2 18 3 17 4 16 5 14 6 15 7 13 8 12 9 11 10 6 11 7 12
REMARK SMILES IDX 8 13 10 14 9 15 5 16 4 17 1 18 2 19 3 20 106 21 101 22
REMARK SMILES IDX 105 23 102 24 104 25 103 26 91 27 92 28 100 29 93 30 95 31
REMARK SMILES IDX 99 32 94 33 96 34 98 35 97 36 21 37 22 38 23 39 24 40 25 41
REMARK SMILES IDX 26 42 27 43 28 44 29 45 90 46 30 47 89 48 31 49 32 50 33 51
REMARK SMILES IDX 83 52 34 53 88 54 82 55 84 56 35 57 87 58 81 59 80 60 36 62
REMARK SMILES IDX 68 63 48 64 67 65 49 66 52 67 66 68 85 69 50 70 51 71 65 73
REMARK SMILES IDX 86 74 53 75 37 76 38 77 46 78 39 79 41 80 47 81 40 82 42 83
REMARK SMILES IDX 43 84 44 85 45 86 69 87 70 88 78 89 71 90 73 91 79 92 72 93
REMARK SMILES IDX 74 94 75 95 76 96 77 97 54 98 55 99 63 100 56 101 58 102
REMARK SMILES IDX 64 103 57 104 59 105 60 106 61 107 62 108
REMARK H PARENT 84 61 52 72
REMARK Flexibility Score: inf
ROOT
ATOM      1  C   UNL A   1      34.090  24.844  24.308  1.00  0.00     0.188 C 
ENDROOT
BRANCH   1   2
ATOM      2  O   UNL A   1      33.268  24.559  25.443  1.00  0.00    -0.376 OA
BRANCH   2   3
ATOM      3  C   UNL A   1      32.384  25.591  25.836  1.00  0.00     0.202 C 
BRANCH   3   4
ATOM      4  C   UNL A   1      32.991  27.016  25.844  1.00  0.00     0.261 C 
BRANCH   4   5
ATOM      5  O   UNL A   1      32.917  27.886  26.995  1.00  0.00    -0.461 OA
BRANCH   5   6
ATOM      6  C   UNL A   1      32.825  29.204  26.705  1.00  0.00     0.344 C 
ATOM      7  O   UNL A   1      31.883  29.653  26.101  1.00  0.00    -0.248 OA
BRANCH   6   8
ATOM      8  C   UNL A   1      34.051  30.029  27.097  1.00  0.00     0.351 C 
BRANCH   8   9
ATOM      9  O   UNL A   1      34.539  30.472  28.333  1.00  0.00    -0.482 OA
BRANCH   9  10
ATOM     10  C   UNL A   1      34.863  31.782  28.480  1.00  0.00     0.124 A 
ATOM     11  C   UNL A   1      35.926  32.375  29.191  1.00  0.00     0.006 A 
ATOM     12  C   UNL A   1      35.877  33.815  29.166  1.00  0.00     0.008 A 
ATOM     13  C   UNL A   1      34.908  34.600  28.525  1.00  0.00     0.001 A 
ATOM     14  C   UNL A   1      33.837  32.586  27.887  1.00  0.00     0.047 A 
ATOM     15  C   UNL A   1      33.861  33.976  27.892  1.00  0.00     0.004 A 
BRANCH  11  16
ATOM     16  C   UNL A   1      37.092  31.864  30.083  1.00  0.00     0.087 C 
BRANCH  16  17
ATOM     17  C   UNL A   1      37.576  30.411  30.137  1.00  0.00    -0.010 A 
ATOM     18  C   UNL A   1      38.406  27.560  32.243  1.00  0.00     0.149 C 
ATOM     19  N   UNL A   1      38.133  28.473  31.154  1.00  0.00    -0.350 N 
ATOM     20  C   UNL A   1      37.361  29.599  31.261  1.00  0.00     0.091 A 
ATOM     21  C   UNL A   1      38.760  28.463  29.930  1.00  0.00     0.048 A 
ATOM     22  C   UNL A   1      38.200  29.517  29.183  1.00  0.00     0.004 A 
ATOM     23  C   UNL A   1      39.831  27.684  29.459  1.00  0.00     0.027 A 
ATOM     24  C   UNL A   1      38.541  29.593  27.813  1.00  0.00     0.010 A 
ATOM     25  C   UNL A   1      40.296  27.934  28.170  1.00  0.00     0.002 A 
ATOM     26  C   UNL A   1      39.621  28.823  27.336  1.00  0.00     0.001 A 
ENDBRANCH  16  17
BRANCH  16  27
ATOM     27  C   UNL A   1      37.197  32.593  31.399  1.00  0.00    -0.010 A 
ATOM     28  C   UNL A   1      36.103  32.688  32.249  1.00  0.00     0.091 A 
ATOM     29  C   UNL A   1      38.299  33.186  32.115  1.00  0.00     0.004 A 
ATOM     30  N   UNL A   1      36.439  33.442  33.327  1.00  0.00    -0.350 N 
ATOM     31  C   UNL A   1      37.775  33.759  33.283  1.00  0.00     0.048 A 
ATOM     32  C   UNL A   1      39.695  33.300  31.913  1.00  0.00     0.010 A 
ATOM     33  C   UNL A   1      35.504  33.843  34.351  1.00  0.00     0.149 C 
ATOM     34  C   UNL A   1      38.565  34.495  34.180  1.00  0.00     0.027 A 
ATOM     35  C   UNL A   1      40.501  33.972  32.833  1.00  0.00     0.001 A 
ATOM     36  C   UNL A   1      39.935  34.590  33.936  1.00  0.00     0.002 A 
ENDBRANCH  16  27
ENDBRANCH  11  16
ENDBRANCH   9  10
ENDBRANCH   8   9
ENDBRANCH   6   8
ENDBRANCH   5   6
ENDBRANCH   4   5
ENDBRANCH   3   4
ENDBRANCH   2   3
ENDBRANCH   1   2
BRANCH   1  37
ATOM     37  C   UNL A   1      34.925  23.621  23.877  1.00  0.00     0.188 C 
BRANCH  37  38
ATOM     38  O   UNL A   1      34.877  22.460  24.694  1.00  0.00    -0.376 OA
BRANCH  38  39
ATOM     39  C   UNL A   1      35.889  22.392  25.682  1.00  0.00     0.202 C 
BRANCH  39  40
ATOM     40  C   UNL A   1      37.191  21.662  25.303  1.00  0.00     0.261 C 
BRANCH  40  41
ATOM     41  O   UNL A   1      38.414  22.260  25.802  1.00  0.00    -0.460 OA
BRANCH  41  42
ATOM     42  C   UNL A   1      39.466  21.415  25.959  1.00  0.00     0.338 C 
ATOM     43  O   UNL A   1      39.406  20.194  25.960  1.00  0.00    -0.246 OA
BRANCH  42  44
ATOM     44  C   UNL A   1      40.775  22.108  26.124  1.00  0.00     0.060 A 
ATOM     45  C   UNL A   1      41.991  21.439  26.002  1.00  0.00     0.016 A 
ATOM     46  C   UNL A   1      40.782  23.393  26.667  1.00  0.00     0.016 A 
ATOM     47  C   UNL A   1      43.165  21.977  26.546  1.00  0.00     0.010 A 
ATOM     48  C   UNL A   1      41.985  23.976  27.105  1.00  0.00     0.010 A 
ATOM     49  C   UNL A   1      43.193  23.257  27.100  1.00  0.00    -0.014 A 
BRANCH  49  50
ATOM     50  C   UNL A   1      44.444  23.835  27.689  1.00  0.00     0.031 A 
ATOM     51  C   UNL A   1      44.572  23.988  29.186  1.00  0.00     0.074 A 
ATOM     52  C   UNL A   1      45.465  24.267  26.917  1.00  0.00     0.049 A 
ATOM     53  N   UNL A   1      45.344  24.784  29.879  1.00  0.00    -0.248 NA
ATOM     54  C   UNL A   1      43.707  23.127  30.008  1.00  0.00     0.031 C 
ATOM     55  C   UNL A   1      45.583  24.095  25.470  1.00  0.00     0.029 A 
ATOM     56  N   UNL A   1      46.586  25.001  27.252  1.00  0.00    -0.354 N 
ATOM     57  C   UNL A   1      44.988  24.599  31.211  1.00  0.00     0.074 A 
ATOM     58  C   UNL A   1      43.958  23.580  31.229  1.00  0.00     0.031 C 
ATOM     59  C   UNL A   1      46.681  24.727  25.035  1.00  0.00     0.029 A 
ATOM     60  C   UNL A   1      47.264  25.465  26.147  1.00  0.00     0.049 A 
ATOM     61  H   UNL A   1      46.868  25.175  28.178  1.00  0.00     0.167 HD
ATOM     62  C   UNL A   1      45.461  25.235  32.311  1.00  0.00     0.034 A 
ATOM     63  C   UNL A   1      48.166  26.456  26.002  1.00  0.00     0.034 A 
ATOM     64  C   UNL A   1      46.525  26.206  32.285  1.00  0.00     0.049 A 
ATOM     65  C   UNL A   1      48.613  27.229  27.208  1.00  0.00     0.074 A 
ATOM     66  C   UNL A   1      47.096  26.890  33.344  1.00  0.00     0.029 A 
ATOM     67  N   UNL A   1      47.175  26.638  31.139  1.00  0.00    -0.354 N 
ATOM     68  N   UNL A   1      48.270  27.069  28.462  1.00  0.00    -0.248 NA
ATOM     69  C   UNL A   1      49.576  28.315  26.981  1.00  0.00     0.031 C 
ATOM     70  C   UNL A   1      48.054  27.772  32.832  1.00  0.00     0.029 A 
ATOM     71  C   UNL A   1      48.115  27.603  31.459  1.00  0.00     0.049 A 
ATOM     72  H   UNL A   1      46.994  26.306  30.230  1.00  0.00     0.167 HD
ATOM     73  C   UNL A   1      48.983  28.023  29.177  1.00  0.00     0.074 A 
ATOM     74  C   UNL A   1      49.799  28.740  28.219  1.00  0.00     0.031 C 
ATOM     75  C   UNL A   1      48.951  28.291  30.506  1.00  0.00     0.034 A 
BRANCH  62  76
ATOM     76  C   UNL A   1      44.793  24.946  33.633  1.00  0.00     0.023 A 
ATOM     77  C   UNL A   1      45.207  23.863  34.431  1.00  0.00     0.012 A 
ATOM     78  C   UNL A   1      43.755  25.784  34.095  1.00  0.00     0.148 A 
ATOM     79  C   UNL A   1      44.568  23.587  35.642  1.00  0.00     0.002 A 
ATOM     80  C   UNL A   1      43.154  25.531  35.323  1.00  0.00     0.091 A 
ATOM     81  F   UNL A   1      43.361  26.802  33.317  1.00  0.00    -0.205 F 
ATOM     82  C   UNL A   1      43.548  24.424  36.091  1.00  0.00     0.022 A 
BRANCH  80  83
ATOM     83  S   UNL A   1      41.888  26.600  36.018  1.00  0.00     0.127 S 
ATOM     84  O   UNL A   1      42.661  27.795  36.352  1.00  0.00    -0.237 OA
ATOM     85  O   UNL A   1      40.970  26.765  34.890  1.00  0.00    -0.237 OA
ATOM     86  O   UNL A   1      41.329  25.877  37.152  1.00  0.00    -0.744 OA
ENDBRANCH  80  83
ENDBRANCH  62  76
BRANCH  63  87
ATOM     87  C   UNL A   1      48.628  26.825  24.632  1.00  0.00     0.023 A 
ATOM     88  C   UNL A   1      47.744  27.457  23.739  1.00  0.00     0.012 A 
ATOM     89  C   UNL A   1      49.967  26.611  24.240  1.00  0.00     0.148 A 
ATOM     90  C   UNL A   1      48.183  27.862  22.477  1.00  0.00     0.002 A 
ATOM     91  C   UNL A   1      50.414  27.078  23.011  1.00  0.00     0.091 A 
ATOM     92  F   UNL A   1      50.788  25.990  25.098  1.00  0.00    -0.205 F 
ATOM     93  C   UNL A   1      49.519  27.687  22.121  1.00  0.00     0.022 A 
BRANCH  91  94
ATOM     94  S   UNL A   1      52.145  27.040  22.534  1.00  0.00     0.127 S 
ATOM     95  O   UNL A   1      52.065  26.588  21.147  1.00  0.00    -0.237 OA
ATOM     96  O   UNL A   1      52.532  28.442  22.705  1.00  0.00    -0.237 OA
ATOM     97  O   UNL A   1      52.795  26.121  23.459  1.00  0.00    -0.744 OA
ENDBRANCH  91  94
ENDBRANCH  63  87
BRANCH  75  98
ATOM     98  C   UNL A   1      49.845  29.389  31.021  1.00  0.00     0.023 A 
ATOM     99  C   UNL A   1      49.394  30.723  31.014  1.00  0.00     0.012 A 
ATOM    100  C   UNL A   1      51.100  29.086  31.585  1.00  0.00     0.148 A 
ATOM    101  C   UNL A   1      50.189  31.742  31.538  1.00  0.00     0.002 A 
ATOM    102  C   UNL A   1      51.865  30.098  32.151  1.00  0.00     0.091 A 
ATOM    103  F   UNL A   1      51.518  27.811  31.566  1.00  0.00    -0.205 F 
ATOM    104  C   UNL A   1      51.417  31.429  32.117  1.00  0.00     0.022 A 
BRANCH 102 105
ATOM    105  S   UNL A   1      53.415  29.782  33.001  1.00  0.00     0.127 S 
ATOM    106  O   UNL A   1      54.268  29.322  31.904  1.00  0.00    -0.237 OA
ATOM    107  O   UNL A   1      53.754  31.105  33.524  1.00  0.00    -0.237 OA
ATOM    108  O   UNL A   1      53.124  28.780  34.018  1.00  0.00    -0.744 OA
ENDBRANCH 102 105
ENDBRANCH  75  98
ENDBRANCH  49  50
ENDBRANCH  42  44
ENDBRANCH  41  42
ENDBRANCH  40  41
ENDBRANCH  39  40
ENDBRANCH  38  39
ENDBRANCH  37  38
ENDBRANCH   1  37
TORSDOF 25
ENDMDL
MODEL 2
REMARK VINA RESULT:      -9.4      4.416      7.800
REMARK SMILES Cn1cc(C(c2ccccc2OCC(=O)OCCOCCOCCOC(=O)c2ccc(-c3c4nc(c(-c5cccc(S(=O)(=O)[O-])c5F)c5ccc([nH]5)c(-c5cccc(S(=O)(=O)[O-])c5F)c5nc(c(-c6cccc(S(=O)(=O)[O-])c6F)c6ccc3[nH]6)C=C5)C=C4)cc2)c2cn(C)c3ccccc23)c2ccccc21
REMARK SMILES IDX 20 1 19 2 18 3 17 4 16 5 14 6 15 7 13 8 12 9 11 10 6 11 7 12
REMARK SMILES IDX 8 13 10 14 9 15 5 16 4 17 1 18 2 19 3 20 106 21 101 22
REMARK SMILES IDX 105 23 102 24 104 25 103 26 91 27 92 28 100 29 93 30 95 31
REMARK SMILES IDX 99 32 94 33 96 34 98 35 97 36 21 37 22 38 23 39 24 40 25 41
REMARK SMILES IDX 26 42 27 43 28 44 29 45 90 46 30 47 89 48 31 49 32 50 33 51
REMARK SMILES IDX 83 52 34 53 88 54 82 55 84 56 35 57 87 58 81 59 80 60 36 62
REMARK SMILES IDX 68 63 48 64 67 65 49 66 52 67 66 68 85 69 50 70 51 71 65 73
REMARK SMILES IDX 86 74 53 75 37 76 38 77 46 78 39 79 41 80 47 81 40 82 42 83
REMARK SMILES IDX 43 84 44 85 45 86 69 87 70 88 78 89 71 90 73 91 79 92 72 93
REMARK SMILES IDX 74 94 75 95 76 96 77 97 54 98 55 99 63 100 56 101 58 102
REMARK SMILES IDX 64 103 57 104 59 105 60 106 61 107 62 108
REMARK H PARENT 84 61 52 72
REMARK Flexibility Score: inf
ROOT
ATOM      1  C   UNL A   1      34.459  33.649  33.426  1.00  0.00     0.188 C 
ENDROOT
BRANCH   1   2
ATOM      2  O   UNL A   1      33.813  34.543  32.515  1.00  0.00    -0.376 OA
BRANCH   2   3
ATOM      3  C   UNL A   1      34.160  34.388  31.153  1.00  0.00     0.202 C 
BRANCH   3   4
ATOM      4  C   UNL A   1      34.759  33.010  30.774  1.00  0.00     0.261 C 
BRANCH   4   5
ATOM      5  O   UNL A   1      35.811  32.863  29.795  1.00  0.00    -0.461 OA
BRANCH   5   6
ATOM      6  C   UNL A   1      36.733  31.919  30.090  1.00  0.00     0.344 C 
ATOM      7  O   UNL A   1      36.529  31.077  30.929  1.00  0.00    -0.248 OA
BRANCH   6   8
ATOM      8  C   UNL A   1      38.070  32.089  29.369  1.00  0.00     0.351 C 
BRANCH   8   9
ATOM      9  O   UNL A   1      39.337  31.530  29.576  1.00  0.00    -0.482 OA
BRANCH   9  10
ATOM     10  C   UNL A   1      40.281  32.261  30.224  1.00  0.00     0.124 A 
ATOM     11  C   UNL A   1      41.667  32.040  30.345  1.00  0.00     0.006 A 
ATOM     12  C   UNL A   1      42.314  33.014  31.189  1.00  0.00     0.008 A 
ATOM     13  C   UNL A   1      41.690  34.085  31.846  1.00  0.00     0.001 A 
ATOM     14  C   UNL A   1      39.637  33.312  30.953  1.00  0.00     0.047 A 
ATOM     15  C   UNL A   1      40.328  34.225  31.742  1.00  0.00     0.004 A 
BRANCH  11  16
ATOM     16  C   UNL A   1      42.668  30.948  29.873  1.00  0.00     0.087 C 
BRANCH  16  17
ATOM     17  C   UNL A   1      44.159  31.186  29.611  1.00  0.00    -0.010 A 
ATOM     18  C   UNL A   1      46.695  32.244  27.223  1.00  0.00     0.149 C 
ATOM     19  N   UNL A   1      45.950  31.811  28.386  1.00  0.00    -0.350 N 
ATOM     20  C   UNL A   1      44.606  32.004  28.563  1.00  0.00     0.091 A 
ATOM     21  C   UNL A   1      46.425  30.976  29.371  1.00  0.00     0.048 A 
ATOM     22  C   UNL A   1      45.378  30.811  30.298  1.00  0.00     0.004 A 
ATOM     23  C   UNL A   1      47.643  30.282  29.470  1.00  0.00     0.027 A 
ATOM     24  C   UNL A   1      45.683  30.150  31.510  1.00  0.00     0.010 A 
ATOM     25  C   UNL A   1      47.830  29.457  30.576  1.00  0.00     0.002 A 
ATOM     26  C   UNL A   1      46.899  29.443  31.612  1.00  0.00     0.001 A 
ENDBRANCH  16  17
BRANCH  16  27
ATOM     27  C   UNL A   1      42.042  29.924  28.960  1.00  0.00    -0.010 A 
ATOM     28  C   UNL A   1      42.523  29.730  27.672  1.00  0.00     0.091 A 
ATOM     29  C   UNL A   1      41.029  28.916  29.152  1.00  0.00     0.004 A 
ATOM     30  N   UNL A   1      41.754  28.807  27.041  1.00  0.00    -0.350 N 
ATOM     31  C   UNL A   1      40.834  28.282  27.917  1.00  0.00     0.048 A 
ATOM     32  C   UNL A   1      40.252  28.456  30.242  1.00  0.00     0.010 A 
ATOM     33  C   UNL A   1      41.899  28.453  25.649  1.00  0.00     0.149 C 
ATOM     34  C   UNL A   1      39.855  27.296  27.723  1.00  0.00     0.027 A 
ATOM     35  C   UNL A   1      39.321  27.428  30.076  1.00  0.00     0.001 A 
ATOM     36  C   UNL A   1      39.104  26.879  28.823  1.00  0.00     0.002 A 
ENDBRANCH  16  27
ENDBRANCH  11  16
ENDBRANCH   9  10
ENDBRANCH   8   9
ENDBRANCH   6   8
ENDBRANCH   5   6
ENDBRANCH   4   5
ENDBRANCH   3   4
ENDBRANCH   2   3
ENDBRANCH   1   2
BRANCH   1  37
ATOM     37  C   UNL A   1      35.296  34.403  34.479  1.00  0.00     0.188 C 
BRANCH  37  38
ATOM     38  O   UNL A   1      36.560  34.916  34.085  1.00  0.00    -0.376 OA
BRANCH  38  39
ATOM     39  C   UNL A   1      37.659  34.076  34.391  1.00  0.00     0.202 C 
BRANCH  39  40
ATOM     40  C   UNL A   1      37.525  32.586  34.028  1.00  0.00     0.261 C 
BRANCH  40  41
ATOM     41  O   UNL A   1      38.766  31.901  33.719  1.00  0.00    -0.460 OA
BRANCH  41  42
ATOM     42  C   UNL A   1      39.019  30.779  34.442  1.00  0.00     0.338 C 
ATOM     43  O   UNL A   1      38.425  30.433  35.453  1.00  0.00    -0.246 OA
BRANCH  42  44
ATOM     44  C   UNL A   1      40.119  29.942  33.886  1.00  0.00     0.060 A 
ATOM     45  C   UNL A   1      40.038  28.552  33.827  1.00  0.00     0.016 A 
ATOM     46  C   UNL A   1      41.360  30.538  33.659  1.00  0.00     0.016 A 
ATOM     47  C   UNL A   1      41.193  27.770  33.695  1.00  0.00     0.010 A 
ATOM     48  C   UNL A   1      42.497  29.749  33.411  1.00  0.00     0.010 A 
ATOM     49  C   UNL A   1      42.444  28.345  33.475  1.00  0.00    -0.014 A 
BRANCH  49  50
ATOM     50  C   UNL A   1      43.684  27.515  33.340  1.00  0.00     0.031 A 
ATOM     51  C   UNL A   1      44.554  27.255  34.546  1.00  0.00     0.074 A 
ATOM     52  C   UNL A   1      44.080  27.010  32.151  1.00  0.00     0.049 A 
ATOM     53  N   UNL A   1      45.817  26.923  34.606  1.00  0.00    -0.248 NA
ATOM     54  C   UNL A   1      43.908  27.395  35.861  1.00  0.00     0.031 C 
ATOM     55  C   UNL A   1      43.319  27.046  30.902  1.00  0.00     0.029 A 
ATOM     56  N   UNL A   1      45.270  26.409  31.791  1.00  0.00    -0.354 N 
ATOM     57  C   UNL A   1      46.147  26.915  35.958  1.00  0.00     0.074 A 
ATOM     58  C   UNL A   1      44.935  27.235  36.684  1.00  0.00     0.031 C 
ATOM     59  C   UNL A   1      44.061  26.530  29.914  1.00  0.00     0.029 A 
ATOM     60  C   UNL A   1      45.397  26.259  30.427  1.00  0.00     0.049 A 
ATOM     61  H   UNL A   1      45.954  26.121  32.437  1.00  0.00     0.167 HD
ATOM     62  C   UNL A   1      47.353  26.684  36.535  1.00  0.00     0.034 A 
ATOM     63  C   UNL A   1      46.476  26.052  29.647  1.00  0.00     0.034 A 
ATOM     64  C   UNL A   1      48.537  26.312  35.804  1.00  0.00     0.049 A 
ATOM     65  C   UNL A   1      47.827  25.898  30.281  1.00  0.00     0.074 A 
ATOM     66  C   UNL A   1      49.801  26.031  36.294  1.00  0.00     0.029 A 
ATOM     67  N   UNL A   1      48.607  26.176  34.426  1.00  0.00    -0.354 N 
ATOM     68  N   UNL A   1      48.146  25.906  31.551  1.00  0.00    -0.248 NA
ATOM     69  C   UNL A   1      48.968  25.702  29.375  1.00  0.00     0.031 C 
ATOM     70  C   UNL A   1      50.646  25.776  35.208  1.00  0.00     0.029 A 
ATOM     71  C   UNL A   1      49.898  25.850  34.045  1.00  0.00     0.049 A 
ATOM     72  H   UNL A   1      47.850  26.293  33.809  1.00  0.00     0.167 HD
ATOM     73  C   UNL A   1      49.519  25.702  31.601  1.00  0.00     0.074 A 
ATOM     74  C   UNL A   1      49.969  25.548  30.233  1.00  0.00     0.031 C 
ATOM     75  C   UNL A   1      50.336  25.664  32.683  1.00  0.00     0.034 A 
BRANCH  62  76
ATOM     76  C   UNL A   1      47.468  26.885  38.026  1.00  0.00     0.023 A 
ATOM     77  C   UNL A   1      47.295  25.807  38.916  1.00  0.00     0.012 A 
ATOM     78  C   UNL A   1      47.781  28.160  38.543  1.00  0.00     0.148 A 
ATOM     79  C   UNL A   1      47.380  26.005  40.296  1.00  0.00     0.002 A 
ATOM     80  C   UNL A   1      47.910  28.340  39.915  1.00  0.00     0.091 A 
ATOM     81  F   UNL A   1      47.928  29.179  37.685  1.00  0.00    -0.205 F 
ATOM     82  C   UNL A   1      47.695  27.267  40.794  1.00  0.00     0.022 A 
BRANCH  80  83
ATOM     83  S   UNL A   1      48.390  29.911  40.644  1.00  0.00     0.127 S 
ATOM     84  O   UNL A   1      49.648  30.187  39.951  1.00  0.00    -0.237 OA
ATOM     85  O   UNL A   1      47.278  30.782  40.258  1.00  0.00    -0.237 OA
ATOM     86  O   UNL A   1      48.502  29.673  42.076  1.00  0.00    -0.744 OA
ENDBRANCH  80  83
ENDBRANCH  62  76
BRANCH  63  87
ATOM     87  C   UNL A   1      46.315  26.074  28.164  1.00  0.00     0.023 A 
ATOM     88  C   UNL A   1      46.587  27.253  27.445  1.00  0.00     0.012 A 
ATOM     89  C   UNL A   1      45.960  24.904  27.459  1.00  0.00     0.148 A 
ATOM     90  C   UNL A   1      46.499  27.267  26.052  1.00  0.00     0.002 A 
ATOM     91  C   UNL A   1      45.943  24.907  26.070  1.00  0.00     0.091 A 
ATOM     92  F   UNL A   1      45.687  23.796  28.163  1.00  0.00    -0.205 F 
ATOM     93  C   UNL A   1      46.194  26.093  25.365  1.00  0.00     0.022 A 
BRANCH  91  94
ATOM     94  S   UNL A   1      45.718  23.412  25.102  1.00  0.00     0.127 S 
ATOM     95  O   UNL A   1      46.395  22.415  25.927  1.00  0.00    -0.237 OA
ATOM     96  O   UNL A   1      44.259  23.296  25.067  1.00  0.00    -0.237 OA
ATOM     97  O   UNL A   1      46.331  23.678  23.807  1.00  0.00    -0.744 OA
ENDBRANCH  91  94
ENDBRANCH  63  87
BRANCH  75  98
ATOM     98  C   UNL A   1      51.802  25.416  32.445  1.00  0.00     0.023 A 
ATOM     99  C   UNL A   1      52.634  26.473  32.027  1.00  0.00     0.012 A 
ATOM    100  C   UNL A   1      52.369  24.154  32.714  1.00  0.00     0.148 A 
ATOM    101  C   UNL A   1      54.004  26.272  31.856  1.00  0.00     0.002 A 
ATOM    102  C   UNL A   1      53.741  23.974  32.590  1.00  0.00     0.091 A 
ATOM    103  F   UNL A   1      51.556  23.157  33.094  1.00  0.00    -0.205 F 
ATOM    104  C   UNL A   1      54.559  25.028  32.149  1.00  0.00     0.022 A 
BRANCH 102 105
ATOM    105  S   UNL A   1      54.560  22.437  33.031  1.00  0.00     0.127 S 
ATOM    106  O   UNL A   1      55.964  22.848  33.070  1.00  0.00    -0.237 OA
ATOM    107  O   UNL A   1      53.975  22.141  34.339  1.00  0.00    -0.237 OA
ATOM    108  O   UNL A   1      54.224  21.483  31.983  1.00  0.00    -0.744 OA
ENDBRANCH 102 105
ENDBRANCH  75  98
ENDBRANCH  49  50
ENDBRANCH  42  44
ENDBRANCH  41  42
ENDBRANCH  40  41
ENDBRANCH  39  40
ENDBRANCH  38  39
ENDBRANCH  37  38
ENDBRANCH   1  37
TORSDOF 25
ENDMDL
MODEL 3
REMARK VINA RESULT:      -9.3      4.428      5.917
REMARK SMILES Cn1cc(C(c2ccccc2OCC(=O)OCCOCCOCCOC(=O)c2ccc(-c3c4nc(c(-c5cccc(S(=O)(=O)[O-])c5F)c5ccc([nH]5)c(-c5cccc(S(=O)(=O)[O-])c5F)c5nc(c(-c6cccc(S(=O)(=O)[O-])c6F)c6ccc3[nH]6)C=C5)C=C4)cc2)c2cn(C)c3ccccc23)c2ccccc21
REMARK SMILES IDX 20 1 19 2 18 3 17 4 16 5 14 6 15 7 13 8 12 9 11 10 6 11 7 12
REMARK SMILES IDX 8 13 10 14 9 15 5 16 4 17 1 18 2 19 3 20 106 21 101 22
REMARK SMILES IDX 105 23 102 24 104 25 103 26 91 27 92 28 100 29 93 30 95 31
REMARK SMILES IDX 99 32 94 33 96 34 98 35 97 36 21 37 22 38 23 39 24 40 25 41
REMARK SMILES IDX 26 42 27 43 28 44 29 45 90 46 30 47 89 48 31 49 32 50 33 51
REMARK SMILES IDX 83 52 34 53 88 54 82 55 84 56 35 57 87 58 81 59 80 60 36 62
REMARK SMILES IDX 68 63 48 64 67 65 49 66 52 67 66 68 85 69 50 70 51 71 65 73
REMARK SMILES IDX 86 74 53 75 37 76 38 77 46 78 39 79 41 80 47 81 40 82 42 83
REMARK SMILES IDX 43 84 44 85 45 86 69 87 70 88 78 89 71 90 73 91 79 92 72 93
REMARK SMILES IDX 74 94 75 95 76 96 77 97 54 98 55 99 63 100 56 101 58 102
REMARK SMILES IDX 64 103 57 104 59 105 60 106 61 107 62 108
REMARK H PARENT 84 61 52 72
REMARK Flexibility Score: inf
ROOT
ATOM      1  C   UNL A   1      33.771  24.998  23.678  1.00  0.00     0.188 C 
ENDROOT
BRANCH   1   2
ATOM      2  O   UNL A   1      33.310  25.355  24.985  1.00  0.00    -0.376 OA
BRANCH   2   3
ATOM      3  C   UNL A   1      32.416  26.450  25.042  1.00  0.00     0.202 C 
BRANCH   3   4
ATOM      4  C   UNL A   1      33.069  27.824  25.330  1.00  0.00     0.261 C 
BRANCH   4   5
ATOM      5  O   UNL A   1      34.109  27.999  26.318  1.00  0.00    -0.461 OA
BRANCH   5   6
ATOM      6  C   UNL A   1      34.182  29.239  26.852  1.00  0.00     0.344 C 
ATOM      7  O   UNL A   1      33.289  30.038  26.719  1.00  0.00    -0.248 OA
BRANCH   6   8
ATOM      8  C   UNL A   1      35.519  29.567  27.518  1.00  0.00     0.351 C 
BRANCH   8   9
ATOM      9  O   UNL A   1      36.011  29.352  28.811  1.00  0.00    -0.482 OA
BRANCH   9  10
ATOM     10  C   UNL A   1      37.312  29.637  29.075  1.00  0.00     0.124 A 
ATOM     11  C   UNL A   1      37.870  30.466  30.069  1.00  0.00     0.006 A 
ATOM     12  C   UNL A   1      39.305  30.568  29.967  1.00  0.00     0.008 A 
ATOM     13  C   UNL A   1      40.113  29.939  29.009  1.00  0.00     0.001 A 
ATOM     14  C   UNL A   1      38.134  29.055  28.057  1.00  0.00     0.047 A 
ATOM     15  C   UNL A   1      39.517  29.186  28.027  1.00  0.00     0.004 A 
BRANCH  11  16
ATOM     16  C   UNL A   1      37.318  31.381  31.198  1.00  0.00     0.087 C 
BRANCH  16  17
ATOM     17  C   UNL A   1      36.089  32.286  31.063  1.00  0.00    -0.010 A 
ATOM     18  C   UNL A   1      33.907  34.134  28.810  1.00  0.00     0.149 C 
ATOM     19  N   UNL A   1      34.548  33.496  29.940  1.00  0.00    -0.350 N 
ATOM     20  C   UNL A   1      35.406  32.433  29.847  1.00  0.00     0.091 A 
ATOM     21  C   UNL A   1      34.559  33.981  31.228  1.00  0.00     0.048 A 
ATOM     22  C   UNL A   1      35.297  33.060  31.997  1.00  0.00     0.004 A 
ATOM     23  C   UNL A   1      34.070  35.189  31.753  1.00  0.00     0.027 A 
ATOM     24  C   UNL A   1      35.286  33.233  33.400  1.00  0.00     0.010 A 
ATOM     25  C   UNL A   1      34.270  35.434  33.109  1.00  0.00     0.002 A 
ATOM     26  C   UNL A   1      34.806  34.447  33.933  1.00  0.00     0.001 A 
ENDBRANCH  16  17
BRANCH  16  27
ATOM     27  C   UNL A   1      38.397  31.943  32.089  1.00  0.00    -0.010 A 
ATOM     28  C   UNL A   1      39.078  33.101  31.738  1.00  0.00     0.091 A 
ATOM     29  C   UNL A   1      38.871  31.596  33.405  1.00  0.00     0.004 A 
ATOM     30  N   UNL A   1      40.033  33.357  32.667  1.00  0.00    -0.350 N 
ATOM     31  C   UNL A   1      39.933  32.462  33.706  1.00  0.00     0.048 A 
ATOM     32  C   UNL A   1      38.517  30.647  34.393  1.00  0.00     0.010 A 
ATOM     33  C   UNL A   1      41.005  34.419  32.552  1.00  0.00     0.149 C 
ATOM     34  C   UNL A   1      40.684  32.352  34.886  1.00  0.00     0.027 A 
ATOM     35  C   UNL A   1      39.215  30.571  35.600  1.00  0.00     0.001 A 
ATOM     36  C   UNL A   1      40.306  31.394  35.827  1.00  0.00     0.002 A 
ENDBRANCH  16  27
ENDBRANCH  11  16
ENDBRANCH   9  10
ENDBRANCH   8   9
ENDBRANCH   6   8
ENDBRANCH   5   6
ENDBRANCH   4   5
ENDBRANCH   3   4
ENDBRANCH   2   3
ENDBRANCH   1   2
BRANCH   1  37
ATOM     37  C   UNL A   1      34.583  23.687  23.691  1.00  0.00     0.188 C 
BRANCH  37  38
ATOM     38  O   UNL A   1      34.674  22.971  24.914  1.00  0.00    -0.376 OA
BRANCH  38  39
ATOM     39  C   UNL A   1      35.553  23.541  25.866  1.00  0.00     0.202 C 
BRANCH  39  40
ATOM     40  C   UNL A   1      37.017  23.063  25.842  1.00  0.00     0.261 C 
BRANCH  40  41
ATOM     41  O   UNL A   1      37.977  23.949  26.473  1.00  0.00    -0.460 OA
BRANCH  41  42
ATOM     42  C   UNL A   1      39.216  23.431  26.680  1.00  0.00     0.338 C 
ATOM     43  O   UNL A   1      39.534  22.261  26.525  1.00  0.00    -0.246 OA
BRANCH  42  44
ATOM     44  C   UNL A   1      40.224  24.438  27.115  1.00  0.00     0.060 A 
ATOM     45  C   UNL A   1      41.550  24.396  26.689  1.00  0.00     0.016 A 
ATOM     46  C   UNL A   1      39.900  25.288  28.173  1.00  0.00     0.016 A 
ATOM     47  C   UNL A   1      42.554  25.068  27.397  1.00  0.00     0.010 A 
ATOM     48  C   UNL A   1      40.897  26.052  28.806  1.00  0.00     0.010 A 
ATOM     49  C   UNL A   1      42.254  25.917  28.462  1.00  0.00    -0.014 A 
BRANCH  49  50
ATOM     50  C   UNL A   1      43.324  26.634  29.227  1.00  0.00     0.031 A 
ATOM     51  C   UNL A   1      43.998  25.957  30.396  1.00  0.00     0.074 A 
ATOM     52  C   UNL A   1      43.691  27.899  28.929  1.00  0.00     0.049 A 
ATOM     53  N   UNL A   1      44.634  26.484  31.410  1.00  0.00    -0.248 NA
ATOM     54  C   UNL A   1      43.941  24.487  30.423  1.00  0.00     0.031 C 
ATOM     55  C   UNL A   1      43.249  28.674  27.769  1.00  0.00     0.029 A 
ATOM     56  N   UNL A   1      44.490  28.783  29.627  1.00  0.00    -0.354 N 
ATOM     57  C   UNL A   1      44.962  25.423  32.249  1.00  0.00     0.074 A 
ATOM     58  C   UNL A   1      44.490  24.217  31.600  1.00  0.00     0.031 C 
ATOM     59  C   UNL A   1      43.746  29.915  27.848  1.00  0.00     0.029 A 
ATOM     60  C   UNL A   1      44.421  30.066  29.129  1.00  0.00     0.049 A 
ATOM     61  H   UNL A   1      45.046  28.526  30.396  1.00  0.00     0.167 HD
ATOM     62  C   UNL A   1      45.579  25.458  33.457  1.00  0.00     0.034 A 
ATOM     63  C   UNL A   1      44.743  31.255  29.675  1.00  0.00     0.034 A 
ATOM     64  C   UNL A   1      46.092  26.658  34.065  1.00  0.00     0.049 A 
ATOM     65  C   UNL A   1      45.332  31.299  31.055  1.00  0.00     0.074 A 
ATOM     66  C   UNL A   1      46.756  26.798  35.272  1.00  0.00     0.029 A 
ATOM     67  N   UNL A   1      45.994  27.928  33.517  1.00  0.00    -0.354 N 
ATOM     68  N   UNL A   1      45.628  30.305  31.855  1.00  0.00    -0.248 NA
ATOM     69  C   UNL A   1      45.636  32.627  31.606  1.00  0.00     0.031 C 
ATOM     70  C   UNL A   1      47.012  28.158  35.477  1.00  0.00     0.029 A 
ATOM     71  C   UNL A   1      46.552  28.861  34.376  1.00  0.00     0.049 A 
ATOM     72  H   UNL A   1      45.588  28.136  32.645  1.00  0.00     0.167 HD
ATOM     73  C   UNL A   1      46.166  30.883  32.998  1.00  0.00     0.074 A 
ATOM     74  C   UNL A   1      46.180  32.315  32.775  1.00  0.00     0.031 C 
ATOM     75  C   UNL A   1      46.595  30.283  34.136  1.00  0.00     0.034 A 
BRANCH  62  76
ATOM     76  C   UNL A   1      45.681  24.166  34.230  1.00  0.00     0.023 A 
ATOM     77  C   UNL A   1      44.538  23.568  34.794  1.00  0.00     0.012 A 
ATOM     78  C   UNL A   1      46.932  23.528  34.373  1.00  0.00     0.148 A 
ATOM     79  C   UNL A   1      44.643  22.386  35.529  1.00  0.00     0.002 A 
ATOM     80  C   UNL A   1      47.023  22.326  35.066  1.00  0.00     0.091 A 
ATOM     81  F   UNL A   1      48.014  24.116  33.844  1.00  0.00    -0.205 F 
ATOM     82  C   UNL A   1      45.883  21.761  35.659  1.00  0.00     0.022 A 
BRANCH  80  83
ATOM     83  S   UNL A   1      48.561  21.411  35.217  1.00  0.00     0.127 S 
ATOM     84  O   UNL A   1      48.146  20.266  36.025  1.00  0.00    -0.237 OA
ATOM     85  O   UNL A   1      48.869  21.092  33.821  1.00  0.00    -0.237 OA
ATOM     86  O   UNL A   1      49.508  22.317  35.852  1.00  0.00    -0.744 OA
ENDBRANCH  80  83
ENDBRANCH  62  76
BRANCH  63  87
ATOM     87  C   UNL A   1      44.419  32.508  28.933  1.00  0.00     0.023 A 
ATOM     88  C   UNL A   1      43.246  33.221  29.236  1.00  0.00     0.012 A 
ATOM     89  C   UNL A   1      45.313  33.029  27.972  1.00  0.00     0.148 A 
ATOM     90  C   UNL A   1      42.964  34.427  28.590  1.00  0.00     0.002 A 
ATOM     91  C   UNL A   1      45.061  34.262  27.385  1.00  0.00     0.091 A 
ATOM     92  F   UNL A   1      46.416  32.325  27.684  1.00  0.00    -0.205 F 
ATOM     93  C   UNL A   1      43.877  34.954  27.680  1.00  0.00     0.022 A 
BRANCH  91  94
ATOM     94  S   UNL A   1      46.251  35.091  26.326  1.00  0.00     0.127 S 
ATOM     95  O   UNL A   1      46.067  34.387  25.059  1.00  0.00    -0.237 OA
ATOM     96  O   UNL A   1      45.757  36.469  26.344  1.00  0.00    -0.237 OA
ATOM     97  O   UNL A   1      47.548  34.909  26.964  1.00  0.00    -0.744 OA
ENDBRANCH  91  94
ENDBRANCH  63  87
BRANCH  75  98
ATOM     98  C   UNL A   1      47.146  31.162  35.227  1.00  0.00     0.023 A 
ATOM     99  C   UNL A   1      48.518  31.480  35.247  1.00  0.00     0.012 A 
ATOM    100  C   UNL A   1      46.288  31.736  36.188  1.00  0.00     0.148 A 
ATOM    101  C   UNL A   1      49.032  32.337  36.220  1.00  0.00     0.002 A 
ATOM    102  C   UNL A   1      46.799  32.628  37.122  1.00  0.00     0.091 A 
ATOM    103  F   UNL A   1      44.989  31.405  36.161  1.00  0.00    -0.205 F 
ATOM    104  C   UNL A   1      48.173  32.920  37.149  1.00  0.00     0.022 A 
BRANCH 102 105
ATOM    105  S   UNL A   1      45.758  33.499  38.299  1.00  0.00     0.127 S 
ATOM    106  O   UNL A   1      46.740  34.295  39.034  1.00  0.00    -0.237 OA
ATOM    107  O   UNL A   1      44.880  34.271  37.420  1.00  0.00    -0.237 OA
ATOM    108  O   UNL A   1      45.085  32.472  39.083  1.00  0.00    -0.744 OA
ENDBRANCH 102 105
ENDBRANCH  75  98
ENDBRANCH  49  50
ENDBRANCH  42  44
ENDBRANCH  41  42
ENDBRANCH  40  41
ENDBRANCH  39  40
ENDBRANCH  38  39
ENDBRANCH  37  38
ENDBRANCH   1  37
TORSDOF 25
ENDMDL
