MODEL 1
REMARK VINA RESULT:     -10.7      0.000      0.000
REMARK SMILES O=C(OCCOCCOCCOC(=O)c1nnn(-c2ccc(C(F)(F)F)cc2)c1-c1cccc(Cl)c1)c1ccc(-c2c3nc(c(-c4cccc(S(=O)(=O)[O-])c4F)c4ccc([nH]4)c(-c4cccc(S(=O)(=O)[O-])c4F)c4nc(c(-c5cccc(S(=O)(=O)[O-])c5F)c5ccc2[nH]5)C=C4)C=C3)cc1
REMARK SMILES IDX 7 1 6 2 5 3 4 4 3 5 2 6 1 7 37 8 38 9 99 10 39 11 98 12
REMARK SMILES IDX 40 13 41 14 42 15 92 16 43 17 97 18 91 19 93 20 44 21 96 22
REMARK SMILES IDX 90 23 89 24 45 26 77 27 57 28 76 29 58 30 61 31 75 32 94 33
REMARK SMILES IDX 59 34 60 35 74 37 95 38 62 39 46 40 47 41 55 42 48 43 50 44
REMARK SMILES IDX 56 45 49 46 51 47 52 48 53 49 54 50 78 51 79 52 87 53 80 54
REMARK SMILES IDX 82 55 88 56 81 57 83 58 84 59 85 60 86 61 63 62 64 63 72 64
REMARK SMILES IDX 65 65 67 66 73 67 66 68 68 69 69 70 70 71 71 72 8 73 9 74
REMARK SMILES IDX 10 75 11 76 12 77 13 78 14 79 15 80 16 81 29 82 17 83 18 84
REMARK SMILES IDX 30 85 31 86 36 87 32 88 34 89 33 90 35 91 19 92 20 93 28 94
REMARK SMILES IDX 21 95 27 96 22 97 23 98 24 99 25 100 26 101
REMARK H PARENT 93 25 61 36
REMARK Flexibility Score: inf
ROOT
ATOM      1  C   UNL A   1      38.820  19.622  25.209  1.00  0.00     0.188 C 
ENDROOT
BRANCH   1   2
ATOM      2  O   UNL A   1      39.676  19.834  26.327  1.00  0.00    -0.376 OA
BRANCH   2   3
ATOM      3  C   UNL A   1      41.064  19.708  26.055  1.00  0.00     0.202 C 
BRANCH   3   4
ATOM      4  C   UNL A   1      41.911  20.744  26.792  1.00  0.00     0.261 C 
BRANCH   4   5
ATOM      5  O   UNL A   1      41.600  22.122  26.512  1.00  0.00    -0.460 OA
BRANCH   5   6
ATOM      6  C   UNL A   1      40.771  23.003  27.103  1.00  0.00     0.338 C 
ATOM      7  O   UNL A   1      39.587  22.698  27.241  1.00  0.00    -0.246 OA
BRANCH   6   8
ATOM      8  C   UNL A   1      41.180  24.383  27.466  1.00  0.00     0.060 A 
ATOM      9  C   UNL A   1      41.998  24.711  28.547  1.00  0.00     0.016 A 
ATOM     10  C   UNL A   1      40.607  25.421  26.703  1.00  0.00     0.016 A 
ATOM     11  C   UNL A   1      42.200  26.039  28.896  1.00  0.00     0.010 A 
ATOM     12  C   UNL A   1      40.782  26.751  27.065  1.00  0.00     0.010 A 
ATOM     13  C   UNL A   1      41.537  27.048  28.198  1.00  0.00    -0.014 A 
BRANCH  13  14
ATOM     14  C   UNL A   1      41.529  28.371  28.807  1.00  0.00     0.031 A 
ATOM     15  C   UNL A   1      42.553  29.355  28.379  1.00  0.00     0.074 A 
ATOM     16  C   UNL A   1      40.589  28.701  29.716  1.00  0.00     0.049 A 
ATOM     17  N   UNL A   1      43.457  29.929  29.109  1.00  0.00    -0.248 NA
ATOM     18  C   UNL A   1      42.598  29.724  26.959  1.00  0.00     0.031 C 
ATOM     19  C   UNL A   1      39.362  27.958  30.026  1.00  0.00     0.029 A 
ATOM     20  N   UNL A   1      40.459  29.848  30.444  1.00  0.00    -0.354 N 
ATOM     21  C   UNL A   1      44.054  30.887  28.288  1.00  0.00     0.074 A 
ATOM     22  C   UNL A   1      43.575  30.633  26.951  1.00  0.00     0.031 C 
ATOM     23  C   UNL A   1      38.502  28.784  30.658  1.00  0.00     0.029 A 
ATOM     24  C   UNL A   1      39.168  30.049  30.909  1.00  0.00     0.049 A 
ATOM     25  H   UNL A   1      41.204  30.467  30.621  1.00  0.00     0.167 HD
ATOM     26  C   UNL A   1      44.752  31.944  28.783  1.00  0.00     0.034 A 
ATOM     27  C   UNL A   1      38.647  31.204  31.378  1.00  0.00     0.034 A 
ATOM     28  C   UNL A   1      45.104  31.783  30.166  1.00  0.00     0.049 A 
ATOM     29  C   UNL A   1      39.762  32.080  31.795  1.00  0.00     0.074 A 
ATOM     30  C   UNL A   1      45.852  30.888  30.901  1.00  0.00     0.029 A 
ATOM     31  N   UNL A   1      44.415  32.540  31.080  1.00  0.00    -0.354 N 
ATOM     32  N   UNL A   1      40.527  31.852  32.825  1.00  0.00    -0.248 NA
ATOM     33  C   UNL A   1      40.257  33.075  30.858  1.00  0.00     0.031 C 
ATOM     34  C   UNL A   1      45.245  30.861  32.189  1.00  0.00     0.029 A 
ATOM     35  C   UNL A   1      44.159  31.740  32.160  1.00  0.00     0.049 A 
ATOM     36  H   UNL A   1      44.152  33.483  30.977  1.00  0.00     0.167 HD
ATOM     37  C   UNL A   1      41.770  32.343  32.453  1.00  0.00     0.074 A 
ATOM     38  C   UNL A   1      41.505  33.209  31.311  1.00  0.00     0.031 C 
ATOM     39  C   UNL A   1      42.924  31.771  32.913  1.00  0.00     0.034 A 
BRANCH  26  40
ATOM     40  C   UNL A   1      44.886  33.287  28.107  1.00  0.00     0.023 A 
ATOM     41  C   UNL A   1      43.705  34.023  27.856  1.00  0.00     0.012 A 
ATOM     42  C   UNL A   1      46.067  33.733  27.478  1.00  0.00     0.148 A 
ATOM     43  C   UNL A   1      43.698  35.130  27.000  1.00  0.00     0.002 A 
ATOM     44  C   UNL A   1      46.071  34.884  26.697  1.00  0.00     0.091 A 
ATOM     45  F   UNL A   1      47.171  32.977  27.519  1.00  0.00    -0.205 F 
ATOM     46  C   UNL A   1      44.885  35.571  26.431  1.00  0.00     0.022 A 
BRANCH  44  47
ATOM     47  S   UNL A   1      47.604  35.526  26.019  1.00  0.00     0.127 S 
ATOM     48  O   UNL A   1      47.191  36.842  25.546  1.00  0.00    -0.237 OA
ATOM     49  O   UNL A   1      48.482  35.535  27.192  1.00  0.00    -0.237 OA
ATOM     50  O   UNL A   1      47.989  34.554  25.002  1.00  0.00    -0.744 OA
ENDBRANCH  44  47
ENDBRANCH  26  40
BRANCH  27  51
ATOM     51  C   UNL A   1      37.248  31.675  31.287  1.00  0.00     0.023 A 
ATOM     52  C   UNL A   1      36.567  32.078  32.449  1.00  0.00     0.012 A 
ATOM     53  C   UNL A   1      36.650  31.943  30.033  1.00  0.00     0.148 A 
ATOM     54  C   UNL A   1      35.335  32.736  32.367  1.00  0.00     0.002 A 
ATOM     55  C   UNL A   1      35.414  32.575  29.957  1.00  0.00     0.091 A 
ATOM     56  F   UNL A   1      37.332  31.662  28.915  1.00  0.00    -0.205 F 
ATOM     57  C   UNL A   1      34.757  32.984  31.123  1.00  0.00     0.022 A 
BRANCH  55  58
ATOM     58  S   UNL A   1      34.618  32.907  28.380  1.00  0.00     0.127 S 
ATOM     59  O   UNL A   1      34.243  31.564  27.935  1.00  0.00    -0.237 OA
ATOM     60  O   UNL A   1      33.498  33.755  28.778  1.00  0.00    -0.237 OA
ATOM     61  O   UNL A   1      35.639  33.541  27.554  1.00  0.00    -0.744 OA
ENDBRANCH  55  58
ENDBRANCH  27  51
BRANCH  39  62
ATOM     62  C   UNL A   1      42.837  30.814  34.079  1.00  0.00     0.023 A 
ATOM     63  C   UNL A   1      42.921  31.269  35.410  1.00  0.00     0.012 A 
ATOM     64  C   UNL A   1      42.471  29.476  33.840  1.00  0.00     0.148 A 
ATOM     65  C   UNL A   1      42.676  30.407  36.481  1.00  0.00     0.002 A 
ATOM     66  C   UNL A   1      42.180  28.634  34.909  1.00  0.00     0.091 A 
ATOM     67  F   UNL A   1      42.381  29.055  32.569  1.00  0.00    -0.205 F 
ATOM     68  C   UNL A   1      42.293  29.092  36.230  1.00  0.00     0.022 A 
BRANCH  66  69
ATOM     69  S   UNL A   1      41.534  26.978  34.646  1.00  0.00     0.127 S 
ATOM     70  O   UNL A   1      40.501  27.205  33.638  1.00  0.00    -0.237 OA
ATOM     71  O   UNL A   1      42.710  26.250  34.163  1.00  0.00    -0.237 OA
ATOM     72  O   UNL A   1      41.061  26.531  35.951  1.00  0.00    -0.744 OA
ENDBRANCH  66  69
ENDBRANCH  39  62
ENDBRANCH  13  14
ENDBRANCH   6   8
ENDBRANCH   5   6
ENDBRANCH   4   5
ENDBRANCH   3   4
ENDBRANCH   2   3
ENDBRANCH   1   2
BRANCH   1  73
ATOM     73  C   UNL A   1      37.911  20.814  24.835  1.00  0.00     0.188 C 
BRANCH  73  74
ATOM     74  O   UNL A   1      36.981  21.415  25.736  1.00  0.00    -0.376 OA
BRANCH  74  75
ATOM     75  C   UNL A   1      35.739  21.901  25.274  1.00  0.00     0.202 C 
BRANCH  75  76
ATOM     76  C   UNL A   1      34.605  20.901  25.494  1.00  0.00     0.261 C 
BRANCH  76  77
ATOM     77  O   UNL A   1      33.613  21.347  26.426  1.00  0.00    -0.458 OA
BRANCH  77  78
ATOM     78  C   UNL A   1      32.366  21.580  25.923  1.00  0.00     0.361 C 
ATOM     79  O   UNL A   1      31.707  20.778  25.259  1.00  0.00    -0.244 OA
BRANCH  78  80
ATOM     80  C   UNL A   1      31.930  22.936  26.173  1.00  0.00     0.198 A 
ATOM     81  N   UNL A   1      31.432  23.390  27.371  1.00  0.00    -0.122 NA
ATOM     82  C   UNL A   1      31.954  23.980  25.264  1.00  0.00     0.109 A 
ATOM     83  N   UNL A   1      31.127  24.676  27.232  1.00  0.00    -0.061 NA
ATOM     84  N   UNL A   1      31.249  24.977  25.923  1.00  0.00    -0.212 N 
BRANCH  82  85
ATOM     85  C   UNL A   1      32.485  24.078  23.907  1.00  0.00     0.004 A 
ATOM     86  C   UNL A   1      32.655  22.922  23.129  1.00  0.00     0.010 A 
ATOM     87  C   UNL A   1      32.822  25.323  23.363  1.00  0.00     0.031 A 
ATOM     88  C   UNL A   1      33.166  23.008  21.833  1.00  0.00     0.002 A 
ATOM     89  C   UNL A   1      33.318  25.403  22.065  1.00  0.00     0.041 A 
ATOM     90  C   UNL A   1      33.496  24.253  21.300  1.00  0.00     0.020 A 
ATOM     91  Cl  UNL A   1      33.716  26.942  21.404  1.00  0.00    -0.084 Cl
ENDBRANCH  82  85
BRANCH  84  92
ATOM     92  C   UNL A   1      30.553  26.045  25.320  1.00  0.00     0.067 A 
ATOM     93  C   UNL A   1      31.103  27.324  25.268  1.00  0.00     0.029 A 
ATOM     94  C   UNL A   1      29.327  25.763  24.703  1.00  0.00     0.029 A 
ATOM     95  C   UNL A   1      30.467  28.292  24.480  1.00  0.00     0.015 A 
ATOM     96  C   UNL A   1      28.684  26.737  23.952  1.00  0.00     0.015 A 
ATOM     97  C   UNL A   1      29.269  28.000  23.797  1.00  0.00     0.056 A 
BRANCH  97  98
ATOM     98  C   UNL A   1      28.637  29.010  22.871  1.00  0.00     0.416 C 
ATOM     99  F   UNL A   1      29.339  29.200  21.723  1.00  0.00    -0.166 F 
ATOM    100  F   UNL A   1      27.379  28.648  22.493  1.00  0.00    -0.166 F 
ATOM    101  F   UNL A   1      28.504  30.247  23.435  1.00  0.00    -0.166 F 
ENDBRANCH  97  98
ENDBRANCH  84  92
ENDBRANCH  78  80
ENDBRANCH  77  78
ENDBRANCH  76  77
ENDBRANCH  75  76
ENDBRANCH  74  75
ENDBRANCH  73  74
ENDBRANCH   1  73
TORSDOF 23
ENDMDL
MODEL 2
REMARK VINA RESULT:     -10.6      2.464      3.429
REMARK SMILES O=C(OCCOCCOCCOC(=O)c1nnn(-c2ccc(C(F)(F)F)cc2)c1-c1cccc(Cl)c1)c1ccc(-c2c3nc(c(-c4cccc(S(=O)(=O)[O-])c4F)c4ccc([nH]4)c(-c4cccc(S(=O)(=O)[O-])c4F)c4nc(c(-c5cccc(S(=O)(=O)[O-])c5F)c5ccc2[nH]5)C=C4)C=C3)cc1
REMARK SMILES IDX 7 1 6 2 5 3 4 4 3 5 2 6 1 7 37 8 38 9 99 10 39 11 98 12
REMARK SMILES IDX 40 13 41 14 42 15 92 16 43 17 97 18 91 19 93 20 44 21 96 22
REMARK SMILES IDX 90 23 89 24 45 26 77 27 57 28 76 29 58 30 61 31 75 32 94 33
REMARK SMILES IDX 59 34 60 35 74 37 95 38 62 39 46 40 47 41 55 42 48 43 50 44
REMARK SMILES IDX 56 45 49 46 51 47 52 48 53 49 54 50 78 51 79 52 87 53 80 54
REMARK SMILES IDX 82 55 88 56 81 57 83 58 84 59 85 60 86 61 63 62 64 63 72 64
REMARK SMILES IDX 65 65 67 66 73 67 66 68 68 69 69 70 70 71 71 72 8 73 9 74
REMARK SMILES IDX 10 75 11 76 12 77 13 78 14 79 15 80 16 81 29 82 17 83 18 84
REMARK SMILES IDX 30 85 31 86 36 87 32 88 34 89 33 90 35 91 19 92 20 93 28 94
REMARK SMILES IDX 21 95 27 96 22 97 23 98 24 99 25 100 26 101
REMARK H PARENT 93 25 61 36
REMARK Flexibility Score: inf
ROOT
ATOM      1  C   UNL A   1      37.412  21.272  25.735  1.00  0.00     0.188 C 
ENDROOT
BRANCH   1   2
ATOM      2  O   UNL A   1      38.710  21.748  25.392  1.00  0.00    -0.376 OA
BRANCH   2   3
ATOM      3  C   UNL A   1      39.428  22.357  26.455  1.00  0.00     0.202 C 
BRANCH   3   4
ATOM      4  C   UNL A   1      40.434  21.412  27.111  1.00  0.00     0.261 C 
BRANCH   4   5
ATOM      5  O   UNL A   1      41.501  20.946  26.264  1.00  0.00    -0.460 OA
BRANCH   5   6
ATOM      6  C   UNL A   1      42.668  21.502  25.885  1.00  0.00     0.338 C 
ATOM      7  O   UNL A   1      43.451  20.829  25.216  1.00  0.00    -0.246 OA
BRANCH   6   8
ATOM      8  C   UNL A   1      43.122  22.833  26.357  1.00  0.00     0.060 A 
ATOM      9  C   UNL A   1      43.782  23.065  27.564  1.00  0.00     0.016 A 
ATOM     10  C   UNL A   1      42.761  23.934  25.553  1.00  0.00     0.016 A 
ATOM     11  C   UNL A   1      44.031  24.363  27.988  1.00  0.00     0.010 A 
ATOM     12  C   UNL A   1      42.982  25.235  25.986  1.00  0.00     0.010 A 
ATOM     13  C   UNL A   1      43.569  25.441  27.233  1.00  0.00    -0.014 A 
BRANCH  13  14
ATOM     14  C   UNL A   1      43.569  26.745  27.882  1.00  0.00     0.031 A 
ATOM     15  C   UNL A   1      44.742  27.633  27.687  1.00  0.00     0.074 A 
ATOM     16  C   UNL A   1      42.511  27.146  28.614  1.00  0.00     0.049 A 
ATOM     17  N   UNL A   1      45.543  28.101  28.592  1.00  0.00    -0.248 NA
ATOM     18  C   UNL A   1      45.085  28.026  26.315  1.00  0.00     0.031 C 
ATOM     19  C   UNL A   1      41.185  26.521  28.665  1.00  0.00     0.029 A 
ATOM     20  N   UNL A   1      42.354  28.285  29.350  1.00  0.00    -0.354 N 
ATOM     21  C   UNL A   1      46.368  29.012  27.932  1.00  0.00     0.074 A 
ATOM     22  C   UNL A   1      46.125  28.835  26.522  1.00  0.00     0.031 C 
ATOM     23  C   UNL A   1      40.302  27.412  29.160  1.00  0.00     0.029 A 
ATOM     24  C   UNL A   1      41.023  28.601  29.578  1.00  0.00     0.049 A 
ATOM     25  H   UNL A   1      43.107  28.824  29.685  1.00  0.00     0.167 HD
ATOM     26  C   UNL A   1      47.056  29.985  28.588  1.00  0.00     0.034 A 
ATOM     27  C   UNL A   1      40.532  29.791  29.988  1.00  0.00     0.034 A 
ATOM     28  C   UNL A   1      47.128  29.761  30.005  1.00  0.00     0.049 A 
ATOM     29  C   UNL A   1      41.626  30.545  30.636  1.00  0.00     0.074 A 
ATOM     30  C   UNL A   1      47.640  28.782  30.830  1.00  0.00     0.029 A 
ATOM     31  N   UNL A   1      46.353  30.562  30.806  1.00  0.00    -0.354 N 
ATOM     32  N   UNL A   1      42.162  30.221  31.780  1.00  0.00    -0.248 NA
ATOM     33  C   UNL A   1      42.377  31.507  29.845  1.00  0.00     0.031 C 
ATOM     34  C   UNL A   1      46.803  28.787  31.982  1.00  0.00     0.029 A 
ATOM     35  C   UNL A   1      45.828  29.768  31.789  1.00  0.00     0.049 A 
ATOM     36  H   UNL A   1      46.203  31.529  30.693  1.00  0.00     0.167 HD
ATOM     37  C   UNL A   1      43.492  30.596  31.662  1.00  0.00     0.074 A 
ATOM     38  C   UNL A   1      43.526  31.508  30.525  1.00  0.00     0.031 C 
ATOM     39  C   UNL A   1      44.482  29.904  32.303  1.00  0.00     0.034 A 
BRANCH  26  40
ATOM     40  C   UNL A   1      47.437  31.323  28.001  1.00  0.00     0.023 A 
ATOM     41  C   UNL A   1      48.741  31.808  28.248  1.00  0.00     0.012 A 
ATOM     42  C   UNL A   1      46.506  32.230  27.452  1.00  0.00     0.148 A 
ATOM     43  C   UNL A   1      49.091  33.138  27.986  1.00  0.00     0.002 A 
ATOM     44  C   UNL A   1      46.883  33.526  27.115  1.00  0.00     0.091 A 
ATOM     45  F   UNL A   1      45.213  31.893  27.374  1.00  0.00    -0.205 F 
ATOM     46  C   UNL A   1      48.166  33.995  27.405  1.00  0.00     0.022 A 
BRANCH  44  47
ATOM     47  S   UNL A   1      45.734  34.628  26.286  1.00  0.00     0.127 S 
ATOM     48  O   UNL A   1      44.781  34.919  27.351  1.00  0.00    -0.237 OA
ATOM     49  O   UNL A   1      46.600  35.746  25.904  1.00  0.00    -0.237 OA
ATOM     50  O   UNL A   1      45.237  33.853  25.155  1.00  0.00    -0.744 OA
ENDBRANCH  44  47
ENDBRANCH  26  40
BRANCH  27  51
ATOM     51  C   UNL A   1      39.225  30.399  29.660  1.00  0.00     0.023 A 
ATOM     52  C   UNL A   1      38.588  30.078  28.448  1.00  0.00     0.012 A 
ATOM     53  C   UNL A   1      38.492  31.120  30.632  1.00  0.00     0.148 A 
ATOM     54  C   UNL A   1      37.261  30.455  28.214  1.00  0.00     0.002 A 
ATOM     55  C   UNL A   1      37.181  31.513  30.385  1.00  0.00     0.091 A 
ATOM     56  F   UNL A   1      39.046  31.340  31.832  1.00  0.00    -0.205 F 
ATOM     57  C   UNL A   1      36.557  31.172  29.180  1.00  0.00     0.022 A 
BRANCH  55  58
ATOM     58  S   UNL A   1      36.233  32.450  31.590  1.00  0.00     0.127 S 
ATOM     59  O   UNL A   1      36.677  31.862  32.856  1.00  0.00    -0.237 OA
ATOM     60  O   UNL A   1      36.701  33.812  31.352  1.00  0.00    -0.237 OA
ATOM     61  O   UNL A   1      34.834  32.188  31.275  1.00  0.00    -0.744 OA
ENDBRANCH  55  58
ENDBRANCH  27  51
BRANCH  39  62
ATOM     62  C   UNL A   1      44.092  28.936  33.394  1.00  0.00     0.023 A 
ATOM     63  C   UNL A   1      43.640  27.635  33.096  1.00  0.00     0.012 A 
ATOM     64  C   UNL A   1      44.370  29.267  34.734  1.00  0.00     0.148 A 
ATOM     65  C   UNL A   1      43.438  26.694  34.107  1.00  0.00     0.002 A 
ATOM     66  C   UNL A   1      44.216  28.311  35.733  1.00  0.00     0.091 A 
ATOM     67  F   UNL A   1      44.813  30.504  35.009  1.00  0.00    -0.205 F 
ATOM     68  C   UNL A   1      43.739  27.028  35.426  1.00  0.00     0.022 A 
BRANCH  66  69
ATOM     69  S   UNL A   1      44.730  28.632  37.424  1.00  0.00     0.127 S 
ATOM     70  O   UNL A   1      44.065  29.901  37.714  1.00  0.00    -0.237 OA
ATOM     71  O   UNL A   1      44.188  27.479  38.147  1.00  0.00    -0.237 OA
ATOM     72  O   UNL A   1      46.187  28.672  37.389  1.00  0.00    -0.744 OA
ENDBRANCH  66  69
ENDBRANCH  39  62
ENDBRANCH  13  14
ENDBRANCH   6   8
ENDBRANCH   5   6
ENDBRANCH   4   5
ENDBRANCH   3   4
ENDBRANCH   2   3
ENDBRANCH   1   2
BRANCH   1  73
ATOM     73  C   UNL A   1      36.351  21.382  24.617  1.00  0.00     0.188 C 
BRANCH  73  74
ATOM     74  O   UNL A   1      34.994  20.969  24.770  1.00  0.00    -0.376 OA
BRANCH  74  75
ATOM     75  C   UNL A   1      34.321  21.139  26.000  1.00  0.00     0.202 C 
BRANCH  75  76
ATOM     76  C   UNL A   1      33.018  21.922  25.847  1.00  0.00     0.261 C 
BRANCH  76  77
ATOM     77  O   UNL A   1      33.178  23.339  25.977  1.00  0.00    -0.458 OA
BRANCH  77  78
ATOM     78  C   UNL A   1      33.325  24.043  24.817  1.00  0.00     0.361 C 
ATOM     79  O   UNL A   1      34.401  24.319  24.284  1.00  0.00    -0.244 OA
BRANCH  78  80
ATOM     80  C   UNL A   1      32.057  24.528  24.318  1.00  0.00     0.198 A 
ATOM     81  N   UNL A   1      31.250  23.847  23.438  1.00  0.00    -0.122 NA
ATOM     82  C   UNL A   1      31.457  25.731  24.650  1.00  0.00     0.109 A 
ATOM     83  N   UNL A   1      30.178  24.595  23.196  1.00  0.00    -0.061 NA
ATOM     84  N   UNL A   1      30.397  25.801  23.759  1.00  0.00    -0.212 N 
BRANCH  82  85
ATOM     85  C   UNL A   1      31.820  26.766  25.614  1.00  0.00     0.004 A 
ATOM     86  C   UNL A   1      30.976  27.050  26.698  1.00  0.00     0.010 A 
ATOM     87  C   UNL A   1      33.016  27.481  25.473  1.00  0.00     0.031 A 
ATOM     88  C   UNL A   1      31.315  28.042  27.620  1.00  0.00     0.002 A 
ATOM     89  C   UNL A   1      33.355  28.459  26.404  1.00  0.00     0.041 A 
ATOM     90  C   UNL A   1      32.509  28.747  27.473  1.00  0.00     0.020 A 
ATOM     91  Cl  UNL A   1      34.834  29.321  26.226  1.00  0.00    -0.084 Cl
ENDBRANCH  82  85
BRANCH  84  92
ATOM     92  C   UNL A   1      29.760  26.977  23.310  1.00  0.00     0.067 A 
ATOM     93  C   UNL A   1      28.413  27.213  23.575  1.00  0.00     0.029 A 
ATOM     94  C   UNL A   1      30.545  27.938  22.657  1.00  0.00     0.029 A 
ATOM     95  C   UNL A   1      27.889  28.480  23.290  1.00  0.00     0.015 A 
ATOM     96  C   UNL A   1      30.008  29.180  22.346  1.00  0.00     0.015 A 
ATOM     97  C   UNL A   1      28.687  29.480  22.697  1.00  0.00     0.056 A 
BRANCH  97  98
ATOM     98  C   UNL A   1      28.151  30.874  22.480  1.00  0.00     0.416 C 
ATOM     99  F   UNL A   1      27.472  31.013  21.311  1.00  0.00    -0.166 F 
ATOM    100  F   UNL A   1      27.295  31.257  23.468  1.00  0.00    -0.166 F 
ATOM    101  F   UNL A   1      29.129  31.828  22.458  1.00  0.00    -0.166 F 
ENDBRANCH  97  98
ENDBRANCH  84  92
ENDBRANCH  78  80
ENDBRANCH  77  78
ENDBRANCH  76  77
ENDBRANCH  75  76
ENDBRANCH  74  75
ENDBRANCH  73  74
ENDBRANCH   1  73
TORSDOF 23
ENDMDL
MODEL 3
REMARK VINA RESULT:     -10.4      1.590      2.042
REMARK SMILES O=C(OCCOCCOCCOC(=O)c1nnn(-c2ccc(C(F)(F)F)cc2)c1-c1cccc(Cl)c1)c1ccc(-c2c3nc(c(-c4cccc(S(=O)(=O)[O-])c4F)c4ccc([nH]4)c(-c4cccc(S(=O)(=O)[O-])c4F)c4nc(c(-c5cccc(S(=O)(=O)[O-])c5F)c5ccc2[nH]5)C=C4)C=C3)cc1
REMARK SMILES IDX 7 1 6 2 5 3 4 4 3 5 2 6 1 7 37 8 38 9 99 10 39 11 98 12
REMARK SMILES IDX 40 13 41 14 42 15 92 16 43 17 97 18 91 19 93 20 44 21 96 22
REMARK SMILES IDX 90 23 89 24 45 26 77 27 57 28 76 29 58 30 61 31 75 32 94 33
REMARK SMILES IDX 59 34 60 35 74 37 95 38 62 39 46 40 47 41 55 42 48 43 50 44
REMARK SMILES IDX 56 45 49 46 51 47 52 48 53 49 54 50 78 51 79 52 87 53 80 54
REMARK SMILES IDX 82 55 88 56 81 57 83 58 84 59 85 60 86 61 63 62 64 63 72 64
REMARK SMILES IDX 65 65 67 66 73 67 66 68 68 69 69 70 70 71 71 72 8 73 9 74
REMARK SMILES IDX 10 75 11 76 12 77 13 78 14 79 15 80 16 81 29 82 17 83 18 84
REMARK SMILES IDX 30 85 31 86 36 87 32 88 34 89 33 90 35 91 19 92 20 93 28 94
REMARK SMILES IDX 21 95 27 96 22 97 23 98 24 99 25 100 26 101
REMARK H PARENT 93 25 61 36
REMARK Flexibility Score: inf
ROOT
ATOM      1  C   UNL A   1      37.116  21.983  24.574  1.00  0.00     0.188 C 
ENDROOT
BRANCH   1   2
ATOM      2  O   UNL A   1      38.439  22.116  25.085  1.00  0.00    -0.376 OA
BRANCH   2   3
ATOM      3  C   UNL A   1      38.677  21.457  26.319  1.00  0.00     0.202 C 
BRANCH   3   4
ATOM      4  C   UNL A   1      40.142  21.068  26.513  1.00  0.00     0.261 C 
BRANCH   4   5
ATOM      5  O   UNL A   1      41.078  21.678  25.603  1.00  0.00    -0.460 OA
BRANCH   5   6
ATOM      6  C   UNL A   1      41.861  22.769  25.704  1.00  0.00     0.338 C 
ATOM      7  O   UNL A   1      42.976  22.744  25.185  1.00  0.00    -0.246 OA
BRANCH   6   8
ATOM      8  C   UNL A   1      41.507  23.946  26.535  1.00  0.00     0.060 A 
ATOM      9  C   UNL A   1      40.767  25.040  26.088  1.00  0.00     0.016 A 
ATOM     10  C   UNL A   1      42.054  23.976  27.835  1.00  0.00     0.016 A 
ATOM     11  C   UNL A   1      40.617  26.162  26.892  1.00  0.00     0.010 A 
ATOM     12  C   UNL A   1      41.931  25.107  28.633  1.00  0.00     0.010 A 
ATOM     13  C   UNL A   1      41.257  26.218  28.130  1.00  0.00    -0.014 A 
BRANCH  13  14
ATOM     14  C   UNL A   1      41.334  27.524  28.771  1.00  0.00     0.031 A 
ATOM     15  C   UNL A   1      42.447  28.432  28.399  1.00  0.00     0.074 A 
ATOM     16  C   UNL A   1      40.393  27.909  29.656  1.00  0.00     0.049 A 
ATOM     17  N   UNL A   1      43.369  28.915  29.170  1.00  0.00    -0.248 NA
ATOM     18  C   UNL A   1      42.569  28.825  26.990  1.00  0.00     0.031 C 
ATOM     19  C   UNL A   1      39.102  27.260  29.910  1.00  0.00     0.029 A 
ATOM     20  N   UNL A   1      40.331  29.047  30.407  1.00  0.00    -0.354 N 
ATOM     21  C   UNL A   1      44.068  29.839  28.392  1.00  0.00     0.074 A 
ATOM     22  C   UNL A   1      43.615  29.653  27.035  1.00  0.00     0.031 C 
ATOM     23  C   UNL A   1      38.289  28.139  30.533  1.00  0.00     0.029 A 
ATOM     24  C   UNL A   1      39.044  29.341  30.836  1.00  0.00     0.049 A 
ATOM     25  H   UNL A   1      41.116  29.600  30.623  1.00  0.00     0.167 HD
ATOM     26  C   UNL A   1      44.831  30.826  28.935  1.00  0.00     0.034 A 
ATOM     27  C   UNL A   1      38.602  30.524  31.315  1.00  0.00     0.034 A 
ATOM     28  C   UNL A   1      45.122  30.608  30.324  1.00  0.00     0.049 A 
ATOM     29  C   UNL A   1      39.768  31.299  31.789  1.00  0.00     0.074 A 
ATOM     30  C   UNL A   1      45.771  29.640  31.061  1.00  0.00     0.029 A 
ATOM     31  N   UNL A   1      44.464  31.398  31.233  1.00  0.00    -0.354 N 
ATOM     32  N   UNL A   1      40.478  30.987  32.837  1.00  0.00    -0.248 NA
ATOM     33  C   UNL A   1      40.372  32.270  30.892  1.00  0.00     0.031 C 
ATOM     34  C   UNL A   1      45.120  29.634  32.328  1.00  0.00     0.029 A 
ATOM     35  C   UNL A   1      44.110  30.598  32.285  1.00  0.00     0.049 A 
ATOM     36  H   UNL A   1      44.282  32.361  31.144  1.00  0.00     0.167 HD
ATOM     37  C   UNL A   1      41.768  31.384  32.516  1.00  0.00     0.074 A 
ATOM     38  C   UNL A   1      41.611  32.294  31.387  1.00  0.00     0.031 C 
ATOM     39  C   UNL A   1      42.856  30.712  32.999  1.00  0.00     0.034 A 
BRANCH  26  40
ATOM     40  C   UNL A   1      45.093  32.168  28.295  1.00  0.00     0.023 A 
ATOM     41  C   UNL A   1      43.995  33.038  28.105  1.00  0.00     0.012 A 
ATOM     42  C   UNL A   1      46.298  32.502  27.642  1.00  0.00     0.148 A 
ATOM     43  C   UNL A   1      44.086  34.167  27.284  1.00  0.00     0.002 A 
ATOM     44  C   UNL A   1      46.408  33.671  26.896  1.00  0.00     0.091 A 
ATOM     45  F   UNL A   1      47.311  31.627  27.625  1.00  0.00    -0.205 F 
ATOM     46  C   UNL A   1      45.299  34.493  26.690  1.00  0.00     0.022 A 
BRANCH  44  47
ATOM     47  S   UNL A   1      47.983  34.162  26.189  1.00  0.00     0.127 S 
ATOM     48  O   UNL A   1      47.593  34.554  24.840  1.00  0.00    -0.237 OA
ATOM     49  O   UNL A   1      48.385  35.266  27.064  1.00  0.00    -0.237 OA
ATOM     50  O   UNL A   1      48.823  32.976  26.311  1.00  0.00    -0.744 OA
ENDBRANCH  44  47
ENDBRANCH  26  40
BRANCH  27  51
ATOM     51  C   UNL A   1      37.249  31.107  31.191  1.00  0.00     0.023 A 
ATOM     52  C   UNL A   1      36.562  31.534  32.341  1.00  0.00     0.012 A 
ATOM     53  C   UNL A   1      36.718  31.454  29.926  1.00  0.00     0.148 A 
ATOM     54  C   UNL A   1      35.388  32.290  32.236  1.00  0.00     0.002 A 
ATOM     55  C   UNL A   1      35.540  32.185  29.827  1.00  0.00     0.091 A 
ATOM     56  F   UNL A   1      37.416  31.148  28.823  1.00  0.00    -0.205 F 
ATOM     57  C   UNL A   1      34.877  32.615  30.981  1.00  0.00     0.022 A 
BRANCH  55  58
ATOM     58  S   UNL A   1      34.829  32.620  28.234  1.00  0.00     0.127 S 
ATOM     59  O   UNL A   1      35.889  33.434  27.636  1.00  0.00    -0.237 OA
ATOM     60  O   UNL A   1      34.642  31.310  27.617  1.00  0.00    -0.237 OA
ATOM     61  O   UNL A   1      33.613  33.363  28.539  1.00  0.00    -0.744 OA
ENDBRANCH  55  58
ENDBRANCH  27  51
BRANCH  39  62
ATOM     62  C   UNL A   1      42.655  29.741  34.138  1.00  0.00     0.023 A 
ATOM     63  C   UNL A   1      41.808  28.621  34.008  1.00  0.00     0.012 A 
ATOM     64  C   UNL A   1      43.474  29.843  35.278  1.00  0.00     0.148 A 
ATOM     65  C   UNL A   1      41.754  27.642  35.002  1.00  0.00     0.002 A 
ATOM     66  C   UNL A   1      43.453  28.841  36.242  1.00  0.00     0.091 A 
ATOM     67  F   UNL A   1      44.286  30.906  35.388  1.00  0.00    -0.205 F 
ATOM     68  C   UNL A   1      42.586  27.745  36.113  1.00  0.00     0.022 A 
BRANCH  66  69
ATOM     69  S   UNL A   1      44.609  28.840  37.617  1.00  0.00     0.127 S 
ATOM     70  O   UNL A   1      44.242  27.617  38.328  1.00  0.00    -0.237 OA
ATOM     71  O   UNL A   1      45.908  28.788  36.942  1.00  0.00    -0.237 OA
ATOM     72  O   UNL A   1      44.367  30.087  38.333  1.00  0.00    -0.744 OA
ENDBRANCH  66  69
ENDBRANCH  39  62
ENDBRANCH  13  14
ENDBRANCH   6   8
ENDBRANCH   5   6
ENDBRANCH   4   5
ENDBRANCH   3   4
ENDBRANCH   2   3
ENDBRANCH   1   2
BRANCH   1  73
ATOM     73  C   UNL A   1      36.390  20.673  24.953  1.00  0.00     0.188 C 
BRANCH  73  74
ATOM     74  O   UNL A   1      35.112  20.630  25.588  1.00  0.00    -0.376 OA
BRANCH  74  75
ATOM     75  C   UNL A   1      34.812  21.491  26.666  1.00  0.00     0.202 C 
BRANCH  75  76
ATOM     76  C   UNL A   1      33.309  21.615  26.911  1.00  0.00     0.261 C 
BRANCH  76  77
ATOM     77  O   UNL A   1      32.660  22.558  26.050  1.00  0.00    -0.458 OA
BRANCH  77  78
ATOM     78  C   UNL A   1      31.295  22.536  26.045  1.00  0.00     0.361 C 
ATOM     79  O   UNL A   1      30.601  21.520  25.990  1.00  0.00    -0.244 OA
BRANCH  78  80
ATOM     80  C   UNL A   1      30.736  23.870  26.010  1.00  0.00     0.198 A 
ATOM     81  N   UNL A   1      29.745  24.325  26.846  1.00  0.00    -0.122 NA
ATOM     82  C   UNL A   1      31.112  24.888  25.151  1.00  0.00     0.109 A 
ATOM     83  N   UNL A   1      29.478  25.587  26.523  1.00  0.00    -0.061 NA
ATOM     84  N   UNL A   1      30.148  25.858  25.384  1.00  0.00    -0.212 N 
BRANCH  82  85
ATOM     85  C   UNL A   1      32.179  24.980  24.158  1.00  0.00     0.004 A 
ATOM     86  C   UNL A   1      33.524  24.957  24.561  1.00  0.00     0.010 A 
ATOM     87  C   UNL A   1      31.876  25.084  22.796  1.00  0.00     0.031 A 
ATOM     88  C   UNL A   1      34.548  25.049  23.616  1.00  0.00     0.002 A 
ATOM     89  C   UNL A   1      32.902  25.162  21.858  1.00  0.00     0.041 A 
ATOM     90  C   UNL A   1      34.235  25.150  22.262  1.00  0.00     0.020 A 
ATOM     91  Cl  UNL A   1      32.514  25.277  20.186  1.00  0.00    -0.084 Cl
ENDBRANCH  82  85
BRANCH  84  92
ATOM     92  C   UNL A   1      29.743  26.865  24.485  1.00  0.00     0.067 A 
ATOM     93  C   UNL A   1      28.489  26.826  23.877  1.00  0.00     0.029 A 
ATOM     94  C   UNL A   1      30.607  27.950  24.282  1.00  0.00     0.029 A 
ATOM     95  C   UNL A   1      28.059  27.951  23.161  1.00  0.00     0.015 A 
ATOM     96  C   UNL A   1      30.187  29.046  23.541  1.00  0.00     0.015 A 
ATOM     97  C   UNL A   1      28.893  29.077  23.008  1.00  0.00     0.056 A 
BRANCH  97  98
ATOM     98  C   UNL A   1      28.394  30.325  22.322  1.00  0.00     0.416 C 
ATOM     99  F   UNL A   1      29.283  31.352  22.361  1.00  0.00    -0.166 F 
ATOM    100  F   UNL A   1      28.114  30.112  21.006  1.00  0.00    -0.166 F 
ATOM    101  F   UNL A   1      27.239  30.812  22.865  1.00  0.00    -0.166 F 
ENDBRANCH  97  98
ENDBRANCH  84  92
ENDBRANCH  78  80
ENDBRANCH  77  78
ENDBRANCH  76  77
ENDBRANCH  75  76
ENDBRANCH  74  75
ENDBRANCH  73  74
ENDBRANCH   1  73
TORSDOF 23
ENDMDL
