MODEL 1
REMARK VINA RESULT:      -9.8      0.000      0.000
REMARK SMILES Cc1ccc(C(=O)N2CCC(CC(=O)OCCOCCOCCOC(=O)c3ccc(-c4c5nc(c(-c6cccc(S(=O)(=O)[O-])c6F)c6ccc([nH]6)c(-c6cccc(S(=O)(=O)[O-])c6F)c6nc(c(-c7cccc(S(=O)(=O)[O-])c7F)c7ccc4[nH]7)C=C6)C=C5)cc3)CC2)cn1
REMARK SMILES IDX 20 1 19 2 18 3 17 4 16 5 15 6 13 7 14 8 12 9 11 10 6 11 7 12
REMARK SMILES IDX 8 13 9 14 91 15 10 16 90 17 5 18 1 19 2 20 3 21 93 22 4 23
REMARK SMILES IDX 92 24 21 25 22 26 23 27 24 28 25 29 26 30 27 31 28 32 89 33
REMARK SMILES IDX 29 34 88 35 30 36 31 37 32 38 82 39 33 40 87 41 81 42 83 43
REMARK SMILES IDX 34 44 86 45 80 46 79 47 35 49 67 50 47 51 66 52 48 53 51 54
REMARK SMILES IDX 65 55 84 56 49 57 50 58 64 60 85 61 52 62 36 63 37 64 45 65
REMARK SMILES IDX 38 66 40 67 46 68 39 69 41 70 42 71 43 72 44 73 68 74 69 75
REMARK SMILES IDX 77 76 70 77 72 78 78 79 71 80 73 81 74 82 75 83 76 84 53 85
REMARK SMILES IDX 54 86 62 87 55 88 57 89 63 90 56 91 58 92 59 93 60 94 61 95
REMARK H PARENT 83 48 51 59
REMARK Flexibility Score: inf
ROOT
ATOM      1  C   UNL A   1      41.466  20.541  27.586  1.00  0.00     0.188 C 
ENDROOT
BRANCH   1   2
ATOM      2  C   UNL A   1      40.449  20.854  26.487  1.00  0.00     0.188 C 
BRANCH   2   3
ATOM      3  O   UNL A   1      39.873  22.156  26.540  1.00  0.00    -0.376 OA
BRANCH   3   4
ATOM      4  C   UNL A   1      38.527  22.279  26.082  1.00  0.00     0.202 C 
BRANCH   4   5
ATOM      5  C   UNL A   1      38.038  23.711  25.823  1.00  0.00     0.261 C 
BRANCH   5   6
ATOM      6  O   UNL A   1      36.600  23.821  25.769  1.00  0.00    -0.463 OA
BRANCH   6   7
ATOM      7  C   UNL A   1      36.030  23.598  24.557  1.00  0.00     0.306 C 
ATOM      8  O   UNL A   1      36.657  23.379  23.526  1.00  0.00    -0.252 OA
BRANCH   7   9
ATOM      9  C   UNL A   1      34.512  23.542  24.582  1.00  0.00     0.126 C 
BRANCH   9  10
ATOM     10  C   UNL A   1      33.679  24.477  23.687  1.00  0.00     0.003 C 
ATOM     11  C   UNL A   1      30.452  26.915  23.990  1.00  0.00     0.255 C 
ATOM     12  O   UNL A   1      29.831  26.236  24.804  1.00  0.00    -0.269 OA
ATOM     13  N   UNL A   1      31.538  26.414  23.284  1.00  0.00    -0.339 N 
ATOM     14  C   UNL A   1      31.434  25.071  22.747  1.00  0.00     0.120 C 
ATOM     15  C   UNL A   1      32.889  26.929  23.469  1.00  0.00     0.120 C 
ATOM     16  C   UNL A   1      32.202  24.071  23.600  1.00  0.00     0.026 C 
ATOM     17  C   UNL A   1      33.771  25.929  24.233  1.00  0.00     0.026 C 
BRANCH  11  18
ATOM     18  C   UNL A   1      29.905  28.232  23.566  1.00  0.00     0.058 A 
ATOM     19  C   UNL A   1      28.215  32.113  23.076  1.00  0.00     0.066 C 
ATOM     20  C   UNL A   1      28.821  30.746  23.186  1.00  0.00     0.037 A 
ATOM     21  C   UNL A   1      28.248  29.654  22.540  1.00  0.00     0.024 A 
ATOM     22  N   UNL A   1      29.909  30.628  23.981  1.00  0.00    -0.261 NA
ATOM     23  C   UNL A   1      28.795  28.384  22.736  1.00  0.00     0.017 A 
ATOM     24  C   UNL A   1      30.421  29.380  24.155  1.00  0.00     0.125 A 
ENDBRANCH  11  18
ENDBRANCH   9  10
ENDBRANCH   7   9
ENDBRANCH   6   7
ENDBRANCH   5   6
ENDBRANCH   4   5
ENDBRANCH   3   4
ENDBRANCH   2   3
ENDBRANCH   1   2
BRANCH   1  25
ATOM     25  O   UNL A   1      42.284  19.400  27.355  1.00  0.00    -0.376 OA
BRANCH  25  26
ATOM     26  C   UNL A   1      42.264  18.855  26.032  1.00  0.00     0.202 C 
BRANCH  26  27
ATOM     27  C   UNL A   1      43.590  18.283  25.484  1.00  0.00     0.261 C 
BRANCH  27  28
ATOM     28  O   UNL A   1      44.704  19.201  25.460  1.00  0.00    -0.460 OA
BRANCH  28  29
ATOM     29  C   UNL A   1      44.694  20.173  24.520  1.00  0.00     0.338 C 
ATOM     30  O   UNL A   1      44.626  20.007  23.312  1.00  0.00    -0.246 OA
BRANCH  29  31
ATOM     31  C   UNL A   1      44.506  21.489  25.189  1.00  0.00     0.060 A 
ATOM     32  C   UNL A   1      44.071  22.565  24.399  1.00  0.00     0.016 A 
ATOM     33  C   UNL A   1      44.686  21.670  26.564  1.00  0.00     0.016 A 
ATOM     34  C   UNL A   1      43.891  23.829  24.963  1.00  0.00     0.010 A 
ATOM     35  C   UNL A   1      44.510  22.941  27.129  1.00  0.00     0.010 A 
ATOM     36  C   UNL A   1      44.163  24.038  26.320  1.00  0.00    -0.014 A 
BRANCH  36  37
ATOM     37  C   UNL A   1      44.317  25.431  26.818  1.00  0.00     0.031 A 
ATOM     38  C   UNL A   1      45.682  26.066  26.734  1.00  0.00     0.074 A 
ATOM     39  C   UNL A   1      43.276  26.149  27.281  1.00  0.00     0.049 A 
ATOM     40  N   UNL A   1      46.055  27.279  27.047  1.00  0.00    -0.248 NA
ATOM     41  C   UNL A   1      46.772  25.217  26.222  1.00  0.00     0.031 C 
ATOM     42  C   UNL A   1      41.902  25.671  27.411  1.00  0.00     0.029 A 
ATOM     43  N   UNL A   1      43.226  27.445  27.739  1.00  0.00    -0.354 N 
ATOM     44  C   UNL A   1      47.420  27.333  26.790  1.00  0.00     0.074 A 
ATOM     45  C   UNL A   1      47.815  26.025  26.317  1.00  0.00     0.031 C 
ATOM     46  C   UNL A   1      41.147  26.654  27.934  1.00  0.00     0.029 A 
ATOM     47  C   UNL A   1      41.984  27.827  28.188  1.00  0.00     0.049 A 
ATOM     48  H   UNL A   1      44.008  28.044  27.745  1.00  0.00     0.167 HD
ATOM     49  C   UNL A   1      48.271  28.378  26.911  1.00  0.00     0.034 A 
ATOM     50  C   UNL A   1      41.574  28.984  28.749  1.00  0.00     0.034 A 
ATOM     51  C   UNL A   1      47.890  29.687  27.365  1.00  0.00     0.049 A 
ATOM     52  C   UNL A   1      42.551  30.123  28.911  1.00  0.00     0.074 A 
ATOM     53  C   UNL A   1      48.677  30.818  27.482  1.00  0.00     0.029 A 
ATOM     54  N   UNL A   1      46.621  30.036  27.794  1.00  0.00    -0.354 N 
ATOM     55  N   UNL A   1      43.807  30.196  28.542  1.00  0.00    -0.248 NA
ATOM     56  C   UNL A   1      42.042  31.354  29.537  1.00  0.00     0.031 C 
ATOM     57  C   UNL A   1      47.890  31.846  28.010  1.00  0.00     0.029 A 
ATOM     58  C   UNL A   1      46.605  31.362  28.191  1.00  0.00     0.049 A 
ATOM     59  H   UNL A   1      45.844  29.432  27.814  1.00  0.00     0.167 HD
ATOM     60  C   UNL A   1      44.225  31.487  28.857  1.00  0.00     0.074 A 
ATOM     61  C   UNL A   1      43.081  32.169  29.424  1.00  0.00     0.031 C 
ATOM     62  C   UNL A   1      45.449  32.052  28.704  1.00  0.00     0.034 A 
BRANCH  49  63
ATOM     63  C   UNL A   1      49.707  28.151  26.520  1.00  0.00     0.023 A 
ATOM     64  C   UNL A   1      50.679  27.944  27.521  1.00  0.00     0.012 A 
ATOM     65  C   UNL A   1      50.085  28.095  25.165  1.00  0.00     0.148 A 
ATOM     66  C   UNL A   1      52.011  27.718  27.181  1.00  0.00     0.002 A 
ATOM     67  C   UNL A   1      51.407  27.823  24.832  1.00  0.00     0.091 A 
ATOM     68  F   UNL A   1      49.152  28.318  24.231  1.00  0.00    -0.205 F 
ATOM     69  C   UNL A   1      52.373  27.646  25.838  1.00  0.00     0.022 A 
BRANCH  67  70
ATOM     70  S   UNL A   1      51.959  27.636  23.134  1.00  0.00     0.127 S 
ATOM     71  O   UNL A   1      51.837  29.004  22.634  1.00  0.00    -0.237 OA
ATOM     72  O   UNL A   1      53.334  27.170  23.309  1.00  0.00    -0.237 OA
ATOM     73  O   UNL A   1      51.060  26.666  22.525  1.00  0.00    -0.744 OA
ENDBRANCH  67  70
ENDBRANCH  49  63
BRANCH  50  74
ATOM     74  C   UNL A   1      40.155  29.149  29.182  1.00  0.00     0.023 A 
ATOM     75  C   UNL A   1      39.150  29.364  28.218  1.00  0.00     0.012 A 
ATOM     76  C   UNL A   1      39.801  29.116  30.544  1.00  0.00     0.148 A 
ATOM     77  C   UNL A   1      37.826  29.578  28.605  1.00  0.00     0.002 A 
ATOM     78  C   UNL A   1      38.472  29.274  30.920  1.00  0.00     0.091 A 
ATOM     79  F   UNL A   1      40.774  28.934  31.449  1.00  0.00    -0.205 F 
ATOM     80  C   UNL A   1      37.485  29.523  29.954  1.00  0.00     0.022 A 
BRANCH  78  81
ATOM     81  S   UNL A   1      37.924  29.104  32.622  1.00  0.00     0.127 S 
ATOM     82  O   UNL A   1      37.787  27.655  32.748  1.00  0.00    -0.237 OA
ATOM     83  O   UNL A   1      39.048  29.684  33.358  1.00  0.00    -0.237 OA
ATOM     84  O   UNL A   1      36.687  29.867  32.715  1.00  0.00    -0.744 OA
ENDBRANCH  78  81
ENDBRANCH  50  74
BRANCH  62  85
ATOM     85  C   UNL A   1      45.621  33.492  29.119  1.00  0.00     0.023 A 
ATOM     86  C   UNL A   1      46.198  33.802  30.366  1.00  0.00     0.012 A 
ATOM     87  C   UNL A   1      45.280  34.540  28.239  1.00  0.00     0.148 A 
ATOM     88  C   UNL A   1      46.399  35.128  30.747  1.00  0.00     0.002 A 
ATOM     89  C   UNL A   1      45.529  35.859  28.605  1.00  0.00     0.091 A 
ATOM     90  F   UNL A   1      44.718  34.230  27.062  1.00  0.00    -0.205 F 
ATOM     91  C   UNL A   1      46.076  36.155  29.864  1.00  0.00     0.022 A 
BRANCH  89  92
ATOM     92  S   UNL A   1      45.237  37.239  27.492  1.00  0.00     0.127 S 
ATOM     93  O   UNL A   1      45.315  38.379  28.405  1.00  0.00    -0.237 OA
ATOM     94  O   UNL A   1      46.359  37.129  26.559  1.00  0.00    -0.237 OA
ATOM     95  O   UNL A   1      43.930  37.004  26.894  1.00  0.00    -0.744 OA
ENDBRANCH  89  92
ENDBRANCH  62  85
ENDBRANCH  36  37
ENDBRANCH  29  31
ENDBRANCH  28  29
ENDBRANCH  27  28
ENDBRANCH  26  27
ENDBRANCH  25  26
ENDBRANCH   1  25
TORSDOF 22
ENDMDL
MODEL 2
REMARK VINA RESULT:      -9.4      4.818     11.262
REMARK SMILES Cc1ccc(C(=O)N2CCC(CC(=O)OCCOCCOCCOC(=O)c3ccc(-c4c5nc(c(-c6cccc(S(=O)(=O)[O-])c6F)c6ccc([nH]6)c(-c6cccc(S(=O)(=O)[O-])c6F)c6nc(c(-c7cccc(S(=O)(=O)[O-])c7F)c7ccc4[nH]7)C=C6)C=C5)cc3)CC2)cn1
REMARK SMILES IDX 20 1 19 2 18 3 17 4 16 5 15 6 13 7 14 8 12 9 11 10 6 11 7 12
REMARK SMILES IDX 8 13 9 14 91 15 10 16 90 17 5 18 1 19 2 20 3 21 93 22 4 23
REMARK SMILES IDX 92 24 21 25 22 26 23 27 24 28 25 29 26 30 27 31 28 32 89 33
REMARK SMILES IDX 29 34 88 35 30 36 31 37 32 38 82 39 33 40 87 41 81 42 83 43
REMARK SMILES IDX 34 44 86 45 80 46 79 47 35 49 67 50 47 51 66 52 48 53 51 54
REMARK SMILES IDX 65 55 84 56 49 57 50 58 64 60 85 61 52 62 36 63 37 64 45 65
REMARK SMILES IDX 38 66 40 67 46 68 39 69 41 70 42 71 43 72 44 73 68 74 69 75
REMARK SMILES IDX 77 76 70 77 72 78 78 79 71 80 73 81 74 82 75 83 76 84 53 85
REMARK SMILES IDX 54 86 62 87 55 88 57 89 63 90 56 91 58 92 59 93 60 94 61 95
REMARK H PARENT 83 48 51 59
REMARK Flexibility Score: inf
ROOT
ATOM      1  C   UNL A   1      33.484  35.486  32.394  1.00  0.00     0.188 C 
ENDROOT
BRANCH   1   2
ATOM      2  C   UNL A   1      33.574  35.676  30.879  1.00  0.00     0.188 C 
BRANCH   2   3
ATOM      3  O   UNL A   1      33.010  34.626  30.098  1.00  0.00    -0.376 OA
BRANCH   3   4
ATOM      4  C   UNL A   1      33.798  34.143  29.011  1.00  0.00     0.202 C 
BRANCH   4   5
ATOM      5  C   UNL A   1      35.316  34.129  29.241  1.00  0.00     0.261 C 
BRANCH   5   6
ATOM      6  O   UNL A   1      35.966  32.967  28.684  1.00  0.00    -0.463 OA
BRANCH   6   7
ATOM      7  C   UNL A   1      36.627  32.174  29.566  1.00  0.00     0.306 C 
ATOM      8  O   UNL A   1      36.952  32.517  30.698  1.00  0.00    -0.252 OA
BRANCH   7   9
ATOM      9  C   UNL A   1      36.860  30.755  29.075  1.00  0.00     0.126 C 
BRANCH   9  10
ATOM     10  C   UNL A   1      38.250  30.105  29.191  1.00  0.00     0.003 C 
ATOM     11  C   UNL A   1      39.956  26.452  28.746  1.00  0.00     0.255 C 
ATOM     12  O   UNL A   1      39.005  25.794  29.160  1.00  0.00    -0.269 OA
ATOM     13  N   UNL A   1      40.049  27.824  28.942  1.00  0.00    -0.339 N 
ATOM     14  C   UNL A   1      39.689  28.347  30.246  1.00  0.00     0.120 C 
ATOM     15  C   UNL A   1      40.003  28.772  27.835  1.00  0.00     0.120 C 
ATOM     16  C   UNL A   1      38.304  28.976  30.229  1.00  0.00     0.026 C 
ATOM     17  C   UNL A   1      38.669  29.537  27.807  1.00  0.00     0.026 C 
BRANCH  11  18
ATOM     18  C   UNL A   1      41.159  25.751  28.220  1.00  0.00     0.058 A 
ATOM     19  C   UNL A   1      44.317  23.142  27.048  1.00  0.00     0.066 C 
ATOM     20  C   UNL A   1      43.234  24.106  27.427  1.00  0.00     0.037 A 
ATOM     21  C   UNL A   1      43.517  25.245  28.175  1.00  0.00     0.024 A 
ATOM     22  N   UNL A   1      41.976  23.781  27.051  1.00  0.00    -0.261 NA
ATOM     23  C   UNL A   1      42.467  26.074  28.578  1.00  0.00     0.017 A 
ATOM     24  C   UNL A   1      40.972  24.604  27.457  1.00  0.00     0.125 A 
ENDBRANCH  11  18
ENDBRANCH   9  10
ENDBRANCH   7   9
ENDBRANCH   6   7
ENDBRANCH   5   6
ENDBRANCH   4   5
ENDBRANCH   3   4
ENDBRANCH   2   3
ENDBRANCH   1   2
BRANCH   1  25
ATOM     25  O   UNL A   1      33.228  34.156  32.829  1.00  0.00    -0.376 OA
BRANCH  25  26
ATOM     26  C   UNL A   1      34.369  33.317  33.032  1.00  0.00     0.202 C 
BRANCH  26  27
ATOM     27  C   UNL A   1      35.497  33.866  33.934  1.00  0.00     0.261 C 
BRANCH  27  28
ATOM     28  O   UNL A   1      36.039  32.934  34.894  1.00  0.00    -0.460 OA
BRANCH  28  29
ATOM     29  C   UNL A   1      37.231  33.235  35.456  1.00  0.00     0.338 C 
ATOM     30  O   UNL A   1      37.402  33.848  36.499  1.00  0.00    -0.246 OA
BRANCH  29  31
ATOM     31  C   UNL A   1      38.301  32.474  34.756  1.00  0.00     0.060 A 
ATOM     32  C   UNL A   1      39.633  32.775  35.081  1.00  0.00     0.016 A 
ATOM     33  C   UNL A   1      38.026  31.448  33.847  1.00  0.00     0.016 A 
ATOM     34  C   UNL A   1      40.683  32.108  34.447  1.00  0.00     0.010 A 
ATOM     35  C   UNL A   1      39.081  30.782  33.207  1.00  0.00     0.010 A 
ATOM     36  C   UNL A   1      40.415  31.147  33.466  1.00  0.00    -0.014 A 
BRANCH  36  37
ATOM     37  C   UNL A   1      41.513  30.717  32.559  1.00  0.00     0.031 A 
ATOM     38  C   UNL A   1      41.970  31.681  31.494  1.00  0.00     0.074 A 
ATOM     39  C   UNL A   1      42.138  29.532  32.697  1.00  0.00     0.049 A 
ATOM     40  N   UNL A   1      42.940  31.562  30.626  1.00  0.00    -0.248 NA
ATOM     41  C   UNL A   1      41.235  32.954  31.400  1.00  0.00     0.031 C 
ATOM     42  C   UNL A   1      41.810  28.506  33.684  1.00  0.00     0.029 A 
ATOM     43  N   UNL A   1      43.184  28.993  31.985  1.00  0.00    -0.354 N 
ATOM     44  C   UNL A   1      42.920  32.731  29.873  1.00  0.00     0.074 A 
ATOM     45  C   UNL A   1      41.827  33.537  30.370  1.00  0.00     0.031 C 
ATOM     46  C   UNL A   1      42.626  27.452  33.504  1.00  0.00     0.029 A 
ATOM     47  C   UNL A   1      43.525  27.721  32.381  1.00  0.00     0.049 A 
ATOM     48  H   UNL A   1      43.645  29.472  31.260  1.00  0.00     0.167 HD
ATOM     49  C   UNL A   1      43.746  33.116  28.873  1.00  0.00     0.034 A 
ATOM     50  C   UNL A   1      44.448  26.869  31.886  1.00  0.00     0.034 A 
ATOM     51  C   UNL A   1      44.844  32.333  28.380  1.00  0.00     0.049 A 
ATOM     52  C   UNL A   1      45.332  27.307  30.743  1.00  0.00     0.074 A 
ATOM     53  C   UNL A   1      45.760  32.661  27.396  1.00  0.00     0.029 A 
ATOM     54  N   UNL A   1      45.166  31.059  28.818  1.00  0.00    -0.354 N 
ATOM     55  N   UNL A   1      45.383  28.465  30.131  1.00  0.00    -0.248 NA
ATOM     56  C   UNL A   1      46.313  26.328  30.247  1.00  0.00     0.031 C 
ATOM     57  C   UNL A   1      46.619  31.572  27.218  1.00  0.00     0.029 A 
ATOM     58  C   UNL A   1      46.258  30.580  28.114  1.00  0.00     0.049 A 
ATOM     59  H   UNL A   1      44.690  30.567  29.524  1.00  0.00     0.167 HD
ATOM     60  C   UNL A   1      46.419  28.366  29.206  1.00  0.00     0.074 A 
ATOM     61  C   UNL A   1      46.986  27.043  29.356  1.00  0.00     0.031 C 
ATOM     62  C   UNL A   1      46.852  29.282  28.304  1.00  0.00     0.034 A 
BRANCH  49  63
ATOM     63  C   UNL A   1      43.504  34.469  28.258  1.00  0.00     0.023 A 
ATOM     64  C   UNL A   1      42.743  34.572  27.076  1.00  0.00     0.012 A 
ATOM     65  C   UNL A   1      43.989  35.639  28.875  1.00  0.00     0.148 A 
ATOM     66  C   UNL A   1      42.495  35.816  26.498  1.00  0.00     0.002 A 
ATOM     67  C   UNL A   1      43.699  36.878  28.318  1.00  0.00     0.091 A 
ATOM     68  F   UNL A   1      44.731  35.517  29.984  1.00  0.00    -0.205 F 
ATOM     69  C   UNL A   1      42.962  36.968  27.124  1.00  0.00     0.022 A 
BRANCH  67  70
ATOM     70  S   UNL A   1      44.190  38.424  29.088  1.00  0.00     0.127 S 
ATOM     71  O   UNL A   1      43.366  39.389  28.360  1.00  0.00    -0.237 OA
ATOM     72  O   UNL A   1      43.795  38.212  30.480  1.00  0.00    -0.237 OA
ATOM     73  O   UNL A   1      45.625  38.542  28.872  1.00  0.00    -0.744 OA
ENDBRANCH  67  70
ENDBRANCH  49  63
BRANCH  50  74
ATOM     74  C   UNL A   1      44.616  25.511  32.483  1.00  0.00     0.023 A 
ATOM     75  C   UNL A   1      43.856  24.432  31.990  1.00  0.00     0.012 A 
ATOM     76  C   UNL A   1      45.509  25.289  33.548  1.00  0.00     0.148 A 
ATOM     77  C   UNL A   1      43.956  23.167  32.571  1.00  0.00     0.002 A 
ATOM     78  C   UNL A   1      45.645  24.014  34.085  1.00  0.00     0.091 A 
ATOM     79  F   UNL A   1      46.207  26.333  34.019  1.00  0.00    -0.205 F 
ATOM     80  C   UNL A   1      44.857  22.955  33.611  1.00  0.00     0.022 A 
BRANCH  78  81
ATOM     81  S   UNL A   1      46.862  23.625  35.347  1.00  0.00     0.127 S 
ATOM     82  O   UNL A   1      46.238  24.180  36.546  1.00  0.00    -0.237 OA
ATOM     83  O   UNL A   1      46.896  22.163  35.291  1.00  0.00    -0.237 OA
ATOM     84  O   UNL A   1      48.094  24.272  34.917  1.00  0.00    -0.744 OA
ENDBRANCH  78  81
ENDBRANCH  50  74
BRANCH  62  85
ATOM     85  C   UNL A   1      48.021  28.912  27.425  1.00  0.00     0.023 A 
ATOM     86  C   UNL A   1      49.337  29.068  27.901  1.00  0.00     0.012 A 
ATOM     87  C   UNL A   1      47.812  28.337  26.154  1.00  0.00     0.148 A 
ATOM     88  C   UNL A   1      50.427  28.694  27.115  1.00  0.00     0.002 A 
ATOM     89  C   UNL A   1      48.902  27.920  25.397  1.00  0.00     0.091 A 
ATOM     90  F   UNL A   1      46.554  28.207  25.709  1.00  0.00    -0.205 F 
ATOM     91  C   UNL A   1      50.210  28.110  25.869  1.00  0.00     0.022 A 
BRANCH  89  92
ATOM     92  S   UNL A   1      48.713  27.068  23.825  1.00  0.00     0.127 S 
ATOM     93  O   UNL A   1      48.975  25.681  24.206  1.00  0.00    -0.237 OA
ATOM     94  O   UNL A   1      47.319  27.353  23.483  1.00  0.00    -0.237 OA
ATOM     95  O   UNL A   1      49.689  27.665  22.925  1.00  0.00    -0.744 OA
ENDBRANCH  89  92
ENDBRANCH  62  85
ENDBRANCH  36  37
ENDBRANCH  29  31
ENDBRANCH  28  29
ENDBRANCH  27  28
ENDBRANCH  26  27
ENDBRANCH  25  26
ENDBRANCH   1  25
TORSDOF 22
ENDMDL
MODEL 3
REMARK VINA RESULT:      -9.3      2.886      3.643
REMARK SMILES Cc1ccc(C(=O)N2CCC(CC(=O)OCCOCCOCCOC(=O)c3ccc(-c4c5nc(c(-c6cccc(S(=O)(=O)[O-])c6F)c6ccc([nH]6)c(-c6cccc(S(=O)(=O)[O-])c6F)c6nc(c(-c7cccc(S(=O)(=O)[O-])c7F)c7ccc4[nH]7)C=C6)C=C5)cc3)CC2)cn1
REMARK SMILES IDX 20 1 19 2 18 3 17 4 16 5 15 6 13 7 14 8 12 9 11 10 6 11 7 12
REMARK SMILES IDX 8 13 9 14 91 15 10 16 90 17 5 18 1 19 2 20 3 21 93 22 4 23
REMARK SMILES IDX 92 24 21 25 22 26 23 27 24 28 25 29 26 30 27 31 28 32 89 33
REMARK SMILES IDX 29 34 88 35 30 36 31 37 32 38 82 39 33 40 87 41 81 42 83 43
REMARK SMILES IDX 34 44 86 45 80 46 79 47 35 49 67 50 47 51 66 52 48 53 51 54
REMARK SMILES IDX 65 55 84 56 49 57 50 58 64 60 85 61 52 62 36 63 37 64 45 65
REMARK SMILES IDX 38 66 40 67 46 68 39 69 41 70 42 71 43 72 44 73 68 74 69 75
REMARK SMILES IDX 77 76 70 77 72 78 78 79 71 80 73 81 74 82 75 83 76 84 53 85
REMARK SMILES IDX 54 86 62 87 55 88 57 89 63 90 56 91 58 92 59 93 60 94 61 95
REMARK H PARENT 83 48 51 59
REMARK Flexibility Score: inf
ROOT
ATOM      1  C   UNL A   1      41.226  21.305  27.619  1.00  0.00     0.188 C 
ENDROOT
BRANCH   1   2
ATOM      2  C   UNL A   1      40.160  21.151  26.532  1.00  0.00     0.188 C 
BRANCH   2   3
ATOM      3  O   UNL A   1      39.368  22.310  26.285  1.00  0.00    -0.376 OA
BRANCH   3   4
ATOM      4  C   UNL A   1      38.081  22.094  25.709  1.00  0.00     0.202 C 
BRANCH   4   5
ATOM      5  C   UNL A   1      37.345  23.352  25.228  1.00  0.00     0.261 C 
BRANCH   5   6
ATOM      6  O   UNL A   1      35.925  23.152  25.060  1.00  0.00    -0.463 OA
BRANCH   6   7
ATOM      7  C   UNL A   1      35.488  23.035  23.779  1.00  0.00     0.306 C 
ATOM      8  O   UNL A   1      36.191  23.206  22.788  1.00  0.00    -0.252 OA
BRANCH   7   9
ATOM      9  C   UNL A   1      34.047  22.571  23.652  1.00  0.00     0.126 C 
BRANCH   9  10
ATOM     10  C   UNL A   1      32.977  23.496  23.046  1.00  0.00     0.003 C 
ATOM     11  C   UNL A   1      30.594  26.569  24.201  1.00  0.00     0.255 C 
ATOM     12  O   UNL A   1      30.397  26.179  25.349  1.00  0.00    -0.269 OA
ATOM     13  N   UNL A   1      31.127  25.743  23.220  1.00  0.00    -0.339 N 
ATOM     14  C   UNL A   1      30.635  24.381  23.142  1.00  0.00     0.120 C 
ATOM     15  C   UNL A   1      32.434  25.989  22.622  1.00  0.00     0.120 C 
ATOM     16  C   UNL A   1      31.621  23.399  23.758  1.00  0.00     0.026 C 
ATOM     17  C   UNL A   1      33.474  24.968  23.110  1.00  0.00     0.026 C 
BRANCH  11  18
ATOM     18  C   UNL A   1      30.043  27.882  23.768  1.00  0.00     0.058 A 
ATOM     19  C   UNL A   1      28.444  31.798  23.257  1.00  0.00     0.066 C 
ATOM     20  C   UNL A   1      29.009  30.415  23.374  1.00  0.00     0.037 A 
ATOM     21  C   UNL A   1      28.316  29.314  22.880  1.00  0.00     0.024 A 
ATOM     22  N   UNL A   1      30.189  30.296  24.026  1.00  0.00    -0.261 NA
ATOM     23  C   UNL A   1      28.839  28.034  23.083  1.00  0.00     0.017 A 
ATOM     24  C   UNL A   1      30.674  29.039  24.210  1.00  0.00     0.125 A 
ENDBRANCH  11  18
ENDBRANCH   9  10
ENDBRANCH   7   9
ENDBRANCH   6   7
ENDBRANCH   5   6
ENDBRANCH   4   5
ENDBRANCH   3   4
ENDBRANCH   2   3
ENDBRANCH   1   2
BRANCH   1  25
ATOM     25  O   UNL A   1      42.443  20.607  27.382  1.00  0.00    -0.376 OA
BRANCH  25  26
ATOM     26  C   UNL A   1      42.753  20.303  26.019  1.00  0.00     0.202 C 
BRANCH  26  27
ATOM     27  C   UNL A   1      44.185  20.620  25.532  1.00  0.00     0.261 C 
BRANCH  27  28
ATOM     28  O   UNL A   1      44.597  21.998  25.658  1.00  0.00    -0.460 OA
BRANCH  28  29
ATOM     29  C   UNL A   1      43.967  22.912  24.886  1.00  0.00     0.338 C 
ATOM     30  O   UNL A   1      43.516  22.724  23.767  1.00  0.00    -0.246 OA
BRANCH  29  31
ATOM     31  C   UNL A   1      43.664  24.113  25.712  1.00  0.00     0.060 A 
ATOM     32  C   UNL A   1      43.474  25.332  25.043  1.00  0.00     0.016 A 
ATOM     33  C   UNL A   1      43.506  24.054  27.101  1.00  0.00     0.016 A 
ATOM     34  C   UNL A   1      43.203  26.498  25.762  1.00  0.00     0.010 A 
ATOM     35  C   UNL A   1      43.240  25.226  27.822  1.00  0.00     0.010 A 
ATOM     36  C   UNL A   1      43.140  26.463  27.160  1.00  0.00    -0.014 A 
BRANCH  36  37
ATOM     37  C   UNL A   1      43.213  27.742  27.916  1.00  0.00     0.031 A 
ATOM     38  C   UNL A   1      44.563  28.395  28.073  1.00  0.00     0.074 A 
ATOM     39  C   UNL A   1      42.118  28.351  28.408  1.00  0.00     0.049 A 
ATOM     40  N   UNL A   1      44.876  29.532  28.636  1.00  0.00    -0.248 NA
ATOM     41  C   UNL A   1      45.715  27.666  27.515  1.00  0.00     0.031 C 
ATOM     42  C   UNL A   1      40.751  27.843  28.325  1.00  0.00     0.029 A 
ATOM     43  N   UNL A   1      41.995  29.539  29.090  1.00  0.00    -0.354 N 
ATOM     44  C   UNL A   1      46.257  29.646  28.517  1.00  0.00     0.074 A 
ATOM     45  C   UNL A   1      46.725  28.452  27.850  1.00  0.00     0.031 C 
ATOM     46  C   UNL A   1      39.928  28.705  28.949  1.00  0.00     0.029 A 
ATOM     47  C   UNL A   1      40.708  29.819  29.488  1.00  0.00     0.049 A 
ATOM     48  H   UNL A   1      42.756  30.134  29.276  1.00  0.00     0.167 HD
ATOM     49  C   UNL A   1      47.066  30.659  28.904  1.00  0.00     0.034 A 
ATOM     50  C   UNL A   1      40.221  30.848  30.213  1.00  0.00     0.034 A 
ATOM     51  C   UNL A   1      46.613  31.857  29.555  1.00  0.00     0.049 A 
ATOM     52  C   UNL A   1      41.151  31.947  30.669  1.00  0.00     0.074 A 
ATOM     53  C   UNL A   1      47.357  32.955  29.947  1.00  0.00     0.029 A 
ATOM     54  N   UNL A   1      45.302  32.108  29.925  1.00  0.00    -0.354 N 
ATOM     55  N   UNL A   1      42.431  32.100  30.433  1.00  0.00    -0.248 NA
ATOM     56  C   UNL A   1      40.557  33.035  31.461  1.00  0.00     0.031 C 
ATOM     57  C   UNL A   1      46.500  33.859  30.582  1.00  0.00     0.029 A 
ATOM     58  C   UNL A   1      45.217  33.338  30.555  1.00  0.00     0.049 A 
ATOM     59  H   UNL A   1      44.543  31.503  29.764  1.00  0.00     0.167 HD
ATOM     60  C   UNL A   1      42.786  33.314  31.016  1.00  0.00     0.074 A 
ATOM     61  C   UNL A   1      41.581  33.868  31.594  1.00  0.00     0.031 C 
ATOM     62  C   UNL A   1      44.004  33.909  31.081  1.00  0.00     0.034 A 
BRANCH  49  63
ATOM     63  C   UNL A   1      48.536  30.522  28.609  1.00  0.00     0.023 A 
ATOM     64  C   UNL A   1      49.327  29.656  29.390  1.00  0.00     0.012 A 
ATOM     65  C   UNL A   1      49.122  31.213  27.530  1.00  0.00     0.148 A 
ATOM     66  C   UNL A   1      50.687  29.504  29.125  1.00  0.00     0.002 A 
ATOM     67  C   UNL A   1      50.468  31.021  27.243  1.00  0.00     0.091 A 
ATOM     68  F   UNL A   1      48.358  32.050  26.816  1.00  0.00    -0.205 F 
ATOM     69  C   UNL A   1      51.254  30.177  28.046  1.00  0.00     0.022 A 
BRANCH  67  70
ATOM     70  S   UNL A   1      51.275  31.782  25.831  1.00  0.00     0.127 S 
ATOM     71  O   UNL A   1      52.543  32.214  26.416  1.00  0.00    -0.237 OA
ATOM     72  O   UNL A   1      51.383  30.660  24.899  1.00  0.00    -0.237 OA
ATOM     73  O   UNL A   1      50.392  32.855  25.394  1.00  0.00    -0.744 OA
ENDBRANCH  67  70
ENDBRANCH  49  63
BRANCH  50  74
ATOM     74  C   UNL A   1      38.766  30.916  30.540  1.00  0.00     0.023 A 
ATOM     75  C   UNL A   1      38.258  30.176  31.627  1.00  0.00     0.012 A 
ATOM     76  C   UNL A   1      37.882  31.694  29.768  1.00  0.00     0.148 A 
ATOM     77  C   UNL A   1      36.892  30.182  31.915  1.00  0.00     0.002 A 
ATOM     78  C   UNL A   1      36.532  31.738  30.094  1.00  0.00     0.091 A 
ATOM     79  F   UNL A   1      38.380  32.372  28.724  1.00  0.00    -0.205 F 
ATOM     80  C   UNL A   1      36.031  30.970  31.156  1.00  0.00     0.022 A 
BRANCH  78  81
ATOM     81  S   UNL A   1      35.370  32.813  29.246  1.00  0.00     0.127 S 
ATOM     82  O   UNL A   1      35.220  32.136  27.960  1.00  0.00    -0.237 OA
ATOM     83  O   UNL A   1      34.200  32.742  30.121  1.00  0.00    -0.237 OA
ATOM     84  O   UNL A   1      36.008  34.122  29.200  1.00  0.00    -0.744 OA
ENDBRANCH  78  81
ENDBRANCH  50  74
BRANCH  62  85
ATOM     85  C   UNL A   1      44.101  35.249  31.767  1.00  0.00     0.023 A 
ATOM     86  C   UNL A   1      43.953  36.434  31.021  1.00  0.00     0.012 A 
ATOM     87  C   UNL A   1      44.264  35.332  33.165  1.00  0.00     0.148 A 
ATOM     88  C   UNL A   1      44.002  37.680  31.647  1.00  0.00     0.002 A 
ATOM     89  C   UNL A   1      44.261  36.575  33.789  1.00  0.00     0.091 A 
ATOM     90  F   UNL A   1      44.417  34.195  33.860  1.00  0.00    -0.205 F 
ATOM     91  C   UNL A   1      44.144  37.750  33.030  1.00  0.00     0.022 A 
BRANCH  89  92
ATOM     92  S   UNL A   1      44.339  36.756  35.576  1.00  0.00     0.127 S 
ATOM     93  O   UNL A   1      45.690  37.283  35.762  1.00  0.00    -0.237 OA
ATOM     94  O   UNL A   1      43.269  37.719  35.837  1.00  0.00    -0.237 OA
ATOM     95  O   UNL A   1      44.104  35.429  36.125  1.00  0.00    -0.744 OA
ENDBRANCH  89  92
ENDBRANCH  62  85
ENDBRANCH  36  37
ENDBRANCH  29  31
ENDBRANCH  28  29
ENDBRANCH  27  28
ENDBRANCH  26  27
ENDBRANCH  25  26
ENDBRANCH   1  25
TORSDOF 22
ENDMDL
