MODEL 1
REMARK VINA RESULT:      -9.9      0.000      0.000
REMARK SMILES O=C(OCCOCCOCCOC(=O)[C@@H](NC(=O)[C@H]1CC[C@@H]2CCCC[C@H]2[NH2+]1)C1CC1)c1ccc(-c2c3nc(c(-c4cccc(S(=O)(=O)[O-])c4F)c4ccc([nH]4)c(-c4cccc(S(=O)(=O)[O-])c4F)c4nc(c(-c5cccc(S(=O)(=O)[O-])c5F)c5ccc2[nH]5)C=C4)C=C3)cc1
REMARK SMILES IDX 7 1 6 2 5 3 4 4 3 5 2 6 1 7 32 8 33 9 94 10 34 11 93 12
REMARK SMILES IDX 35 13 36 14 37 15 87 16 38 17 92 18 86 19 88 20 39 21 91 22
REMARK SMILES IDX 85 23 84 24 40 26 72 27 52 28 71 29 53 30 56 31 70 32 89 33
REMARK SMILES IDX 54 34 55 35 69 37 90 38 57 39 41 40 42 41 50 42 43 43 45 44
REMARK SMILES IDX 51 45 44 46 46 47 47 48 48 49 49 50 73 51 74 52 82 53 75 54
REMARK SMILES IDX 77 55 83 56 76 57 78 58 79 59 80 60 81 61 58 62 59 63 67 64
REMARK SMILES IDX 60 65 62 66 68 67 61 68 63 69 64 70 65 71 66 72 8 73 9 74
REMARK SMILES IDX 10 75 11 76 12 77 13 78 14 79 15 80 16 81 17 82 18 84 19 85
REMARK SMILES IDX 20 86 28 87 21 88 27 89 22 92 26 93 23 94 25 95 24 96 29 97
REMARK SMILES IDX 30 98 31 99
REMARK H PARENT 88 25 56 36 16 83 28 90 28 91
REMARK Flexibility Score: inf
ROOT
ATOM      1  C   UNL A   1      40.717  21.532  27.683  1.00  0.00     0.188 C 
ENDROOT
BRANCH   1   2
ATOM      2  O   UNL A   1      41.683  20.855  26.866  1.00  0.00    -0.376 OA
BRANCH   2   3
ATOM      3  C   UNL A   1      41.924  19.497  27.260  1.00  0.00     0.202 C 
BRANCH   3   4
ATOM      4  C   UNL A   1      42.609  18.588  26.226  1.00  0.00     0.261 C 
BRANCH   4   5
ATOM      5  O   UNL A   1      42.961  19.254  25.006  1.00  0.00    -0.460 OA
BRANCH   5   6
ATOM      6  C   UNL A   1      44.167  19.736  24.616  1.00  0.00     0.338 C 
ATOM      7  O   UNL A   1      44.877  19.009  23.923  1.00  0.00    -0.246 OA
BRANCH   6   8
ATOM      8  C   UNL A   1      44.681  21.099  24.959  1.00  0.00     0.060 A 
ATOM      9  C   UNL A   1      45.360  21.445  26.130  1.00  0.00     0.016 A 
ATOM     10  C   UNL A   1      44.522  22.093  23.976  1.00  0.00     0.016 A 
ATOM     11  C   UNL A   1      45.783  22.757  26.358  1.00  0.00     0.010 A 
ATOM     12  C   UNL A   1      44.972  23.402  24.184  1.00  0.00     0.010 A 
ATOM     13  C   UNL A   1      45.572  23.748  25.395  1.00  0.00    -0.014 A 
BRANCH  13  14
ATOM     14  C   UNL A   1      45.832  25.160  25.761  1.00  0.00     0.031 A 
ATOM     15  C   UNL A   1      44.769  25.877  26.523  1.00  0.00     0.074 A 
ATOM     16  C   UNL A   1      46.986  25.766  25.426  1.00  0.00     0.049 A 
ATOM     17  N   UNL A   1      44.811  27.055  27.074  1.00  0.00    -0.248 NA
ATOM     18  C   UNL A   1      43.457  25.210  26.611  1.00  0.00     0.031 C 
ATOM     19  C   UNL A   1      47.958  25.188  24.521  1.00  0.00     0.029 A 
ATOM     20  N   UNL A   1      47.575  26.947  25.814  1.00  0.00    -0.354 N 
ATOM     21  C   UNL A   1      43.497  27.345  27.412  1.00  0.00     0.074 A 
ATOM     22  C   UNL A   1      42.705  26.172  27.123  1.00  0.00     0.031 C 
ATOM     23  C   UNL A   1      49.094  25.899  24.565  1.00  0.00     0.029 A 
ATOM     24  C   UNL A   1      48.910  27.048  25.438  1.00  0.00     0.049 A 
ATOM     25  H   UNL A   1      47.098  27.652  26.309  1.00  0.00     0.167 HD
ATOM     26  C   UNL A   1      43.004  28.530  27.832  1.00  0.00     0.034 A 
ATOM     27  C   UNL A   1      49.847  27.951  25.815  1.00  0.00     0.034 A 
ATOM     28  C   UNL A   1      43.840  29.666  28.099  1.00  0.00     0.049 A 
ATOM     29  C   UNL A   1      49.306  29.112  26.635  1.00  0.00     0.074 A 
ATOM     30  C   UNL A   1      43.478  30.936  28.504  1.00  0.00     0.029 A 
ATOM     31  N   UNL A   1      45.222  29.662  27.968  1.00  0.00    -0.354 N 
ATOM     32  N   UNL A   1      48.118  29.263  27.179  1.00  0.00    -0.248 NA
ATOM     33  C   UNL A   1      50.218  30.237  26.890  1.00  0.00     0.031 C 
ATOM     34  C   UNL A   1      44.642  31.707  28.595  1.00  0.00     0.029 A 
ATOM     35  C   UNL A   1      45.731  30.907  28.281  1.00  0.00     0.049 A 
ATOM     36  H   UNL A   1      45.761  28.886  27.692  1.00  0.00     0.167 HD
ATOM     37  C   UNL A   1      48.144  30.498  27.808  1.00  0.00     0.074 A 
ATOM     38  C   UNL A   1      49.514  30.963  27.745  1.00  0.00     0.031 C 
ATOM     39  C   UNL A   1      47.124  31.260  28.277  1.00  0.00     0.034 A 
BRANCH  26  40
ATOM     40  C   UNL A   1      41.509  28.668  27.887  1.00  0.00     0.023 A 
ATOM     41  C   UNL A   1      40.760  28.912  26.722  1.00  0.00     0.012 A 
ATOM     42  C   UNL A   1      40.852  28.591  29.132  1.00  0.00     0.148 A 
ATOM     43  C   UNL A   1      39.382  29.118  26.800  1.00  0.00     0.002 A 
ATOM     44  C   UNL A   1      39.475  28.745  29.195  1.00  0.00     0.091 A 
ATOM     45  F   UNL A   1      41.591  28.396  30.234  1.00  0.00    -0.205 F 
ATOM     46  C   UNL A   1      38.740  29.027  28.033  1.00  0.00     0.022 A 
BRANCH  44  47
ATOM     47  S   UNL A   1      38.549  28.570  30.722  1.00  0.00     0.127 S 
ATOM     48  O   UNL A   1      38.735  27.150  31.021  1.00  0.00    -0.237 OA
ATOM     49  O   UNL A   1      39.266  29.480  31.616  1.00  0.00    -0.237 OA
ATOM     50  O   UNL A   1      37.181  28.965  30.416  1.00  0.00    -0.744 OA
ENDBRANCH  44  47
ENDBRANCH  26  40
BRANCH  27  51
ATOM     51  C   UNL A   1      51.342  27.805  25.576  1.00  0.00     0.023 A 
ATOM     52  C   UNL A   1      52.173  27.480  26.676  1.00  0.00     0.012 A 
ATOM     53  C   UNL A   1      51.990  27.934  24.332  1.00  0.00     0.148 A 
ATOM     54  C   UNL A   1      53.566  27.370  26.574  1.00  0.00     0.002 A 
ATOM     55  C   UNL A   1      53.349  27.632  24.201  1.00  0.00     0.091 A 
ATOM     56  F   UNL A   1      51.298  28.393  23.282  1.00  0.00    -0.205 F 
ATOM     57  C   UNL A   1      54.151  27.402  25.324  1.00  0.00     0.022 A 
BRANCH  55  58
ATOM     58  S   UNL A   1      54.121  27.324  22.606  1.00  0.00     0.127 S 
ATOM     59  O   UNL A   1      54.028  28.634  21.964  1.00  0.00    -0.237 OA
ATOM     60  O   UNL A   1      55.473  26.930  23.012  1.00  0.00    -0.237 OA
ATOM     61  O   UNL A   1      53.344  26.260  21.991  1.00  0.00    -0.744 OA
ENDBRANCH  55  58
ENDBRANCH  27  51
BRANCH  39  62
ATOM     62  C   UNL A   1      47.491  32.648  28.721  1.00  0.00     0.023 A 
ATOM     63  C   UNL A   1      47.825  32.872  30.075  1.00  0.00     0.012 A 
ATOM     64  C   UNL A   1      47.519  33.717  27.811  1.00  0.00     0.148 A 
ATOM     65  C   UNL A   1      48.107  34.155  30.531  1.00  0.00     0.002 A 
ATOM     66  C   UNL A   1      47.863  34.983  28.261  1.00  0.00     0.091 A 
ATOM     67  F   UNL A   1      47.194  33.477  26.532  1.00  0.00    -0.205 F 
ATOM     68  C   UNL A   1      48.133  35.209  29.623  1.00  0.00     0.022 A 
BRANCH  66  69
ATOM     69  S   UNL A   1      48.023  36.386  27.157  1.00  0.00     0.127 S 
ATOM     70  O   UNL A   1      49.095  35.943  26.268  1.00  0.00    -0.237 OA
ATOM     71  O   UNL A   1      46.698  36.441  26.541  1.00  0.00    -0.237 OA
ATOM     72  O   UNL A   1      48.348  37.528  28.002  1.00  0.00    -0.744 OA
ENDBRANCH  66  69
ENDBRANCH  39  62
ENDBRANCH  13  14
ENDBRANCH   6   8
ENDBRANCH   5   6
ENDBRANCH   4   5
ENDBRANCH   3   4
ENDBRANCH   2   3
ENDBRANCH   1   2
BRANCH   1  73
ATOM     73  C   UNL A   1      40.484  22.979  27.253  1.00  0.00     0.188 C 
BRANCH  73  74
ATOM     74  O   UNL A   1      39.329  23.236  26.453  1.00  0.00    -0.376 OA
BRANCH  74  75
ATOM     75  C   UNL A   1      38.509  22.128  26.104  1.00  0.00     0.202 C 
BRANCH  75  76
ATOM     76  C   UNL A   1      37.156  22.421  25.449  1.00  0.00     0.261 C 
BRANCH  76  77
ATOM     77  O   UNL A   1      36.675  21.370  24.614  1.00  0.00    -0.462 OA
BRANCH  77  78
ATOM     78  C   UNL A   1      35.379  20.964  24.824  1.00  0.00     0.329 C 
ATOM     79  O   UNL A   1      34.997  19.802  24.741  1.00  0.00    -0.250 OA
BRANCH  78  80
ATOM     80  C   UNL A   1      34.516  22.149  25.314  1.00  0.00     0.195 C 
BRANCH  80  81
ATOM     81  N   UNL A   1      33.741  22.598  24.152  1.00  0.00    -0.337 N 
ATOM     82  C   UNL A   1      34.183  23.575  23.319  1.00  0.00     0.278 C 
ATOM     83  H   UNL A   1      32.871  22.175  23.971  1.00  0.00     0.164 HD
ATOM     84  O   UNL A   1      35.017  23.270  22.475  1.00  0.00    -0.268 OA
BRANCH  82  85
ATOM     85  C   UNL A   1      33.512  24.963  23.461  1.00  0.00     0.272 C 
ATOM     86  C   UNL A   1      32.067  25.011  22.958  1.00  0.00     0.076 C 
ATOM     87  N   UNL A   1      33.499  25.392  24.879  1.00  0.00    -0.333 N 
ATOM     88  C   UNL A   1      31.486  26.431  23.101  1.00  0.00     0.016 C 
ATOM     89  C   UNL A   1      33.155  26.805  24.952  1.00  0.00     0.186 C 
ATOM     90  H   UNL A   1      34.423  25.244  25.287  1.00  0.00     0.347 HD
ATOM     91  H   UNL A   1      32.810  24.845  25.394  1.00  0.00     0.347 HD
ATOM     92  C   UNL A   1      31.701  27.007  24.516  1.00  0.00     0.048 C 
ATOM     93  C   UNL A   1      33.380  27.295  26.381  1.00  0.00     0.065 C 
ATOM     94  C   UNL A   1      31.369  28.500  24.596  1.00  0.00     0.010 C 
ATOM     95  C   UNL A   1      33.110  28.790  26.450  1.00  0.00     0.006 C 
ATOM     96  C   UNL A   1      31.704  29.125  25.955  1.00  0.00     0.001 C 
ENDBRANCH  82  85
ENDBRANCH  80  81
BRANCH  80  97
ATOM     97  C   UNL A   1      33.686  21.783  26.520  1.00  0.00     0.023 C 
ATOM     98  C   UNL A   1      33.788  22.540  27.824  1.00  0.00     0.007 C 
ATOM     99  C   UNL A   1      32.543  22.665  27.003  1.00  0.00     0.007 C 
ENDBRANCH  80  97
ENDBRANCH  78  80
ENDBRANCH  77  78
ENDBRANCH  76  77
ENDBRANCH  75  76
ENDBRANCH  74  75
ENDBRANCH  73  74
ENDBRANCH   1  73
TORSDOF 23
ENDMDL
MODEL 2
REMARK VINA RESULT:      -9.7      1.801      7.700
REMARK SMILES O=C(OCCOCCOCCOC(=O)[C@@H](NC(=O)[C@H]1CC[C@@H]2CCCC[C@H]2[NH2+]1)C1CC1)c1ccc(-c2c3nc(c(-c4cccc(S(=O)(=O)[O-])c4F)c4ccc([nH]4)c(-c4cccc(S(=O)(=O)[O-])c4F)c4nc(c(-c5cccc(S(=O)(=O)[O-])c5F)c5ccc2[nH]5)C=C4)C=C3)cc1
REMARK SMILES IDX 7 1 6 2 5 3 4 4 3 5 2 6 1 7 32 8 33 9 94 10 34 11 93 12
REMARK SMILES IDX 35 13 36 14 37 15 87 16 38 17 92 18 86 19 88 20 39 21 91 22
REMARK SMILES IDX 85 23 84 24 40 26 72 27 52 28 71 29 53 30 56 31 70 32 89 33
REMARK SMILES IDX 54 34 55 35 69 37 90 38 57 39 41 40 42 41 50 42 43 43 45 44
REMARK SMILES IDX 51 45 44 46 46 47 47 48 48 49 49 50 73 51 74 52 82 53 75 54
REMARK SMILES IDX 77 55 83 56 76 57 78 58 79 59 80 60 81 61 58 62 59 63 67 64
REMARK SMILES IDX 60 65 62 66 68 67 61 68 63 69 64 70 65 71 66 72 8 73 9 74
REMARK SMILES IDX 10 75 11 76 12 77 13 78 14 79 15 80 16 81 17 82 18 84 19 85
REMARK SMILES IDX 20 86 28 87 21 88 27 89 22 92 26 93 23 94 25 95 24 96 29 97
REMARK SMILES IDX 30 98 31 99
REMARK H PARENT 88 25 56 36 16 83 28 90 28 91
REMARK Flexibility Score: inf
ROOT
ATOM      1  C   UNL A   1      40.343  21.582  27.338  1.00  0.00     0.188 C 
ENDROOT
BRANCH   1   2
ATOM      2  O   UNL A   1      41.508  21.047  26.693  1.00  0.00    -0.376 OA
BRANCH   2   3
ATOM      3  C   UNL A   1      41.909  19.765  27.194  1.00  0.00     0.202 C 
BRANCH   3   4
ATOM      4  C   UNL A   1      42.842  18.932  26.297  1.00  0.00     0.261 C 
BRANCH   4   5
ATOM      5  O   UNL A   1      43.010  19.466  24.977  1.00  0.00    -0.460 OA
BRANCH   5   6
ATOM      6  C   UNL A   1      44.047  20.180  24.472  1.00  0.00     0.338 C 
ATOM      7  O   UNL A   1      44.658  19.703  23.517  1.00  0.00    -0.246 OA
BRANCH   6   8
ATOM      8  C   UNL A   1      44.484  21.513  24.991  1.00  0.00     0.060 A 
ATOM      9  C   UNL A   1      45.338  21.728  26.075  1.00  0.00     0.016 A 
ATOM     10  C   UNL A   1      44.045  22.639  24.270  1.00  0.00     0.016 A 
ATOM     11  C   UNL A   1      45.669  23.021  26.489  1.00  0.00     0.010 A 
ATOM     12  C   UNL A   1      44.399  23.936  24.658  1.00  0.00     0.010 A 
ATOM     13  C   UNL A   1      45.183  24.133  25.796  1.00  0.00    -0.014 A 
BRANCH  13  14
ATOM     14  C   UNL A   1      45.372  25.478  26.389  1.00  0.00     0.031 A 
ATOM     15  C   UNL A   1      46.617  26.216  26.030  1.00  0.00     0.074 A 
ATOM     16  C   UNL A   1      44.450  26.014  27.210  1.00  0.00     0.049 A 
ATOM     17  N   UNL A   1      46.946  27.446  26.300  1.00  0.00    -0.248 NA
ATOM     18  C   UNL A   1      47.666  25.443  25.339  1.00  0.00     0.031 C 
ATOM     19  C   UNL A   1      43.331  25.269  27.748  1.00  0.00     0.029 A 
ATOM     20  N   UNL A   1      44.256  27.283  27.704  1.00  0.00    -0.354 N 
ATOM     21  C   UNL A   1      48.292  27.540  25.978  1.00  0.00     0.074 A 
ATOM     22  C   UNL A   1      48.684  26.288  25.376  1.00  0.00     0.031 C 
ATOM     23  C   UNL A   1      42.466  26.113  28.330  1.00  0.00     0.029 A 
ATOM     24  C   UNL A   1      43.007  27.462  28.290  1.00  0.00     0.049 A 
ATOM     25  H   UNL A   1      44.934  27.994  27.649  1.00  0.00     0.167 HD
ATOM     26  C   UNL A   1      49.130  28.560  26.264  1.00  0.00     0.034 A 
ATOM     27  C   UNL A   1      42.397  28.604  28.689  1.00  0.00     0.034 A 
ATOM     28  C   UNL A   1      48.685  29.783  26.870  1.00  0.00     0.049 A 
ATOM     29  C   UNL A   1      43.281  29.840  28.637  1.00  0.00     0.074 A 
ATOM     30  C   UNL A   1      49.424  30.890  27.240  1.00  0.00     0.029 A 
ATOM     31  N   UNL A   1      47.364  30.046  27.209  1.00  0.00    -0.354 N 
ATOM     32  N   UNL A   1      44.469  29.989  28.093  1.00  0.00    -0.248 NA
ATOM     33  C   UNL A   1      42.760  31.066  29.259  1.00  0.00     0.031 C 
ATOM     34  C   UNL A   1      48.551  31.814  27.825  1.00  0.00     0.029 A 
ATOM     35  C   UNL A   1      47.265  31.296  27.786  1.00  0.00     0.049 A 
ATOM     36  H   UNL A   1      46.610  29.432  27.060  1.00  0.00     0.167 HD
ATOM     37  C   UNL A   1      44.832  31.305  28.333  1.00  0.00     0.074 A 
ATOM     38  C   UNL A   1      43.667  31.958  28.894  1.00  0.00     0.031 C 
ATOM     39  C   UNL A   1      46.044  31.907  28.238  1.00  0.00     0.034 A 
BRANCH  26  40
ATOM     40  C   UNL A   1      50.597  28.322  26.044  1.00  0.00     0.023 A 
ATOM     41  C   UNL A   1      51.156  28.376  24.754  1.00  0.00     0.012 A 
ATOM     42  C   UNL A   1      51.419  28.004  27.144  1.00  0.00     0.148 A 
ATOM     43  C   UNL A   1      52.503  28.074  24.555  1.00  0.00     0.002 A 
ATOM     44  C   UNL A   1      52.770  27.756  26.946  1.00  0.00     0.091 A 
ATOM     45  F   UNL A   1      50.859  27.922  28.359  1.00  0.00    -0.205 F 
ATOM     46  C   UNL A   1      53.311  27.773  25.650  1.00  0.00     0.022 A 
BRANCH  44  47
ATOM     47  S   UNL A   1      53.905  27.435  28.298  1.00  0.00     0.127 S 
ATOM     48  O   UNL A   1      55.202  27.586  27.639  1.00  0.00    -0.237 OA
ATOM     49  O   UNL A   1      53.569  28.507  29.236  1.00  0.00    -0.237 OA
ATOM     50  O   UNL A   1      53.603  26.091  28.772  1.00  0.00    -0.744 OA
ENDBRANCH  44  47
ENDBRANCH  26  40
BRANCH  27  51
ATOM     51  C   UNL A   1      40.923  28.723  29.049  1.00  0.00     0.023 A 
ATOM     52  C   UNL A   1      39.965  28.633  28.009  1.00  0.00     0.012 A 
ATOM     53  C   UNL A   1      40.408  28.886  30.349  1.00  0.00     0.148 A 
ATOM     54  C   UNL A   1      38.589  28.777  28.225  1.00  0.00     0.002 A 
ATOM     55  C   UNL A   1      39.029  28.834  30.581  1.00  0.00     0.091 A 
ATOM     56  F   UNL A   1      41.251  29.137  31.358  1.00  0.00    -0.205 F 
ATOM     57  C   UNL A   1      38.116  28.834  29.521  1.00  0.00     0.022 A 
BRANCH  55  58
ATOM     58  S   UNL A   1      38.335  28.569  32.219  1.00  0.00     0.127 S 
ATOM     59  O   UNL A   1      39.038  29.574  33.015  1.00  0.00    -0.237 OA
ATOM     60  O   UNL A   1      36.917  28.852  31.980  1.00  0.00    -0.237 OA
ATOM     61  O   UNL A   1      38.624  27.183  32.549  1.00  0.00    -0.744 OA
ENDBRANCH  55  58
ENDBRANCH  27  51
BRANCH  39  62
ATOM     62  C   UNL A   1      46.126  33.310  28.774  1.00  0.00     0.023 A 
ATOM     63  C   UNL A   1      46.531  33.512  30.112  1.00  0.00     0.012 A 
ATOM     64  C   UNL A   1      45.821  34.414  27.964  1.00  0.00     0.148 A 
ATOM     65  C   UNL A   1      46.557  34.791  30.657  1.00  0.00     0.002 A 
ATOM     66  C   UNL A   1      45.909  35.692  28.497  1.00  0.00     0.091 A 
ATOM     67  F   UNL A   1      45.435  34.193  26.698  1.00  0.00    -0.205 F 
ATOM     68  C   UNL A   1      46.253  35.881  29.848  1.00  0.00     0.022 A 
BRANCH  66  69
ATOM     69  S   UNL A   1      45.636  37.166  27.513  1.00  0.00     0.127 S 
ATOM     70  O   UNL A   1      45.959  38.224  28.469  1.00  0.00    -0.237 OA
ATOM     71  O   UNL A   1      46.609  36.996  26.435  1.00  0.00    -0.237 OA
ATOM     72  O   UNL A   1      44.243  37.115  27.089  1.00  0.00    -0.744 OA
ENDBRANCH  66  69
ENDBRANCH  39  62
ENDBRANCH  13  14
ENDBRANCH   6   8
ENDBRANCH   5   6
ENDBRANCH   4   5
ENDBRANCH   3   4
ENDBRANCH   2   3
ENDBRANCH   1   2
BRANCH   1  73
ATOM     73  C   UNL A   1      40.155  23.077  27.083  1.00  0.00     0.188 C 
BRANCH  73  74
ATOM     74  O   UNL A   1      39.043  23.458  26.272  1.00  0.00    -0.376 OA
BRANCH  74  75
ATOM     75  C   UNL A   1      38.149  22.433  25.856  1.00  0.00     0.202 C 
BRANCH  75  76
ATOM     76  C   UNL A   1      36.913  22.849  25.053  1.00  0.00     0.261 C 
BRANCH  76  77
ATOM     77  O   UNL A   1      36.382  21.816  24.227  1.00  0.00    -0.462 OA
BRANCH  77  78
ATOM     78  C   UNL A   1      35.202  21.245  24.639  1.00  0.00     0.329 C 
ATOM     79  O   UNL A   1      35.064  20.055  24.900  1.00  0.00    -0.250 OA
BRANCH  78  80
ATOM     80  C   UNL A   1      34.126  22.333  24.862  1.00  0.00     0.195 C 
BRANCH  80  81
ATOM     81  N   UNL A   1      33.306  22.351  23.647  1.00  0.00    -0.337 N 
ATOM     82  C   UNL A   1      33.379  23.358  22.737  1.00  0.00     0.278 C 
ATOM     83  H   UNL A   1      32.682  21.608  23.485  1.00  0.00     0.164 HD
ATOM     84  O   UNL A   1      34.312  23.343  21.944  1.00  0.00    -0.268 OA
BRANCH  82  85
ATOM     85  C   UNL A   1      32.213  24.376  22.736  1.00  0.00     0.272 C 
ATOM     86  C   UNL A   1      31.079  24.026  23.704  1.00  0.00     0.076 C 
ATOM     87  N   UNL A   1      32.701  25.727  23.100  1.00  0.00    -0.333 N 
ATOM     88  C   UNL A   1      29.946  25.067  23.616  1.00  0.00     0.016 C 
ATOM     89  C   UNL A   1      31.671  26.710  22.795  1.00  0.00     0.186 C 
ATOM     90  H   UNL A   1      33.544  25.939  22.566  1.00  0.00     0.347 HD
ATOM     91  H   UNL A   1      32.916  25.754  24.096  1.00  0.00     0.347 HD
ATOM     92  C   UNL A   1      30.474  26.512  23.728  1.00  0.00     0.048 C 
ATOM     93  C   UNL A   1      32.266  28.110  22.942  1.00  0.00     0.065 C 
ATOM     94  C   UNL A   1      29.406  27.554  23.381  1.00  0.00     0.010 C 
ATOM     95  C   UNL A   1      31.226  29.144  22.540  1.00  0.00     0.006 C 
ATOM     96  C   UNL A   1      29.942  28.989  23.353  1.00  0.00     0.001 C 
ENDBRANCH  82  85
ENDBRANCH  80  81
BRANCH  80  97
ATOM     97  C   UNL A   1      33.354  22.111  26.139  1.00  0.00     0.023 C 
ATOM     98  C   UNL A   1      33.991  21.503  27.367  1.00  0.00     0.007 C 
ATOM     99  C   UNL A   1      33.607  22.949  27.384  1.00  0.00     0.007 C 
ENDBRANCH  80  97
ENDBRANCH  78  80
ENDBRANCH  77  78
ENDBRANCH  76  77
ENDBRANCH  75  76
ENDBRANCH  74  75
ENDBRANCH  73  74
ENDBRANCH   1  73
TORSDOF 23
ENDMDL
MODEL 3
REMARK VINA RESULT:      -9.4      5.786      9.883
REMARK SMILES O=C(OCCOCCOCCOC(=O)[C@@H](NC(=O)[C@H]1CC[C@@H]2CCCC[C@H]2[NH2+]1)C1CC1)c1ccc(-c2c3nc(c(-c4cccc(S(=O)(=O)[O-])c4F)c4ccc([nH]4)c(-c4cccc(S(=O)(=O)[O-])c4F)c4nc(c(-c5cccc(S(=O)(=O)[O-])c5F)c5ccc2[nH]5)C=C4)C=C3)cc1
REMARK SMILES IDX 7 1 6 2 5 3 4 4 3 5 2 6 1 7 32 8 33 9 94 10 34 11 93 12
REMARK SMILES IDX 35 13 36 14 37 15 87 16 38 17 92 18 86 19 88 20 39 21 91 22
REMARK SMILES IDX 85 23 84 24 40 26 72 27 52 28 71 29 53 30 56 31 70 32 89 33
REMARK SMILES IDX 54 34 55 35 69 37 90 38 57 39 41 40 42 41 50 42 43 43 45 44
REMARK SMILES IDX 51 45 44 46 46 47 47 48 48 49 49 50 73 51 74 52 82 53 75 54
REMARK SMILES IDX 77 55 83 56 76 57 78 58 79 59 80 60 81 61 58 62 59 63 67 64
REMARK SMILES IDX 60 65 62 66 68 67 61 68 63 69 64 70 65 71 66 72 8 73 9 74
REMARK SMILES IDX 10 75 11 76 12 77 13 78 14 79 15 80 16 81 17 82 18 84 19 85
REMARK SMILES IDX 20 86 28 87 21 88 27 89 22 92 26 93 23 94 25 95 24 96 29 97
REMARK SMILES IDX 30 98 31 99
REMARK H PARENT 88 25 56 36 16 83 28 90 28 91
REMARK Flexibility Score: inf
ROOT
ATOM      1  C   UNL A   1      41.102  19.874  26.422  1.00  0.00     0.188 C 
ENDROOT
BRANCH   1   2
ATOM      2  O   UNL A   1      42.161  20.168  25.500  1.00  0.00    -0.376 OA
BRANCH   2   3
ATOM      3  C   UNL A   1      42.877  21.372  25.805  1.00  0.00     0.202 C 
BRANCH   3   4
ATOM      4  C   UNL A   1      44.401  21.342  25.604  1.00  0.00     0.261 C 
BRANCH   4   5
ATOM      5  O   UNL A   1      45.064  22.552  25.994  1.00  0.00    -0.460 OA
BRANCH   5   6
ATOM      6  C   UNL A   1      44.721  23.836  25.724  1.00  0.00     0.338 C 
ATOM      7  O   UNL A   1      45.022  24.290  24.621  1.00  0.00    -0.246 OA
BRANCH   6   8
ATOM      8  C   UNL A   1      43.987  24.729  26.674  1.00  0.00     0.060 A 
ATOM      9  C   UNL A   1      43.985  26.126  26.647  1.00  0.00     0.016 A 
ATOM     10  C   UNL A   1      43.173  24.091  27.629  1.00  0.00     0.016 A 
ATOM     11  C   UNL A   1      43.275  26.865  27.596  1.00  0.00     0.010 A 
ATOM     12  C   UNL A   1      42.433  24.826  28.563  1.00  0.00     0.010 A 
ATOM     13  C   UNL A   1      42.513  26.219  28.573  1.00  0.00    -0.014 A 
BRANCH  13  14
ATOM     14  C   UNL A   1      41.958  27.023  29.688  1.00  0.00     0.031 A 
ATOM     15  C   UNL A   1      42.854  27.294  30.849  1.00  0.00     0.074 A 
ATOM     16  C   UNL A   1      40.699  27.496  29.648  1.00  0.00     0.049 A 
ATOM     17  N   UNL A   1      42.656  28.077  31.870  1.00  0.00    -0.248 NA
ATOM     18  C   UNL A   1      44.109  26.522  30.908  1.00  0.00     0.031 C 
ATOM     19  C   UNL A   1      39.728  27.098  28.648  1.00  0.00     0.029 A 
ATOM     20  N   UNL A   1      40.019  28.425  30.400  1.00  0.00    -0.354 N 
ATOM     21  C   UNL A   1      43.663  27.760  32.770  1.00  0.00     0.074 A 
ATOM     22  C   UNL A   1      44.540  26.811  32.125  1.00  0.00     0.031 C 
ATOM     23  C   UNL A   1      38.656  27.901  28.717  1.00  0.00     0.029 A 
ATOM     24  C   UNL A   1      38.815  28.825  29.829  1.00  0.00     0.049 A 
ATOM     25  H   UNL A   1      40.352  28.773  31.259  1.00  0.00     0.167 HD
ATOM     26  C   UNL A   1      43.767  28.165  34.054  1.00  0.00     0.034 A 
ATOM     27  C   UNL A   1      37.996  29.849  30.170  1.00  0.00     0.034 A 
ATOM     28  C   UNL A   1      42.861  29.109  34.645  1.00  0.00     0.049 A 
ATOM     29  C   UNL A   1      38.373  30.550  31.465  1.00  0.00     0.074 A 
ATOM     30  C   UNL A   1      42.828  29.590  35.940  1.00  0.00     0.029 A 
ATOM     31  N   UNL A   1      41.807  29.705  33.965  1.00  0.00    -0.354 N 
ATOM     32  N   UNL A   1      39.465  30.430  32.188  1.00  0.00    -0.248 NA
ATOM     33  C   UNL A   1      37.411  31.520  32.009  1.00  0.00     0.031 C 
ATOM     34  C   UNL A   1      41.738  30.461  36.047  1.00  0.00     0.029 A 
ATOM     35  C   UNL A   1      41.115  30.548  34.811  1.00  0.00     0.049 A 
ATOM     36  H   UNL A   1      41.586  29.549  33.019  1.00  0.00     0.167 HD
ATOM     37  C   UNL A   1      39.300  31.283  33.268  1.00  0.00     0.074 A 
ATOM     38  C   UNL A   1      38.102  32.052  33.005  1.00  0.00     0.031 C 
ATOM     39  C   UNL A   1      39.980  31.348  34.440  1.00  0.00     0.034 A 
BRANCH  26  40
ATOM     40  C   UNL A   1      44.802  27.485  34.905  1.00  0.00     0.023 A 
ATOM     41  C   UNL A   1      44.546  26.235  35.498  1.00  0.00     0.012 A 
ATOM     42  C   UNL A   1      46.033  28.127  35.143  1.00  0.00     0.148 A 
ATOM     43  C   UNL A   1      45.485  25.653  36.350  1.00  0.00     0.002 A 
ATOM     44  C   UNL A   1      46.984  27.518  35.949  1.00  0.00     0.091 A 
ATOM     45  F   UNL A   1      46.241  29.335  34.598  1.00  0.00    -0.205 F 
ATOM     46  C   UNL A   1      46.705  26.289  36.569  1.00  0.00     0.022 A 
BRANCH  44  47
ATOM     47  S   UNL A   1      48.611  28.221  36.230  1.00  0.00     0.127 S 
ATOM     48  O   UNL A   1      48.309  29.650  36.302  1.00  0.00    -0.237 OA
ATOM     49  O   UNL A   1      48.987  27.611  37.506  1.00  0.00    -0.237 OA
ATOM     50  O   UNL A   1      49.430  27.817  35.095  1.00  0.00    -0.744 OA
ENDBRANCH  44  47
ENDBRANCH  26  40
BRANCH  27  51
ATOM     51  C   UNL A   1      36.858  30.377  29.309  1.00  0.00     0.023 A 
ATOM     52  C   UNL A   1      35.921  29.451  28.786  1.00  0.00     0.012 A 
ATOM     53  C   UNL A   1      36.624  31.730  29.001  1.00  0.00     0.148 A 
ATOM     54  C   UNL A   1      34.867  29.826  27.944  1.00  0.00     0.002 A 
ATOM     55  C   UNL A   1      35.463  32.117  28.323  1.00  0.00     0.091 A 
ATOM     56  F   UNL A   1      37.550  32.642  29.324  1.00  0.00    -0.205 F 
ATOM     57  C   UNL A   1      34.611  31.169  27.747  1.00  0.00     0.022 A 
BRANCH  55  58
ATOM     58  S   UNL A   1      34.876  33.817  28.306  1.00  0.00     0.127 S 
ATOM     59  O   UNL A   1      33.436  33.644  28.497  1.00  0.00    -0.237 OA
ATOM     60  O   UNL A   1      35.588  34.379  29.456  1.00  0.00    -0.237 OA
ATOM     61  O   UNL A   1      35.283  34.362  27.022  1.00  0.00    -0.744 OA
ENDBRANCH  55  58
ENDBRANCH  27  51
BRANCH  39  62
ATOM     62  C   UNL A   1      39.404  32.264  35.484  1.00  0.00     0.023 A 
ATOM     63  C   UNL A   1      38.326  31.810  36.278  1.00  0.00     0.012 A 
ATOM     64  C   UNL A   1      39.927  33.550  35.690  1.00  0.00     0.148 A 
ATOM     65  C   UNL A   1      37.730  32.654  37.208  1.00  0.00     0.002 A 
ATOM     66  C   UNL A   1      39.367  34.363  36.664  1.00  0.00     0.091 A 
ATOM     67  F   UNL A   1      40.948  33.956  34.920  1.00  0.00    -0.205 F 
ATOM     68  C   UNL A   1      38.255  33.927  37.406  1.00  0.00     0.022 A 
BRANCH  66  69
ATOM     69  S   UNL A   1      40.031  35.979  37.066  1.00  0.00     0.127 S 
ATOM     70  O   UNL A   1      39.235  36.343  38.237  1.00  0.00    -0.237 OA
ATOM     71  O   UNL A   1      41.432  35.671  37.349  1.00  0.00    -0.237 OA
ATOM     72  O   UNL A   1      39.816  36.808  35.887  1.00  0.00    -0.744 OA
ENDBRANCH  66  69
ENDBRANCH  39  62
ENDBRANCH  13  14
ENDBRANCH   6   8
ENDBRANCH   5   6
ENDBRANCH   4   5
ENDBRANCH   3   4
ENDBRANCH   2   3
ENDBRANCH   1   2
BRANCH   1  73
ATOM     73  C   UNL A   1      39.726  20.280  25.897  1.00  0.00     0.188 C 
BRANCH  73  74
ATOM     74  O   UNL A   1      39.509  21.672  25.664  1.00  0.00    -0.376 OA
BRANCH  74  75
ATOM     75  C   UNL A   1      38.245  22.212  26.030  1.00  0.00     0.202 C 
BRANCH  75  76
ATOM     76  C   UNL A   1      37.004  21.669  25.316  1.00  0.00     0.261 C 
BRANCH  76  77
ATOM     77  O   UNL A   1      35.771  22.147  25.847  1.00  0.00    -0.462 OA
BRANCH  77  78
ATOM     78  C   UNL A   1      34.645  21.426  25.530  1.00  0.00     0.329 C 
ATOM     79  O   UNL A   1      34.554  20.208  25.628  1.00  0.00    -0.250 OA
BRANCH  78  80
ATOM     80  C   UNL A   1      33.479  22.378  25.176  1.00  0.00     0.195 C 
BRANCH  80  81
ATOM     81  N   UNL A   1      33.607  23.531  26.073  1.00  0.00    -0.337 N 
ATOM     82  C   UNL A   1      32.538  24.283  26.445  1.00  0.00     0.278 C 
ATOM     83  H   UNL A   1      34.498  23.768  26.417  1.00  0.00     0.164 HD
ATOM     84  O   UNL A   1      31.814  23.846  27.331  1.00  0.00    -0.268 OA
BRANCH  82  85
ATOM     85  C   UNL A   1      32.397  25.669  25.771  1.00  0.00     0.272 C 
ATOM     86  C   UNL A   1      33.669  26.152  25.068  1.00  0.00     0.076 C 
ATOM     87  N   UNL A   1      31.316  25.648  24.758  1.00  0.00    -0.333 N 
ATOM     88  C   UNL A   1      33.457  27.550  24.456  1.00  0.00     0.016 C 
ATOM     89  C   UNL A   1      30.996  27.014  24.365  1.00  0.00     0.186 C 
ATOM     90  H   UNL A   1      30.487  25.204  25.155  1.00  0.00     0.347 HD
ATOM     91  H   UNL A   1      31.624  25.121  23.942  1.00  0.00     0.347 HD
ATOM     92  C   UNL A   1      32.175  27.622  23.600  1.00  0.00     0.048 C 
ATOM     93  C   UNL A   1      29.729  26.999  23.513  1.00  0.00     0.065 C 
ATOM     94  C   UNL A   1      31.814  29.057  23.207  1.00  0.00     0.010 C 
ATOM     95  C   UNL A   1      29.334  28.427  23.171  1.00  0.00     0.006 C 
ATOM     96  C   UNL A   1      30.473  29.168  22.473  1.00  0.00     0.001 C 
ENDBRANCH  82  85
ENDBRANCH  80  81
BRANCH  80  97
ATOM     97  C   UNL A   1      33.456  22.723  23.707  1.00  0.00     0.023 C 
ATOM     98  C   UNL A   1      32.835  21.808  22.678  1.00  0.00     0.007 C 
ATOM     99  C   UNL A   1      32.168  23.109  22.996  1.00  0.00     0.007 C 
ENDBRANCH  80  97
ENDBRANCH  78  80
ENDBRANCH  77  78
ENDBRANCH  76  77
ENDBRANCH  75  76
ENDBRANCH  74  75
ENDBRANCH  73  74
ENDBRANCH   1  73
TORSDOF 23
ENDMDL
