MODEL 1
REMARK VINA RESULT:     -10.8      0.000      0.000
REMARK SMILES CNC(=O)NC1=[NH+]N=CN[C@@H]1C(=O)OCCOCCOCCOC(=O)c1ccc(-c2c3nc(c(-c4cccc(S(=O)(=O)[O-])c4F)c4ccc([nH]4)c(-c4cccc(S(=O)(=O)[O-])c4F)c4nc(c(-c5cccc(S(=O)(=O)[O-])c5F)c5ccc2[nH]5)C=C4)C=C3)cc1
REMARK SMILES IDX 20 1 19 2 18 3 17 4 16 5 15 6 14 7 12 8 13 9 11 10 1 11 2 12
REMARK SMILES IDX 3 13 4 15 5 16 6 17 7 19 8 20 10 22 9 23 21 25 22 26 23 27
REMARK SMILES IDX 24 28 25 29 26 30 27 31 88 32 28 33 87 34 29 35 30 36 31 37
REMARK SMILES IDX 81 38 32 39 86 40 80 41 82 42 33 43 85 44 79 45 78 46 34 48
REMARK SMILES IDX 66 49 46 50 65 51 47 52 50 53 64 54 83 55 48 56 49 57 63 59
REMARK SMILES IDX 84 60 51 61 35 62 36 63 44 64 37 65 39 66 45 67 38 68 40 69
REMARK SMILES IDX 41 70 42 71 43 72 67 73 68 74 76 75 69 76 71 77 77 78 70 79
REMARK SMILES IDX 72 80 73 81 74 82 75 83 52 84 53 85 61 86 54 87 56 88 62 89
REMARK SMILES IDX 55 90 57 91 58 92 59 93 60 94
REMARK H PARENT 2 14 5 18 7 21 10 24 82 47 50 58
REMARK Flexibility Score: inf
ROOT
ATOM      1  O   UNL A   1      31.637  28.606  23.557  1.00  0.00    -0.376 OA
ENDROOT
BRANCH   1   2
ATOM      2  C   UNL A   1      32.916  28.961  23.091  1.00  0.00     0.188 C 
BRANCH   2   3
ATOM      3  C   UNL A   1      33.983  27.900  22.811  1.00  0.00     0.188 C 
BRANCH   3   4
ATOM      4  O   UNL A   1      33.739  26.955  21.792  1.00  0.00    -0.376 OA
BRANCH   4   5
ATOM      5  C   UNL A   1      33.101  25.731  22.138  1.00  0.00     0.202 C 
BRANCH   5   6
ATOM      6  C   UNL A   1      33.746  24.767  23.150  1.00  0.00     0.261 C 
BRANCH   6   7
ATOM      7  O   UNL A   1      32.832  24.309  24.167  1.00  0.00    -0.461 OA
BRANCH   7   8
ATOM      8  C   UNL A   1      32.276  23.080  23.954  1.00  0.00     0.341 C 
ATOM      9  O   UNL A   1      32.338  22.492  22.880  1.00  0.00    -0.249 OA
BRANCH   8  10
ATOM     10  C   UNL A   1      31.741  22.440  25.249  1.00  0.00     0.308 C 
ATOM     11  C   UNL A   1      29.243  22.665  27.447  1.00  0.00     0.147 C 
ATOM     12  N   UNL A   1      29.333  23.941  26.765  1.00  0.00    -0.321 N 
ATOM     13  C   UNL A   1      30.392  24.787  26.669  1.00  0.00     0.406 C 
ATOM     14  H   UNL A   1      28.513  24.236  26.307  1.00  0.00     0.167 HD
ATOM     15  O   UNL A   1      30.213  25.965  26.379  1.00  0.00    -0.221 OA
ATOM     16  N   UNL A   1      31.641  24.306  26.936  1.00  0.00    -0.191 N 
ATOM     17  C   UNL A   1      32.298  23.207  26.442  1.00  0.00     0.311 C 
ATOM     18  H   UNL A   1      32.154  24.834  27.590  1.00  0.00     0.317 HD
ATOM     19  N   UNL A   1      33.406  22.882  27.041  1.00  0.00    -0.148 N 
ATOM     20  N   UNL A   1      34.020  21.652  26.699  1.00  0.00    -0.077 NA
ATOM     21  H   UNL A   1      33.808  23.477  27.714  1.00  0.00     0.342 HD
ATOM     22  N   UNL A   1      32.124  21.042  25.426  1.00  0.00    -0.350 N 
ATOM     23  C   UNL A   1      33.323  20.805  26.014  1.00  0.00     0.241 C 
ATOM     24  H   UNL A   1      31.540  20.307  25.133  1.00  0.00     0.163 HD
ENDBRANCH   8  10
ENDBRANCH   7   8
ENDBRANCH   6   7
ENDBRANCH   5   6
ENDBRANCH   4   5
ENDBRANCH   3   4
ENDBRANCH   2   3
ENDBRANCH   1   2
BRANCH   1  25
ATOM     25  C   UNL A   1      31.139  29.100  24.798  1.00  0.00     0.202 C 
BRANCH  25  26
ATOM     26  C   UNL A   1      31.654  30.329  25.588  1.00  0.00     0.261 C 
BRANCH  26  27
ATOM     27  O   UNL A   1      32.897  30.235  26.285  1.00  0.00    -0.460 OA
BRANCH  27  28
ATOM     28  C   UNL A   1      33.259  31.333  26.997  1.00  0.00     0.338 C 
ATOM     29  O   UNL A   1      32.535  32.261  27.324  1.00  0.00    -0.246 OA
BRANCH  28  30
ATOM     30  C   UNL A   1      34.596  31.073  27.582  1.00  0.00     0.060 A 
ATOM     31  C   UNL A   1      34.971  29.739  27.815  1.00  0.00     0.016 A 
ATOM     32  C   UNL A   1      35.488  32.112  27.846  1.00  0.00     0.016 A 
ATOM     33  C   UNL A   1      36.230  29.441  28.336  1.00  0.00     0.010 A 
ATOM     34  C   UNL A   1      36.735  31.815  28.404  1.00  0.00     0.010 A 
ATOM     35  C   UNL A   1      37.099  30.482  28.680  1.00  0.00    -0.014 A 
BRANCH  35  36
ATOM     36  C   UNL A   1      38.284  30.201  29.527  1.00  0.00     0.031 A 
ATOM     37  C   UNL A   1      39.324  29.252  28.993  1.00  0.00     0.074 A 
ATOM     38  C   UNL A   1      38.442  30.761  30.740  1.00  0.00     0.049 A 
ATOM     39  N   UNL A   1      40.397  28.786  29.572  1.00  0.00    -0.248 NA
ATOM     40  C   UNL A   1      39.116  28.760  27.621  1.00  0.00     0.031 C 
ATOM     41  C   UNL A   1      37.525  31.712  31.363  1.00  0.00     0.029 A 
ATOM     42  N   UNL A   1      39.426  30.574  31.680  1.00  0.00    -0.354 N 
ATOM     43  C   UNL A   1      40.972  27.915  28.654  1.00  0.00     0.074 A 
ATOM     44  C   UNL A   1      40.126  27.916  27.481  1.00  0.00     0.031 C 
ATOM     45  C   UNL A   1      37.969  31.998  32.600  1.00  0.00     0.029 A 
ATOM     46  C   UNL A   1      39.183  31.223  32.867  1.00  0.00     0.049 A 
ATOM     47  H   UNL A   1      40.230  30.028  31.519  1.00  0.00     0.167 HD
ATOM     48  C   UNL A   1      42.105  27.185  28.772  1.00  0.00     0.034 A 
ATOM     49  C   UNL A   1      39.841  31.168  34.043  1.00  0.00     0.034 A 
ATOM     50  C   UNL A   1      42.953  27.190  29.932  1.00  0.00     0.049 A 
ATOM     51  C   UNL A   1      41.076  30.311  34.165  1.00  0.00     0.074 A 
ATOM     52  C   UNL A   1      44.144  26.515  30.127  1.00  0.00     0.029 A 
ATOM     53  N   UNL A   1      42.690  27.884  31.102  1.00  0.00    -0.354 N 
ATOM     54  N   UNL A   1      41.666  29.573  33.255  1.00  0.00    -0.248 NA
ATOM     55  C   UNL A   1      41.753  30.299  35.472  1.00  0.00     0.031 C 
ATOM     56  C   UNL A   1      44.582  26.770  31.430  1.00  0.00     0.029 A 
ATOM     57  C   UNL A   1      43.688  27.642  32.029  1.00  0.00     0.049 A 
ATOM     58  H   UNL A   1      41.908  28.465  31.251  1.00  0.00     0.167 HD
ATOM     59  C   UNL A   1      42.800  29.046  33.866  1.00  0.00     0.074 A 
ATOM     60  C   UNL A   1      42.825  29.562  35.217  1.00  0.00     0.031 C 
ATOM     61  C   UNL A   1      43.732  28.202  33.356  1.00  0.00     0.034 A 
BRANCH  48  62
ATOM     62  C   UNL A   1      42.497  26.316  27.606  1.00  0.00     0.023 A 
ATOM     63  C   UNL A   1      43.328  26.830  26.591  1.00  0.00     0.012 A 
ATOM     64  C   UNL A   1      42.077  24.972  27.543  1.00  0.00     0.148 A 
ATOM     65  C   UNL A   1      43.708  26.033  25.513  1.00  0.00     0.002 A 
ATOM     66  C   UNL A   1      42.501  24.170  26.491  1.00  0.00     0.091 A 
ATOM     67  F   UNL A   1      41.268  24.510  28.506  1.00  0.00    -0.205 F 
ATOM     68  C   UNL A   1      43.304  24.701  25.469  1.00  0.00     0.022 A 
BRANCH  66  69
ATOM     69  S   UNL A   1      42.101  22.422  26.386  1.00  0.00     0.127 S 
ATOM     70  O   UNL A   1      42.636  21.922  27.651  1.00  0.00    -0.237 OA
ATOM     71  O   UNL A   1      40.640  22.447  26.308  1.00  0.00    -0.237 OA
ATOM     72  O   UNL A   1      42.766  21.928  25.189  1.00  0.00    -0.744 OA
ENDBRANCH  66  69
ENDBRANCH  48  62
BRANCH  49  73
ATOM     73  C   UNL A   1      39.352  31.955  35.213  1.00  0.00     0.023 A 
ATOM     74  C   UNL A   1      38.421  31.380  36.100  1.00  0.00     0.012 A 
ATOM     75  C   UNL A   1      39.799  33.270  35.443  1.00  0.00     0.148 A 
ATOM     76  C   UNL A   1      37.917  32.114  37.175  1.00  0.00     0.002 A 
ATOM     77  C   UNL A   1      39.335  33.976  36.547  1.00  0.00     0.091 A 
ATOM     78  F   UNL A   1      40.670  33.804  34.576  1.00  0.00    -0.205 F 
ATOM     79  C   UNL A   1      38.381  33.407  37.404  1.00  0.00     0.022 A 
BRANCH  77  80
ATOM     80  S   UNL A   1      39.963  35.600  36.986  1.00  0.00     0.127 S 
ATOM     81  O   UNL A   1      39.200  35.898  38.195  1.00  0.00    -0.237 OA
ATOM     82  O   UNL A   1      41.382  35.322  37.205  1.00  0.00    -0.237 OA
ATOM     83  O   UNL A   1      39.685  36.454  35.839  1.00  0.00    -0.744 OA
ENDBRANCH  77  80
ENDBRANCH  49  73
BRANCH  61  84
ATOM     84  C   UNL A   1      44.897  27.818  34.236  1.00  0.00     0.023 A 
ATOM     85  C   UNL A   1      46.016  28.667  34.343  1.00  0.00     0.012 A 
ATOM     86  C   UNL A   1      44.842  26.647  35.020  1.00  0.00     0.148 A 
ATOM     87  C   UNL A   1      47.078  28.338  35.188  1.00  0.00     0.002 A 
ATOM     88  C   UNL A   1      45.877  26.354  35.898  1.00  0.00     0.091 A 
ATOM     89  F   UNL A   1      43.775  25.844  34.895  1.00  0.00    -0.205 F 
ATOM     90  C   UNL A   1      47.003  27.190  35.973  1.00  0.00     0.022 A 
BRANCH  88  91
ATOM     91  S   UNL A   1      45.824  24.952  37.021  1.00  0.00     0.127 S 
ATOM     92  O   UNL A   1      44.385  24.788  37.224  1.00  0.00    -0.237 OA
ATOM     93  O   UNL A   1      46.453  23.896  36.227  1.00  0.00    -0.237 OA
ATOM     94  O   UNL A   1      46.578  25.353  38.202  1.00  0.00    -0.744 OA
ENDBRANCH  88  91
ENDBRANCH  61  84
ENDBRANCH  35  36
ENDBRANCH  28  30
ENDBRANCH  27  28
ENDBRANCH  26  27
ENDBRANCH  25  26
ENDBRANCH   1  25
TORSDOF 20
ENDMDL
MODEL 2
REMARK VINA RESULT:     -10.6      5.109      8.165
REMARK SMILES CNC(=O)NC1=[NH+]N=CN[C@@H]1C(=O)OCCOCCOCCOC(=O)c1ccc(-c2c3nc(c(-c4cccc(S(=O)(=O)[O-])c4F)c4ccc([nH]4)c(-c4cccc(S(=O)(=O)[O-])c4F)c4nc(c(-c5cccc(S(=O)(=O)[O-])c5F)c5ccc2[nH]5)C=C4)C=C3)cc1
REMARK SMILES IDX 20 1 19 2 18 3 17 4 16 5 15 6 14 7 12 8 13 9 11 10 1 11 2 12
REMARK SMILES IDX 3 13 4 15 5 16 6 17 7 19 8 20 10 22 9 23 21 25 22 26 23 27
REMARK SMILES IDX 24 28 25 29 26 30 27 31 88 32 28 33 87 34 29 35 30 36 31 37
REMARK SMILES IDX 81 38 32 39 86 40 80 41 82 42 33 43 85 44 79 45 78 46 34 48
REMARK SMILES IDX 66 49 46 50 65 51 47 52 50 53 64 54 83 55 48 56 49 57 63 59
REMARK SMILES IDX 84 60 51 61 35 62 36 63 44 64 37 65 39 66 45 67 38 68 40 69
REMARK SMILES IDX 41 70 42 71 43 72 67 73 68 74 76 75 69 76 71 77 77 78 70 79
REMARK SMILES IDX 72 80 73 81 74 82 75 83 52 84 53 85 61 86 54 87 56 88 62 89
REMARK SMILES IDX 55 90 57 91 58 92 59 93 60 94
REMARK H PARENT 2 14 5 18 7 21 10 24 82 47 50 58
REMARK Flexibility Score: inf
ROOT
ATOM      1  O   UNL A   1      37.410  20.494  24.609  1.00  0.00    -0.376 OA
ENDROOT
BRANCH   1   2
ATOM      2  C   UNL A   1      37.279  21.770  25.188  1.00  0.00     0.188 C 
BRANCH   2   3
ATOM      3  C   UNL A   1      36.011  22.605  24.994  1.00  0.00     0.188 C 
BRANCH   3   4
ATOM      4  O   UNL A   1      35.582  23.431  26.054  1.00  0.00    -0.376 OA
BRANCH   4   5
ATOM      5  C   UNL A   1      34.392  24.192  25.884  1.00  0.00     0.202 C 
BRANCH   5   6
ATOM      6  C   UNL A   1      34.087  24.889  24.546  1.00  0.00     0.261 C 
BRANCH   6   7
ATOM      7  O   UNL A   1      34.019  26.325  24.652  1.00  0.00    -0.461 OA
BRANCH   7   8
ATOM      8  C   UNL A   1      33.034  26.927  23.921  1.00  0.00     0.341 C 
ATOM      9  O   UNL A   1      32.835  26.685  22.735  1.00  0.00    -0.249 OA
BRANCH   8  10
ATOM     10  C   UNL A   1      32.094  27.785  24.788  1.00  0.00     0.308 C 
ATOM     11  C   UNL A   1      31.994  30.632  26.521  1.00  0.00     0.147 C 
ATOM     12  N   UNL A   1      33.388  30.257  26.388  1.00  0.00    -0.321 N 
ATOM     13  C   UNL A   1      34.005  29.110  26.772  1.00  0.00     0.406 C 
ATOM     14  H   UNL A   1      33.968  30.928  25.960  1.00  0.00     0.167 HD
ATOM     15  O   UNL A   1      35.222  29.088  26.922  1.00  0.00    -0.221 OA
ATOM     16  N   UNL A   1      33.242  28.006  27.018  1.00  0.00    -0.191 N 
ATOM     17  C   UNL A   1      32.282  27.396  26.250  1.00  0.00     0.311 C 
ATOM     18  H   UNL A   1      33.406  27.578  27.889  1.00  0.00     0.317 HD
ATOM     19  N   UNL A   1      31.573  26.478  26.837  1.00  0.00    -0.148 N 
ATOM     20  N   UNL A   1      30.448  25.955  26.152  1.00  0.00    -0.077 NA
ATOM     21  H   UNL A   1      31.812  26.154  27.735  1.00  0.00     0.342 HD
ATOM     22  N   UNL A   1      30.677  27.612  24.482  1.00  0.00    -0.350 N 
ATOM     23  C   UNL A   1      30.035  26.592  25.106  1.00  0.00     0.241 C 
ATOM     24  H   UNL A   1      30.209  28.206  23.853  1.00  0.00     0.163 HD
ENDBRANCH   8  10
ENDBRANCH   7   8
ENDBRANCH   6   7
ENDBRANCH   5   6
ENDBRANCH   4   5
ENDBRANCH   3   4
ENDBRANCH   2   3
ENDBRANCH   1   2
BRANCH   1  25
ATOM     25  C   UNL A   1      38.160  19.466  25.250  1.00  0.00     0.202 C 
BRANCH  25  26
ATOM     26  C   UNL A   1      39.675  19.476  25.571  1.00  0.00     0.261 C 
BRANCH  26  27
ATOM     27  O   UNL A   1      40.111  19.933  26.851  1.00  0.00    -0.460 OA
BRANCH  27  28
ATOM     28  C   UNL A   1      41.425  20.262  26.945  1.00  0.00     0.338 C 
ATOM     29  O   UNL A   1      42.373  19.591  26.566  1.00  0.00    -0.246 OA
BRANCH  28  30
ATOM     30  C   UNL A   1      41.509  21.700  27.295  1.00  0.00     0.060 A 
ATOM     31  C   UNL A   1      41.006  22.637  26.377  1.00  0.00     0.016 A 
ATOM     32  C   UNL A   1      42.020  22.121  28.522  1.00  0.00     0.016 A 
ATOM     33  C   UNL A   1      41.034  23.999  26.672  1.00  0.00     0.010 A 
ATOM     34  C   UNL A   1      42.083  23.490  28.802  1.00  0.00     0.010 A 
ATOM     35  C   UNL A   1      41.620  24.435  27.866  1.00  0.00    -0.014 A 
BRANCH  35  36
ATOM     36  C   UNL A   1      41.952  25.870  28.041  1.00  0.00     0.031 A 
ATOM     37  C   UNL A   1      43.325  26.332  27.633  1.00  0.00     0.074 A 
ATOM     38  C   UNL A   1      41.070  26.749  28.553  1.00  0.00     0.049 A 
ATOM     39  N   UNL A   1      43.878  27.508  27.762  1.00  0.00    -0.248 NA
ATOM     40  C   UNL A   1      44.191  25.325  26.996  1.00  0.00     0.031 C 
ATOM     41  C   UNL A   1      39.703  26.438  28.966  1.00  0.00     0.029 A 
ATOM     42  N   UNL A   1      41.217  28.083  28.845  1.00  0.00    -0.354 N 
ATOM     43  C   UNL A   1      45.168  27.374  27.264  1.00  0.00     0.074 A 
ATOM     44  C   UNL A   1      45.316  26.001  26.832  1.00  0.00     0.031 C 
ATOM     45  C   UNL A   1      39.147  27.543  29.493  1.00  0.00     0.029 A 
ATOM     46  C   UNL A   1      40.131  28.628  29.487  1.00  0.00     0.049 A 
ATOM     47  H   UNL A   1      42.023  28.600  28.615  1.00  0.00     0.167 HD
ATOM     48  C   UNL A   1      46.142  28.308  27.167  1.00  0.00     0.034 A 
ATOM     49  C   UNL A   1      39.965  29.847  30.040  1.00  0.00     0.034 A 
ATOM     50  C   UNL A   1      45.995  29.674  27.586  1.00  0.00     0.049 A 
ATOM     51  C   UNL A   1      41.081  30.858  29.960  1.00  0.00     0.074 A 
ATOM     52  C   UNL A   1      46.912  30.706  27.489  1.00  0.00     0.029 A 
ATOM     53  N   UNL A   1      44.869  30.197  28.203  1.00  0.00    -0.354 N 
ATOM     54  N   UNL A   1      42.258  30.750  29.394  1.00  0.00    -0.248 NA
ATOM     55  C   UNL A   1      40.835  32.172  30.575  1.00  0.00     0.031 C 
ATOM     56  C   UNL A   1      46.355  31.842  28.083  1.00  0.00     0.029 A 
ATOM     57  C   UNL A   1      45.073  31.531  28.507  1.00  0.00     0.049 A 
ATOM     58  H   UNL A   1      44.045  29.692  28.396  1.00  0.00     0.167 HD
ATOM     59  C   UNL A   1      42.874  31.989  29.548  1.00  0.00     0.074 A 
ATOM     60  C   UNL A   1      41.933  32.838  30.244  1.00  0.00     0.031 C 
ATOM     61  C   UNL A   1      44.111  32.385  29.155  1.00  0.00     0.034 A 
BRANCH  48  62
ATOM     62  C   UNL A   1      47.461  27.881  26.579  1.00  0.00     0.023 A 
ATOM     63  C   UNL A   1      48.524  27.509  27.426  1.00  0.00     0.012 A 
ATOM     64  C   UNL A   1      47.629  27.803  25.182  1.00  0.00     0.148 A 
ATOM     65  C   UNL A   1      49.745  27.100  26.894  1.00  0.00     0.002 A 
ATOM     66  C   UNL A   1      48.833  27.347  24.660  1.00  0.00     0.091 A 
ATOM     67  F   UNL A   1      46.614  28.184  24.394  1.00  0.00    -0.205 F 
ATOM     68  C   UNL A   1      49.895  27.008  25.513  1.00  0.00     0.022 A 
BRANCH  66  69
ATOM     69  S   UNL A   1      49.098  27.116  22.899  1.00  0.00     0.127 S 
ATOM     70  O   UNL A   1      48.275  25.939  22.629  1.00  0.00    -0.237 OA
ATOM     71  O   UNL A   1      48.577  28.366  22.346  1.00  0.00    -0.237 OA
ATOM     72  O   UNL A   1      50.531  26.927  22.729  1.00  0.00    -0.744 OA
ENDBRANCH  66  69
ENDBRANCH  48  62
BRANCH  49  73
ATOM     73  C   UNL A   1      38.683  30.193  30.719  1.00  0.00     0.023 A 
ATOM     74  C   UNL A   1      38.435  29.723  32.024  1.00  0.00     0.012 A 
ATOM     75  C   UNL A   1      37.706  30.976  30.074  1.00  0.00     0.148 A 
ATOM     76  C   UNL A   1      37.223  29.998  32.661  1.00  0.00     0.002 A 
ATOM     77  C   UNL A   1      36.524  31.293  30.736  1.00  0.00     0.091 A 
ATOM     78  F   UNL A   1      37.953  31.397  28.826  1.00  0.00    -0.205 F 
ATOM     79  C   UNL A   1      36.273  30.791  32.022  1.00  0.00     0.022 A 
BRANCH  77  80
ATOM     80  S   UNL A   1      35.296  32.401  30.037  1.00  0.00     0.127 S 
ATOM     81  O   UNL A   1      34.344  32.523  31.138  1.00  0.00    -0.237 OA
ATOM     82  O   UNL A   1      36.091  33.600  29.773  1.00  0.00    -0.237 OA
ATOM     83  O   UNL A   1      34.796  31.734  28.843  1.00  0.00    -0.744 OA
ENDBRANCH  77  80
ENDBRANCH  49  73
BRANCH  61  84
ATOM     84  C   UNL A   1      44.512  33.816  29.416  1.00  0.00     0.023 A 
ATOM     85  C   UNL A   1      45.108  34.175  30.641  1.00  0.00     0.012 A 
ATOM     86  C   UNL A   1      44.367  34.792  28.408  1.00  0.00     0.148 A 
ATOM     87  C   UNL A   1      45.519  35.488  30.872  1.00  0.00     0.002 A 
ATOM     88  C   UNL A   1      44.827  36.084  28.625  1.00  0.00     0.091 A 
ATOM     89  F   UNL A   1      43.784  34.436  27.254  1.00  0.00    -0.205 F 
ATOM     90  C   UNL A   1      45.389  36.439  29.862  1.00  0.00     0.022 A 
BRANCH  88  91
ATOM     91  S   UNL A   1      44.794  37.349  27.350  1.00  0.00     0.127 S 
ATOM     92  O   UNL A   1      45.310  38.512  28.070  1.00  0.00    -0.237 OA
ATOM     93  O   UNL A   1      45.704  36.799  26.345  1.00  0.00    -0.237 OA
ATOM     94  O   UNL A   1      43.406  37.450  26.918  1.00  0.00    -0.744 OA
ENDBRANCH  88  91
ENDBRANCH  61  84
ENDBRANCH  35  36
ENDBRANCH  28  30
ENDBRANCH  27  28
ENDBRANCH  26  27
ENDBRANCH  25  26
ENDBRANCH   1  25
TORSDOF 20
ENDMDL
MODEL 3
REMARK VINA RESULT:     -10.4      1.868      8.023
REMARK SMILES CNC(=O)NC1=[NH+]N=CN[C@@H]1C(=O)OCCOCCOCCOC(=O)c1ccc(-c2c3nc(c(-c4cccc(S(=O)(=O)[O-])c4F)c4ccc([nH]4)c(-c4cccc(S(=O)(=O)[O-])c4F)c4nc(c(-c5cccc(S(=O)(=O)[O-])c5F)c5ccc2[nH]5)C=C4)C=C3)cc1
REMARK SMILES IDX 20 1 19 2 18 3 17 4 16 5 15 6 14 7 12 8 13 9 11 10 1 11 2 12
REMARK SMILES IDX 3 13 4 15 5 16 6 17 7 19 8 20 10 22 9 23 21 25 22 26 23 27
REMARK SMILES IDX 24 28 25 29 26 30 27 31 88 32 28 33 87 34 29 35 30 36 31 37
REMARK SMILES IDX 81 38 32 39 86 40 80 41 82 42 33 43 85 44 79 45 78 46 34 48
REMARK SMILES IDX 66 49 46 50 65 51 47 52 50 53 64 54 83 55 48 56 49 57 63 59
REMARK SMILES IDX 84 60 51 61 35 62 36 63 44 64 37 65 39 66 45 67 38 68 40 69
REMARK SMILES IDX 41 70 42 71 43 72 67 73 68 74 76 75 69 76 71 77 77 78 70 79
REMARK SMILES IDX 72 80 73 81 74 82 75 83 52 84 53 85 61 86 54 87 56 88 62 89
REMARK SMILES IDX 55 90 57 91 58 92 59 93 60 94
REMARK H PARENT 2 14 5 18 7 21 10 24 82 47 50 58
REMARK Flexibility Score: inf
ROOT
ATOM      1  O   UNL A   1      32.261  29.270  24.526  1.00  0.00    -0.376 OA
ENDROOT
BRANCH   1   2
ATOM      2  C   UNL A   1      33.056  28.293  23.899  1.00  0.00     0.188 C 
BRANCH   2   3
ATOM      3  C   UNL A   1      32.425  27.107  23.165  1.00  0.00     0.188 C 
BRANCH   3   4
ATOM      4  O   UNL A   1      32.044  25.977  23.918  1.00  0.00    -0.376 OA
BRANCH   4   5
ATOM      5  C   UNL A   1      31.889  26.118  25.325  1.00  0.00     0.202 C 
BRANCH   5   6
ATOM      6  C   UNL A   1      32.150  24.930  26.269  1.00  0.00     0.261 C 
BRANCH   6   7
ATOM      7  O   UNL A   1      33.495  24.419  26.189  1.00  0.00    -0.461 OA
BRANCH   7   8
ATOM      8  C   UNL A   1      33.656  23.113  26.554  1.00  0.00     0.341 C 
ATOM      9  O   UNL A   1      33.120  22.621  27.541  1.00  0.00    -0.249 OA
BRANCH   8  10
ATOM     10  C   UNL A   1      34.417  22.291  25.496  1.00  0.00     0.308 C 
ATOM     11  C   UNL A   1      37.406  20.957  24.862  1.00  0.00     0.147 C 
ATOM     12  N   UNL A   1      37.603  22.013  25.836  1.00  0.00    -0.321 N 
ATOM     13  C   UNL A   1      37.281  23.330  25.747  1.00  0.00     0.406 C 
ATOM     14  H   UNL A   1      38.030  21.738  26.679  1.00  0.00     0.167 HD
ATOM     15  O   UNL A   1      37.826  24.147  26.481  1.00  0.00    -0.221 OA
ATOM     16  N   UNL A   1      36.372  23.719  24.806  1.00  0.00    -0.191 N 
ATOM     17  C   UNL A   1      35.111  23.250  24.536  1.00  0.00     0.311 C 
ATOM     18  H   UNL A   1      36.670  24.457  24.227  1.00  0.00     0.317 HD
ATOM     19  N   UNL A   1      34.560  23.680  23.439  1.00  0.00    -0.148 N 
ATOM     20  N   UNL A   1      33.346  23.082  23.016  1.00  0.00    -0.077 NA
ATOM     21  H   UNL A   1      34.976  24.402  22.916  1.00  0.00     0.342 HD
ATOM     22  N   UNL A   1      33.564  21.425  24.687  1.00  0.00    -0.350 N 
ATOM     23  C   UNL A   1      32.991  21.980  23.590  1.00  0.00     0.241 C 
ATOM     24  H   UNL A   1      33.411  20.483  24.927  1.00  0.00     0.163 HD
ENDBRANCH   8  10
ENDBRANCH   7   8
ENDBRANCH   6   7
ENDBRANCH   5   6
ENDBRANCH   4   5
ENDBRANCH   3   4
ENDBRANCH   2   3
ENDBRANCH   1   2
BRANCH   1  25
ATOM     25  C   UNL A   1      32.562  29.736  25.839  1.00  0.00     0.202 C 
BRANCH  25  26
ATOM     26  C   UNL A   1      32.145  31.089  26.468  1.00  0.00     0.261 C 
BRANCH  26  27
ATOM     27  O   UNL A   1      32.719  31.481  27.715  1.00  0.00    -0.460 OA
BRANCH  27  28
ATOM     28  C   UNL A   1      33.705  32.413  27.644  1.00  0.00     0.338 C 
ATOM     29  O   UNL A   1      33.560  33.617  27.493  1.00  0.00    -0.246 OA
BRANCH  28  30
ATOM     30  C   UNL A   1      34.965  31.775  28.095  1.00  0.00     0.060 A 
ATOM     31  C   UNL A   1      34.967  30.386  28.309  1.00  0.00     0.016 A 
ATOM     32  C   UNL A   1      36.137  32.514  28.251  1.00  0.00     0.016 A 
ATOM     33  C   UNL A   1      36.135  29.735  28.704  1.00  0.00     0.010 A 
ATOM     34  C   UNL A   1      37.299  31.866  28.684  1.00  0.00     0.010 A 
ATOM     35  C   UNL A   1      37.295  30.481  28.942  1.00  0.00    -0.014 A 
BRANCH  35  36
ATOM     36  C   UNL A   1      38.431  29.863  29.668  1.00  0.00     0.031 A 
ATOM     37  C   UNL A   1      38.727  30.350  31.061  1.00  0.00     0.074 A 
ATOM     38  C   UNL A   1      39.190  28.899  29.116  1.00  0.00     0.049 A 
ATOM     39  N   UNL A   1      39.707  30.029  31.861  1.00  0.00    -0.248 NA
ATOM     40  C   UNL A   1      37.790  31.339  31.621  1.00  0.00     0.031 C 
ATOM     41  C   UNL A   1      38.996  28.321  27.788  1.00  0.00     0.029 A 
ATOM     42  N   UNL A   1      40.305  28.261  29.602  1.00  0.00    -0.354 N 
ATOM     43  C   UNL A   1      39.532  30.804  33.002  1.00  0.00     0.074 A 
ATOM     44  C   UNL A   1      38.352  31.613  32.787  1.00  0.00     0.031 C 
ATOM     45  C   UNL A   1      39.984  27.440  27.549  1.00  0.00     0.029 A 
ATOM     46  C   UNL A   1      40.897  27.418  28.693  1.00  0.00     0.049 A 
ATOM     47  H   UNL A   1      40.647  28.395  30.516  1.00  0.00     0.167 HD
ATOM     48  C   UNL A   1      40.279  30.837  34.129  1.00  0.00     0.034 A 
ATOM     49  C   UNL A   1      42.060  26.738  28.761  1.00  0.00     0.034 A 
ATOM     50  C   UNL A   1      41.445  30.027  34.349  1.00  0.00     0.049 A 
ATOM     51  C   UNL A   1      42.901  26.826  30.011  1.00  0.00     0.074 A 
ATOM     52  C   UNL A   1      42.243  29.960  35.477  1.00  0.00     0.029 A 
ATOM     53  N   UNL A   1      41.996  29.162  33.417  1.00  0.00    -0.354 N 
ATOM     54  N   UNL A   1      42.668  27.483  31.122  1.00  0.00    -0.248 NA
ATOM     55  C   UNL A   1      44.154  26.055  30.026  1.00  0.00     0.031 C 
ATOM     56  C   UNL A   1      43.300  29.083  35.212  1.00  0.00     0.029 A 
ATOM     57  C   UNL A   1      43.133  28.568  33.937  1.00  0.00     0.049 A 
ATOM     58  H   UNL A   1      41.632  28.994  32.517  1.00  0.00     0.167 HD
ATOM     59  C   UNL A   1      43.721  27.173  31.979  1.00  0.00     0.074 A 
ATOM     60  C   UNL A   1      44.582  26.255  31.265  1.00  0.00     0.031 C 
ATOM     61  C   UNL A   1      43.957  27.616  33.239  1.00  0.00     0.034 A 
BRANCH  48  62
ATOM     62  C   UNL A   1      39.852  31.783  35.220  1.00  0.00     0.023 A 
ATOM     63  C   UNL A   1      40.291  33.123  35.202  1.00  0.00     0.012 A 
ATOM     64  C   UNL A   1      38.976  31.355  36.237  1.00  0.00     0.148 A 
ATOM     65  C   UNL A   1      39.893  34.012  36.199  1.00  0.00     0.002 A 
ATOM     66  C   UNL A   1      38.545  32.260  37.198  1.00  0.00     0.091 A 
ATOM     67  F   UNL A   1      38.590  30.071  36.248  1.00  0.00    -0.205 F 
ATOM     68  C   UNL A   1      39.012  33.584  37.189  1.00  0.00     0.022 A 
BRANCH  66  69
ATOM     69  S   UNL A   1      37.349  31.828  38.466  1.00  0.00     0.127 S 
ATOM     70  O   UNL A   1      36.270  32.775  38.188  1.00  0.00    -0.237 OA
ATOM     71  O   UNL A   1      37.041  30.437  38.133  1.00  0.00    -0.237 OA
ATOM     72  O   UNL A   1      38.028  32.014  39.740  1.00  0.00    -0.744 OA
ENDBRANCH  66  69
ENDBRANCH  48  62
BRANCH  49  73
ATOM     73  C   UNL A   1      42.508  25.902  27.611  1.00  0.00     0.023 A 
ATOM     74  C   UNL A   1      43.357  26.457  26.633  1.00  0.00     0.012 A 
ATOM     75  C   UNL A   1      42.088  24.565  27.476  1.00  0.00     0.148 A 
ATOM     76  C   UNL A   1      43.752  25.706  25.524  1.00  0.00     0.002 A 
ATOM     77  C   UNL A   1      42.530  23.805  26.399  1.00  0.00     0.091 A 
ATOM     78  F   UNL A   1      41.266  24.062  28.407  1.00  0.00    -0.205 F 
ATOM     79  C   UNL A   1      43.348  24.378  25.413  1.00  0.00     0.022 A 
BRANCH  77  80
ATOM     80  S   UNL A   1      42.155  22.056  26.234  1.00  0.00     0.127 S 
ATOM     81  O   UNL A   1      40.716  22.082  25.985  1.00  0.00    -0.237 OA
ATOM     82  O   UNL A   1      42.974  21.683  25.081  1.00  0.00    -0.237 OA
ATOM     83  O   UNL A   1      42.567  21.444  27.490  1.00  0.00    -0.744 OA
ENDBRANCH  77  80
ENDBRANCH  49  73
BRANCH  61  84
ATOM     84  C   UNL A   1      45.167  27.078  33.963  1.00  0.00     0.023 A 
ATOM     85  C   UNL A   1      46.391  27.774  33.914  1.00  0.00     0.012 A 
ATOM     86  C   UNL A   1      45.065  25.918  34.758  1.00  0.00     0.148 A 
ATOM     87  C   UNL A   1      47.503  27.304  34.615  1.00  0.00     0.002 A 
ATOM     88  C   UNL A   1      46.160  25.486  35.495  1.00  0.00     0.091 A 
ATOM     89  F   UNL A   1      43.896  25.260  34.781  1.00  0.00    -0.205 F 
ATOM     90  C   UNL A   1      47.384  26.169  35.414  1.00  0.00     0.022 A 
BRANCH  88  91
ATOM     91  S   UNL A   1      46.074  24.094  36.628  1.00  0.00     0.127 S 
ATOM     92  O   UNL A   1      45.614  23.022  35.747  1.00  0.00    -0.237 OA
ATOM     93  O   UNL A   1      47.463  23.969  37.070  1.00  0.00    -0.237 OA
ATOM     94  O   UNL A   1      45.138  24.484  37.675  1.00  0.00    -0.744 OA
ENDBRANCH  88  91
ENDBRANCH  61  84
ENDBRANCH  35  36
ENDBRANCH  28  30
ENDBRANCH  27  28
ENDBRANCH  26  27
ENDBRANCH  25  26
ENDBRANCH   1  25
TORSDOF 20
ENDMDL
