MODEL 1
REMARK VINA RESULT:      -7.2      0.000      0.000
REMARK SMILES COc1ccc(CCn2cc(C(=O)OCCOCCOCCOC(=O)c3ccc(-c4c5nc(c(-c6cccc(S(=O)(=O)[O-])c6F)c6ccc([nH]6)c(-c6cccc(S(=O)(=O)[O-])c6F)c6nc(c(-c7cccc(S(=O)(=O)[O-])c7F)c7ccc4[nH]7)C=C6)C=C5)cc3)c(=O)[nH]c2=O)cc1
REMARK SMILES IDX 18 1 17 2 16 3 15 4 14 5 12 6 13 7 11 8 9 9 10 10 92 11
REMARK SMILES IDX 91 12 93 13 89 14 90 16 8 17 7 18 6 19 3 20 4 21 95 22 5 23
REMARK SMILES IDX 94 24 2 25 1 26 19 27 20 28 21 29 22 30 23 31 24 32 25 33
REMARK SMILES IDX 26 34 27 35 88 36 28 37 87 38 29 39 30 40 31 41 81 42 32 43
REMARK SMILES IDX 86 44 80 45 82 46 33 47 85 48 79 49 78 50 34 52 66 53 46 54
REMARK SMILES IDX 65 55 47 56 50 57 64 58 83 59 48 60 49 61 63 63 84 64 51 65
REMARK SMILES IDX 35 66 36 67 44 68 37 69 39 70 45 71 38 72 40 73 41 74 42 75
REMARK SMILES IDX 43 76 67 77 68 78 76 79 69 80 71 81 77 82 70 83 72 84 73 85
REMARK SMILES IDX 74 86 75 87 52 88 53 89 61 90 54 91 56 92 62 93 55 94 57 95
REMARK SMILES IDX 58 96 59 97 60 98
REMARK H PARENT 91 15 82 51 50 62
REMARK Flexibility Score: inf
ROOT
ATOM      1  C   UNL A   1      36.888  33.365  32.120  1.00  0.00     0.188 C 
ENDROOT
BRANCH   1   2
ATOM      2  O   UNL A   1      38.298  33.293  31.940  1.00  0.00    -0.376 OA
BRANCH   2   3
ATOM      3  C   UNL A   1      38.946  34.209  31.072  1.00  0.00     0.202 C 
BRANCH   3   4
ATOM      4  C   UNL A   1      40.359  34.681  31.437  1.00  0.00     0.261 C 
BRANCH   4   5
ATOM      5  O   UNL A   1      41.405  33.978  30.744  1.00  0.00    -0.459 OA
BRANCH   5   6
ATOM      6  C   UNL A   1      41.787  34.501  29.551  1.00  0.00     0.345 C 
ATOM      7  O   UNL A   1      41.177  35.329  28.893  1.00  0.00    -0.246 OA
BRANCH   6   8
ATOM      8  C   UNL A   1      43.065  33.915  29.118  1.00  0.00     0.141 A 
ATOM      9  N   UNL A   1      44.407  31.986  28.696  1.00  0.00    -0.299 N 
ATOM     10  C   UNL A   1      43.264  32.592  29.195  1.00  0.00     0.112 A 
ATOM     11  C   UNL A   1      45.420  32.719  28.085  1.00  0.00     0.328 A 
ATOM     12  N   UNL A   1      45.208  34.070  28.018  1.00  0.00    -0.273 N 
ATOM     13  O   UNL A   1      46.449  32.222  27.635  1.00  0.00    -0.248 OA
ATOM     14  C   UNL A   1      44.129  34.745  28.521  1.00  0.00     0.268 A 
ATOM     15  H   UNL A   1      45.897  34.607  27.566  1.00  0.00     0.175 HD
ATOM     16  O   UNL A   1      44.096  35.969  28.528  1.00  0.00    -0.268 OA
BRANCH   9  17
ATOM     17  C   UNL A   1      44.551  30.527  28.766  1.00  0.00     0.132 C 
BRANCH  17  18
ATOM     18  C   UNL A   1      43.913  29.774  27.586  1.00  0.00     0.057 C 
BRANCH  18  19
ATOM     19  C   UNL A   1      44.813  28.698  27.032  1.00  0.00    -0.046 A 
ATOM     20  C   UNL A   1      46.541  26.854  25.825  1.00  0.00     0.118 A 
ATOM     21  C   UNL A   1      45.239  27.004  25.360  1.00  0.00     0.046 A 
ATOM     22  C   UNL A   1      46.982  27.606  26.911  1.00  0.00     0.046 A 
ATOM     23  C   UNL A   1      44.373  27.913  25.961  1.00  0.00     0.007 A 
ATOM     24  C   UNL A   1      46.116  28.522  27.518  1.00  0.00     0.007 A 
BRANCH  20  25
ATOM     25  O   UNL A   1      47.377  26.057  25.096  1.00  0.00    -0.497 OA
ATOM     26  C   UNL A   1      47.094  24.672  25.252  1.00  0.00     0.278 C 
ENDBRANCH  20  25
ENDBRANCH  18  19
ENDBRANCH  17  18
ENDBRANCH   9  17
ENDBRANCH   6   8
ENDBRANCH   5   6
ENDBRANCH   4   5
ENDBRANCH   3   4
ENDBRANCH   2   3
ENDBRANCH   1   2
BRANCH   1  27
ATOM     27  C   UNL A   1      36.011  34.007  31.027  1.00  0.00     0.188 C 
BRANCH  27  28
ATOM     28  O   UNL A   1      35.454  33.079  30.110  1.00  0.00    -0.376 OA
BRANCH  28  29
ATOM     29  C   UNL A   1      34.235  33.450  29.484  1.00  0.00     0.202 C 
BRANCH  29  30
ATOM     30  C   UNL A   1      33.830  32.583  28.291  1.00  0.00     0.261 C 
BRANCH  30  31
ATOM     31  O   UNL A   1      34.889  31.805  27.710  1.00  0.00    -0.460 OA
BRANCH  31  32
ATOM     32  C   UNL A   1      34.829  30.458  27.836  1.00  0.00     0.338 C 
ATOM     33  O   UNL A   1      33.894  29.733  27.563  1.00  0.00    -0.246 OA
BRANCH  32  34
ATOM     34  C   UNL A   1      36.187  29.996  28.189  1.00  0.00     0.060 A 
ATOM     35  C   UNL A   1      36.413  29.421  29.446  1.00  0.00     0.016 A 
ATOM     36  C   UNL A   1      37.224  30.100  27.258  1.00  0.00     0.016 A 
ATOM     37  C   UNL A   1      37.689  28.957  29.778  1.00  0.00     0.010 A 
ATOM     38  C   UNL A   1      38.498  29.646  27.598  1.00  0.00     0.010 A 
ATOM     39  C   UNL A   1      38.744  29.091  28.864  1.00  0.00    -0.014 A 
BRANCH  39  40
ATOM     40  C   UNL A   1      40.136  28.770  29.261  1.00  0.00     0.031 A 
ATOM     41  C   UNL A   1      40.808  27.573  28.647  1.00  0.00     0.074 A 
ATOM     42  C   UNL A   1      40.776  29.497  30.195  1.00  0.00     0.049 A 
ATOM     43  N   UNL A   1      41.987  27.064  28.894  1.00  0.00    -0.248 NA
ATOM     44  C   UNL A   1      40.042  26.849  27.618  1.00  0.00     0.031 C 
ATOM     45  C   UNL A   1      40.233  30.673  30.872  1.00  0.00     0.029 A 
ATOM     46  N   UNL A   1      42.017  29.326  30.758  1.00  0.00    -0.354 N 
ATOM     47  C   UNL A   1      42.096  25.947  28.076  1.00  0.00     0.074 A 
ATOM     48  C   UNL A   1      40.857  25.845  27.332  1.00  0.00     0.031 C 
ATOM     49  C   UNL A   1      41.122  31.098  31.787  1.00  0.00     0.029 A 
ATOM     50  C   UNL A   1      42.285  30.212  31.776  1.00  0.00     0.049 A 
ATOM     51  H   UNL A   1      42.654  28.635  30.463  1.00  0.00     0.167 HD
ATOM     52  C   UNL A   1      43.136  25.092  27.942  1.00  0.00     0.034 A 
ATOM     53  C   UNL A   1      43.336  30.282  32.617  1.00  0.00     0.034 A 
ATOM     54  C   UNL A   1      44.369  25.199  28.673  1.00  0.00     0.049 A 
ATOM     55  C   UNL A   1      44.470  29.298  32.471  1.00  0.00     0.074 A 
ATOM     56  C   UNL A   1      45.504  24.416  28.564  1.00  0.00     0.029 A 
ATOM     57  N   UNL A   1      44.624  26.135  29.664  1.00  0.00    -0.354 N 
ATOM     58  N   UNL A   1      44.619  28.331  31.597  1.00  0.00    -0.248 NA
ATOM     59  C   UNL A   1      45.595  29.434  33.409  1.00  0.00     0.031 C 
ATOM     60  C   UNL A   1      46.433  24.858  29.511  1.00  0.00     0.029 A 
ATOM     61  C   UNL A   1      45.890  25.938  30.189  1.00  0.00     0.049 A 
ATOM     62  H   UNL A   1      43.997  26.837  29.950  1.00  0.00     0.167 HD
ATOM     63  C   UNL A   1      45.864  27.768  31.858  1.00  0.00     0.074 A 
ATOM     64  C   UNL A   1      46.438  28.515  32.958  1.00  0.00     0.031 C 
ATOM     65  C   UNL A   1      46.472  26.717  31.252  1.00  0.00     0.034 A 
BRANCH  52  66
ATOM     66  C   UNL A   1      42.991  23.972  26.946  1.00  0.00     0.023 A 
ATOM     67  C   UNL A   1      43.513  24.124  25.645  1.00  0.00     0.012 A 
ATOM     68  C   UNL A   1      42.380  22.755  27.308  1.00  0.00     0.148 A 
ATOM     69  C   UNL A   1      43.398  23.097  24.709  1.00  0.00     0.002 A 
ATOM     70  C   UNL A   1      42.309  21.720  26.383  1.00  0.00     0.091 A 
ATOM     71  F   UNL A   1      41.868  22.638  28.542  1.00  0.00    -0.205 F 
ATOM     72  C   UNL A   1      42.805  21.893  25.081  1.00  0.00     0.022 A 
BRANCH  70  73
ATOM     73  S   UNL A   1      41.633  20.106  26.788  1.00  0.00     0.127 S 
ATOM     74  O   UNL A   1      40.379  20.469  27.448  1.00  0.00    -0.237 OA
ATOM     75  O   UNL A   1      41.471  19.499  25.466  1.00  0.00    -0.237 OA
ATOM     76  O   UNL A   1      42.622  19.458  27.637  1.00  0.00    -0.744 OA
ENDBRANCH  70  73
ENDBRANCH  52  66
BRANCH  53  77
ATOM     77  C   UNL A   1      43.387  31.348  33.659  1.00  0.00     0.023 A 
ATOM     78  C   UNL A   1      43.975  32.591  33.350  1.00  0.00     0.012 A 
ATOM     79  C   UNL A   1      42.851  31.143  34.945  1.00  0.00     0.148 A 
ATOM     80  C   UNL A   1      44.053  33.599  34.311  1.00  0.00     0.002 A 
ATOM     81  C   UNL A   1      42.886  32.170  35.882  1.00  0.00     0.091 A 
ATOM     82  F   UNL A   1      42.315  29.947  35.225  1.00  0.00    -0.205 F 
ATOM     83  C   UNL A   1      43.500  33.393  35.571  1.00  0.00     0.022 A 
BRANCH  81  84
ATOM     84  S   UNL A   1      42.108  32.035  37.496  1.00  0.00     0.127 S 
ATOM     85  O   UNL A   1      42.742  30.835  38.033  1.00  0.00    -0.237 OA
ATOM     86  O   UNL A   1      42.520  33.287  38.133  1.00  0.00    -0.237 OA
ATOM     87  O   UNL A   1      40.679  31.931  37.238  1.00  0.00    -0.744 OA
ENDBRANCH  81  84
ENDBRANCH  53  77
BRANCH  65  88
ATOM     88  C   UNL A   1      47.844  26.318  31.738  1.00  0.00     0.023 A 
ATOM     89  C   UNL A   1      48.987  26.943  31.199  1.00  0.00     0.012 A 
ATOM     90  C   UNL A   1      47.995  25.383  32.782  1.00  0.00     0.148 A 
ATOM     91  C   UNL A   1      50.260  26.621  31.671  1.00  0.00     0.002 A 
ATOM     92  C   UNL A   1      49.263  25.105  33.280  1.00  0.00     0.091 A 
ATOM     93  F   UNL A   1      46.898  24.789  33.272  1.00  0.00    -0.205 F 
ATOM     94  C   UNL A   1      50.396  25.712  32.717  1.00  0.00     0.022 A 
BRANCH  92  95
ATOM     95  S   UNL A   1      49.530  24.021  34.689  1.00  0.00     0.127 S 
ATOM     96  O   UNL A   1      48.382  24.344  35.536  1.00  0.00    -0.237 OA
ATOM     97  O   UNL A   1      49.480  22.695  34.074  1.00  0.00    -0.237 OA
ATOM     98  O   UNL A   1      50.830  24.385  35.236  1.00  0.00    -0.744 OA
ENDBRANCH  92  95
ENDBRANCH  65  88
ENDBRANCH  39  40
ENDBRANCH  32  34
ENDBRANCH  31  32
ENDBRANCH  30  31
ENDBRANCH  29  30
ENDBRANCH  28  29
ENDBRANCH  27  28
ENDBRANCH   1  27
TORSDOF 24
ENDMDL
MODEL 2
REMARK VINA RESULT:      -6.9      3.475      9.489
REMARK SMILES COc1ccc(CCn2cc(C(=O)OCCOCCOCCOC(=O)c3ccc(-c4c5nc(c(-c6cccc(S(=O)(=O)[O-])c6F)c6ccc([nH]6)c(-c6cccc(S(=O)(=O)[O-])c6F)c6nc(c(-c7cccc(S(=O)(=O)[O-])c7F)c7ccc4[nH]7)C=C6)C=C5)cc3)c(=O)[nH]c2=O)cc1
REMARK SMILES IDX 18 1 17 2 16 3 15 4 14 5 12 6 13 7 11 8 9 9 10 10 92 11
REMARK SMILES IDX 91 12 93 13 89 14 90 16 8 17 7 18 6 19 3 20 4 21 95 22 5 23
REMARK SMILES IDX 94 24 2 25 1 26 19 27 20 28 21 29 22 30 23 31 24 32 25 33
REMARK SMILES IDX 26 34 27 35 88 36 28 37 87 38 29 39 30 40 31 41 81 42 32 43
REMARK SMILES IDX 86 44 80 45 82 46 33 47 85 48 79 49 78 50 34 52 66 53 46 54
REMARK SMILES IDX 65 55 47 56 50 57 64 58 83 59 48 60 49 61 63 63 84 64 51 65
REMARK SMILES IDX 35 66 36 67 44 68 37 69 39 70 45 71 38 72 40 73 41 74 42 75
REMARK SMILES IDX 43 76 67 77 68 78 76 79 69 80 71 81 77 82 70 83 72 84 73 85
REMARK SMILES IDX 74 86 75 87 52 88 53 89 61 90 54 91 56 92 62 93 55 94 57 95
REMARK SMILES IDX 58 96 59 97 60 98
REMARK H PARENT 91 15 82 51 50 62
REMARK Flexibility Score: inf
ROOT
ATOM      1  C   UNL A   1      34.513  36.021  32.853  1.00  0.00     0.188 C 
ENDROOT
BRANCH   1   2
ATOM      2  O   UNL A   1      33.312  35.540  32.260  1.00  0.00    -0.376 OA
BRANCH   2   3
ATOM      3  C   UNL A   1      32.701  36.272  31.209  1.00  0.00     0.202 C 
BRANCH   3   4
ATOM      4  C   UNL A   1      32.861  35.754  29.774  1.00  0.00     0.261 C 
BRANCH   4   5
ATOM      5  O   UNL A   1      33.041  34.330  29.686  1.00  0.00    -0.459 OA
BRANCH   5   6
ATOM      6  C   UNL A   1      33.249  33.831  28.440  1.00  0.00     0.345 C 
ATOM      7  O   UNL A   1      32.599  34.087  27.438  1.00  0.00    -0.246 OA
BRANCH   6   8
ATOM      8  C   UNL A   1      34.383  32.894  28.444  1.00  0.00     0.141 A 
ATOM      9  N   UNL A   1      35.315  30.787  27.815  1.00  0.00    -0.299 N 
ATOM     10  C   UNL A   1      34.245  31.662  27.934  1.00  0.00     0.112 A 
ATOM     11  C   UNL A   1      36.599  31.139  28.221  1.00  0.00     0.328 A 
ATOM     12  N   UNL A   1      36.725  32.397  28.745  1.00  0.00    -0.273 N 
ATOM     13  O   UNL A   1      37.571  30.393  28.138  1.00  0.00    -0.248 OA
ATOM     14  C   UNL A   1      35.715  33.300  28.931  1.00  0.00     0.268 A 
ATOM     15  H   UNL A   1      37.630  32.679  29.013  1.00  0.00     0.175 HD
ATOM     16  O   UNL A   1      35.908  34.351  29.531  1.00  0.00    -0.268 OA
BRANCH   9  17
ATOM     17  C   UNL A   1      35.115  29.467  27.208  1.00  0.00     0.132 C 
BRANCH  17  18
ATOM     18  C   UNL A   1      33.655  29.161  26.831  1.00  0.00     0.057 C 
BRANCH  18  19
ATOM     19  C   UNL A   1      33.542  28.102  25.763  1.00  0.00    -0.046 A 
ATOM     20  C   UNL A   1      33.093  26.149  23.807  1.00  0.00     0.118 A 
ATOM     21  C   UNL A   1      33.104  25.804  25.154  1.00  0.00     0.046 A 
ATOM     22  C   UNL A   1      33.331  27.467  23.425  1.00  0.00     0.046 A 
ATOM     23  C   UNL A   1      33.334  26.769  26.130  1.00  0.00     0.007 A 
ATOM     24  C   UNL A   1      33.562  28.442  24.402  1.00  0.00     0.007 A 
BRANCH  20  25
ATOM     25  O   UNL A   1      32.713  25.184  22.917  1.00  0.00    -0.497 OA
ATOM     26  C   UNL A   1      33.050  25.509  21.575  1.00  0.00     0.278 C 
ENDBRANCH  20  25
ENDBRANCH  18  19
ENDBRANCH  17  18
ENDBRANCH   9  17
ENDBRANCH   6   8
ENDBRANCH   5   6
ENDBRANCH   4   5
ENDBRANCH   3   4
ENDBRANCH   2   3
ENDBRANCH   1   2
BRANCH   1  27
ATOM     27  C   UNL A   1      35.685  35.051  33.097  1.00  0.00     0.188 C 
BRANCH  27  28
ATOM     28  O   UNL A   1      35.289  33.715  33.359  1.00  0.00    -0.376 OA
BRANCH  28  29
ATOM     29  C   UNL A   1      36.313  32.803  33.728  1.00  0.00     0.202 C 
BRANCH  29  30
ATOM     30  C   UNL A   1      37.554  32.828  32.834  1.00  0.00     0.261 C 
BRANCH  30  31
ATOM     31  O   UNL A   1      37.556  31.875  31.760  1.00  0.00    -0.460 OA
BRANCH  31  32
ATOM     32  C   UNL A   1      37.402  30.566  32.074  1.00  0.00     0.338 C 
ATOM     33  O   UNL A   1      36.368  29.929  32.090  1.00  0.00    -0.246 OA
BRANCH  32  34
ATOM     34  C   UNL A   1      38.756  29.992  32.210  1.00  0.00     0.060 A 
ATOM     35  C   UNL A   1      39.872  30.830  32.095  1.00  0.00     0.016 A 
ATOM     36  C   UNL A   1      38.913  28.632  32.489  1.00  0.00     0.016 A 
ATOM     37  C   UNL A   1      41.157  30.300  32.250  1.00  0.00     0.010 A 
ATOM     38  C   UNL A   1      40.196  28.105  32.631  1.00  0.00     0.010 A 
ATOM     39  C   UNL A   1      41.326  28.929  32.493  1.00  0.00    -0.014 A 
BRANCH  39  40
ATOM     40  C   UNL A   1      42.677  28.318  32.483  1.00  0.00     0.031 A 
ATOM     41  C   UNL A   1      43.501  28.360  33.739  1.00  0.00     0.074 A 
ATOM     42  C   UNL A   1      43.187  27.783  31.359  1.00  0.00     0.049 A 
ATOM     43  N   UNL A   1      44.727  27.955  33.942  1.00  0.00    -0.248 NA
ATOM     44  C   UNL A   1      42.855  28.944  34.927  1.00  0.00     0.031 C 
ATOM     45  C   UNL A   1      42.494  27.689  30.075  1.00  0.00     0.029 A 
ATOM     46  N   UNL A   1      44.428  27.247  31.114  1.00  0.00    -0.354 N 
ATOM     47  C   UNL A   1      45.012  28.258  35.268  1.00  0.00     0.074 A 
ATOM     48  C   UNL A   1      43.833  28.893  35.819  1.00  0.00     0.031 C 
ATOM     49  C   UNL A   1      43.333  27.162  29.166  1.00  0.00     0.029 A 
ATOM     50  C   UNL A   1      44.626  26.902  29.797  1.00  0.00     0.049 A 
ATOM     51  H   UNL A   1      45.110  27.122  31.813  1.00  0.00     0.167 HD
ATOM     52  C   UNL A   1      46.145  28.018  35.968  1.00  0.00     0.034 A 
ATOM     53  C   UNL A   1      45.732  26.453  29.170  1.00  0.00     0.034 A 
ATOM     54  C   UNL A   1      47.312  27.379  35.424  1.00  0.00     0.049 A 
ATOM     55  C   UNL A   1      46.993  26.223  29.965  1.00  0.00     0.074 A 
ATOM     56  C   UNL A   1      48.486  27.038  36.070  1.00  0.00     0.029 A 
ATOM     57  N   UNL A   1      47.462  27.002  34.098  1.00  0.00    -0.354 N 
ATOM     58  N   UNL A   1      47.203  26.385  31.250  1.00  0.00    -0.248 NA
ATOM     59  C   UNL A   1      48.162  25.719  29.228  1.00  0.00     0.031 C 
ATOM     60  C   UNL A   1      49.359  26.485  35.128  1.00  0.00     0.029 A 
ATOM     61  C   UNL A   1      48.717  26.450  33.901  1.00  0.00     0.049 A 
ATOM     62  H   UNL A   1      46.777  27.110  33.400  1.00  0.00     0.167 HD
ATOM     63  C   UNL A   1      48.512  25.973  31.479  1.00  0.00     0.074 A 
ATOM     64  C   UNL A   1      49.040  25.534  30.204  1.00  0.00     0.031 C 
ATOM     65  C   UNL A   1      49.218  25.972  32.638  1.00  0.00     0.034 A 
BRANCH  52  66
ATOM     66  C   UNL A   1      46.167  28.431  37.416  1.00  0.00     0.023 A 
ATOM     67  C   UNL A   1      45.819  27.496  38.413  1.00  0.00     0.012 A 
ATOM     68  C   UNL A   1      46.572  29.726  37.794  1.00  0.00     0.148 A 
ATOM     69  C   UNL A   1      45.841  27.853  39.761  1.00  0.00     0.002 A 
ATOM     70  C   UNL A   1      46.634  30.060  39.142  1.00  0.00     0.091 A 
ATOM     71  F   UNL A   1      46.876  30.608  36.831  1.00  0.00    -0.205 F 
ATOM     72  C   UNL A   1      46.257  29.131  40.125  1.00  0.00     0.022 A 
BRANCH  70  73
ATOM     73  S   UNL A   1      47.229  31.655  39.716  1.00  0.00     0.127 S 
ATOM     74  O   UNL A   1      46.105  32.114  40.531  1.00  0.00    -0.237 OA
ATOM     75  O   UNL A   1      48.422  31.282  40.478  1.00  0.00    -0.237 OA
ATOM     76  O   UNL A   1      47.495  32.439  38.518  1.00  0.00    -0.744 OA
ENDBRANCH  70  73
ENDBRANCH  52  66
BRANCH  53  77
ATOM     77  C   UNL A   1      45.692  26.156  27.709  1.00  0.00     0.023 A 
ATOM     78  C   UNL A   1      45.952  27.187  26.785  1.00  0.00     0.012 A 
ATOM     79  C   UNL A   1      45.407  24.861  27.232  1.00  0.00     0.148 A 
ATOM     80  C   UNL A   1      45.902  26.941  25.413  1.00  0.00     0.002 A 
ATOM     81  C   UNL A   1      45.410  24.611  25.864  1.00  0.00     0.091 A 
ATOM     82  F   UNL A   1      45.142  23.899  28.127  1.00  0.00    -0.205 F 
ATOM     83  C   UNL A   1      45.642  25.653  24.953  1.00  0.00     0.022 A 
BRANCH  81  84
ATOM     84  S   UNL A   1      45.189  22.965  25.180  1.00  0.00     0.127 S 
ATOM     85  O   UNL A   1      43.791  22.693  25.503  1.00  0.00    -0.237 OA
ATOM     86  O   UNL A   1      45.459  23.191  23.760  1.00  0.00    -0.237 OA
ATOM     87  O   UNL A   1      46.166  22.122  25.855  1.00  0.00    -0.744 OA
ENDBRANCH  81  84
ENDBRANCH  53  77
BRANCH  65  88
ATOM     88  C   UNL A   1      50.636  25.456  32.599  1.00  0.00     0.023 A 
ATOM     89  C   UNL A   1      51.706  26.361  32.453  1.00  0.00     0.012 A 
ATOM     90  C   UNL A   1      50.910  24.086  32.787  1.00  0.00     0.148 A 
ATOM     91  C   UNL A   1      53.025  25.907  32.464  1.00  0.00     0.002 A 
ATOM     92  C   UNL A   1      52.228  23.649  32.845  1.00  0.00     0.091 A 
ATOM     93  F   UNL A   1      49.879  23.238  32.909  1.00  0.00    -0.205 F 
ATOM     94  C   UNL A   1      53.286  24.555  32.671  1.00  0.00     0.022 A 
BRANCH  92  95
ATOM     95  S   UNL A   1      52.664  21.942  33.204  1.00  0.00     0.127 S 
ATOM     96  O   UNL A   1      51.933  21.702  34.447  1.00  0.00    -0.237 OA
ATOM     97  O   UNL A   1      52.133  21.235  32.038  1.00  0.00    -0.237 OA
ATOM     98  O   UNL A   1      54.116  21.913  33.319  1.00  0.00    -0.744 OA
ENDBRANCH  92  95
ENDBRANCH  65  88
ENDBRANCH  39  40
ENDBRANCH  32  34
ENDBRANCH  31  32
ENDBRANCH  30  31
ENDBRANCH  29  30
ENDBRANCH  28  29
ENDBRANCH  27  28
ENDBRANCH   1  27
TORSDOF 24
ENDMDL
MODEL 3
REMARK VINA RESULT:      -6.6      6.171     13.260
REMARK SMILES COc1ccc(CCn2cc(C(=O)OCCOCCOCCOC(=O)c3ccc(-c4c5nc(c(-c6cccc(S(=O)(=O)[O-])c6F)c6ccc([nH]6)c(-c6cccc(S(=O)(=O)[O-])c6F)c6nc(c(-c7cccc(S(=O)(=O)[O-])c7F)c7ccc4[nH]7)C=C6)C=C5)cc3)c(=O)[nH]c2=O)cc1
REMARK SMILES IDX 18 1 17 2 16 3 15 4 14 5 12 6 13 7 11 8 9 9 10 10 92 11
REMARK SMILES IDX 91 12 93 13 89 14 90 16 8 17 7 18 6 19 3 20 4 21 95 22 5 23
REMARK SMILES IDX 94 24 2 25 1 26 19 27 20 28 21 29 22 30 23 31 24 32 25 33
REMARK SMILES IDX 26 34 27 35 88 36 28 37 87 38 29 39 30 40 31 41 81 42 32 43
REMARK SMILES IDX 86 44 80 45 82 46 33 47 85 48 79 49 78 50 34 52 66 53 46 54
REMARK SMILES IDX 65 55 47 56 50 57 64 58 83 59 48 60 49 61 63 63 84 64 51 65
REMARK SMILES IDX 35 66 36 67 44 68 37 69 39 70 45 71 38 72 40 73 41 74 42 75
REMARK SMILES IDX 43 76 67 77 68 78 76 79 69 80 71 81 77 82 70 83 72 84 73 85
REMARK SMILES IDX 74 86 75 87 52 88 53 89 61 90 54 91 56 92 62 93 55 94 57 95
REMARK SMILES IDX 58 96 59 97 60 98
REMARK H PARENT 91 15 82 51 50 62
REMARK Flexibility Score: inf
ROOT
ATOM      1  C   UNL A   1      49.258  25.258  26.957  1.00  0.00     0.188 C 
ENDROOT
BRANCH   1   2
ATOM      2  O   UNL A   1      48.235  25.386  27.939  1.00  0.00    -0.376 OA
BRANCH   2   3
ATOM      3  C   UNL A   1      47.001  24.707  27.765  1.00  0.00     0.202 C 
BRANCH   3   4
ATOM      4  C   UNL A   1      46.582  24.314  26.344  1.00  0.00     0.261 C 
BRANCH   4   5
ATOM      5  O   UNL A   1      46.650  22.901  26.086  1.00  0.00    -0.459 OA
BRANCH   5   6
ATOM      6  C   UNL A   1      46.080  22.476  24.929  1.00  0.00     0.345 C 
ATOM      7  O   UNL A   1      46.143  23.031  23.843  1.00  0.00    -0.246 OA
BRANCH   6   8
ATOM      8  C   UNL A   1      45.333  21.228  25.151  1.00  0.00     0.141 A 
ATOM      9  N   UNL A   1      43.277  20.121  25.649  1.00  0.00    -0.299 N 
ATOM     10  C   UNL A   1      44.050  21.267  25.536  1.00  0.00     0.112 A 
ATOM     11  C   UNL A   1      43.791  18.859  25.368  1.00  0.00     0.328 A 
ATOM     12  N   UNL A   1      45.104  18.832  24.982  1.00  0.00    -0.273 N 
ATOM     13  O   UNL A   1      43.142  17.820  25.461  1.00  0.00    -0.248 OA
ATOM     14  C   UNL A   1      45.941  19.911  24.886  1.00  0.00     0.268 A 
ATOM     15  H   UNL A   1      45.483  17.953  24.752  1.00  0.00     0.175 HD
ATOM     16  O   UNL A   1      47.136  19.766  24.660  1.00  0.00    -0.268 OA
BRANCH   9  17
ATOM     17  C   UNL A   1      41.864  20.227  26.031  1.00  0.00     0.132 C 
BRANCH  17  18
ATOM     18  C   UNL A   1      41.636  20.689  27.481  1.00  0.00     0.057 C 
BRANCH  18  19
ATOM     19  C   UNL A   1      40.961  22.035  27.560  1.00  0.00    -0.046 A 
ATOM     20  C   UNL A   1      39.858  24.609  27.534  1.00  0.00     0.118 A 
ATOM     21  C   UNL A   1      41.018  24.350  28.256  1.00  0.00     0.046 A 
ATOM     22  C   UNL A   1      39.227  23.580  26.839  1.00  0.00     0.046 A 
ATOM     23  C   UNL A   1      41.566  23.071  28.279  1.00  0.00     0.007 A 
ATOM     24  C   UNL A   1      39.774  22.293  26.858  1.00  0.00     0.007 A 
BRANCH  20  25
ATOM     25  O   UNL A   1      39.462  25.913  27.433  1.00  0.00    -0.497 OA
ATOM     26  C   UNL A   1      39.572  26.619  28.663  1.00  0.00     0.278 C 
ENDBRANCH  20  25
ENDBRANCH  18  19
ENDBRANCH  17  18
ENDBRANCH   9  17
ENDBRANCH   6   8
ENDBRANCH   5   6
ENDBRANCH   4   5
ENDBRANCH   3   4
ENDBRANCH   2   3
ENDBRANCH   1   2
BRANCH   1  27
ATOM     27  C   UNL A   1      50.732  25.442  27.364  1.00  0.00     0.188 C 
BRANCH  27  28
ATOM     28  O   UNL A   1      51.650  24.707  26.572  1.00  0.00    -0.376 OA
BRANCH  28  29
ATOM     29  C   UNL A   1      52.101  25.322  25.375  1.00  0.00     0.202 C 
BRANCH  29  30
ATOM     30  C   UNL A   1      53.528  24.960  24.958  1.00  0.00     0.261 C 
BRANCH  30  31
ATOM     31  O   UNL A   1      54.567  25.675  25.645  1.00  0.00    -0.460 OA
BRANCH  31  32
ATOM     32  C   UNL A   1      55.114  26.749  25.027  1.00  0.00     0.338 C 
ATOM     33  O   UNL A   1      56.026  26.753  24.226  1.00  0.00    -0.246 OA
BRANCH  32  34
ATOM     34  C   UNL A   1      54.269  27.914  25.359  1.00  0.00     0.060 A 
ATOM     35  C   UNL A   1      54.228  28.380  26.679  1.00  0.00     0.016 A 
ATOM     36  C   UNL A   1      53.550  28.564  24.353  1.00  0.00     0.016 A 
ATOM     37  C   UNL A   1      53.452  29.499  26.996  1.00  0.00     0.010 A 
ATOM     38  C   UNL A   1      52.768  29.672  24.676  1.00  0.00     0.010 A 
ATOM     39  C   UNL A   1      52.697  30.135  26.000  1.00  0.00    -0.014 A 
BRANCH  39  40
ATOM     40  C   UNL A   1      51.734  31.207  26.347  1.00  0.00     0.031 A 
ATOM     41  C   UNL A   1      50.329  30.825  26.724  1.00  0.00     0.074 A 
ATOM     42  C   UNL A   1      52.084  32.504  26.274  1.00  0.00     0.049 A 
ATOM     43  N   UNL A   1      49.305  31.591  26.995  1.00  0.00    -0.248 NA
ATOM     44  C   UNL A   1      50.040  29.383  26.800  1.00  0.00     0.031 C 
ATOM     45  C   UNL A   1      53.409  33.005  25.914  1.00  0.00     0.029 A 
ATOM     46  N   UNL A   1      51.335  33.639  26.471  1.00  0.00    -0.354 N 
ATOM     47  C   UNL A   1      48.244  30.730  27.246  1.00  0.00     0.074 A 
ATOM     48  C   UNL A   1      48.746  29.382  27.083  1.00  0.00     0.031 C 
ATOM     49  C   UNL A   1      53.371  34.348  25.878  1.00  0.00     0.029 A 
ATOM     50  C   UNL A   1      52.017  34.800  26.191  1.00  0.00     0.049 A 
ATOM     51  H   UNL A   1      50.401  33.623  26.781  1.00  0.00     0.167 HD
ATOM     52  C   UNL A   1      46.971  31.031  27.595  1.00  0.00     0.034 A 
ATOM     53  C   UNL A   1      51.588  36.079  26.167  1.00  0.00     0.034 A 
ATOM     54  C   UNL A   1      46.475  32.369  27.767  1.00  0.00     0.049 A 
ATOM     55  C   UNL A   1      50.157  36.388  26.528  1.00  0.00     0.074 A 
ATOM     56  C   UNL A   1      45.217  32.774  28.176  1.00  0.00     0.029 A 
ATOM     57  N   UNL A   1      47.205  33.522  27.518  1.00  0.00    -0.354 N 
ATOM     58  N   UNL A   1      49.201  35.569  26.898  1.00  0.00    -0.248 NA
ATOM     59  C   UNL A   1      49.753  37.802  26.496  1.00  0.00     0.031 C 
ATOM     60  C   UNL A   1      45.176  34.172  28.145  1.00  0.00     0.029 A 
ATOM     61  C   UNL A   1      46.419  34.639  27.747  1.00  0.00     0.049 A 
ATOM     62  H   UNL A   1      48.143  33.543  27.225  1.00  0.00     0.167 HD
ATOM     63  C   UNL A   1      48.097  36.369  27.175  1.00  0.00     0.074 A 
ATOM     64  C   UNL A   1      48.508  37.740  26.950  1.00  0.00     0.031 C 
ATOM     65  C   UNL A   1      46.850  36.002  27.566  1.00  0.00     0.034 A 
BRANCH  52  66
ATOM     66  C   UNL A   1      46.028  29.883  27.838  1.00  0.00     0.023 A 
ATOM     67  C   UNL A   1      45.737  29.487  29.159  1.00  0.00     0.012 A 
ATOM     68  C   UNL A   1      45.395  29.226  26.764  1.00  0.00     0.148 A 
ATOM     69  C   UNL A   1      44.859  28.432  29.409  1.00  0.00     0.002 A 
ATOM     70  C   UNL A   1      44.488  28.204  27.022  1.00  0.00     0.091 A 
ATOM     71  F   UNL A   1      45.703  29.600  25.514  1.00  0.00    -0.205 F 
ATOM     72  C   UNL A   1      44.228  27.798  28.341  1.00  0.00     0.022 A 
BRANCH  70  73
ATOM     73  S   UNL A   1      43.567  27.378  25.720  1.00  0.00     0.127 S 
ATOM     74  O   UNL A   1      44.639  26.717  24.975  1.00  0.00    -0.237 OA
ATOM     75  O   UNL A   1      42.705  26.471  26.481  1.00  0.00    -0.237 OA
ATOM     76  O   UNL A   1      42.859  28.427  25.001  1.00  0.00    -0.744 OA
ENDBRANCH  70  73
ENDBRANCH  52  66
BRANCH  53  77
ATOM     77  C   UNL A   1      52.536  37.176  25.818  1.00  0.00     0.023 A 
ATOM     78  C   UNL A   1      52.847  37.418  24.466  1.00  0.00     0.012 A 
ATOM     79  C   UNL A   1      53.121  37.984  26.813  1.00  0.00     0.148 A 
ATOM     80  C   UNL A   1      53.745  38.426  24.112  1.00  0.00     0.002 A 
ATOM     81  C   UNL A   1      53.975  39.019  26.451  1.00  0.00     0.091 A 
ATOM     82  F   UNL A   1      52.828  37.723  28.094  1.00  0.00    -0.205 F 
ATOM     83  C   UNL A   1      54.300  39.232  25.102  1.00  0.00     0.022 A 
BRANCH  81  84
ATOM     84  S   UNL A   1      54.657  40.175  27.645  1.00  0.00     0.127 S 
ATOM     85  O   UNL A   1      55.499  41.016  26.799  1.00  0.00    -0.237 OA
ATOM     86  O   UNL A   1      53.450  40.828  28.154  1.00  0.00    -0.237 OA
ATOM     87  O   UNL A   1      55.362  39.361  28.625  1.00  0.00    -0.744 OA
ENDBRANCH  81  84
ENDBRANCH  53  77
BRANCH  65  88
ATOM     88  C   UNL A   1      45.836  37.093  27.806  1.00  0.00     0.023 A 
ATOM     89  C   UNL A   1      44.978  37.493  26.762  1.00  0.00     0.012 A 
ATOM     90  C   UNL A   1      45.681  37.664  29.085  1.00  0.00     0.148 A 
ATOM     91  C   UNL A   1      44.003  38.467  26.979  1.00  0.00     0.002 A 
ATOM     92  C   UNL A   1      44.674  38.597  29.306  1.00  0.00     0.091 A 
ATOM     93  F   UNL A   1      46.515  37.282  30.062  1.00  0.00    -0.205 F 
ATOM     94  C   UNL A   1      43.844  39.009  28.251  1.00  0.00     0.022 A 
BRANCH  92  95
ATOM     95  S   UNL A   1      44.330  39.280  30.933  1.00  0.00     0.127 S 
ATOM     96  O   UNL A   1      43.191  40.154  30.655  1.00  0.00    -0.237 OA
ATOM     97  O   UNL A   1      44.006  38.083  31.709  1.00  0.00    -0.237 OA
ATOM     98  O   UNL A   1      45.550  39.959  31.350  1.00  0.00    -0.744 OA
ENDBRANCH  92  95
ENDBRANCH  65  88
ENDBRANCH  39  40
ENDBRANCH  32  34
ENDBRANCH  31  32
ENDBRANCH  30  31
ENDBRANCH  29  30
ENDBRANCH  28  29
ENDBRANCH  27  28
ENDBRANCH   1  27
TORSDOF 24
ENDMDL
