MODEL 1
REMARK VINA RESULT:     -11.0      0.000      0.000
REMARK SMILES C[C@@H](C(=O)OCCOCCOCCOC(=O)c1ccc(-c2c3nc(c(-c4cccc(S(=O)(=O)[O-])c4F)c4ccc([nH]4)c(-c4cccc(S(=O)(=O)[O-])c4F)c4nc(c(-c5cccc(S(=O)(=O)[O-])c5F)c5ccc2[nH]5)C=C4)C=C3)cc1)c1ccc(C[C@H]2CCC[C@@H]2O)cc1
REMARK SMILES IDX 9 1 8 2 7 3 6 4 5 5 3 6 4 7 2 8 1 9 80 10 81 11 92 12 82 13
REMARK SMILES IDX 91 14 83 15 84 16 85 17 86 18 89 19 87 20 88 21 90 22 10 24
REMARK SMILES IDX 11 25 12 26 13 27 14 28 15 29 16 30 17 31 18 32 79 33 19 34
REMARK SMILES IDX 78 35 20 36 21 37 22 38 72 39 23 40 77 41 71 42 73 43 24 44
REMARK SMILES IDX 76 45 70 46 69 47 25 49 57 50 37 51 56 52 38 53 41 54 55 55
REMARK SMILES IDX 74 56 39 57 40 58 54 60 75 61 42 62 26 63 27 64 35 65 28 66
REMARK SMILES IDX 30 67 36 68 29 69 31 70 32 71 33 72 34 73 58 74 59 75 67 76
REMARK SMILES IDX 60 77 62 78 68 79 61 80 63 81 64 82 65 83 66 84 43 85 44 86
REMARK SMILES IDX 52 87 45 88 47 89 53 90 46 91 48 92 49 93 50 94 51 95
REMARK H PARENT 90 23 73 48 41 59
REMARK Flexibility Score: inf
ROOT
ATOM      1  C   UNL A   1      30.171  27.756  22.983  1.00  0.00     0.188 C 
ENDROOT
BRANCH   1   2
ATOM      2  O   UNL A   1      30.949  27.321  21.890  1.00  0.00    -0.376 OA
BRANCH   2   3
ATOM      3  C   UNL A   1      32.362  27.362  21.989  1.00  0.00     0.202 C 
BRANCH   3   4
ATOM      4  C   UNL A   1      33.219  26.087  22.013  1.00  0.00     0.261 C 
BRANCH   4   5
ATOM      5  O   UNL A   1      33.084  25.271  23.195  1.00  0.00    -0.463 OA
BRANCH   5   6
ATOM      6  C   UNL A   1      33.902  24.181  23.228  1.00  0.00     0.313 C 
ATOM      7  O   UNL A   1      34.256  23.583  22.215  1.00  0.00    -0.252 OA
BRANCH   6   8
ATOM      8  C   UNL A   1      34.340  23.733  24.639  1.00  0.00     0.126 C 
ATOM      9  C   UNL A   1      35.548  24.496  25.193  1.00  0.00     0.025 C 
BRANCH   8  10
ATOM     10  C   UNL A   1      34.374  22.209  24.797  1.00  0.00    -0.034 A 
ATOM     11  C   UNL A   1      35.550  21.459  24.936  1.00  0.00     0.005 A 
ATOM     12  C   UNL A   1      33.156  21.504  24.823  1.00  0.00     0.005 A 
ATOM     13  C   UNL A   1      35.507  20.057  24.966  1.00  0.00     0.004 A 
ATOM     14  C   UNL A   1      33.113  20.112  24.806  1.00  0.00     0.004 A 
ATOM     15  C   UNL A   1      34.295  19.382  24.762  1.00  0.00    -0.048 A 
BRANCH  15  16
ATOM     16  C   UNL A   1      34.266  17.965  24.210  1.00  0.00     0.041 C 
BRANCH  16  17
ATOM     17  C   UNL A   1      33.781  16.938  25.267  1.00  0.00     0.022 C 
ATOM     18  C   UNL A   1      32.272  16.871  25.528  1.00  0.00     0.007 C 
ATOM     19  C   UNL A   1      34.171  15.519  24.878  1.00  0.00     0.117 C 
ATOM     20  C   UNL A   1      31.972  15.440  25.954  1.00  0.00     0.003 C 
ATOM     21  C   UNL A   1      33.091  14.587  25.387  1.00  0.00     0.032 C 
BRANCH  19  22
ATOM     22  O   UNL A   1      35.500  15.253  25.274  1.00  0.00    -0.393 OA
ATOM     23  H   UNL A   1      36.006  14.933  24.511  1.00  0.00     0.210 HD
ENDBRANCH  19  22
ENDBRANCH  16  17
ENDBRANCH  15  16
ENDBRANCH   8  10
ENDBRANCH   6   8
ENDBRANCH   5   6
ENDBRANCH   4   5
ENDBRANCH   3   4
ENDBRANCH   2   3
ENDBRANCH   1   2
BRANCH   1  24
ATOM     24  C   UNL A   1      30.438  27.158  24.369  1.00  0.00     0.188 C 
BRANCH  24  25
ATOM     25  O   UNL A   1      31.030  27.948  25.374  1.00  0.00    -0.376 OA
BRANCH  25  26
ATOM     26  C   UNL A   1      31.836  29.066  25.045  1.00  0.00     0.202 C 
BRANCH  26  27
ATOM     27  C   UNL A   1      31.791  30.451  25.726  1.00  0.00     0.261 C 
BRANCH  27  28
ATOM     28  O   UNL A   1      32.327  30.598  27.042  1.00  0.00    -0.460 OA
BRANCH  28  29
ATOM     29  C   UNL A   1      32.997  31.761  27.269  1.00  0.00     0.338 C 
ATOM     30  O   UNL A   1      32.538  32.882  27.199  1.00  0.00    -0.246 OA
BRANCH  29  31
ATOM     31  C   UNL A   1      34.345  31.444  27.813  1.00  0.00     0.060 A 
ATOM     32  C   UNL A   1      34.628  30.110  28.096  1.00  0.00     0.016 A 
ATOM     33  C   UNL A   1      35.314  32.424  28.062  1.00  0.00     0.016 A 
ATOM     34  C   UNL A   1      35.879  29.766  28.618  1.00  0.00     0.010 A 
ATOM     35  C   UNL A   1      36.576  32.068  28.587  1.00  0.00     0.010 A 
ATOM     36  C   UNL A   1      36.889  30.730  28.855  1.00  0.00    -0.014 A 
BRANCH  36  37
ATOM     37  C   UNL A   1      38.181  30.284  29.490  1.00  0.00     0.031 A 
ATOM     38  C   UNL A   1      38.351  30.558  30.952  1.00  0.00     0.074 A 
ATOM     39  C   UNL A   1      39.166  29.595  28.862  1.00  0.00     0.049 A 
ATOM     40  N   UNL A   1      39.318  30.199  31.751  1.00  0.00    -0.248 NA
ATOM     41  C   UNL A   1      37.331  31.419  31.572  1.00  0.00     0.031 C 
ATOM     42  C   UNL A   1      39.252  29.359  27.434  1.00  0.00     0.029 A 
ATOM     43  N   UNL A   1      40.238  28.866  29.352  1.00  0.00    -0.354 N 
ATOM     44  C   UNL A   1      39.090  30.888  32.931  1.00  0.00     0.074 A 
ATOM     45  C   UNL A   1      37.841  31.603  32.777  1.00  0.00     0.031 C 
ATOM     46  C   UNL A   1      40.140  28.383  27.182  1.00  0.00     0.029 A 
ATOM     47  C   UNL A   1      40.840  28.041  28.412  1.00  0.00     0.049 A 
ATOM     48  H   UNL A   1      40.546  28.927  30.286  1.00  0.00     0.167 HD
ATOM     49  C   UNL A   1      39.895  30.991  34.012  1.00  0.00     0.034 A 
ATOM     50  C   UNL A   1      41.856  27.148  28.508  1.00  0.00     0.034 A 
ATOM     51  C   UNL A   1      41.165  30.334  34.144  1.00  0.00     0.049 A 
ATOM     52  C   UNL A   1      42.657  27.155  29.785  1.00  0.00     0.074 A 
ATOM     53  C   UNL A   1      42.070  30.421  35.185  1.00  0.00     0.029 A 
ATOM     54  N   UNL A   1      41.724  29.491  33.195  1.00  0.00    -0.354 N 
ATOM     55  N   UNL A   1      42.420  27.808  30.896  1.00  0.00    -0.248 NA
ATOM     56  C   UNL A   1      43.907  26.376  29.802  1.00  0.00     0.031 C 
ATOM     57  C   UNL A   1      43.192  29.653  34.853  1.00  0.00     0.029 A 
ATOM     58  C   UNL A   1      42.959  29.042  33.632  1.00  0.00     0.049 A 
ATOM     59  H   UNL A   1      41.305  29.247  32.339  1.00  0.00     0.167 HD
ATOM     60  C   UNL A   1      43.509  27.563  31.721  1.00  0.00     0.074 A 
ATOM     61  C   UNL A   1      44.368  26.632  31.019  1.00  0.00     0.031 C 
ATOM     62  C   UNL A   1      43.796  28.106  32.929  1.00  0.00     0.034 A 
BRANCH  49  63
ATOM     63  C   UNL A   1      39.450  31.955  35.074  1.00  0.00     0.023 A 
ATOM     64  C   UNL A   1      39.832  33.310  35.014  1.00  0.00     0.012 A 
ATOM     65  C   UNL A   1      38.703  31.488  36.172  1.00  0.00     0.148 A 
ATOM     66  C   UNL A   1      39.520  34.175  36.062  1.00  0.00     0.002 A 
ATOM     67  C   UNL A   1      38.350  32.367  37.183  1.00  0.00     0.091 A 
ATOM     68  F   UNL A   1      38.383  30.186  36.222  1.00  0.00    -0.205 F 
ATOM     69  C   UNL A   1      38.774  33.706  37.141  1.00  0.00     0.022 A 
BRANCH  67  70
ATOM     70  S   UNL A   1      37.335  31.877  38.580  1.00  0.00     0.127 S 
ATOM     71  O   UNL A   1      37.125  30.456  38.311  1.00  0.00    -0.237 OA
ATOM     72  O   UNL A   1      38.221  32.160  39.709  1.00  0.00    -0.237 OA
ATOM     73  O   UNL A   1      36.136  32.701  38.521  1.00  0.00    -0.744 OA
ENDBRANCH  67  70
ENDBRANCH  49  63
BRANCH  50  74
ATOM     74  C   UNL A   1      42.236  26.213  27.389  1.00  0.00     0.023 A 
ATOM     75  C   UNL A   1      43.118  26.658  26.376  1.00  0.00     0.012 A 
ATOM     76  C   UNL A   1      41.744  24.898  27.295  1.00  0.00     0.148 A 
ATOM     77  C   UNL A   1      43.490  25.825  25.313  1.00  0.00     0.002 A 
ATOM     78  C   UNL A   1      42.203  24.038  26.297  1.00  0.00     0.091 A 
ATOM     79  F   UNL A   1      40.816  24.497  28.175  1.00  0.00    -0.205 F 
ATOM     80  C   UNL A   1      43.056  24.504  25.290  1.00  0.00     0.022 A 
BRANCH  78  81
ATOM     81  S   UNL A   1      41.854  22.276  26.351  1.00  0.00     0.127 S 
ATOM     82  O   UNL A   1      40.404  22.247  26.188  1.00  0.00    -0.237 OA
ATOM     83  O   UNL A   1      42.614  21.776  25.204  1.00  0.00    -0.237 OA
ATOM     84  O   UNL A   1      42.369  21.833  27.640  1.00  0.00    -0.744 OA
ENDBRANCH  78  81
ENDBRANCH  50  74
BRANCH  62  85
ATOM     85  C   UNL A   1      45.087  27.692  33.580  1.00  0.00     0.023 A 
ATOM     86  C   UNL A   1      46.259  28.449  33.384  1.00  0.00     0.012 A 
ATOM     87  C   UNL A   1      45.116  26.574  34.433  1.00  0.00     0.148 A 
ATOM     88  C   UNL A   1      47.452  28.076  34.004  1.00  0.00     0.002 A 
ATOM     89  C   UNL A   1      46.294  26.238  35.085  1.00  0.00     0.091 A 
ATOM     90  F   UNL A   1      43.991  25.861  34.587  1.00  0.00    -0.205 F 
ATOM     91  C   UNL A   1      47.467  26.978  34.862  1.00  0.00     0.022 A 
BRANCH  89  92
ATOM     92  S   UNL A   1      46.382  24.895  36.272  1.00  0.00     0.127 S 
ATOM     93  O   UNL A   1      45.908  23.764  35.475  1.00  0.00    -0.237 OA
ATOM     94  O   UNL A   1      47.809  24.861  36.593  1.00  0.00    -0.237 OA
ATOM     95  O   UNL A   1      45.519  25.277  37.381  1.00  0.00    -0.744 OA
ENDBRANCH  89  92
ENDBRANCH  62  85
ENDBRANCH  36  37
ENDBRANCH  29  31
ENDBRANCH  28  29
ENDBRANCH  27  28
ENDBRANCH  26  27
ENDBRANCH  25  26
ENDBRANCH  24  25
ENDBRANCH   1  24
TORSDOF 24
ENDMDL
MODEL 2
REMARK VINA RESULT:     -10.7      5.029     10.605
REMARK SMILES C[C@@H](C(=O)OCCOCCOCCOC(=O)c1ccc(-c2c3nc(c(-c4cccc(S(=O)(=O)[O-])c4F)c4ccc([nH]4)c(-c4cccc(S(=O)(=O)[O-])c4F)c4nc(c(-c5cccc(S(=O)(=O)[O-])c5F)c5ccc2[nH]5)C=C4)C=C3)cc1)c1ccc(C[C@H]2CCC[C@@H]2O)cc1
REMARK SMILES IDX 9 1 8 2 7 3 6 4 5 5 3 6 4 7 2 8 1 9 80 10 81 11 92 12 82 13
REMARK SMILES IDX 91 14 83 15 84 16 85 17 86 18 89 19 87 20 88 21 90 22 10 24
REMARK SMILES IDX 11 25 12 26 13 27 14 28 15 29 16 30 17 31 18 32 79 33 19 34
REMARK SMILES IDX 78 35 20 36 21 37 22 38 72 39 23 40 77 41 71 42 73 43 24 44
REMARK SMILES IDX 76 45 70 46 69 47 25 49 57 50 37 51 56 52 38 53 41 54 55 55
REMARK SMILES IDX 74 56 39 57 40 58 54 60 75 61 42 62 26 63 27 64 35 65 28 66
REMARK SMILES IDX 30 67 36 68 29 69 31 70 32 71 33 72 34 73 58 74 59 75 67 76
REMARK SMILES IDX 60 77 62 78 68 79 61 80 63 81 64 82 65 83 66 84 43 85 44 86
REMARK SMILES IDX 52 87 45 88 47 89 53 90 46 91 48 92 49 93 50 94 51 95
REMARK H PARENT 90 23 73 48 41 59
REMARK Flexibility Score: inf
ROOT
ATOM      1  C   UNL A   1      33.106  22.236  26.840  1.00  0.00     0.188 C 
ENDROOT
BRANCH   1   2
ATOM      2  O   UNL A   1      31.993  23.085  27.011  1.00  0.00    -0.376 OA
BRANCH   2   3
ATOM      3  C   UNL A   1      31.499  23.810  25.898  1.00  0.00     0.202 C 
BRANCH   3   4
ATOM      4  C   UNL A   1      31.662  23.306  24.456  1.00  0.00     0.261 C 
BRANCH   4   5
ATOM      5  O   UNL A   1      32.088  24.296  23.498  1.00  0.00    -0.463 OA
BRANCH   5   6
ATOM      6  C   UNL A   1      33.407  24.227  23.157  1.00  0.00     0.313 C 
ATOM      7  O   UNL A   1      33.839  23.437  22.321  1.00  0.00    -0.252 OA
BRANCH   6   8
ATOM      8  C   UNL A   1      34.331  25.204  23.915  1.00  0.00     0.126 C 
ATOM      9  C   UNL A   1      35.081  24.574  25.093  1.00  0.00     0.025 C 
BRANCH   8  10
ATOM     10  C   UNL A   1      33.672  26.562  24.182  1.00  0.00    -0.034 A 
ATOM     11  C   UNL A   1      33.292  27.014  25.453  1.00  0.00     0.005 A 
ATOM     12  C   UNL A   1      33.444  27.428  23.096  1.00  0.00     0.005 A 
ATOM     13  C   UNL A   1      32.595  28.222  25.604  1.00  0.00     0.004 A 
ATOM     14  C   UNL A   1      32.712  28.605  23.238  1.00  0.00     0.004 A 
ATOM     15  C   UNL A   1      32.185  28.949  24.478  1.00  0.00    -0.048 A 
BRANCH  15  16
ATOM     16  C   UNL A   1      30.984  29.880  24.535  1.00  0.00     0.041 C 
BRANCH  16  17
ATOM     17  C   UNL A   1      29.994  29.626  23.368  1.00  0.00     0.022 C 
ATOM     18  C   UNL A   1      29.106  28.380  23.470  1.00  0.00     0.007 C 
ATOM     19  C   UNL A   1      29.019  30.784  23.209  1.00  0.00     0.117 C 
ATOM     20  C   UNL A   1      27.822  28.704  22.720  1.00  0.00     0.003 C 
ATOM     21  C   UNL A   1      27.703  30.216  22.719  1.00  0.00     0.032 C 
BRANCH  19  22
ATOM     22  O   UNL A   1      29.607  31.814  22.443  1.00  0.00    -0.393 OA
ATOM     23  H   UNL A   1      29.302  32.674  22.772  1.00  0.00     0.210 HD
ENDBRANCH  19  22
ENDBRANCH  16  17
ENDBRANCH  15  16
ENDBRANCH   8  10
ENDBRANCH   6   8
ENDBRANCH   5   6
ENDBRANCH   4   5
ENDBRANCH   3   4
ENDBRANCH   2   3
ENDBRANCH   1   2
BRANCH   1  24
ATOM     24  C   UNL A   1      32.868  20.766  26.478  1.00  0.00     0.188 C 
BRANCH  24  25
ATOM     25  O   UNL A   1      33.705  20.126  25.543  1.00  0.00    -0.376 OA
BRANCH  25  26
ATOM     26  C   UNL A   1      34.631  20.867  24.765  1.00  0.00     0.202 C 
BRANCH  26  27
ATOM     27  C   UNL A   1      36.167  20.721  24.797  1.00  0.00     0.261 C 
BRANCH  27  28
ATOM     28  O   UNL A   1      36.887  21.175  25.944  1.00  0.00    -0.460 OA
BRANCH  28  29
ATOM     29  C   UNL A   1      38.238  21.025  25.879  1.00  0.00     0.338 C 
ATOM     30  O   UNL A   1      38.835  20.066  25.435  1.00  0.00    -0.246 OA
BRANCH  29  31
ATOM     31  C   UNL A   1      38.887  22.309  26.258  1.00  0.00     0.060 A 
ATOM     32  C   UNL A   1      40.065  22.241  26.998  1.00  0.00     0.016 A 
ATOM     33  C   UNL A   1      38.356  23.559  25.917  1.00  0.00     0.016 A 
ATOM     34  C   UNL A   1      40.705  23.423  27.384  1.00  0.00     0.010 A 
ATOM     35  C   UNL A   1      39.010  24.748  26.308  1.00  0.00     0.010 A 
ATOM     36  C   UNL A   1      40.208  24.701  27.032  1.00  0.00    -0.014 A 
BRANCH  36  37
ATOM     37  C   UNL A   1      40.918  25.924  27.554  1.00  0.00     0.031 A 
ATOM     38  C   UNL A   1      42.226  26.276  26.915  1.00  0.00     0.074 A 
ATOM     39  C   UNL A   1      40.435  26.767  28.500  1.00  0.00     0.049 A 
ATOM     40  N   UNL A   1      42.985  27.318  27.113  1.00  0.00    -0.248 NA
ATOM     41  C   UNL A   1      42.784  25.276  25.991  1.00  0.00     0.031 C 
ATOM     42  C   UNL A   1      39.268  26.526  29.328  1.00  0.00     0.029 A 
ATOM     43  N   UNL A   1      40.798  28.055  28.860  1.00  0.00    -0.354 N 
ATOM     44  C   UNL A   1      44.162  27.045  26.436  1.00  0.00     0.074 A 
ATOM     45  C   UNL A   1      43.976  25.788  25.742  1.00  0.00     0.031 C 
ATOM     46  C   UNL A   1      38.872  27.672  29.907  1.00  0.00     0.029 A 
ATOM     47  C   UNL A   1      39.864  28.706  29.654  1.00  0.00     0.049 A 
ATOM     48  H   UNL A   1      41.645  28.472  28.578  1.00  0.00     0.167 HD
ATOM     49  C   UNL A   1      45.326  27.731  26.465  1.00  0.00     0.034 A 
ATOM     50  C   UNL A   1      39.822  29.966  30.154  1.00  0.00     0.034 A 
ATOM     51  C   UNL A   1      45.535  28.943  27.203  1.00  0.00     0.049 A 
ATOM     52  C   UNL A   1      41.079  30.791  30.043  1.00  0.00     0.074 A 
ATOM     53  C   UNL A   1      46.698  29.681  27.329  1.00  0.00     0.029 A 
ATOM     54  N   UNL A   1      44.569  29.586  27.964  1.00  0.00    -0.354 N 
ATOM     55  N   UNL A   1      42.181  30.518  29.390  1.00  0.00    -0.248 NA
ATOM     56  C   UNL A   1      41.128  32.053  30.801  1.00  0.00     0.031 C 
ATOM     57  C   UNL A   1      46.444  30.753  28.190  1.00  0.00     0.029 A 
ATOM     58  C   UNL A   1      45.108  30.717  28.554  1.00  0.00     0.049 A 
ATOM     59  H   UNL A   1      43.639  29.282  28.069  1.00  0.00     0.167 HD
ATOM     60  C   UNL A   1      43.068  31.541  29.696  1.00  0.00     0.074 A 
ATOM     61  C   UNL A   1      42.350  32.488  30.525  1.00  0.00     0.031 C 
ATOM     62  C   UNL A   1      44.377  31.655  29.365  1.00  0.00     0.034 A 
BRANCH  49  63
ATOM     63  C   UNL A   1      46.486  27.088  25.759  1.00  0.00     0.023 A 
ATOM     64  C   UNL A   1      47.229  26.070  26.387  1.00  0.00     0.012 A 
ATOM     65  C   UNL A   1      46.874  27.554  24.488  1.00  0.00     0.148 A 
ATOM     66  C   UNL A   1      48.377  25.562  25.781  1.00  0.00     0.002 A 
ATOM     67  C   UNL A   1      47.984  27.004  23.867  1.00  0.00     0.091 A 
ATOM     68  F   UNL A   1      46.170  28.549  23.928  1.00  0.00    -0.205 F 
ATOM     69  C   UNL A   1      48.749  26.022  24.519  1.00  0.00     0.022 A 
BRANCH  67  70
ATOM     70  S   UNL A   1      48.505  27.480  22.217  1.00  0.00     0.127 S 
ATOM     71  O   UNL A   1      49.633  28.365  22.506  1.00  0.00    -0.237 OA
ATOM     72  O   UNL A   1      48.875  26.190  21.635  1.00  0.00    -0.237 OA
ATOM     73  O   UNL A   1      47.357  28.126  21.598  1.00  0.00    -0.744 OA
ENDBRANCH  67  70
ENDBRANCH  49  63
BRANCH  50  74
ATOM     74  C   UNL A   1      38.611  30.533  30.851  1.00  0.00     0.023 A 
ATOM     75  C   UNL A   1      38.479  30.388  32.252  1.00  0.00     0.012 A 
ATOM     76  C   UNL A   1      37.585  31.206  30.165  1.00  0.00     0.148 A 
ATOM     77  C   UNL A   1      37.366  30.891  32.937  1.00  0.00     0.002 A 
ATOM     78  C   UNL A   1      36.535  31.801  30.864  1.00  0.00     0.091 A 
ATOM     79  F   UNL A   1      37.631  31.250  28.825  1.00  0.00    -0.205 F 
ATOM     80  C   UNL A   1      36.408  31.625  32.247  1.00  0.00     0.022 A 
BRANCH  78  81
ATOM     81  S   UNL A   1      35.402  32.940  30.058  1.00  0.00     0.127 S 
ATOM     82  O   UNL A   1      34.679  32.058  29.148  1.00  0.00    -0.237 OA
ATOM     83  O   UNL A   1      34.617  33.444  31.185  1.00  0.00    -0.237 OA
ATOM     84  O   UNL A   1      36.260  33.943  29.440  1.00  0.00    -0.744 OA
ENDBRANCH  78  81
ENDBRANCH  50  74
BRANCH  62  85
ATOM     85  C   UNL A   1      45.116  32.858  29.884  1.00  0.00     0.023 A 
ATOM     86  C   UNL A   1      45.753  32.817  31.140  1.00  0.00     0.012 A 
ATOM     87  C   UNL A   1      45.221  34.015  29.090  1.00  0.00     0.148 A 
ATOM     88  C   UNL A   1      46.454  33.926  31.613  1.00  0.00     0.002 A 
ATOM     89  C   UNL A   1      45.962  35.096  29.545  1.00  0.00     0.091 A 
ATOM     90  F   UNL A   1      44.590  34.034  27.907  1.00  0.00    -0.205 F 
ATOM     91  C   UNL A   1      46.567  35.060  30.812  1.00  0.00     0.022 A 
BRANCH  89  92
ATOM     92  S   UNL A   1      46.232  36.561  28.545  1.00  0.00     0.127 S 
ATOM     93  O   UNL A   1      47.416  36.180  27.776  1.00  0.00    -0.237 OA
ATOM     94  O   UNL A   1      44.995  36.633  27.765  1.00  0.00    -0.237 OA
ATOM     95  O   UNL A   1      46.425  37.660  29.480  1.00  0.00    -0.744 OA
ENDBRANCH  89  92
ENDBRANCH  62  85
ENDBRANCH  36  37
ENDBRANCH  29  31
ENDBRANCH  28  29
ENDBRANCH  27  28
ENDBRANCH  26  27
ENDBRANCH  25  26
ENDBRANCH  24  25
ENDBRANCH   1  24
TORSDOF 24
ENDMDL
MODEL 3
REMARK VINA RESULT:     -10.4      2.238      4.077
REMARK SMILES C[C@@H](C(=O)OCCOCCOCCOC(=O)c1ccc(-c2c3nc(c(-c4cccc(S(=O)(=O)[O-])c4F)c4ccc([nH]4)c(-c4cccc(S(=O)(=O)[O-])c4F)c4nc(c(-c5cccc(S(=O)(=O)[O-])c5F)c5ccc2[nH]5)C=C4)C=C3)cc1)c1ccc(C[C@H]2CCC[C@@H]2O)cc1
REMARK SMILES IDX 9 1 8 2 7 3 6 4 5 5 3 6 4 7 2 8 1 9 80 10 81 11 92 12 82 13
REMARK SMILES IDX 91 14 83 15 84 16 85 17 86 18 89 19 87 20 88 21 90 22 10 24
REMARK SMILES IDX 11 25 12 26 13 27 14 28 15 29 16 30 17 31 18 32 79 33 19 34
REMARK SMILES IDX 78 35 20 36 21 37 22 38 72 39 23 40 77 41 71 42 73 43 24 44
REMARK SMILES IDX 76 45 70 46 69 47 25 49 57 50 37 51 56 52 38 53 41 54 55 55
REMARK SMILES IDX 74 56 39 57 40 58 54 60 75 61 42 62 26 63 27 64 35 65 28 66
REMARK SMILES IDX 30 67 36 68 29 69 31 70 32 71 33 72 34 73 58 74 59 75 67 76
REMARK SMILES IDX 60 77 62 78 68 79 61 80 63 81 64 82 65 83 66 84 43 85 44 86
REMARK SMILES IDX 52 87 45 88 47 89 53 90 46 91 48 92 49 93 50 94 51 95
REMARK H PARENT 90 23 73 48 41 59
REMARK Flexibility Score: inf
ROOT
ATOM      1  C   UNL A   1      31.868  26.934  26.923  1.00  0.00     0.188 C 
ENDROOT
BRANCH   1   2
ATOM      2  O   UNL A   1      31.153  26.267  25.907  1.00  0.00    -0.376 OA
BRANCH   2   3
ATOM      3  C   UNL A   1      31.056  24.853  25.945  1.00  0.00     0.202 C 
BRANCH   3   4
ATOM      4  C   UNL A   1      32.053  23.985  26.727  1.00  0.00     0.261 C 
BRANCH   4   5
ATOM      5  O   UNL A   1      32.724  22.966  25.958  1.00  0.00    -0.463 OA
BRANCH   5   6
ATOM      6  C   UNL A   1      34.065  22.871  26.188  1.00  0.00     0.313 C 
ATOM      7  O   UNL A   1      34.533  22.527  27.271  1.00  0.00    -0.252 OA
BRANCH   6   8
ATOM      8  C   UNL A   1      34.964  23.248  24.991  1.00  0.00     0.126 C 
ATOM      9  C   UNL A   1      36.403  23.609  25.375  1.00  0.00     0.025 C 
BRANCH   8  10
ATOM     10  C   UNL A   1      34.273  24.190  24.000  1.00  0.00    -0.034 A 
ATOM     11  C   UNL A   1      34.239  25.585  24.135  1.00  0.00     0.005 A 
ATOM     12  C   UNL A   1      33.643  23.638  22.869  1.00  0.00     0.005 A 
ATOM     13  C   UNL A   1      33.492  26.373  23.245  1.00  0.00     0.004 A 
ATOM     14  C   UNL A   1      32.864  24.413  22.011  1.00  0.00     0.004 A 
ATOM     15  C   UNL A   1      32.693  25.769  22.264  1.00  0.00    -0.048 A 
BRANCH  15  16
ATOM     16  C   UNL A   1      31.471  26.475  21.699  1.00  0.00     0.041 C 
BRANCH  16  17
ATOM     17  C   UNL A   1      30.935  27.569  22.660  1.00  0.00     0.022 C 
ATOM     18  C   UNL A   1      31.172  29.028  22.252  1.00  0.00     0.007 C 
ATOM     19  C   UNL A   1      29.428  27.458  22.839  1.00  0.00     0.117 C 
ATOM     20  C   UNL A   1      30.024  29.833  22.844  1.00  0.00     0.003 C 
ATOM     21  C   UNL A   1      28.882  28.855  23.044  1.00  0.00     0.032 C 
BRANCH  19  22
ATOM     22  O   UNL A   1      29.125  26.490  23.822  1.00  0.00    -0.393 OA
ATOM     23  H   UNL A   1      28.230  26.645  24.163  1.00  0.00     0.210 HD
ENDBRANCH  19  22
ENDBRANCH  16  17
ENDBRANCH  15  16
ENDBRANCH   8  10
ENDBRANCH   6   8
ENDBRANCH   5   6
ENDBRANCH   4   5
ENDBRANCH   3   4
ENDBRANCH   2   3
ENDBRANCH   1   2
BRANCH   1  24
ATOM     24  C   UNL A   1      33.040  27.841  26.531  1.00  0.00     0.188 C 
BRANCH  24  25
ATOM     25  O   UNL A   1      32.826  28.933  25.666  1.00  0.00    -0.376 OA
BRANCH  25  26
ATOM     26  C   UNL A   1      31.723  29.804  25.848  1.00  0.00     0.202 C 
BRANCH  26  27
ATOM     27  C   UNL A   1      31.771  31.211  26.481  1.00  0.00     0.261 C 
BRANCH  27  28
ATOM     28  O   UNL A   1      32.550  31.420  27.660  1.00  0.00    -0.460 OA
BRANCH  28  29
ATOM     29  C   UNL A   1      33.418  32.466  27.604  1.00  0.00     0.338 C 
ATOM     30  O   UNL A   1      33.142  33.617  27.337  1.00  0.00    -0.246 OA
BRANCH  29  31
ATOM     31  C   UNL A   1      34.743  32.024  28.117  1.00  0.00     0.060 A 
ATOM     32  C   UNL A   1      34.885  30.682  28.459  1.00  0.00     0.016 A 
ATOM     33  C   UNL A   1      35.826  32.897  28.279  1.00  0.00     0.016 A 
ATOM     34  C   UNL A   1      36.110  30.222  28.955  1.00  0.00     0.010 A 
ATOM     35  C   UNL A   1      37.060  32.425  28.777  1.00  0.00     0.010 A 
ATOM     36  C   UNL A   1      37.230  31.074  29.105  1.00  0.00    -0.014 A 
BRANCH  36  37
ATOM     37  C   UNL A   1      38.490  30.515  29.717  1.00  0.00     0.031 A 
ATOM     38  C   UNL A   1      38.707  30.768  31.176  1.00  0.00     0.074 A 
ATOM     39  C   UNL A   1      39.400  29.745  29.071  1.00  0.00     0.049 A 
ATOM     40  N   UNL A   1      39.653  30.322  31.957  1.00  0.00    -0.248 NA
ATOM     41  C   UNL A   1      37.777  31.712  31.815  1.00  0.00     0.031 C 
ATOM     42  C   UNL A   1      39.441  29.508  27.640  1.00  0.00     0.029 A 
ATOM     43  N   UNL A   1      40.412  28.923  29.540  1.00  0.00    -0.354 N 
ATOM     44  C   UNL A   1      39.506  31.024  33.143  1.00  0.00     0.074 A 
ATOM     45  C   UNL A   1      38.322  31.846  33.011  1.00  0.00     0.031 C 
ATOM     46  C   UNL A   1      40.235  28.458  27.371  1.00  0.00     0.029 A 
ATOM     47  C   UNL A   1      40.923  28.053  28.588  1.00  0.00     0.049 A 
ATOM     48  H   UNL A   1      40.739  28.953  30.469  1.00  0.00     0.167 HD
ATOM     49  C   UNL A   1      40.335  31.052  34.210  1.00  0.00     0.034 A 
ATOM     50  C   UNL A   1      41.858  27.073  28.665  1.00  0.00     0.034 A 
ATOM     51  C   UNL A   1      41.544  30.287  34.318  1.00  0.00     0.049 A 
ATOM     52  C   UNL A   1      42.679  27.005  29.928  1.00  0.00     0.074 A 
ATOM     53  C   UNL A   1      42.471  30.290  35.345  1.00  0.00     0.029 A 
ATOM     54  N   UNL A   1      42.011  29.401  33.359  1.00  0.00    -0.354 N 
ATOM     55  N   UNL A   1      42.518  27.672  31.044  1.00  0.00    -0.248 NA
ATOM     56  C   UNL A   1      43.856  26.120  29.922  1.00  0.00     0.031 C 
ATOM     57  C   UNL A   1      43.515  29.428  34.992  1.00  0.00     0.029 A 
ATOM     58  C   UNL A   1      43.210  28.844  33.773  1.00  0.00     0.049 A 
ATOM     59  H   UNL A   1      41.558  29.198  32.509  1.00  0.00     0.167 HD
ATOM     60  C   UNL A   1      43.595  27.330  31.850  1.00  0.00     0.074 A 
ATOM     61  C   UNL A   1      44.358  26.330  31.131  1.00  0.00     0.031 C 
ATOM     62  C   UNL A   1      43.950  27.841  33.054  1.00  0.00     0.034 A 
BRANCH  49  63
ATOM     63  C   UNL A   1      39.993  32.047  35.282  1.00  0.00     0.023 A 
ATOM     64  C   UNL A   1      40.688  33.270  35.368  1.00  0.00     0.012 A 
ATOM     65  C   UNL A   1      39.019  31.727  36.247  1.00  0.00     0.148 A 
ATOM     66  C   UNL A   1      40.454  34.137  36.434  1.00  0.00     0.002 A 
ATOM     67  C   UNL A   1      38.753  32.620  37.273  1.00  0.00     0.091 A 
ATOM     68  F   UNL A   1      38.399  30.542  36.162  1.00  0.00    -0.205 F 
ATOM     69  C   UNL A   1      39.483  33.816  37.381  1.00  0.00     0.022 A 
BRANCH  67  70
ATOM     70  S   UNL A   1      37.477  32.331  38.501  1.00  0.00     0.127 S 
ATOM     71  O   UNL A   1      37.520  30.875  38.636  1.00  0.00    -0.237 OA
ATOM     72  O   UNL A   1      37.997  33.066  39.653  1.00  0.00    -0.237 OA
ATOM     73  O   UNL A   1      36.244  32.863  37.940  1.00  0.00    -0.744 OA
ENDBRANCH  67  70
ENDBRANCH  49  63
BRANCH  50  74
ATOM     74  C   UNL A   1      42.137  26.113  27.537  1.00  0.00     0.023 A 
ATOM     75  C   UNL A   1      43.041  26.480  26.513  1.00  0.00     0.012 A 
ATOM     76  C   UNL A   1      41.526  24.849  27.445  1.00  0.00     0.148 A 
ATOM     77  C   UNL A   1      43.321  25.622  25.442  1.00  0.00     0.002 A 
ATOM     78  C   UNL A   1      41.891  23.956  26.438  1.00  0.00     0.091 A 
ATOM     79  F   UNL A   1      40.577  24.530  28.337  1.00  0.00    -0.205 F 
ATOM     80  C   UNL A   1      42.769  24.346  25.421  1.00  0.00     0.022 A 
BRANCH  78  81
ATOM     81  S   UNL A   1      41.384  22.232  26.491  1.00  0.00     0.127 S 
ATOM     82  O   UNL A   1      41.760  21.845  27.847  1.00  0.00    -0.237 OA
ATOM     83  O   UNL A   1      39.943  22.326  26.251  1.00  0.00    -0.237 OA
ATOM     84  O   UNL A   1      42.122  21.593  25.409  1.00  0.00    -0.744 OA
ENDBRANCH  78  81
ENDBRANCH  50  74
BRANCH  62  85
ATOM     85  C   UNL A   1      45.210  27.313  33.682  1.00  0.00     0.023 A 
ATOM     86  C   UNL A   1      46.439  27.971  33.476  1.00  0.00     0.012 A 
ATOM     87  C   UNL A   1      45.157  26.188  34.525  1.00  0.00     0.148 A 
ATOM     88  C   UNL A   1      47.604  27.493  34.074  1.00  0.00     0.002 A 
ATOM     89  C   UNL A   1      46.311  25.748  35.156  1.00  0.00     0.091 A 
ATOM     90  F   UNL A   1      43.978  25.571  34.689  1.00  0.00    -0.205 F 
ATOM     91  C   UNL A   1      47.539  26.388  34.922  1.00  0.00     0.022 A 
BRANCH  89  92
ATOM     92  S   UNL A   1      46.302  24.390  36.329  1.00  0.00     0.127 S 
ATOM     93  O   UNL A   1      47.704  24.346  36.742  1.00  0.00    -0.237 OA
ATOM     94  O   UNL A   1      45.378  24.875  37.354  1.00  0.00    -0.237 OA
ATOM     95  O   UNL A   1      45.834  23.223  35.594  1.00  0.00    -0.744 OA
ENDBRANCH  89  92
ENDBRANCH  62  85
ENDBRANCH  36  37
ENDBRANCH  29  31
ENDBRANCH  28  29
ENDBRANCH  27  28
ENDBRANCH  26  27
ENDBRANCH  25  26
ENDBRANCH  24  25
ENDBRANCH   1  24
TORSDOF 24
ENDMDL
