MODEL 1
REMARK VINA RESULT:      -9.8      0.000      0.000
REMARK SMILES Cc1nc(S(=O)(=O)N[C@H]2C=C[C@H](C(=O)OCCOCCOCCOC(=O)c3ccc(-c4c5nc(c(-c6cccc(S(=O)(=O)[O-])c6F)c6ccc([nH]6)c(-c6cccc(S(=O)(=O)[O-])c6F)c6nc(c(-c7cccc(S(=O)(=O)[O-])c7F)c7ccc4[nH]7)C=C6)C=C5)cc3)C2)cn1C
REMARK SMILES IDX 19 1 18 2 17 3 16 4 15 5 13 6 14 7 12 8 9 9 10 10 90 11
REMARK SMILES IDX 11 12 8 13 5 15 6 16 7 17 4 18 1 19 2 20 3 21 92 22 91 23
REMARK SMILES IDX 93 24 20 25 21 26 22 27 23 28 24 29 25 30 26 31 27 32 28 33
REMARK SMILES IDX 89 34 29 35 88 36 30 37 31 38 32 39 82 40 33 41 87 42 81 43
REMARK SMILES IDX 83 44 34 45 86 46 80 47 79 48 35 50 67 51 47 52 66 53 48 54
REMARK SMILES IDX 51 55 65 56 84 57 49 58 50 59 64 61 85 62 52 63 36 64 37 65
REMARK SMILES IDX 45 66 38 67 40 68 46 69 39 70 41 71 42 72 43 73 44 74 68 75
REMARK SMILES IDX 69 76 77 77 70 78 72 79 78 80 71 81 73 82 74 83 75 84 76 85
REMARK SMILES IDX 53 86 54 87 62 88 55 89 57 90 63 91 56 92 58 93 59 94 60 95
REMARK SMILES IDX 61 96
REMARK H PARENT 8 14 83 49 51 60
REMARK Flexibility Score: inf
ROOT
ATOM      1  C   UNL A   1      33.441  29.003  26.884  1.00  0.00     0.188 C 
ENDROOT
BRANCH   1   2
ATOM      2  O   UNL A   1      33.266  29.364  25.519  1.00  0.00    -0.376 OA
BRANCH   2   3
ATOM      3  C   UNL A   1      33.952  28.632  24.517  1.00  0.00     0.202 C 
BRANCH   3   4
ATOM      4  C   UNL A   1      33.450  28.746  23.071  1.00  0.00     0.261 C 
BRANCH   4   5
ATOM      5  O   UNL A   1      32.239  28.010  22.766  1.00  0.00    -0.463 OA
BRANCH   5   6
ATOM      6  C   UNL A   1      31.093  28.536  23.275  1.00  0.00     0.312 C 
ATOM      7  O   UNL A   1      30.674  29.655  22.988  1.00  0.00    -0.252 OA
BRANCH   6   8
ATOM      8  C   UNL A   1      30.353  27.654  24.293  1.00  0.00     0.123 C 
ATOM      9  C   UNL A   1      30.662  25.199  24.645  1.00  0.00     0.093 C 
ATOM     10  C   UNL A   1      29.517  25.509  23.747  1.00  0.00    -0.011 C 
ATOM     11  C   UNL A   1      31.056  26.604  25.173  1.00  0.00     0.043 C 
ATOM     12  C   UNL A   1      29.347  26.819  23.557  1.00  0.00    -0.015 C 
BRANCH   9  13
ATOM     13  N   UNL A   1      30.243  24.346  25.764  1.00  0.00    -0.203 NA
ATOM     14  H   UNL A   1      30.129  24.953  26.576  1.00  0.00     0.142 HD
BRANCH  13  15
ATOM     15  S   UNL A   1      31.252  23.057  26.241  1.00  0.00     0.260 S 
ATOM     16  O   UNL A   1      30.755  21.861  25.623  1.00  0.00    -0.205 OA
ATOM     17  O   UNL A   1      31.380  23.193  27.684  1.00  0.00    -0.205 OA
BRANCH  15  18
ATOM     18  C   UNL A   1      32.880  23.257  25.642  1.00  0.00     0.188 A 
ATOM     19  C   UNL A   1      35.380  22.903  23.054  1.00  0.00     0.088 C 
ATOM     20  C   UNL A   1      34.548  23.161  24.261  1.00  0.00     0.106 A 
ATOM     21  N   UNL A   1      33.255  22.922  24.351  1.00  0.00    -0.221 NA
ATOM     22  N   UNL A   1      35.024  23.651  25.455  1.00  0.00    -0.337 N 
ATOM     23  C   UNL A   1      33.972  23.734  26.335  1.00  0.00     0.129 A 
ATOM     24  C   UNL A   1      36.392  23.985  25.768  1.00  0.00     0.151 C 
ENDBRANCH  15  18
ENDBRANCH  13  15
ENDBRANCH   9  13
ENDBRANCH   6   8
ENDBRANCH   5   6
ENDBRANCH   4   5
ENDBRANCH   3   4
ENDBRANCH   2   3
ENDBRANCH   1   2
BRANCH   1  25
ATOM     25  C   UNL A   1      34.788  29.304  27.565  1.00  0.00     0.188 C 
BRANCH  25  26
ATOM     26  O   UNL A   1      34.831  30.509  28.304  1.00  0.00    -0.376 OA
BRANCH  26  27
ATOM     27  C   UNL A   1      34.680  31.696  27.546  1.00  0.00     0.202 C 
BRANCH  27  28
ATOM     28  C   UNL A   1      33.370  32.452  27.802  1.00  0.00     0.261 C 
BRANCH  28  29
ATOM     29  O   UNL A   1      33.475  33.888  27.711  1.00  0.00    -0.460 OA
BRANCH  29  30
ATOM     30  C   UNL A   1      33.448  34.571  28.876  1.00  0.00     0.338 C 
ATOM     31  O   UNL A   1      32.546  35.293  29.262  1.00  0.00    -0.246 OA
BRANCH  30  32
ATOM     32  C   UNL A   1      34.634  34.211  29.682  1.00  0.00     0.060 A 
ATOM     33  C   UNL A   1      35.910  34.553  29.222  1.00  0.00     0.016 A 
ATOM     34  C   UNL A   1      34.492  33.470  30.852  1.00  0.00     0.016 A 
ATOM     35  C   UNL A   1      37.050  34.141  29.914  1.00  0.00     0.010 A 
ATOM     36  C   UNL A   1      35.637  33.047  31.541  1.00  0.00     0.010 A 
ATOM     37  C   UNL A   1      36.924  33.360  31.064  1.00  0.00    -0.014 A 
BRANCH  37  38
ATOM     38  C   UNL A   1      38.130  32.764  31.693  1.00  0.00     0.031 A 
ATOM     39  C   UNL A   1      38.807  31.603  31.019  1.00  0.00     0.074 A 
ATOM     40  C   UNL A   1      38.620  33.247  32.849  1.00  0.00     0.049 A 
ATOM     41  N   UNL A   1      39.756  30.821  31.465  1.00  0.00    -0.248 NA
ATOM     42  C   UNL A   1      38.340  31.271  29.663  1.00  0.00     0.031 C 
ATOM     43  C   UNL A   1      38.094  34.403  33.573  1.00  0.00     0.029 A 
ATOM     44  N   UNL A   1      39.656  32.802  33.633  1.00  0.00    -0.354 N 
ATOM     45  C   UNL A   1      39.963  29.872  30.471  1.00  0.00     0.074 A 
ATOM     46  C   UNL A   1      39.040  30.178  29.396  1.00  0.00     0.031 C 
ATOM     47  C   UNL A   1      38.792  34.559  34.711  1.00  0.00     0.029 A 
ATOM     48  C   UNL A   1      39.778  33.486  34.820  1.00  0.00     0.049 A 
ATOM     49  H   UNL A   1      40.255  32.065  33.371  1.00  0.00     0.167 HD
ATOM     50  C   UNL A   1      40.846  28.847  30.450  1.00  0.00     0.034 A 
ATOM     51  C   UNL A   1      40.564  33.249  35.889  1.00  0.00     0.034 A 
ATOM     52  C   UNL A   1      41.801  28.584  31.495  1.00  0.00     0.049 A 
ATOM     53  C   UNL A   1      41.521  32.084  35.855  1.00  0.00     0.074 A 
ATOM     54  C   UNL A   1      42.760  27.589  31.555  1.00  0.00     0.029 A 
ATOM     55  N   UNL A   1      41.920  29.323  32.662  1.00  0.00    -0.354 N 
ATOM     56  N   UNL A   1      41.739  31.221  34.893  1.00  0.00    -0.248 NA
ATOM     57  C   UNL A   1      42.354  31.874  37.049  1.00  0.00     0.031 C 
ATOM     58  C   UNL A   1      43.442  27.710  32.769  1.00  0.00     0.029 A 
ATOM     59  C   UNL A   1      42.930  28.800  33.453  1.00  0.00     0.049 A 
ATOM     60  H   UNL A   1      41.368  30.105  32.895  1.00  0.00     0.167 HD
ATOM     61  C   UNL A   1      42.757  30.389  35.348  1.00  0.00     0.074 A 
ATOM     62  C   UNL A   1      43.126  30.866  36.665  1.00  0.00     0.031 C 
ATOM     63  C   UNL A   1      43.325  29.318  34.739  1.00  0.00     0.034 A 
BRANCH  50  64
ATOM     64  C   UNL A   1      40.828  27.928  29.256  1.00  0.00     0.023 A 
ATOM     65  C   UNL A   1      39.916  26.855  29.204  1.00  0.00     0.012 A 
ATOM     66  C   UNL A   1      41.686  28.159  28.162  1.00  0.00     0.148 A 
ATOM     67  C   UNL A   1      39.882  26.007  28.097  1.00  0.00     0.002 A 
ATOM     68  C   UNL A   1      41.614  27.337  27.043  1.00  0.00     0.091 A 
ATOM     69  F   UNL A   1      42.563  29.171  28.239  1.00  0.00    -0.205 F 
ATOM     70  C   UNL A   1      40.721  26.254  27.014  1.00  0.00     0.022 A 
BRANCH  68  71
ATOM     71  S   UNL A   1      42.602  27.619  25.569  1.00  0.00     0.127 S 
ATOM     72  O   UNL A   1      42.138  28.941  25.149  1.00  0.00    -0.237 OA
ATOM     73  O   UNL A   1      43.965  27.593  26.102  1.00  0.00    -0.237 OA
ATOM     74  O   UNL A   1      42.286  26.529  24.657  1.00  0.00    -0.744 OA
ENDBRANCH  68  71
ENDBRANCH  50  64
BRANCH  51  75
ATOM     75  C   UNL A   1      40.486  34.136  37.085  1.00  0.00     0.023 A 
ATOM     76  C   UNL A   1      41.138  35.385  37.068  1.00  0.00     0.012 A 
ATOM     77  C   UNL A   1      39.762  33.757  38.232  1.00  0.00     0.148 A 
ATOM     78  C   UNL A   1      41.094  36.225  38.182  1.00  0.00     0.002 A 
ATOM     79  C   UNL A   1      39.674  34.623  39.315  1.00  0.00     0.091 A 
ATOM     80  F   UNL A   1      39.166  32.555  38.238  1.00  0.00    -0.205 F 
ATOM     81  C   UNL A   1      40.354  35.849  39.299  1.00  0.00     0.022 A 
BRANCH  79  82
ATOM     82  S   UNL A   1      38.641  34.278  40.744  1.00  0.00     0.127 S 
ATOM     83  O   UNL A   1      37.458  33.686  40.122  1.00  0.00    -0.237 OA
ATOM     84  O   UNL A   1      39.472  33.341  41.500  1.00  0.00    -0.237 OA
ATOM     85  O   UNL A   1      38.434  35.561  41.400  1.00  0.00    -0.744 OA
ENDBRANCH  79  82
ENDBRANCH  51  75
BRANCH  63  86
ATOM     86  C   UNL A   1      44.437  28.606  35.468  1.00  0.00     0.023 A 
ATOM     87  C   UNL A   1      45.777  28.973  35.236  1.00  0.00     0.012 A 
ATOM     88  C   UNL A   1      44.149  27.621  36.433  1.00  0.00     0.148 A 
ATOM     89  C   UNL A   1      46.815  28.345  35.924  1.00  0.00     0.002 A 
ATOM     90  C   UNL A   1      45.184  27.035  37.152  1.00  0.00     0.091 A 
ATOM     91  F   UNL A   1      42.868  27.272  36.629  1.00  0.00    -0.205 F 
ATOM     92  C   UNL A   1      46.518  27.386  36.890  1.00  0.00     0.022 A 
BRANCH  90  93
ATOM     93  S   UNL A   1      44.892  25.860  38.480  1.00  0.00     0.127 S 
ATOM     94  O   UNL A   1      44.140  26.671  39.436  1.00  0.00    -0.237 OA
ATOM     95  O   UNL A   1      44.106  24.823  37.810  1.00  0.00    -0.237 OA
ATOM     96  O   UNL A   1      46.208  25.424  38.927  1.00  0.00    -0.744 OA
ENDBRANCH  90  93
ENDBRANCH  63  86
ENDBRANCH  37  38
ENDBRANCH  30  32
ENDBRANCH  29  30
ENDBRANCH  28  29
ENDBRANCH  27  28
ENDBRANCH  26  27
ENDBRANCH  25  26
ENDBRANCH   1  25
TORSDOF 23
ENDMDL
MODEL 2
REMARK VINA RESULT:      -9.7      1.584      7.533
REMARK SMILES Cc1nc(S(=O)(=O)N[C@H]2C=C[C@H](C(=O)OCCOCCOCCOC(=O)c3ccc(-c4c5nc(c(-c6cccc(S(=O)(=O)[O-])c6F)c6ccc([nH]6)c(-c6cccc(S(=O)(=O)[O-])c6F)c6nc(c(-c7cccc(S(=O)(=O)[O-])c7F)c7ccc4[nH]7)C=C6)C=C5)cc3)C2)cn1C
REMARK SMILES IDX 19 1 18 2 17 3 16 4 15 5 13 6 14 7 12 8 9 9 10 10 90 11
REMARK SMILES IDX 11 12 8 13 5 15 6 16 7 17 4 18 1 19 2 20 3 21 92 22 91 23
REMARK SMILES IDX 93 24 20 25 21 26 22 27 23 28 24 29 25 30 26 31 27 32 28 33
REMARK SMILES IDX 89 34 29 35 88 36 30 37 31 38 32 39 82 40 33 41 87 42 81 43
REMARK SMILES IDX 83 44 34 45 86 46 80 47 79 48 35 50 67 51 47 52 66 53 48 54
REMARK SMILES IDX 51 55 65 56 84 57 49 58 50 59 64 61 85 62 52 63 36 64 37 65
REMARK SMILES IDX 45 66 38 67 40 68 46 69 39 70 41 71 42 72 43 73 44 74 68 75
REMARK SMILES IDX 69 76 77 77 70 78 72 79 78 80 71 81 73 82 74 83 75 84 76 85
REMARK SMILES IDX 53 86 54 87 62 88 55 89 57 90 63 91 56 92 58 93 59 94 60 95
REMARK SMILES IDX 61 96
REMARK H PARENT 8 14 83 49 51 60
REMARK Flexibility Score: inf
ROOT
ATOM      1  C   UNL A   1      32.877  29.844  26.890  1.00  0.00     0.188 C 
ENDROOT
BRANCH   1   2
ATOM      2  O   UNL A   1      32.870  29.835  25.468  1.00  0.00    -0.376 OA
BRANCH   2   3
ATOM      3  C   UNL A   1      33.669  28.888  24.779  1.00  0.00     0.202 C 
BRANCH   3   4
ATOM      4  C   UNL A   1      33.598  28.864  23.246  1.00  0.00     0.261 C 
BRANCH   4   5
ATOM      5  O   UNL A   1      32.662  27.916  22.675  1.00  0.00    -0.463 OA
BRANCH   5   6
ATOM      6  C   UNL A   1      31.356  28.293  22.707  1.00  0.00     0.312 C 
ATOM      7  O   UNL A   1      30.958  29.394  22.331  1.00  0.00    -0.252 OA
BRANCH   6   8
ATOM      8  C   UNL A   1      30.382  27.263  23.301  1.00  0.00     0.123 C 
ATOM      9  C   UNL A   1      30.972  25.307  24.739  1.00  0.00     0.093 C 
ATOM     10  C   UNL A   1      30.834  24.940  23.304  1.00  0.00    -0.011 C 
ATOM     11  C   UNL A   1      30.454  26.770  24.757  1.00  0.00     0.043 C 
ATOM     12  C   UNL A   1      30.518  25.983  22.532  1.00  0.00    -0.015 C 
BRANCH   9  13
ATOM     13  N   UNL A   1      30.116  24.467  25.586  1.00  0.00    -0.203 NA
ATOM     14  H   UNL A   1      29.514  25.094  26.120  1.00  0.00     0.142 HD
BRANCH  13  15
ATOM     15  S   UNL A   1      30.848  23.407  26.703  1.00  0.00     0.260 S 
ATOM     16  O   UNL A   1      29.812  22.603  27.288  1.00  0.00    -0.205 OA
ATOM     17  O   UNL A   1      31.724  24.250  27.504  1.00  0.00    -0.205 OA
BRANCH  15  18
ATOM     18  C   UNL A   1      31.928  22.285  25.915  1.00  0.00     0.188 A 
ATOM     19  C   UNL A   1      32.550  19.262  24.032  1.00  0.00     0.088 C 
ATOM     20  C   UNL A   1      32.559  20.539  24.796  1.00  0.00     0.106 A 
ATOM     21  N   UNL A   1      31.483  21.175  25.215  1.00  0.00    -0.221 NA
ATOM     22  N   UNL A   1      33.692  21.208  25.198  1.00  0.00    -0.337 N 
ATOM     23  C   UNL A   1      33.306  22.327  25.894  1.00  0.00     0.129 A 
ATOM     24  C   UNL A   1      35.059  20.802  24.978  1.00  0.00     0.151 C 
ENDBRANCH  15  18
ENDBRANCH  13  15
ENDBRANCH   9  13
ENDBRANCH   6   8
ENDBRANCH   5   6
ENDBRANCH   4   5
ENDBRANCH   3   4
ENDBRANCH   2   3
ENDBRANCH   1   2
BRANCH   1  25
ATOM     25  C   UNL A   1      34.228  29.905  27.626  1.00  0.00     0.188 C 
BRANCH  25  26
ATOM     26  O   UNL A   1      34.444  31.077  28.388  1.00  0.00    -0.376 OA
BRANCH  26  27
ATOM     27  C   UNL A   1      34.377  32.295  27.669  1.00  0.00     0.202 C 
BRANCH  27  28
ATOM     28  C   UNL A   1      33.179  33.182  28.028  1.00  0.00     0.261 C 
BRANCH  28  29
ATOM     29  O   UNL A   1      33.518  34.529  28.412  1.00  0.00    -0.460 OA
BRANCH  29  30
ATOM     30  C   UNL A   1      33.421  34.827  29.726  1.00  0.00     0.338 C 
ATOM     31  O   UNL A   1      32.514  35.445  30.255  1.00  0.00    -0.246 OA
BRANCH  30  32
ATOM     32  C   UNL A   1      34.528  34.177  30.459  1.00  0.00     0.060 A 
ATOM     33  C   UNL A   1      35.851  34.476  30.116  1.00  0.00     0.016 A 
ATOM     34  C   UNL A   1      34.262  33.215  31.430  1.00  0.00     0.016 A 
ATOM     35  C   UNL A   1      36.912  33.805  30.725  1.00  0.00     0.010 A 
ATOM     36  C   UNL A   1      35.327  32.534  32.034  1.00  0.00     0.010 A 
ATOM     37  C   UNL A   1      36.658  32.808  31.668  1.00  0.00    -0.014 A 
BRANCH  37  38
ATOM     38  C   UNL A   1      37.771  31.965  32.176  1.00  0.00     0.031 A 
ATOM     39  C   UNL A   1      38.362  32.271  33.525  1.00  0.00     0.074 A 
ATOM     40  C   UNL A   1      38.251  30.939  31.450  1.00  0.00     0.049 A 
ATOM     41  N   UNL A   1      39.439  31.788  34.089  1.00  0.00    -0.248 NA
ATOM     42  C   UNL A   1      37.649  33.267  34.340  1.00  0.00     0.031 C 
ATOM     43  C   UNL A   1      37.729  30.500  30.158  1.00  0.00     0.029 A 
ATOM     44  N   UNL A   1      39.311  30.098  31.689  1.00  0.00    -0.354 N 
ATOM     45  C   UNL A   1      39.564  32.459  35.300  1.00  0.00     0.074 A 
ATOM     46  C   UNL A   1      38.451  33.382  35.389  1.00  0.00     0.031 C 
ATOM     47  C   UNL A   1      38.489  29.490  29.701  1.00  0.00     0.029 A 
ATOM     48  C   UNL A   1      39.578  29.245  30.644  1.00  0.00     0.049 A 
ATOM     49  H   UNL A   1      39.829  30.105  32.527  1.00  0.00     0.167 HD
ATOM     50  C   UNL A   1      40.513  32.313  36.254  1.00  0.00     0.034 A 
ATOM     51  C   UNL A   1      40.606  28.393  30.451  1.00  0.00     0.034 A 
ATOM     52  C   UNL A   1      41.583  31.352  36.186  1.00  0.00     0.049 A 
ATOM     53  C   UNL A   1      41.667  28.267  31.515  1.00  0.00     0.074 A 
ATOM     54  C   UNL A   1      42.578  31.103  37.116  1.00  0.00     0.029 A 
ATOM     55  N   UNL A   1      41.796  30.478  35.131  1.00  0.00    -0.354 N 
ATOM     56  N   UNL A   1      41.751  28.873  32.675  1.00  0.00    -0.248 NA
ATOM     57  C   UNL A   1      42.763  27.324  31.251  1.00  0.00     0.031 C 
ATOM     58  C   UNL A   1      43.407  30.097  36.612  1.00  0.00     0.029 A 
ATOM     59  C   UNL A   1      42.912  29.696  35.382  1.00  0.00     0.049 A 
ATOM     60  H   UNL A   1      41.237  30.421  34.323  1.00  0.00     0.167 HD
ATOM     61  C   UNL A   1      42.886  28.360  33.293  1.00  0.00     0.074 A 
ATOM     62  C   UNL A   1      43.445  27.377  32.387  1.00  0.00     0.031 C 
ATOM     63  C   UNL A   1      43.427  28.682  34.496  1.00  0.00     0.034 A 
BRANCH  50  64
ATOM     64  C   UNL A   1      40.439  33.210  37.462  1.00  0.00     0.023 A 
ATOM     65  C   UNL A   1      39.565  32.897  38.522  1.00  0.00     0.012 A 
ATOM     66  C   UNL A   1      41.274  34.341  37.567  1.00  0.00     0.148 A 
ATOM     67  C   UNL A   1      39.499  33.713  39.651  1.00  0.00     0.002 A 
ATOM     68  C   UNL A   1      41.235  35.124  38.714  1.00  0.00     0.091 A 
ATOM     69  F   UNL A   1      42.083  34.636  36.538  1.00  0.00    -0.205 F 
ATOM     70  C   UNL A   1      40.340  34.818  39.752  1.00  0.00     0.022 A 
BRANCH  68  71
ATOM     71  S   UNL A   1      42.332  36.523  38.970  1.00  0.00     0.127 S 
ATOM     72  O   UNL A   1      41.616  37.277  39.999  1.00  0.00    -0.237 OA
ATOM     73  O   UNL A   1      43.559  35.873  39.433  1.00  0.00    -0.237 OA
ATOM     74  O   UNL A   1      42.447  37.187  37.679  1.00  0.00    -0.744 OA
ENDBRANCH  68  71
ENDBRANCH  50  64
BRANCH  51  75
ATOM     75  C   UNL A   1      40.682  27.586  29.200  1.00  0.00     0.023 A 
ATOM     76  C   UNL A   1      39.837  26.471  29.038  1.00  0.00     0.012 A 
ATOM     77  C   UNL A   1      41.578  27.923  28.165  1.00  0.00     0.148 A 
ATOM     78  C   UNL A   1      39.902  25.691  27.883  1.00  0.00     0.002 A 
ATOM     79  C   UNL A   1      41.598  27.176  26.994  1.00  0.00     0.091 A 
ATOM     80  F   UNL A   1      42.390  28.974  28.346  1.00  0.00    -0.205 F 
ATOM     81  C   UNL A   1      40.774  26.049  26.858  1.00  0.00     0.022 A 
BRANCH  79  82
ATOM     82  S   UNL A   1      42.594  27.637  25.573  1.00  0.00     0.127 S 
ATOM     83  O   UNL A   1      43.943  27.622  26.135  1.00  0.00    -0.237 OA
ATOM     84  O   UNL A   1      42.306  26.552  24.635  1.00  0.00    -0.237 OA
ATOM     85  O   UNL A   1      42.101  28.941  25.151  1.00  0.00    -0.744 OA
ENDBRANCH  79  82
ENDBRANCH  51  75
BRANCH  63  86
ATOM     86  C   UNL A   1      44.667  27.940  34.927  1.00  0.00     0.023 A 
ATOM     87  C   UNL A   1      45.937  28.512  34.714  1.00  0.00     0.012 A 
ATOM     88  C   UNL A   1      44.569  26.708  35.604  1.00  0.00     0.148 A 
ATOM     89  C   UNL A   1      47.092  27.851  35.133  1.00  0.00     0.002 A 
ATOM     90  C   UNL A   1      45.720  26.080  36.064  1.00  0.00     0.091 A 
ATOM     91  F   UNL A   1      43.353  26.171  35.783  1.00  0.00    -0.205 F 
ATOM     92  C   UNL A   1      46.983  26.643  35.819  1.00  0.00     0.022 A 
BRANCH  90  93
ATOM     93  S   UNL A   1      45.672  24.571  37.038  1.00  0.00     0.127 S 
ATOM     94  O   UNL A   1      44.943  25.006  38.228  1.00  0.00    -0.237 OA
ATOM     95  O   UNL A   1      44.927  23.662  36.166  1.00  0.00    -0.237 OA
ATOM     96  O   UNL A   1      47.061  24.191  37.259  1.00  0.00    -0.744 OA
ENDBRANCH  90  93
ENDBRANCH  63  86
ENDBRANCH  37  38
ENDBRANCH  30  32
ENDBRANCH  29  30
ENDBRANCH  28  29
ENDBRANCH  27  28
ENDBRANCH  26  27
ENDBRANCH  25  26
ENDBRANCH   1  25
TORSDOF 23
ENDMDL
MODEL 3
REMARK VINA RESULT:      -9.4      2.493      8.360
REMARK SMILES Cc1nc(S(=O)(=O)N[C@H]2C=C[C@H](C(=O)OCCOCCOCCOC(=O)c3ccc(-c4c5nc(c(-c6cccc(S(=O)(=O)[O-])c6F)c6ccc([nH]6)c(-c6cccc(S(=O)(=O)[O-])c6F)c6nc(c(-c7cccc(S(=O)(=O)[O-])c7F)c7ccc4[nH]7)C=C6)C=C5)cc3)C2)cn1C
REMARK SMILES IDX 19 1 18 2 17 3 16 4 15 5 13 6 14 7 12 8 9 9 10 10 90 11
REMARK SMILES IDX 11 12 8 13 5 15 6 16 7 17 4 18 1 19 2 20 3 21 92 22 91 23
REMARK SMILES IDX 93 24 20 25 21 26 22 27 23 28 24 29 25 30 26 31 27 32 28 33
REMARK SMILES IDX 89 34 29 35 88 36 30 37 31 38 32 39 82 40 33 41 87 42 81 43
REMARK SMILES IDX 83 44 34 45 86 46 80 47 79 48 35 50 67 51 47 52 66 53 48 54
REMARK SMILES IDX 51 55 65 56 84 57 49 58 50 59 64 61 85 62 52 63 36 64 37 65
REMARK SMILES IDX 45 66 38 67 40 68 46 69 39 70 41 71 42 72 43 73 44 74 68 75
REMARK SMILES IDX 69 76 77 77 70 78 72 79 78 80 71 81 73 82 74 83 75 84 76 85
REMARK SMILES IDX 53 86 54 87 62 88 55 89 57 90 63 91 56 92 58 93 59 94 60 95
REMARK SMILES IDX 61 96
REMARK H PARENT 8 14 83 49 51 60
REMARK Flexibility Score: inf
ROOT
ATOM      1  C   UNL A   1      31.471  27.358  23.880  1.00  0.00     0.188 C 
ENDROOT
BRANCH   1   2
ATOM      2  O   UNL A   1      31.183  26.050  23.403  1.00  0.00    -0.376 OA
BRANCH   2   3
ATOM      3  C   UNL A   1      31.469  24.934  24.230  1.00  0.00     0.202 C 
BRANCH   3   4
ATOM      4  C   UNL A   1      30.995  23.551  23.762  1.00  0.00     0.261 C 
BRANCH   4   5
ATOM      5  O   UNL A   1      31.695  22.419  24.337  1.00  0.00    -0.463 OA
BRANCH   5   6
ATOM      6  C   UNL A   1      31.469  22.205  25.661  1.00  0.00     0.312 C 
ATOM      7  O   UNL A   1      30.347  22.085  26.147  1.00  0.00    -0.252 OA
BRANCH   6   8
ATOM      8  C   UNL A   1      32.722  22.168  26.550  1.00  0.00     0.123 C 
ATOM      9  C   UNL A   1      35.026  22.897  25.915  1.00  0.00     0.093 C 
ATOM     10  C   UNL A   1      34.826  21.432  25.754  1.00  0.00    -0.011 C 
ATOM     11  C   UNL A   1      33.727  23.329  26.646  1.00  0.00     0.043 C 
ATOM     12  C   UNL A   1      33.596  21.037  26.093  1.00  0.00    -0.015 C 
BRANCH   9  13
ATOM     13  N   UNL A   1      36.192  23.184  26.760  1.00  0.00    -0.203 NA
ATOM     14  H   UNL A   1      35.937  23.964  27.366  1.00  0.00     0.142 HD
BRANCH  13  15
ATOM     15  S   UNL A   1      37.670  23.590  26.016  1.00  0.00     0.260 S 
ATOM     16  O   UNL A   1      38.172  24.773  26.655  1.00  0.00    -0.205 OA
ATOM     17  O   UNL A   1      37.401  23.532  24.586  1.00  0.00    -0.205 OA
BRANCH  15  18
ATOM     18  C   UNL A   1      38.883  22.362  26.277  1.00  0.00     0.188 A 
ATOM     19  C   UNL A   1      42.047  21.258  27.635  1.00  0.00     0.088 C 
ATOM     20  C   UNL A   1      40.723  21.461  26.987  1.00  0.00     0.106 A 
ATOM     21  N   UNL A   1      40.020  22.575  27.041  1.00  0.00    -0.221 NA
ATOM     22  N   UNL A   1      40.072  20.526  26.216  1.00  0.00    -0.337 N 
ATOM     23  C   UNL A   1      38.894  21.078  25.773  1.00  0.00     0.129 A 
ATOM     24  C   UNL A   1      40.543  19.205  25.878  1.00  0.00     0.151 C 
ENDBRANCH  15  18
ENDBRANCH  13  15
ENDBRANCH   9  13
ENDBRANCH   6   8
ENDBRANCH   5   6
ENDBRANCH   4   5
ENDBRANCH   3   4
ENDBRANCH   2   3
ENDBRANCH   1   2
BRANCH   1  25
ATOM     25  C   UNL A   1      31.952  27.530  25.333  1.00  0.00     0.188 C 
BRANCH  25  26
ATOM     26  O   UNL A   1      31.370  28.613  26.034  1.00  0.00    -0.376 OA
BRANCH  26  27
ATOM     27  C   UNL A   1      31.673  29.901  25.529  1.00  0.00     0.202 C 
BRANCH  27  28
ATOM     28  C   UNL A   1      33.023  30.463  25.990  1.00  0.00     0.261 C 
BRANCH  28  29
ATOM     29  O   UNL A   1      33.070  30.862  27.374  1.00  0.00    -0.460 OA
BRANCH  29  30
ATOM     30  C   UNL A   1      33.891  31.890  27.681  1.00  0.00     0.338 C 
ATOM     31  O   UNL A   1      33.623  33.074  27.586  1.00  0.00    -0.246 OA
BRANCH  30  32
ATOM     32  C   UNL A   1      35.137  31.360  28.275  1.00  0.00     0.060 A 
ATOM     33  C   UNL A   1      35.166  30.048  28.760  1.00  0.00     0.016 A 
ATOM     34  C   UNL A   1      36.251  32.181  28.426  1.00  0.00     0.016 A 
ATOM     35  C   UNL A   1      36.297  29.555  29.412  1.00  0.00     0.010 A 
ATOM     36  C   UNL A   1      37.383  31.690  29.090  1.00  0.00     0.010 A 
ATOM     37  C   UNL A   1      37.405  30.382  29.608  1.00  0.00    -0.014 A 
BRANCH  37  38
ATOM     38  C   UNL A   1      38.530  29.925  30.463  1.00  0.00     0.031 A 
ATOM     39  C   UNL A   1      38.638  30.447  31.870  1.00  0.00     0.074 A 
ATOM     40  C   UNL A   1      39.447  29.057  29.998  1.00  0.00     0.049 A 
ATOM     41  N   UNL A   1      39.617  30.326  32.728  1.00  0.00    -0.248 NA
ATOM     42  C   UNL A   1      37.490  31.221  32.369  1.00  0.00     0.031 C 
ATOM     43  C   UNL A   1      39.425  28.431  28.677  1.00  0.00     0.029 A 
ATOM     44  N   UNL A   1      40.595  28.575  30.581  1.00  0.00    -0.354 N 
ATOM     45  C   UNL A   1      39.229  31.053  33.848  1.00  0.00     0.074 A 
ATOM     46  C   UNL A   1      37.924  31.610  33.559  1.00  0.00     0.031 C 
ATOM     47  C   UNL A   1      40.525  27.671  28.537  1.00  0.00     0.029 A 
ATOM     48  C   UNL A   1      41.350  27.796  29.737  1.00  0.00     0.049 A 
ATOM     49  H   UNL A   1      40.850  28.769  31.512  1.00  0.00     0.167 HD
ATOM     50  C   UNL A   1      39.896  31.232  35.013  1.00  0.00     0.034 A 
ATOM     51  C   UNL A   1      42.584  27.278  29.897  1.00  0.00     0.034 A 
ATOM     52  C   UNL A   1      41.166  30.626  35.316  1.00  0.00     0.049 A 
ATOM     53  C   UNL A   1      43.320  27.513  31.191  1.00  0.00     0.074 A 
ATOM     54  C   UNL A   1      41.908  30.719  36.480  1.00  0.00     0.029 A 
ATOM     55  N   UNL A   1      41.881  29.811  34.452  1.00  0.00    -0.354 N 
ATOM     56  N   UNL A   1      42.926  28.165  32.259  1.00  0.00    -0.248 NA
ATOM     57  C   UNL A   1      44.662  26.924  31.310  1.00  0.00     0.031 C 
ATOM     58  C   UNL A   1      43.084  29.982  36.310  1.00  0.00     0.029 A 
ATOM     59  C   UNL A   1      43.060  29.402  35.052  1.00  0.00     0.049 A 
ATOM     60  H   UNL A   1      41.592  29.559  33.545  1.00  0.00     0.167 HD
ATOM     61  C   UNL A   1      43.953  28.033  33.188  1.00  0.00     0.074 A 
ATOM     62  C   UNL A   1      44.978  27.223  32.563  1.00  0.00     0.031 C 
ATOM     63  C   UNL A   1      44.047  28.550  34.440  1.00  0.00     0.034 A 
BRANCH  50  64
ATOM     64  C   UNL A   1      39.263  32.116  36.055  1.00  0.00     0.023 A 
ATOM     65  C   UNL A   1      39.508  33.504  36.047  1.00  0.00     0.012 A 
ATOM     66  C   UNL A   1      38.384  31.576  37.016  1.00  0.00     0.148 A 
ATOM     67  C   UNL A   1      38.916  34.335  36.999  1.00  0.00     0.002 A 
ATOM     68  C   UNL A   1      37.763  32.416  37.932  1.00  0.00     0.091 A 
ATOM     69  F   UNL A   1      38.181  30.250  37.023  1.00  0.00    -0.205 F 
ATOM     70  C   UNL A   1      38.037  33.794  37.933  1.00  0.00     0.022 A 
BRANCH  68  71
ATOM     71  S   UNL A   1      36.558  31.825  39.126  1.00  0.00     0.127 S 
ATOM     72  O   UNL A   1      36.503  30.398  38.810  1.00  0.00    -0.237 OA
ATOM     73  O   UNL A   1      37.206  32.142  40.400  1.00  0.00    -0.237 OA
ATOM     74  O   UNL A   1      35.334  32.569  38.867  1.00  0.00    -0.744 OA
ENDBRANCH  68  71
ENDBRANCH  50  64
BRANCH  51  75
ATOM     75  C   UNL A   1      43.207  26.479  28.802  1.00  0.00     0.023 A 
ATOM     76  C   UNL A   1      42.927  25.102  28.701  1.00  0.00     0.012 A 
ATOM     77  C   UNL A   1      44.062  27.075  27.855  1.00  0.00     0.148 A 
ATOM     78  C   UNL A   1      43.511  24.329  27.696  1.00  0.00     0.002 A 
ATOM     79  C   UNL A   1      44.595  26.312  26.823  1.00  0.00     0.091 A 
ATOM     80  F   UNL A   1      44.334  28.382  27.980  1.00  0.00    -0.205 F 
ATOM     81  C   UNL A   1      44.335  24.936  26.752  1.00  0.00     0.022 A 
BRANCH  79  82
ATOM     82  S   UNL A   1      45.561  27.032  25.491  1.00  0.00     0.127 S 
ATOM     83  O   UNL A   1      44.606  27.967  24.900  1.00  0.00    -0.237 OA
ATOM     84  O   UNL A   1      46.664  27.659  26.222  1.00  0.00    -0.237 OA
ATOM     85  O   UNL A   1      45.960  25.917  24.644  1.00  0.00    -0.744 OA
ENDBRANCH  79  82
ENDBRANCH  51  75
BRANCH  63  86
ATOM     86  C   UNL A   1      45.284  28.224  35.240  1.00  0.00     0.023 A 
ATOM     87  C   UNL A   1      46.383  29.105  35.224  1.00  0.00     0.012 A 
ATOM     88  C   UNL A   1      45.329  27.078  36.059  1.00  0.00     0.148 A 
ATOM     89  C   UNL A   1      47.522  28.832  35.981  1.00  0.00     0.002 A 
ATOM     90  C   UNL A   1      46.446  26.839  36.850  1.00  0.00     0.091 A 
ATOM     91  F   UNL A   1      44.280  26.242  36.049  1.00  0.00    -0.205 F 
ATOM     92  C   UNL A   1      47.549  27.707  36.803  1.00  0.00     0.022 A 
BRANCH  90  93
ATOM     93  S   UNL A   1      46.532  25.469  38.010  1.00  0.00     0.127 S 
ATOM     94  O   UNL A   1      45.367  25.721  38.856  1.00  0.00    -0.237 OA
ATOM     95  O   UNL A   1      46.404  24.307  37.128  1.00  0.00    -0.237 OA
ATOM     96  O   UNL A   1      47.824  25.584  38.673  1.00  0.00    -0.744 OA
ENDBRANCH  90  93
ENDBRANCH  63  86
ENDBRANCH  37  38
ENDBRANCH  30  32
ENDBRANCH  29  30
ENDBRANCH  28  29
ENDBRANCH  27  28
ENDBRANCH  26  27
ENDBRANCH  25  26
ENDBRANCH   1  25
TORSDOF 23
ENDMDL
