MODEL 1
REMARK VINA RESULT:      -9.5      0.000      0.000
REMARK SMILES CCCCN(C)c1ccc([N+](=O)[O-])c(C(=O)OCCOCCOCCOC(=O)c2ccc(-c3c4nc(c(-c5cccc(S(=O)(=O)[O-])c5F)c5ccc([nH]5)c(-c5cccc(S(=O)(=O)[O-])c5F)c5nc(c(-c6cccc(S(=O)(=O)[O-])c6F)c6ccc3[nH]6)C=C5)C=C4)cc2)c1
REMARK SMILES IDX 21 1 20 2 19 3 18 4 17 5 15 6 16 7 14 8 7 9 8 10 92 11 9 12
REMARK SMILES IDX 10 13 5 14 6 15 4 16 3 17 2 18 1 19 11 20 12 21 13 22 22 23
REMARK SMILES IDX 23 24 24 25 25 26 26 27 27 28 28 29 29 30 30 31 91 32 31 33
REMARK SMILES IDX 90 34 32 35 33 36 34 37 84 38 35 39 89 40 83 41 85 42 36 43
REMARK SMILES IDX 88 44 82 45 81 46 37 48 69 49 49 50 68 51 50 52 53 53 67 54
REMARK SMILES IDX 86 55 51 56 52 57 66 59 87 60 54 61 38 62 39 63 47 64 40 65
REMARK SMILES IDX 42 66 48 67 41 68 43 69 44 70 45 71 46 72 70 73 71 74 79 75
REMARK SMILES IDX 72 76 74 77 80 78 73 79 75 80 76 81 77 82 78 83 55 84 56 85
REMARK SMILES IDX 64 86 57 87 59 88 65 89 58 90 60 91 61 92 62 93 63 94
REMARK H PARENT 85 47 53 58
REMARK Flexibility Score: inf
ROOT
ATOM      1  C   UNL A   1      33.235  28.436  22.566  1.00  0.00     0.188 C 
ENDROOT
BRANCH   1   2
ATOM      2  O   UNL A   1      33.619  27.439  21.630  1.00  0.00    -0.376 OA
BRANCH   2   3
ATOM      3  C   UNL A   1      32.685  26.403  21.383  1.00  0.00     0.202 C 
BRANCH   3   4
ATOM      4  C   UNL A   1      33.081  24.988  21.824  1.00  0.00     0.261 C 
BRANCH   4   5
ATOM      5  O   UNL A   1      32.439  24.541  23.026  1.00  0.00    -0.459 OA
BRANCH   5   6
ATOM      6  C   UNL A   1      33.013  24.789  24.223  1.00  0.00     0.345 C 
ATOM      7  O   UNL A   1      33.528  25.823  24.589  1.00  0.00    -0.246 OA
BRANCH   6   8
ATOM      8  C   UNL A   1      32.989  23.539  25.027  1.00  0.00     0.139 A 
ATOM      9  C   UNL A   1      33.994  21.310  25.320  1.00  0.00     0.038 A 
ATOM     10  C   UNL A   1      33.404  21.245  26.587  1.00  0.00     0.033 A 
ATOM     11  C   UNL A   1      33.692  22.427  24.544  1.00  0.00     0.048 A 
ATOM     12  C   UNL A   1      32.586  22.285  27.058  1.00  0.00     0.089 A 
ATOM     13  C   UNL A   1      32.399  23.438  26.279  1.00  0.00     0.284 A 
BRANCH   9  14
ATOM     14  N   UNL A   1      34.880  20.361  24.815  1.00  0.00    -0.375 N 
ATOM     15  C   UNL A   1      34.381  19.008  24.577  1.00  0.00     0.143 C 
BRANCH  14  16
ATOM     16  C   UNL A   1      36.298  20.483  25.228  1.00  0.00     0.116 C 
BRANCH  16  17
ATOM     17  C   UNL A   1      37.098  21.606  24.539  1.00  0.00     0.021 C 
BRANCH  17  18
ATOM     18  C   UNL A   1      37.635  22.797  25.359  1.00  0.00    -0.002 C 
ATOM     19  C   UNL A   1      36.653  23.907  25.695  1.00  0.00     0.004 C 
ENDBRANCH  17  18
ENDBRANCH  16  17
ENDBRANCH  14  16
ENDBRANCH   9  14
BRANCH  13  20
ATOM     20  N   UNL A   1      31.458  24.442  26.743  1.00  0.00     0.063 N 
ATOM     21  O   UNL A   1      30.255  24.192  26.601  1.00  0.00    -0.258 OA
ATOM     22  O   UNL A   1      31.933  25.513  27.146  1.00  0.00    -0.258 OA
ENDBRANCH  13  20
ENDBRANCH   6   8
ENDBRANCH   5   6
ENDBRANCH   4   5
ENDBRANCH   3   4
ENDBRANCH   2   3
ENDBRANCH   1   2
BRANCH   1  23
ATOM     23  C   UNL A   1      31.749  28.311  22.965  1.00  0.00     0.188 C 
BRANCH  23  24
ATOM     24  O   UNL A   1      31.231  29.086  24.041  1.00  0.00    -0.376 OA
BRANCH  24  25
ATOM     25  C   UNL A   1      32.142  29.598  25.002  1.00  0.00     0.202 C 
BRANCH  25  26
ATOM     26  C   UNL A   1      31.645  30.643  26.014  1.00  0.00     0.261 C 
BRANCH  26  27
ATOM     27  O   UNL A   1      32.368  30.701  27.256  1.00  0.00    -0.460 OA
BRANCH  27  28
ATOM     28  C   UNL A   1      33.204  31.762  27.402  1.00  0.00     0.338 C 
ATOM     29  O   UNL A   1      32.906  32.943  27.357  1.00  0.00    -0.246 OA
BRANCH  28  30
ATOM     30  C   UNL A   1      34.539  31.290  27.839  1.00  0.00     0.060 A 
ATOM     31  C   UNL A   1      34.713  29.922  28.098  1.00  0.00     0.016 A 
ATOM     32  C   UNL A   1      35.595  32.180  28.033  1.00  0.00     0.016 A 
ATOM     33  C   UNL A   1      35.937  29.439  28.561  1.00  0.00     0.010 A 
ATOM     34  C   UNL A   1      36.812  31.700  28.530  1.00  0.00     0.010 A 
ATOM     35  C   UNL A   1      36.981  30.332  28.821  1.00  0.00    -0.014 A 
BRANCH  35  36
ATOM     36  C   UNL A   1      38.184  29.874  29.557  1.00  0.00     0.031 A 
ATOM     37  C   UNL A   1      38.441  30.429  30.932  1.00  0.00     0.074 A 
ATOM     38  C   UNL A   1      39.049  29.000  29.012  1.00  0.00     0.049 A 
ATOM     39  N   UNL A   1      39.458  30.235  31.729  1.00  0.00    -0.248 NA
ATOM     40  C   UNL A   1      37.410  31.328  31.477  1.00  0.00     0.031 C 
ATOM     41  C   UNL A   1      38.905  28.373  27.700  1.00  0.00     0.029 A 
ATOM     42  N   UNL A   1      40.243  28.519  29.490  1.00  0.00    -0.354 N 
ATOM     43  C   UNL A   1      39.211  31.014  32.853  1.00  0.00     0.074 A 
ATOM     44  C   UNL A   1      37.948  31.684  32.634  1.00  0.00     0.031 C 
ATOM     45  C   UNL A   1      39.996  27.626  27.456  1.00  0.00     0.029 A 
ATOM     46  C   UNL A   1      40.922  27.742  28.582  1.00  0.00     0.049 A 
ATOM     47  H   UNL A   1      40.580  28.712  30.395  1.00  0.00     0.167 HD
ATOM     48  C   UNL A   1      39.962  31.153  33.971  1.00  0.00     0.034 A 
ATOM     49  C   UNL A   1      42.162  27.214  28.640  1.00  0.00     0.034 A 
ATOM     50  C   UNL A   1      41.211  30.478  34.195  1.00  0.00     0.049 A 
ATOM     51  C   UNL A   1      42.997  27.412  29.880  1.00  0.00     0.074 A 
ATOM     52  C   UNL A   1      42.016  30.511  35.319  1.00  0.00     0.029 A 
ATOM     53  N   UNL A   1      41.850  29.668  33.270  1.00  0.00    -0.354 N 
ATOM     54  N   UNL A   1      42.697  28.046  30.987  1.00  0.00    -0.248 NA
ATOM     55  C   UNL A   1      44.333  26.795  29.889  1.00  0.00     0.031 C 
ATOM     56  C   UNL A   1      43.160  29.747  35.061  1.00  0.00     0.029 A 
ATOM     57  C   UNL A   1      43.050  29.211  33.788  1.00  0.00     0.049 A 
ATOM     58  H   UNL A   1      41.501  29.448  32.375  1.00  0.00     0.167 HD
ATOM     59  C   UNL A   1      43.788  27.878  31.835  1.00  0.00     0.074 A 
ATOM     60  C   UNL A   1      44.750  27.065  31.119  1.00  0.00     0.031 C 
ATOM     61  C   UNL A   1      43.981  28.362  33.087  1.00  0.00     0.034 A 
BRANCH  48  62
ATOM     62  C   UNL A   1      39.441  32.067  35.048  1.00  0.00     0.023 A 
ATOM     63  C   UNL A   1      39.545  33.465  34.889  1.00  0.00     0.012 A 
ATOM     64  C   UNL A   1      38.811  31.547  36.195  1.00  0.00     0.148 A 
ATOM     65  C   UNL A   1      39.062  34.328  35.872  1.00  0.00     0.002 A 
ATOM     66  C   UNL A   1      38.293  32.414  37.149  1.00  0.00     0.091 A 
ATOM     67  F   UNL A   1      38.744  30.215  36.339  1.00  0.00    -0.205 F 
ATOM     68  C   UNL A   1      38.429  33.803  36.995  1.00  0.00     0.022 A 
BRANCH  66  69
ATOM     69  S   UNL A   1      37.392  31.837  38.591  1.00  0.00     0.127 S 
ATOM     70  O   UNL A   1      36.958  30.509  38.156  1.00  0.00    -0.237 OA
ATOM     71  O   UNL A   1      38.430  31.829  39.622  1.00  0.00    -0.237 OA
ATOM     72  O   UNL A   1      36.327  32.804  38.812  1.00  0.00    -0.744 OA
ENDBRANCH  66  69
ENDBRANCH  48  62
BRANCH  49  73
ATOM     73  C   UNL A   1      42.685  26.424  27.489  1.00  0.00     0.023 A 
ATOM     74  C   UNL A   1      43.531  27.042  26.549  1.00  0.00     0.012 A 
ATOM     75  C   UNL A   1      42.361  25.061  27.330  1.00  0.00     0.148 A 
ATOM     76  C   UNL A   1      44.028  26.326  25.459  1.00  0.00     0.002 A 
ATOM     77  C   UNL A   1      42.899  24.340  26.270  1.00  0.00     0.091 A 
ATOM     78  F   UNL A   1      41.536  24.498  28.224  1.00  0.00    -0.205 F 
ATOM     79  C   UNL A   1      43.720  24.975  25.326  1.00  0.00     0.022 A 
BRANCH  77  80
ATOM     80  S   UNL A   1      42.645  22.573  26.074  1.00  0.00     0.127 S 
ATOM     81  O   UNL A   1      41.193  22.491  25.941  1.00  0.00    -0.237 OA
ATOM     82  O   UNL A   1      43.390  22.296  24.845  1.00  0.00    -0.237 OA
ATOM     83  O   UNL A   1      43.203  21.956  27.270  1.00  0.00    -0.744 OA
ENDBRANCH  77  80
ENDBRANCH  49  73
BRANCH  61  84
ATOM     84  C   UNL A   1      45.267  28.010  33.793  1.00  0.00     0.023 A 
ATOM     85  C   UNL A   1      46.374  28.878  33.707  1.00  0.00     0.012 A 
ATOM     86  C   UNL A   1      45.351  26.865  34.610  1.00  0.00     0.148 A 
ATOM     87  C   UNL A   1      47.551  28.597  34.401  1.00  0.00     0.002 A 
ATOM     88  C   UNL A   1      46.510  26.618  35.336  1.00  0.00     0.091 A 
ATOM     89  F   UNL A   1      44.293  26.043  34.668  1.00  0.00    -0.205 F 
ATOM     90  C   UNL A   1      47.616  27.476  35.223  1.00  0.00     0.022 A 
BRANCH  88  91
ATOM     91  S   UNL A   1      46.650  25.252  36.497  1.00  0.00     0.127 S 
ATOM     92  O   UNL A   1      48.033  25.390  36.954  1.00  0.00    -0.237 OA
ATOM     93  O   UNL A   1      45.641  25.592  37.500  1.00  0.00    -0.237 OA
ATOM     94  O   UNL A   1      46.362  24.044  35.735  1.00  0.00    -0.744 OA
ENDBRANCH  88  91
ENDBRANCH  61  84
ENDBRANCH  35  36
ENDBRANCH  28  30
ENDBRANCH  27  28
ENDBRANCH  26  27
ENDBRANCH  25  26
ENDBRANCH  24  25
ENDBRANCH  23  24
ENDBRANCH   1  23
TORSDOF 25
ENDMDL
MODEL 2
REMARK VINA RESULT:      -9.3      1.573      7.786
REMARK SMILES CCCCN(C)c1ccc([N+](=O)[O-])c(C(=O)OCCOCCOCCOC(=O)c2ccc(-c3c4nc(c(-c5cccc(S(=O)(=O)[O-])c5F)c5ccc([nH]5)c(-c5cccc(S(=O)(=O)[O-])c5F)c5nc(c(-c6cccc(S(=O)(=O)[O-])c6F)c6ccc3[nH]6)C=C5)C=C4)cc2)c1
REMARK SMILES IDX 21 1 20 2 19 3 18 4 17 5 15 6 16 7 14 8 7 9 8 10 92 11 9 12
REMARK SMILES IDX 10 13 5 14 6 15 4 16 3 17 2 18 1 19 11 20 12 21 13 22 22 23
REMARK SMILES IDX 23 24 24 25 25 26 26 27 27 28 28 29 29 30 30 31 91 32 31 33
REMARK SMILES IDX 90 34 32 35 33 36 34 37 84 38 35 39 89 40 83 41 85 42 36 43
REMARK SMILES IDX 88 44 82 45 81 46 37 48 69 49 49 50 68 51 50 52 53 53 67 54
REMARK SMILES IDX 86 55 51 56 52 57 66 59 87 60 54 61 38 62 39 63 47 64 40 65
REMARK SMILES IDX 42 66 48 67 41 68 43 69 44 70 45 71 46 72 70 73 71 74 79 75
REMARK SMILES IDX 72 76 74 77 80 78 73 79 75 80 76 81 77 82 78 83 55 84 56 85
REMARK SMILES IDX 64 86 57 87 59 88 65 89 58 90 60 91 61 92 62 93 63 94
REMARK H PARENT 85 47 53 58
REMARK Flexibility Score: inf
ROOT
ATOM      1  C   UNL A   1      33.324  26.812  21.960  1.00  0.00     0.188 C 
ENDROOT
BRANCH   1   2
ATOM      2  O   UNL A   1      33.765  25.482  22.190  1.00  0.00    -0.376 OA
BRANCH   2   3
ATOM      3  C   UNL A   1      32.814  24.452  21.989  1.00  0.00     0.202 C 
BRANCH   3   4
ATOM      4  C   UNL A   1      33.358  23.062  21.633  1.00  0.00     0.261 C 
BRANCH   4   5
ATOM      5  O   UNL A   1      34.005  22.383  22.718  1.00  0.00    -0.459 OA
BRANCH   5   6
ATOM      6  C   UNL A   1      33.311  21.492  23.458  1.00  0.00     0.345 C 
ATOM      7  O   UNL A   1      32.764  20.483  23.068  1.00  0.00    -0.246 OA
BRANCH   6   8
ATOM      8  C   UNL A   1      33.249  21.986  24.858  1.00  0.00     0.139 A 
ATOM      9  C   UNL A   1      31.855  23.136  26.531  1.00  0.00     0.038 A 
ATOM     10  C   UNL A   1      32.729  22.684  27.525  1.00  0.00     0.033 A 
ATOM     11  C   UNL A   1      32.198  22.841  25.213  1.00  0.00     0.048 A 
ATOM     12  C   UNL A   1      33.869  21.930  27.199  1.00  0.00     0.089 A 
ATOM     13  C   UNL A   1      34.111  21.570  25.863  1.00  0.00     0.284 A 
BRANCH   9  14
ATOM     14  N   UNL A   1      30.666  23.817  26.780  1.00  0.00    -0.375 N 
ATOM     15  C   UNL A   1      29.514  23.047  27.246  1.00  0.00     0.143 C 
BRANCH  14  16
ATOM     16  C   UNL A   1      30.377  24.994  25.928  1.00  0.00     0.116 C 
BRANCH  16  17
ATOM     17  C   UNL A   1      30.737  26.363  26.538  1.00  0.00     0.021 C 
BRANCH  17  18
ATOM     18  C   UNL A   1      32.213  26.776  26.712  1.00  0.00    -0.002 C 
ATOM     19  C   UNL A   1      33.202  26.270  25.675  1.00  0.00     0.004 C 
ENDBRANCH  17  18
ENDBRANCH  16  17
ENDBRANCH  14  16
ENDBRANCH   9  14
BRANCH  13  20
ATOM     20  N   UNL A   1      35.355  20.890  25.544  1.00  0.00     0.063 N 
ATOM     21  O   UNL A   1      35.272  19.711  25.179  1.00  0.00    -0.258 OA
ATOM     22  O   UNL A   1      36.404  21.508  25.764  1.00  0.00    -0.258 OA
ENDBRANCH  13  20
ENDBRANCH   6   8
ENDBRANCH   5   6
ENDBRANCH   4   5
ENDBRANCH   3   4
ENDBRANCH   2   3
ENDBRANCH   1   2
BRANCH   1  23
ATOM     23  C   UNL A   1      31.818  26.981  22.252  1.00  0.00     0.188 C 
BRANCH  23  24
ATOM     24  O   UNL A   1      31.298  28.255  22.615  1.00  0.00    -0.376 OA
BRANCH  24  25
ATOM     25  C   UNL A   1      32.163  29.175  23.264  1.00  0.00     0.202 C 
BRANCH  25  26
ATOM     26  C   UNL A   1      31.815  29.644  24.686  1.00  0.00     0.261 C 
BRANCH  26  27
ATOM     27  O   UNL A   1      32.932  29.819  25.575  1.00  0.00    -0.460 OA
BRANCH  27  28
ATOM     28  C   UNL A   1      32.796  30.799  26.507  1.00  0.00     0.338 C 
ATOM     29  O   UNL A   1      31.835  31.533  26.664  1.00  0.00    -0.246 OA
BRANCH  28  30
ATOM     30  C   UNL A   1      33.917  30.731  27.473  1.00  0.00     0.060 A 
ATOM     31  C   UNL A   1      34.627  31.908  27.757  1.00  0.00     0.016 A 
ATOM     32  C   UNL A   1      34.295  29.525  28.062  1.00  0.00     0.016 A 
ATOM     33  C   UNL A   1      35.722  31.884  28.620  1.00  0.00     0.010 A 
ATOM     34  C   UNL A   1      35.415  29.494  28.901  1.00  0.00     0.010 A 
ATOM     35  C   UNL A   1      36.149  30.667  29.164  1.00  0.00    -0.014 A 
BRANCH  35  36
ATOM     36  C   UNL A   1      37.456  30.584  29.860  1.00  0.00     0.031 A 
ATOM     37  C   UNL A   1      38.581  29.841  29.193  1.00  0.00     0.074 A 
ATOM     38  C   UNL A   1      37.640  31.135  31.073  1.00  0.00     0.049 A 
ATOM     39  N   UNL A   1      39.780  29.574  29.638  1.00  0.00    -0.248 NA
ATOM     40  C   UNL A   1      38.313  29.328  27.838  1.00  0.00     0.031 C 
ATOM     41  C   UNL A   1      36.640  31.897  31.818  1.00  0.00     0.029 A 
ATOM     42  N   UNL A   1      38.731  31.100  31.906  1.00  0.00    -0.354 N 
ATOM     43  C   UNL A   1      40.397  28.831  28.640  1.00  0.00     0.074 A 
ATOM     44  C   UNL A   1      39.440  28.689  27.564  1.00  0.00     0.031 C 
ATOM     45  C   UNL A   1      37.148  32.217  33.021  1.00  0.00     0.029 A 
ATOM     46  C   UNL A   1      38.496  31.664  33.138  1.00  0.00     0.049 A 
ATOM     47  H   UNL A   1      39.597  30.710  31.647  1.00  0.00     0.167 HD
ATOM     48  C   UNL A   1      41.651  28.320  28.614  1.00  0.00     0.034 A 
ATOM     49  C   UNL A   1      39.268  31.698  34.243  1.00  0.00     0.034 A 
ATOM     50  C   UNL A   1      42.608  28.471  29.677  1.00  0.00     0.049 A 
ATOM     51  C   UNL A   1      40.648  31.090  34.205  1.00  0.00     0.074 A 
ATOM     52  C   UNL A   1      43.920  28.038  29.719  1.00  0.00     0.029 A 
ATOM     53  N   UNL A   1      42.348  29.082  30.893  1.00  0.00    -0.354 N 
ATOM     54  N   UNL A   1      41.266  30.502  33.210  1.00  0.00    -0.248 NA
ATOM     55  C   UNL A   1      41.448  31.177  35.438  1.00  0.00     0.031 C 
ATOM     56  C   UNL A   1      44.446  28.357  30.976  1.00  0.00     0.029 A 
ATOM     57  C   UNL A   1      43.470  29.019  31.703  1.00  0.00     0.049 A 
ATOM     58  H   UNL A   1      41.493  29.500  31.145  1.00  0.00     0.167 HD
ATOM     59  C   UNL A   1      42.536  30.179  33.682  1.00  0.00     0.074 A 
ATOM     60  C   UNL A   1      42.604  30.654  35.049  1.00  0.00     0.031 C 
ATOM     61  C   UNL A   1      43.547  29.537  33.046  1.00  0.00     0.034 A 
BRANCH  48  62
ATOM     62  C   UNL A   1      42.064  27.555  27.384  1.00  0.00     0.023 A 
ATOM     63  C   UNL A   1      42.509  28.254  26.242  1.00  0.00     0.012 A 
ATOM     64  C   UNL A   1      42.054  26.147  27.373  1.00  0.00     0.148 A 
ATOM     65  C   UNL A   1      42.901  27.562  25.097  1.00  0.00     0.002 A 
ATOM     66  C   UNL A   1      42.488  25.465  26.244  1.00  0.00     0.091 A 
ATOM     67  F   UNL A   1      41.605  25.502  28.460  1.00  0.00    -0.205 F 
ATOM     68  C   UNL A   1      42.900  26.170  25.101  1.00  0.00     0.022 A 
BRANCH  66  69
ATOM     69  S   UNL A   1      42.598  23.673  26.180  1.00  0.00     0.127 S 
ATOM     70  O   UNL A   1      43.581  23.400  27.228  1.00  0.00    -0.237 OA
ATOM     71  O   UNL A   1      41.231  23.269  26.509  1.00  0.00    -0.237 OA
ATOM     72  O   UNL A   1      43.017  23.345  24.825  1.00  0.00    -0.744 OA
ENDBRANCH  66  69
ENDBRANCH  48  62
BRANCH  49  73
ATOM     73  C   UNL A   1      38.760  32.355  35.482  1.00  0.00     0.023 A 
ATOM     74  C   UNL A   1      38.803  33.758  35.592  1.00  0.00     0.012 A 
ATOM     75  C   UNL A   1      38.221  31.598  36.541  1.00  0.00     0.148 A 
ATOM     76  C   UNL A   1      38.341  34.395  36.744  1.00  0.00     0.002 A 
ATOM     77  C   UNL A   1      37.717  32.241  37.665  1.00  0.00     0.091 A 
ATOM     78  F   UNL A   1      38.210  30.263  36.425  1.00  0.00    -0.205 F 
ATOM     79  C   UNL A   1      37.789  33.639  37.775  1.00  0.00     0.022 A 
BRANCH  77  80
ATOM     80  S   UNL A   1      36.893  31.361  38.997  1.00  0.00     0.127 S 
ATOM     81  O   UNL A   1      37.937  31.317  40.018  1.00  0.00    -0.237 OA
ATOM     82  O   UNL A   1      35.774  32.254  39.302  1.00  0.00    -0.237 OA
ATOM     83  O   UNL A   1      36.503  30.074  38.440  1.00  0.00    -0.744 OA
ENDBRANCH  77  80
ENDBRANCH  49  73
BRANCH  61  84
ATOM     84  C   UNL A   1      44.838  29.328  33.799  1.00  0.00     0.023 A 
ATOM     85  C   UNL A   1      45.844  30.314  33.752  1.00  0.00     0.012 A 
ATOM     86  C   UNL A   1      45.018  28.198  34.621  1.00  0.00     0.148 A 
ATOM     87  C   UNL A   1      47.019  30.165  34.488  1.00  0.00     0.002 A 
ATOM     88  C   UNL A   1      46.171  28.080  35.390  1.00  0.00     0.091 A 
ATOM     89  F   UNL A   1      44.057  27.264  34.643  1.00  0.00    -0.205 F 
ATOM     90  C   UNL A   1      47.177  29.056  35.315  1.00  0.00     0.022 A 
BRANCH  88  91
ATOM     91  S   UNL A   1      46.419  26.736  36.558  1.00  0.00     0.127 S 
ATOM     92  O   UNL A   1      47.818  26.928  36.940  1.00  0.00    -0.237 OA
ATOM     93  O   UNL A   1      45.452  27.055  37.608  1.00  0.00    -0.237 OA
ATOM     94  O   UNL A   1      46.135  25.509  35.827  1.00  0.00    -0.744 OA
ENDBRANCH  88  91
ENDBRANCH  61  84
ENDBRANCH  35  36
ENDBRANCH  28  30
ENDBRANCH  27  28
ENDBRANCH  26  27
ENDBRANCH  25  26
ENDBRANCH  24  25
ENDBRANCH  23  24
ENDBRANCH   1  23
TORSDOF 25
ENDMDL
MODEL 3
REMARK VINA RESULT:      -9.1      1.793      3.027
REMARK SMILES CCCCN(C)c1ccc([N+](=O)[O-])c(C(=O)OCCOCCOCCOC(=O)c2ccc(-c3c4nc(c(-c5cccc(S(=O)(=O)[O-])c5F)c5ccc([nH]5)c(-c5cccc(S(=O)(=O)[O-])c5F)c5nc(c(-c6cccc(S(=O)(=O)[O-])c6F)c6ccc3[nH]6)C=C5)C=C4)cc2)c1
REMARK SMILES IDX 21 1 20 2 19 3 18 4 17 5 15 6 16 7 14 8 7 9 8 10 92 11 9 12
REMARK SMILES IDX 10 13 5 14 6 15 4 16 3 17 2 18 1 19 11 20 12 21 13 22 22 23
REMARK SMILES IDX 23 24 24 25 25 26 26 27 27 28 28 29 29 30 30 31 91 32 31 33
REMARK SMILES IDX 90 34 32 35 33 36 34 37 84 38 35 39 89 40 83 41 85 42 36 43
REMARK SMILES IDX 88 44 82 45 81 46 37 48 69 49 49 50 68 51 50 52 53 53 67 54
REMARK SMILES IDX 86 55 51 56 52 57 66 59 87 60 54 61 38 62 39 63 47 64 40 65
REMARK SMILES IDX 42 66 48 67 41 68 43 69 44 70 45 71 46 72 70 73 71 74 79 75
REMARK SMILES IDX 72 76 74 77 80 78 73 79 75 80 76 81 77 82 78 83 55 84 56 85
REMARK SMILES IDX 64 86 57 87 59 88 65 89 58 90 60 91 61 92 62 93 63 94
REMARK H PARENT 85 47 53 58
REMARK Flexibility Score: inf
ROOT
ATOM      1  C   UNL A   1      31.737  30.128  25.332  1.00  0.00     0.188 C 
ENDROOT
BRANCH   1   2
ATOM      2  O   UNL A   1      30.755  29.338  24.678  1.00  0.00    -0.376 OA
BRANCH   2   3
ATOM      3  C   UNL A   1      31.163  28.057  24.231  1.00  0.00     0.202 C 
BRANCH   3   4
ATOM      4  C   UNL A   1      30.789  26.859  25.114  1.00  0.00     0.261 C 
BRANCH   4   5
ATOM      5  O   UNL A   1      31.831  25.886  25.265  1.00  0.00    -0.459 OA
BRANCH   5   6
ATOM      6  C   UNL A   1      33.115  26.240  25.045  1.00  0.00     0.345 C 
ATOM      7  O   UNL A   1      33.647  27.289  25.341  1.00  0.00    -0.246 OA
BRANCH   6   8
ATOM      8  C   UNL A   1      33.785  25.148  24.291  1.00  0.00     0.139 A 
ATOM      9  C   UNL A   1      35.019  23.025  24.487  1.00  0.00     0.038 A 
ATOM     10  C   UNL A   1      34.784  22.801  23.126  1.00  0.00     0.033 A 
ATOM     11  C   UNL A   1      34.581  24.243  25.005  1.00  0.00     0.048 A 
ATOM     12  C   UNL A   1      34.100  23.745  22.343  1.00  0.00     0.089 A 
ATOM     13  C   UNL A   1      33.586  24.909  22.939  1.00  0.00     0.284 A 
BRANCH   9  14
ATOM     14  N   UNL A   1      35.616  22.105  25.344  1.00  0.00    -0.375 N 
ATOM     15  C   UNL A   1      37.002  21.720  25.088  1.00  0.00     0.143 C 
BRANCH  14  16
ATOM     16  C   UNL A   1      34.735  21.067  25.930  1.00  0.00     0.116 C 
BRANCH  16  17
ATOM     17  C   UNL A   1      34.379  19.892  24.998  1.00  0.00     0.021 C 
BRANCH  17  18
ATOM     18  C   UNL A   1      32.904  19.505  24.760  1.00  0.00    -0.002 C 
ATOM     19  C   UNL A   1      32.533  18.042  24.940  1.00  0.00     0.004 C 
ENDBRANCH  17  18
ENDBRANCH  16  17
ENDBRANCH  14  16
ENDBRANCH   9  14
BRANCH  13  20
ATOM     20  N   UNL A   1      32.985  25.917  22.084  1.00  0.00     0.063 N 
ATOM     21  O   UNL A   1      31.790  25.773  21.801  1.00  0.00    -0.258 OA
ATOM     22  O   UNL A   1      33.740  26.782  21.620  1.00  0.00    -0.258 OA
ENDBRANCH  13  20
ENDBRANCH   6   8
ENDBRANCH   5   6
ENDBRANCH   4   5
ENDBRANCH   3   4
ENDBRANCH   2   3
ENDBRANCH   1   2
BRANCH   1  23
ATOM     23  C   UNL A   1      31.822  29.814  26.840  1.00  0.00     0.188 C 
BRANCH  23  24
ATOM     24  O   UNL A   1      32.818  30.434  27.645  1.00  0.00    -0.376 OA
BRANCH  24  25
ATOM     25  C   UNL A   1      33.310  31.706  27.247  1.00  0.00     0.202 C 
BRANCH  25  26
ATOM     26  C   UNL A   1      32.458  32.953  27.531  1.00  0.00     0.261 C 
BRANCH  26  27
ATOM     27  O   UNL A   1      33.163  34.207  27.513  1.00  0.00    -0.460 OA
BRANCH  27  28
ATOM     28  C   UNL A   1      33.290  34.829  28.714  1.00  0.00     0.338 C 
ATOM     29  O   UNL A   1      32.531  35.650  29.198  1.00  0.00    -0.246 OA
BRANCH  28  30
ATOM     30  C   UNL A   1      34.401  34.217  29.480  1.00  0.00     0.060 A 
ATOM     31  C   UNL A   1      35.707  34.344  28.980  1.00  0.00     0.016 A 
ATOM     32  C   UNL A   1      34.164  33.494  30.648  1.00  0.00     0.016 A 
ATOM     33  C   UNL A   1      36.778  33.741  29.640  1.00  0.00     0.010 A 
ATOM     34  C   UNL A   1      35.234  32.859  31.289  1.00  0.00     0.010 A 
ATOM     35  C   UNL A   1      36.542  32.958  30.775  1.00  0.00    -0.014 A 
BRANCH  35  36
ATOM     36  C   UNL A   1      37.622  32.102  31.323  1.00  0.00     0.031 A 
ATOM     37  C   UNL A   1      38.098  32.357  32.727  1.00  0.00     0.074 A 
ATOM     38  C   UNL A   1      38.191  31.133  30.586  1.00  0.00     0.049 A 
ATOM     39  N   UNL A   1      39.073  31.792  33.390  1.00  0.00    -0.248 NA
ATOM     40  C   UNL A   1      37.375  33.393  33.485  1.00  0.00     0.031 C 
ATOM     41  C   UNL A   1      37.809  30.771  29.222  1.00  0.00     0.029 A 
ATOM     42  N   UNL A   1      39.242  30.298  30.877  1.00  0.00    -0.354 N 
ATOM     43  C   UNL A   1      39.107  32.426  34.625  1.00  0.00     0.074 A 
ATOM     44  C   UNL A   1      38.055  33.420  34.621  1.00  0.00     0.031 C 
ATOM     45  C   UNL A   1      38.648  29.820  28.776  1.00  0.00     0.029 A 
ATOM     46  C   UNL A   1      39.636  29.523  29.812  1.00  0.00     0.049 A 
ATOM     47  H   UNL A   1      39.671  30.258  31.762  1.00  0.00     0.167 HD
ATOM     48  C   UNL A   1      39.932  32.197  35.674  1.00  0.00     0.034 A 
ATOM     49  C   UNL A   1      40.693  28.696  29.679  1.00  0.00     0.034 A 
ATOM     50  C   UNL A   1      40.970  31.202  35.684  1.00  0.00     0.049 A 
ATOM     51  C   UNL A   1      41.623  28.484  30.848  1.00  0.00     0.074 A 
ATOM     52  C   UNL A   1      41.820  30.858  36.719  1.00  0.00     0.029 A 
ATOM     53  N   UNL A   1      41.315  30.409  34.602  1.00  0.00    -0.354 N 
ATOM     54  N   UNL A   1      41.567  28.996  32.053  1.00  0.00    -0.248 NA
ATOM     55  C   UNL A   1      42.747  27.556  30.645  1.00  0.00     0.031 C 
ATOM     56  C   UNL A   1      42.703  29.878  36.252  1.00  0.00     0.029 A 
ATOM     57  C   UNL A   1      42.380  29.589  34.936  1.00  0.00     0.049 A 
ATOM     58  H   UNL A   1      40.869  30.424  33.724  1.00  0.00     0.167 HD
ATOM     59  C   UNL A   1      42.623  28.429  32.761  1.00  0.00     0.074 A 
ATOM     60  C   UNL A   1      43.292  27.520  31.853  1.00  0.00     0.031 C 
ATOM     61  C   UNL A   1      43.011  28.651  34.042  1.00  0.00     0.034 A 
BRANCH  48  62
ATOM     62  C   UNL A   1      39.737  33.038  36.908  1.00  0.00     0.023 A 
ATOM     63  C   UNL A   1      40.412  34.270  37.030  1.00  0.00     0.012 A 
ATOM     64  C   UNL A   1      38.853  32.630  37.926  1.00  0.00     0.148 A 
ATOM     65  C   UNL A   1      40.238  35.065  38.162  1.00  0.00     0.002 A 
ATOM     66  C   UNL A   1      38.652  33.448  39.031  1.00  0.00     0.091 A 
ATOM     67  F   UNL A   1      38.240  31.444  37.804  1.00  0.00    -0.205 F 
ATOM     68  C   UNL A   1      39.352  34.659  39.156  1.00  0.00     0.022 A 
BRANCH  66  69
ATOM     69  S   UNL A   1      37.473  33.050  40.326  1.00  0.00     0.127 S 
ATOM     70  O   UNL A   1      38.130  31.923  40.986  1.00  0.00    -0.237 OA
ATOM     71  O   UNL A   1      37.448  34.284  41.111  1.00  0.00    -0.237 OA
ATOM     72  O   UNL A   1      36.222  32.738  39.648  1.00  0.00    -0.744 OA
ENDBRANCH  66  69
ENDBRANCH  48  62
BRANCH  49  73
ATOM     73  C   UNL A   1      40.920  27.986  28.388  1.00  0.00     0.023 A 
ATOM     74  C   UNL A   1      41.552  28.660  27.326  1.00  0.00     0.012 A 
ATOM     75  C   UNL A   1      40.527  26.643  28.214  1.00  0.00     0.148 A 
ATOM     76  C   UNL A   1      41.769  28.019  26.105  1.00  0.00     0.002 A 
ATOM     77  C   UNL A   1      40.790  25.995  27.013  1.00  0.00     0.091 A 
ATOM     78  F   UNL A   1      39.907  26.028  29.230  1.00  0.00    -0.205 F 
ATOM     79  C   UNL A   1      41.397  26.685  25.952  1.00  0.00     0.022 A 
BRANCH  77  80
ATOM     80  S   UNL A   1      40.444  24.251  26.758  1.00  0.00     0.127 S 
ATOM     81  O   UNL A   1      39.066  24.286  26.274  1.00  0.00    -0.237 OA
ATOM     82  O   UNL A   1      41.440  23.891  25.748  1.00  0.00    -0.237 OA
ATOM     83  O   UNL A   1      40.640  23.614  28.053  1.00  0.00    -0.744 OA
ENDBRANCH  77  80
ENDBRANCH  49  73
BRANCH  61  84
ATOM     84  C   UNL A   1      44.198  27.881  34.566  1.00  0.00     0.023 A 
ATOM     85  C   UNL A   1      45.484  28.453  34.513  1.00  0.00     0.012 A 
ATOM     86  C   UNL A   1      44.026  26.629  35.190  1.00  0.00     0.148 A 
ATOM     87  C   UNL A   1      46.584  27.780  35.046  1.00  0.00     0.002 A 
ATOM     88  C   UNL A   1      45.118  25.986  35.762  1.00  0.00     0.091 A 
ATOM     89  F   UNL A   1      42.797  26.092  35.219  1.00  0.00    -0.205 F 
ATOM     90  C   UNL A   1      46.400  26.555  35.680  1.00  0.00     0.022 A 
BRANCH  88  91
ATOM     91  S   UNL A   1      44.962  24.451  36.685  1.00  0.00     0.127 S 
ATOM     92  O   UNL A   1      44.016  24.830  37.734  1.00  0.00    -0.237 OA
ATOM     93  O   UNL A   1      44.421  23.537  35.678  1.00  0.00    -0.237 OA
ATOM     94  O   UNL A   1      46.303  24.119  37.144  1.00  0.00    -0.744 OA
ENDBRANCH  88  91
ENDBRANCH  61  84
ENDBRANCH  35  36
ENDBRANCH  28  30
ENDBRANCH  27  28
ENDBRANCH  26  27
ENDBRANCH  25  26
ENDBRANCH  24  25
ENDBRANCH  23  24
ENDBRANCH   1  23
TORSDOF 25
ENDMDL
