MODEL 1
REMARK VINA RESULT:     -11.8      0.000      0.000
REMARK SMILES O=C(OCCOCCOCCOC(=O)[C@@H]1CCCC[C@@H]1NS(=O)(=O)c1ccc2ccccc2c1)c1ccc(-c2c3nc(c(-c4cccc(S(=O)(=O)[O-])c4F)c4ccc([nH]4)c(-c4cccc(S(=O)(=O)[O-])c4F)c4nc(c(-c5cccc(S(=O)(=O)[O-])c5F)c5ccc2[nH]5)C=C4)C=C3)cc1
REMARK SMILES IDX 7 1 6 2 5 3 4 4 3 5 2 6 1 7 35 8 36 9 97 10 37 11 96 12
REMARK SMILES IDX 38 13 39 14 40 15 90 16 41 17 95 18 89 19 91 20 42 21 94 22
REMARK SMILES IDX 88 23 87 24 43 26 75 27 55 28 74 29 56 30 59 31 73 32 92 33
REMARK SMILES IDX 57 34 58 35 72 37 93 38 60 39 44 40 45 41 53 42 46 43 48 44
REMARK SMILES IDX 54 45 47 46 49 47 50 48 51 49 52 50 76 51 77 52 85 53 78 54
REMARK SMILES IDX 80 55 86 56 79 57 81 58 82 59 83 60 84 61 61 62 62 63 70 64
REMARK SMILES IDX 63 65 65 66 71 67 64 68 66 69 67 70 68 71 69 72 8 73 9 74
REMARK SMILES IDX 10 75 11 76 12 77 13 78 14 79 15 80 16 81 20 82 17 83 19 84
REMARK SMILES IDX 18 85 21 86 22 88 23 89 24 90 25 91 26 92 34 93 27 94 33 95
REMARK SMILES IDX 28 96 32 97 29 98 31 99 30 100
REMARK H PARENT 91 25 59 36 21 87
REMARK Flexibility Score: inf
ROOT
ATOM      1  C   UNL A   1      36.624  22.605  24.207  1.00  0.00     0.188 C 
ENDROOT
BRANCH   1   2
ATOM      2  O   UNL A   1      36.618  21.705  25.293  1.00  0.00    -0.376 OA
BRANCH   2   3
ATOM      3  C   UNL A   1      36.279  20.375  24.975  1.00  0.00     0.202 C 
BRANCH   3   4
ATOM      4  C   UNL A   1      37.452  19.405  25.022  1.00  0.00     0.261 C 
BRANCH   4   5
ATOM      5  O   UNL A   1      38.831  19.915  25.054  1.00  0.00    -0.460 OA
BRANCH   5   6
ATOM      6  C   UNL A   1      39.933  20.128  25.806  1.00  0.00     0.338 C 
ATOM      7  O   UNL A   1      40.715  19.182  25.924  1.00  0.00    -0.246 OA
BRANCH   6   8
ATOM      8  C   UNL A   1      40.294  21.353  26.588  1.00  0.00     0.060 A 
ATOM      9  C   UNL A   1      39.555  22.497  26.547  1.00  0.00     0.016 A 
ATOM     10  C   UNL A   1      41.375  21.381  27.496  1.00  0.00     0.016 A 
ATOM     11  C   UNL A   1      39.961  23.656  27.251  1.00  0.00     0.010 A 
ATOM     12  C   UNL A   1      41.770  22.571  28.207  1.00  0.00     0.010 A 
ATOM     13  C   UNL A   1      41.111  23.794  28.025  1.00  0.00    -0.014 A 
BRANCH  13  14
ATOM     14  C   UNL A   1      41.656  25.220  28.330  1.00  0.00     0.031 A 
ATOM     15  C   UNL A   1      43.034  25.623  27.825  1.00  0.00     0.074 A 
ATOM     16  C   UNL A   1      40.908  26.288  28.736  1.00  0.00     0.049 A 
ATOM     17  N   UNL A   1      43.634  26.790  27.881  1.00  0.00    -0.248 NA
ATOM     18  C   UNL A   1      43.787  24.622  27.065  1.00  0.00     0.031 C 
ATOM     19  C   UNL A   1      39.486  26.246  28.980  1.00  0.00     0.029 A 
ATOM     20  N   UNL A   1      41.177  27.633  28.960  1.00  0.00    -0.354 N 
ATOM     21  C   UNL A   1      44.802  26.660  27.140  1.00  0.00     0.074 A 
ATOM     22  C   UNL A   1      44.838  25.305  26.650  1.00  0.00     0.031 C 
ATOM     23  C   UNL A   1      38.984  27.446  29.265  1.00  0.00     0.029 A 
ATOM     24  C   UNL A   1      40.077  28.371  29.380  1.00  0.00     0.049 A 
ATOM     25  H   UNL A   1      42.070  28.028  28.832  1.00  0.00     0.167 HD
ATOM     26  C   UNL A   1      45.757  27.572  26.848  1.00  0.00     0.034 A 
ATOM     27  C   UNL A   1      39.895  29.621  29.852  1.00  0.00     0.034 A 
ATOM     28  C   UNL A   1      45.755  28.933  27.289  1.00  0.00     0.049 A 
ATOM     29  C   UNL A   1      41.065  30.538  29.809  1.00  0.00     0.074 A 
ATOM     30  C   UNL A   1      46.753  29.881  27.156  1.00  0.00     0.029 A 
ATOM     31  N   UNL A   1      44.699  29.545  27.940  1.00  0.00    -0.354 N 
ATOM     32  N   UNL A   1      42.214  30.329  29.221  1.00  0.00    -0.248 NA
ATOM     33  C   UNL A   1      40.926  31.854  30.442  1.00  0.00     0.031 C 
ATOM     34  C   UNL A   1      46.318  31.057  27.774  1.00  0.00     0.029 A 
ATOM     35  C   UNL A   1      45.038  30.848  28.261  1.00  0.00     0.049 A 
ATOM     36  H   UNL A   1      43.836  29.119  28.145  1.00  0.00     0.167 HD
ATOM     37  C   UNL A   1      42.931  31.497  29.384  1.00  0.00     0.074 A 
ATOM     38  C   UNL A   1      42.078  32.420  30.109  1.00  0.00     0.031 C 
ATOM     39  C   UNL A   1      44.190  31.764  28.973  1.00  0.00     0.034 A 
BRANCH  26  40
ATOM     40  C   UNL A   1      46.927  27.074  26.047  1.00  0.00     0.023 A 
ATOM     41  C   UNL A   1      47.924  26.289  26.658  1.00  0.00     0.012 A 
ATOM     42  C   UNL A   1      47.063  27.453  24.698  1.00  0.00     0.148 A 
ATOM     43  C   UNL A   1      49.065  25.921  25.944  1.00  0.00     0.002 A 
ATOM     44  C   UNL A   1      48.186  27.057  23.986  1.00  0.00     0.091 A 
ATOM     45  F   UNL A   1      46.113  28.226  24.155  1.00  0.00    -0.205 F 
ATOM     46  C   UNL A   1      49.193  26.301  24.610  1.00  0.00     0.022 A 
BRANCH  44  47
ATOM     47  S   UNL A   1      48.430  27.484  22.261  1.00  0.00     0.127 S 
ATOM     48  O   UNL A   1      47.173  28.161  21.946  1.00  0.00    -0.237 OA
ATOM     49  O   UNL A   1      49.598  28.361  22.325  1.00  0.00    -0.237 OA
ATOM     50  O   UNL A   1      48.648  26.225  21.560  1.00  0.00    -0.744 OA
ENDBRANCH  44  47
ENDBRANCH  26  40
BRANCH  27  51
ATOM     51  C   UNL A   1      38.568  30.055  30.415  1.00  0.00     0.023 A 
ATOM     52  C   UNL A   1      38.209  29.752  31.742  1.00  0.00     0.012 A 
ATOM     53  C   UNL A   1      37.665  30.816  29.634  1.00  0.00     0.148 A 
ATOM     54  C   UNL A   1      36.985  30.182  32.271  1.00  0.00     0.002 A 
ATOM     55  C   UNL A   1      36.483  31.300  30.188  1.00  0.00     0.091 A 
ATOM     56  F   UNL A   1      37.987  31.072  28.358  1.00  0.00    -0.205 F 
ATOM     57  C   UNL A   1      36.131  30.970  31.501  1.00  0.00     0.022 A 
BRANCH  55  58
ATOM     58  S   UNL A   1      35.427  32.459  29.304  1.00  0.00     0.127 S 
ATOM     59  O   UNL A   1      35.001  31.664  28.156  1.00  0.00    -0.237 OA
ATOM     60  O   UNL A   1      34.378  32.734  30.288  1.00  0.00    -0.237 OA
ATOM     61  O   UNL A   1      36.277  33.606  29.013  1.00  0.00    -0.744 OA
ENDBRANCH  55  58
ENDBRANCH  27  51
BRANCH  39  62
ATOM     62  C   UNL A   1      44.738  33.111  29.308  1.00  0.00     0.023 A 
ATOM     63  C   UNL A   1      45.413  33.300  30.528  1.00  0.00     0.012 A 
ATOM     64  C   UNL A   1      44.641  34.165  28.385  1.00  0.00     0.148 A 
ATOM     65  C   UNL A   1      45.963  34.539  30.838  1.00  0.00     0.002 A 
ATOM     66  C   UNL A   1      45.245  35.378  28.674  1.00  0.00     0.091 A 
ATOM     67  F   UNL A   1      43.964  33.960  27.245  1.00  0.00    -0.205 F 
ATOM     68  C   UNL A   1      45.892  35.572  29.905  1.00  0.00     0.022 A 
BRANCH  66  69
ATOM     69  S   UNL A   1      45.305  36.714  27.480  1.00  0.00     0.127 S 
ATOM     70  O   UNL A   1      45.847  36.036  26.304  1.00  0.00    -0.237 OA
ATOM     71  O   UNL A   1      43.897  37.096  27.373  1.00  0.00    -0.237 OA
ATOM     72  O   UNL A   1      46.161  37.736  28.067  1.00  0.00    -0.744 OA
ENDBRANCH  66  69
ENDBRANCH  39  62
ENDBRANCH  13  14
ENDBRANCH   6   8
ENDBRANCH   5   6
ENDBRANCH   4   5
ENDBRANCH   3   4
ENDBRANCH   2   3
ENDBRANCH   1   2
BRANCH   1  73
ATOM     73  C   UNL A   1      35.457  23.582  24.267  1.00  0.00     0.188 C 
BRANCH  73  74
ATOM     74  O   UNL A   1      34.798  23.713  23.003  1.00  0.00    -0.376 OA
BRANCH  74  75
ATOM     75  C   UNL A   1      33.964  24.873  22.914  1.00  0.00     0.202 C 
BRANCH  75  76
ATOM     76  C   UNL A   1      34.139  25.894  24.049  1.00  0.00     0.261 C 
BRANCH  76  77
ATOM     77  O   UNL A   1      33.856  27.242  23.674  1.00  0.00    -0.463 OA
BRANCH  77  78
ATOM     78  C   UNL A   1      33.070  27.935  24.510  1.00  0.00     0.310 C 
ATOM     79  O   UNL A   1      33.455  28.423  25.569  1.00  0.00    -0.252 OA
BRANCH  78  80
ATOM     80  C   UNL A   1      31.712  28.197  23.925  1.00  0.00     0.117 C 
ATOM     81  C   UNL A   1      31.125  29.512  24.489  1.00  0.00     0.017 C 
ATOM     82  C   UNL A   1      30.725  27.019  23.652  1.00  0.00     0.084 C 
ATOM     83  C   UNL A   1      29.940  30.043  23.687  1.00  0.00     0.001 C 
ATOM     84  C   UNL A   1      29.644  27.750  22.764  1.00  0.00     0.021 C 
ATOM     85  C   UNL A   1      28.953  28.924  23.473  1.00  0.00     0.002 C 
BRANCH  82  86
ATOM     86  N   UNL A   1      30.087  26.165  24.766  1.00  0.00    -0.207 NA
ATOM     87  H   UNL A   1      29.515  25.502  24.242  1.00  0.00     0.141 HD
BRANCH  86  88
ATOM     88  S   UNL A   1      30.704  25.180  26.096  1.00  0.00     0.240 S 
ATOM     89  O   UNL A   1      31.578  26.013  26.900  1.00  0.00    -0.207 OA
ATOM     90  O   UNL A   1      29.493  24.655  26.688  1.00  0.00    -0.207 OA
BRANCH  88  91
ATOM     91  C   UNL A   1      31.691  23.638  25.745  1.00  0.00     0.083 A 
ATOM     92  C   UNL A   1      32.591  23.114  26.649  1.00  0.00     0.022 A 
ATOM     93  C   UNL A   1      31.674  22.978  24.489  1.00  0.00     0.030 A 
ATOM     94  C   UNL A   1      32.958  21.753  26.549  1.00  0.00     0.010 A 
ATOM     95  C   UNL A   1      32.165  21.625  24.315  1.00  0.00    -0.017 A 
ATOM     96  C   UNL A   1      32.658  20.965  25.444  1.00  0.00    -0.018 A 
ATOM     97  C   UNL A   1      32.111  20.849  23.126  1.00  0.00     0.009 A 
ATOM     98  C   UNL A   1      32.855  19.562  25.464  1.00  0.00     0.009 A 
ATOM     99  C   UNL A   1      32.363  19.458  23.129  1.00  0.00     0.001 A 
ATOM    100  C   UNL A   1      32.677  18.804  24.313  1.00  0.00     0.001 A 
ENDBRANCH  88  91
ENDBRANCH  86  88
ENDBRANCH  82  86
ENDBRANCH  78  80
ENDBRANCH  77  78
ENDBRANCH  76  77
ENDBRANCH  75  76
ENDBRANCH  74  75
ENDBRANCH  73  74
ENDBRANCH   1  73
TORSDOF 23
ENDMDL
MODEL 2
REMARK VINA RESULT:     -10.8      1.815      2.106
REMARK SMILES O=C(OCCOCCOCCOC(=O)[C@@H]1CCCC[C@@H]1NS(=O)(=O)c1ccc2ccccc2c1)c1ccc(-c2c3nc(c(-c4cccc(S(=O)(=O)[O-])c4F)c4ccc([nH]4)c(-c4cccc(S(=O)(=O)[O-])c4F)c4nc(c(-c5cccc(S(=O)(=O)[O-])c5F)c5ccc2[nH]5)C=C4)C=C3)cc1
REMARK SMILES IDX 7 1 6 2 5 3 4 4 3 5 2 6 1 7 35 8 36 9 97 10 37 11 96 12
REMARK SMILES IDX 38 13 39 14 40 15 90 16 41 17 95 18 89 19 91 20 42 21 94 22
REMARK SMILES IDX 88 23 87 24 43 26 75 27 55 28 74 29 56 30 59 31 73 32 92 33
REMARK SMILES IDX 57 34 58 35 72 37 93 38 60 39 44 40 45 41 53 42 46 43 48 44
REMARK SMILES IDX 54 45 47 46 49 47 50 48 51 49 52 50 76 51 77 52 85 53 78 54
REMARK SMILES IDX 80 55 86 56 79 57 81 58 82 59 83 60 84 61 61 62 62 63 70 64
REMARK SMILES IDX 63 65 65 66 71 67 64 68 66 69 67 70 68 71 69 72 8 73 9 74
REMARK SMILES IDX 10 75 11 76 12 77 13 78 14 79 15 80 16 81 20 82 17 83 19 84
REMARK SMILES IDX 18 85 21 86 22 88 23 89 24 90 25 91 26 92 34 93 27 94 33 95
REMARK SMILES IDX 28 96 32 97 29 98 31 99 30 100
REMARK H PARENT 91 25 59 36 21 87
REMARK Flexibility Score: inf
ROOT
ATOM      1  C   UNL A   1      36.843  22.049  24.131  1.00  0.00     0.188 C 
ENDROOT
BRANCH   1   2
ATOM      2  O   UNL A   1      36.621  21.132  25.179  1.00  0.00    -0.376 OA
BRANCH   2   3
ATOM      3  C   UNL A   1      36.843  19.779  24.858  1.00  0.00     0.202 C 
BRANCH   3   4
ATOM      4  C   UNL A   1      38.213  19.258  25.270  1.00  0.00     0.261 C 
BRANCH   4   5
ATOM      5  O   UNL A   1      39.345  20.187  25.412  1.00  0.00    -0.460 OA
BRANCH   5   6
ATOM      6  C   UNL A   1      40.413  20.552  26.153  1.00  0.00     0.338 C 
ATOM      7  O   UNL A   1      41.296  19.705  26.308  1.00  0.00    -0.246 OA
BRANCH   6   8
ATOM      8  C   UNL A   1      40.632  21.839  26.885  1.00  0.00     0.060 A 
ATOM      9  C   UNL A   1      39.950  22.981  26.587  1.00  0.00     0.016 A 
ATOM     10  C   UNL A   1      41.495  21.941  27.999  1.00  0.00     0.016 A 
ATOM     11  C   UNL A   1      40.228  24.196  27.260  1.00  0.00     0.010 A 
ATOM     12  C   UNL A   1      41.761  23.187  28.673  1.00  0.00     0.010 A 
ATOM     13  C   UNL A   1      41.190  24.393  28.247  1.00  0.00    -0.014 A 
BRANCH  13  14
ATOM     14  C   UNL A   1      41.695  25.837  28.538  1.00  0.00     0.031 A 
ATOM     15  C   UNL A   1      43.025  26.299  27.960  1.00  0.00     0.074 A 
ATOM     16  C   UNL A   1      40.931  26.871  28.999  1.00  0.00     0.049 A 
ATOM     17  N   UNL A   1      43.582  27.488  27.995  1.00  0.00    -0.248 NA
ATOM     18  C   UNL A   1      43.772  25.336  27.145  1.00  0.00     0.031 C 
ATOM     19  C   UNL A   1      39.529  26.770  29.323  1.00  0.00     0.029 A 
ATOM     20  N   UNL A   1      41.161  28.223  29.223  1.00  0.00    -0.354 N 
ATOM     21  C   UNL A   1      44.710  27.411  27.187  1.00  0.00     0.074 A 
ATOM     22  C   UNL A   1      44.770  26.063  26.680  1.00  0.00     0.031 C 
ATOM     23  C   UNL A   1      38.998  27.947  29.651  1.00  0.00     0.029 A 
ATOM     24  C   UNL A   1      40.059  28.913  29.715  1.00  0.00     0.049 A 
ATOM     25  H   UNL A   1      42.029  28.654  29.049  1.00  0.00     0.167 HD
ATOM     26  C   UNL A   1      45.610  28.363  26.852  1.00  0.00     0.034 A 
ATOM     27  C   UNL A   1      39.857  30.151  30.211  1.00  0.00     0.034 A 
ATOM     28  C   UNL A   1      45.581  29.718  27.308  1.00  0.00     0.049 A 
ATOM     29  C   UNL A   1      40.985  31.113  30.112  1.00  0.00     0.074 A 
ATOM     30  C   UNL A   1      46.532  30.706  27.129  1.00  0.00     0.029 A 
ATOM     31  N   UNL A   1      44.542  30.282  28.026  1.00  0.00    -0.354 N 
ATOM     32  N   UNL A   1      42.106  30.956  29.457  1.00  0.00    -0.248 NA
ATOM     33  C   UNL A   1      40.832  32.416  30.767  1.00  0.00     0.031 C 
ATOM     34  C   UNL A   1      46.088  31.858  27.785  1.00  0.00     0.029 A 
ATOM     35  C   UNL A   1      44.848  31.594  28.342  1.00  0.00     0.049 A 
ATOM     36  H   UNL A   1      43.709  29.820  28.275  1.00  0.00     0.167 HD
ATOM     37  C   UNL A   1      42.786  32.149  29.592  1.00  0.00     0.074 A 
ATOM     38  C   UNL A   1      41.941  33.030  30.376  1.00  0.00     0.031 C 
ATOM     39  C   UNL A   1      44.007  32.469  29.113  1.00  0.00     0.034 A 
BRANCH  26  40
ATOM     40  C   UNL A   1      46.750  27.919  25.979  1.00  0.00     0.023 A 
ATOM     41  C   UNL A   1      46.647  28.007  24.577  1.00  0.00     0.012 A 
ATOM     42  C   UNL A   1      47.896  27.348  26.561  1.00  0.00     0.148 A 
ATOM     43  C   UNL A   1      47.657  27.492  23.764  1.00  0.00     0.002 A 
ATOM     44  C   UNL A   1      48.911  26.866  25.747  1.00  0.00     0.091 A 
ATOM     45  F   UNL A   1      47.950  27.250  27.897  1.00  0.00    -0.205 F 
ATOM     46  C   UNL A   1      48.789  26.926  24.348  1.00  0.00     0.022 A 
BRANCH  44  47
ATOM     47  S   UNL A   1      50.410  26.137  26.409  1.00  0.00     0.127 S 
ATOM     48  O   UNL A   1      50.907  27.214  27.264  1.00  0.00    -0.237 OA
ATOM     49  O   UNL A   1      49.893  24.973  27.127  1.00  0.00    -0.237 OA
ATOM     50  O   UNL A   1      51.248  25.823  25.259  1.00  0.00    -0.744 OA
ENDBRANCH  44  47
ENDBRANCH  26  40
BRANCH  27  51
ATOM     51  C   UNL A   1      38.548  30.527  30.855  1.00  0.00     0.023 A 
ATOM     52  C   UNL A   1      38.312  30.274  32.219  1.00  0.00     0.012 A 
ATOM     53  C   UNL A   1      37.538  31.182  30.110  1.00  0.00     0.148 A 
ATOM     54  C   UNL A   1      37.104  30.650  32.821  1.00  0.00     0.002 A 
ATOM     55  C   UNL A   1      36.371  31.617  30.730  1.00  0.00     0.091 A 
ATOM     56  F   UNL A   1      37.745  31.387  28.801  1.00  0.00    -0.205 F 
ATOM     57  C   UNL A   1      36.142  31.337  32.082  1.00  0.00     0.022 A 
BRANCH  55  58
ATOM     58  S   UNL A   1      35.172  32.653  29.876  1.00  0.00     0.127 S 
ATOM     59  O   UNL A   1      34.665  31.746  28.850  1.00  0.00    -0.237 OA
ATOM     60  O   UNL A   1      34.221  32.971  30.943  1.00  0.00    -0.237 OA
ATOM     61  O   UNL A   1      35.930  33.802  29.400  1.00  0.00    -0.744 OA
ENDBRANCH  55  58
ENDBRANCH  27  51
BRANCH  39  62
ATOM     62  C   UNL A   1      44.521  33.834  29.432  1.00  0.00     0.023 A 
ATOM     63  C   UNL A   1      44.231  34.903  28.563  1.00  0.00     0.012 A 
ATOM     64  C   UNL A   1      45.231  34.063  30.621  1.00  0.00     0.148 A 
ATOM     65  C   UNL A   1      44.669  36.188  28.866  1.00  0.00     0.002 A 
ATOM     66  C   UNL A   1      45.610  35.355  30.946  1.00  0.00     0.091 A 
ATOM     67  F   UNL A   1      45.516  33.017  31.411  1.00  0.00    -0.205 F 
ATOM     68  C   UNL A   1      45.344  36.415  30.064  1.00  0.00     0.022 A 
BRANCH  66  69
ATOM     69  S   UNL A   1      46.372  35.750  32.520  1.00  0.00     0.127 S 
ATOM     70  O   UNL A   1      45.380  35.241  33.465  1.00  0.00    -0.237 OA
ATOM     71  O   UNL A   1      47.615  34.982  32.463  1.00  0.00    -0.237 OA
ATOM     72  O   UNL A   1      46.557  37.195  32.523  1.00  0.00    -0.744 OA
ENDBRANCH  66  69
ENDBRANCH  39  62
ENDBRANCH  13  14
ENDBRANCH   6   8
ENDBRANCH   5   6
ENDBRANCH   4   5
ENDBRANCH   3   4
ENDBRANCH   2   3
ENDBRANCH   1   2
BRANCH   1  73
ATOM     73  C   UNL A   1      35.543  22.644  23.605  1.00  0.00     0.188 C 
BRANCH  73  74
ATOM     74  O   UNL A   1      35.104  23.759  24.388  1.00  0.00    -0.376 OA
BRANCH  74  75
ATOM     75  C   UNL A   1      34.311  24.695  23.650  1.00  0.00     0.202 C 
BRANCH  75  76
ATOM     76  C   UNL A   1      34.276  26.120  24.223  1.00  0.00     0.261 C 
BRANCH  76  77
ATOM     77  O   UNL A   1      33.543  27.053  23.430  1.00  0.00    -0.463 OA
BRANCH  77  78
ATOM     78  C   UNL A   1      32.600  27.759  24.070  1.00  0.00     0.310 C 
ATOM     79  O   UNL A   1      32.824  28.780  24.714  1.00  0.00    -0.252 OA
BRANCH  78  80
ATOM     80  C   UNL A   1      31.216  27.261  23.768  1.00  0.00     0.117 C 
ATOM     81  C   UNL A   1      30.186  28.405  23.909  1.00  0.00     0.017 C 
ATOM     82  C   UNL A   1      30.775  25.828  24.208  1.00  0.00     0.084 C 
ATOM     83  C   UNL A   1      28.836  28.092  23.268  1.00  0.00     0.001 C 
ATOM     84  C   UNL A   1      29.433  25.678  23.390  1.00  0.00     0.021 C 
ATOM     85  C   UNL A   1      28.375  26.735  23.739  1.00  0.00     0.002 C 
BRANCH  82  86
ATOM     86  N   UNL A   1      30.614  25.399  25.681  1.00  0.00    -0.207 NA
ATOM     87  H   UNL A   1      29.602  25.342  25.789  1.00  0.00     0.141 HD
BRANCH  86  88
ATOM     88  S   UNL A   1      31.188  24.046  26.658  1.00  0.00     0.240 S 
ATOM     89  O   UNL A   1      32.132  24.565  27.630  1.00  0.00    -0.207 OA
ATOM     90  O   UNL A   1      29.956  23.449  27.125  1.00  0.00    -0.207 OA
BRANCH  88  91
ATOM     91  C   UNL A   1      32.061  22.608  25.855  1.00  0.00     0.083 A 
ATOM     92  C   UNL A   1      33.035  21.877  26.502  1.00  0.00     0.022 A 
ATOM     93  C   UNL A   1      31.872  22.251  24.494  1.00  0.00     0.030 A 
ATOM     94  C   UNL A   1      33.329  20.569  26.056  1.00  0.00     0.010 A 
ATOM     95  C   UNL A   1      32.281  20.966  23.963  1.00  0.00    -0.017 A 
ATOM     96  C   UNL A   1      32.871  20.058  24.848  1.00  0.00    -0.018 A 
ATOM     97  C   UNL A   1      32.058  20.481  22.646  1.00  0.00     0.009 A 
ATOM     98  C   UNL A   1      33.008  18.684  24.529  1.00  0.00     0.009 A 
ATOM     99  C   UNL A   1      32.248  19.123  22.307  1.00  0.00     0.001 A 
ATOM    100  C   UNL A   1      32.667  18.211  23.267  1.00  0.00     0.001 A 
ENDBRANCH  88  91
ENDBRANCH  86  88
ENDBRANCH  82  86
ENDBRANCH  78  80
ENDBRANCH  77  78
ENDBRANCH  76  77
ENDBRANCH  75  76
ENDBRANCH  74  75
ENDBRANCH  73  74
ENDBRANCH   1  73
TORSDOF 23
ENDMDL
MODEL 3
REMARK VINA RESULT:     -10.1      4.383      8.957
REMARK SMILES O=C(OCCOCCOCCOC(=O)[C@@H]1CCCC[C@@H]1NS(=O)(=O)c1ccc2ccccc2c1)c1ccc(-c2c3nc(c(-c4cccc(S(=O)(=O)[O-])c4F)c4ccc([nH]4)c(-c4cccc(S(=O)(=O)[O-])c4F)c4nc(c(-c5cccc(S(=O)(=O)[O-])c5F)c5ccc2[nH]5)C=C4)C=C3)cc1
REMARK SMILES IDX 7 1 6 2 5 3 4 4 3 5 2 6 1 7 35 8 36 9 97 10 37 11 96 12
REMARK SMILES IDX 38 13 39 14 40 15 90 16 41 17 95 18 89 19 91 20 42 21 94 22
REMARK SMILES IDX 88 23 87 24 43 26 75 27 55 28 74 29 56 30 59 31 73 32 92 33
REMARK SMILES IDX 57 34 58 35 72 37 93 38 60 39 44 40 45 41 53 42 46 43 48 44
REMARK SMILES IDX 54 45 47 46 49 47 50 48 51 49 52 50 76 51 77 52 85 53 78 54
REMARK SMILES IDX 80 55 86 56 79 57 81 58 82 59 83 60 84 61 61 62 62 63 70 64
REMARK SMILES IDX 63 65 65 66 71 67 64 68 66 69 67 70 68 71 69 72 8 73 9 74
REMARK SMILES IDX 10 75 11 76 12 77 13 78 14 79 15 80 16 81 20 82 17 83 19 84
REMARK SMILES IDX 18 85 21 86 22 88 23 89 24 90 25 91 26 92 34 93 27 94 33 95
REMARK SMILES IDX 28 96 32 97 29 98 31 99 30 100
REMARK H PARENT 91 25 59 36 21 87
REMARK Flexibility Score: inf
ROOT
ATOM      1  C   UNL A   1      34.300  32.238  27.966  1.00  0.00     0.188 C 
ENDROOT
BRANCH   1   2
ATOM      2  O   UNL A   1      34.098  32.547  29.327  1.00  0.00    -0.376 OA
BRANCH   2   3
ATOM      3  C   UNL A   1      34.355  33.884  29.689  1.00  0.00     0.202 C 
BRANCH   3   4
ATOM      4  C   UNL A   1      34.904  34.052  31.100  1.00  0.00     0.261 C 
BRANCH   4   5
ATOM      5  O   UNL A   1      36.319  33.764  31.380  1.00  0.00    -0.460 OA
BRANCH   5   6
ATOM      6  C   UNL A   1      37.457  33.186  30.939  1.00  0.00     0.338 C 
ATOM      7  O   UNL A   1      37.448  31.957  30.827  1.00  0.00    -0.246 OA
BRANCH   6   8
ATOM      8  C   UNL A   1      38.770  33.841  30.639  1.00  0.00     0.060 A 
ATOM      9  C   UNL A   1      39.059  34.388  29.425  1.00  0.00     0.016 A 
ATOM     10  C   UNL A   1      39.769  34.021  31.622  1.00  0.00     0.016 A 
ATOM     11  C   UNL A   1      40.334  34.944  29.159  1.00  0.00     0.010 A 
ATOM     12  C   UNL A   1      41.059  34.593  31.330  1.00  0.00     0.010 A 
ATOM     13  C   UNL A   1      41.414  34.993  30.035  1.00  0.00    -0.014 A 
BRANCH  13  14
ATOM     14  C   UNL A   1      42.849  35.188  29.462  1.00  0.00     0.031 A 
ATOM     15  C   UNL A   1      43.726  33.971  29.201  1.00  0.00     0.074 A 
ATOM     16  C   UNL A   1      43.319  36.318  28.857  1.00  0.00     0.049 A 
ATOM     17  N   UNL A   1      44.910  33.903  28.636  1.00  0.00    -0.248 NA
ATOM     18  C   UNL A   1      43.157  32.657  29.513  1.00  0.00     0.031 C 
ATOM     19  C   UNL A   1      42.556  37.531  28.686  1.00  0.00     0.029 A 
ATOM     20  N   UNL A   1      44.501  36.652  28.208  1.00  0.00    -0.354 N 
ATOM     21  C   UNL A   1      45.195  32.549  28.501  1.00  0.00     0.074 A 
ATOM     22  C   UNL A   1      44.074  31.829  29.048  1.00  0.00     0.031 C 
ATOM     23  C   UNL A   1      43.210  38.446  27.972  1.00  0.00     0.029 A 
ATOM     24  C   UNL A   1      44.541  37.959  27.736  1.00  0.00     0.049 A 
ATOM     25  H   UNL A   1      45.246  36.018  28.093  1.00  0.00     0.167 HD
ATOM     26  C   UNL A   1      46.265  31.934  27.948  1.00  0.00     0.034 A 
ATOM     27  C   UNL A   1      45.497  38.749  27.206  1.00  0.00     0.034 A 
ATOM     28  C   UNL A   1      47.390  32.603  27.371  1.00  0.00     0.049 A 
ATOM     29  C   UNL A   1      46.801  38.111  26.883  1.00  0.00     0.074 A 
ATOM     30  C   UNL A   1      48.577  32.056  26.918  1.00  0.00     0.029 A 
ATOM     31  N   UNL A   1      47.467  33.968  27.157  1.00  0.00    -0.354 N 
ATOM     32  N   UNL A   1      47.085  36.836  26.903  1.00  0.00    -0.248 NA
ATOM     33  C   UNL A   1      47.894  38.981  26.437  1.00  0.00     0.031 C 
ATOM     34  C   UNL A   1      49.394  33.100  26.474  1.00  0.00     0.029 A 
ATOM     35  C   UNL A   1      48.701  34.290  26.622  1.00  0.00     0.049 A 
ATOM     36  H   UNL A   1      46.750  34.613  27.354  1.00  0.00     0.167 HD
ATOM     37  C   UNL A   1      48.383  36.738  26.443  1.00  0.00     0.074 A 
ATOM     38  C   UNL A   1      48.824  38.084  26.132  1.00  0.00     0.031 C 
ATOM     39  C   UNL A   1      49.135  35.624  26.306  1.00  0.00     0.034 A 
BRANCH  26  40
ATOM     40  C   UNL A   1      46.272  30.433  28.010  1.00  0.00     0.023 A 
ATOM     41  C   UNL A   1      46.846  29.770  29.113  1.00  0.00     0.012 A 
ATOM     42  C   UNL A   1      45.766  29.685  26.930  1.00  0.00     0.148 A 
ATOM     43  C   UNL A   1      46.953  28.379  29.119  1.00  0.00     0.002 A 
ATOM     44  C   UNL A   1      45.849  28.300  26.958  1.00  0.00     0.091 A 
ATOM     45  F   UNL A   1      45.255  30.346  25.882  1.00  0.00    -0.205 F 
ATOM     46  C   UNL A   1      46.452  27.646  28.045  1.00  0.00     0.022 A 
BRANCH  44  47
ATOM     47  S   UNL A   1      45.216  27.273  25.630  1.00  0.00     0.127 S 
ATOM     48  O   UNL A   1      43.954  27.943  25.318  1.00  0.00    -0.237 OA
ATOM     49  O   UNL A   1      46.254  27.418  24.610  1.00  0.00    -0.237 OA
ATOM     50  O   UNL A   1      45.086  25.932  26.184  1.00  0.00    -0.744 OA
ENDBRANCH  44  47
ENDBRANCH  26  40
BRANCH  27  51
ATOM     51  C   UNL A   1      45.254  40.217  26.975  1.00  0.00     0.023 A 
ATOM     52  C   UNL A   1      44.553  40.667  25.840  1.00  0.00     0.012 A 
ATOM     53  C   UNL A   1      45.689  41.179  27.918  1.00  0.00     0.148 A 
ATOM     54  C   UNL A   1      44.304  42.031  25.643  1.00  0.00     0.002 A 
ATOM     55  C   UNL A   1      45.376  42.525  27.753  1.00  0.00     0.091 A 
ATOM     56  F   UNL A   1      46.391  40.758  28.980  1.00  0.00    -0.205 F 
ATOM     57  C   UNL A   1      44.699  42.958  26.607  1.00  0.00     0.022 A 
BRANCH  55  58
ATOM     58  S   UNL A   1      45.706  43.741  29.038  1.00  0.00     0.127 S 
ATOM     59  O   UNL A   1      47.163  43.699  29.126  1.00  0.00    -0.237 OA
ATOM     60  O   UNL A   1      45.159  44.967  28.453  1.00  0.00    -0.237 OA
ATOM     61  O   UNL A   1      44.977  43.270  30.207  1.00  0.00    -0.744 OA
ENDBRANCH  55  58
ENDBRANCH  27  51
BRANCH  39  62
ATOM     62  C   UNL A   1      50.529  35.808  25.808  1.00  0.00     0.023 A 
ATOM     63  C   UNL A   1      50.766  35.870  24.421  1.00  0.00     0.012 A 
ATOM     64  C   UNL A   1      51.588  35.986  26.713  1.00  0.00     0.148 A 
ATOM     65  C   UNL A   1      52.055  36.079  23.941  1.00  0.00     0.002 A 
ATOM     66  C   UNL A   1      52.857  36.256  26.227  1.00  0.00     0.091 A 
ATOM     67  F   UNL A   1      51.333  35.891  28.026  1.00  0.00    -0.205 F 
ATOM     68  C   UNL A   1      53.095  36.288  24.844  1.00  0.00     0.022 A 
BRANCH  66  69
ATOM     69  S   UNL A   1      54.222  36.657  27.319  1.00  0.00     0.127 S 
ATOM     70  O   UNL A   1      55.376  36.329  26.483  1.00  0.00    -0.237 OA
ATOM     71  O   UNL A   1      54.021  38.087  27.552  1.00  0.00    -0.237 OA
ATOM     72  O   UNL A   1      54.046  35.824  28.501  1.00  0.00    -0.744 OA
ENDBRANCH  66  69
ENDBRANCH  39  62
ENDBRANCH  13  14
ENDBRANCH   6   8
ENDBRANCH   5   6
ENDBRANCH   4   5
ENDBRANCH   3   4
ENDBRANCH   2   3
ENDBRANCH   1   2
BRANCH   1  73
ATOM     73  C   UNL A   1      34.744  30.795  27.767  1.00  0.00     0.188 C 
BRANCH  73  74
ATOM     74  O   UNL A   1      33.752  30.014  27.092  1.00  0.00    -0.376 OA
BRANCH  74  75
ATOM     75  C   UNL A   1      32.581  30.760  26.743  1.00  0.00     0.202 C 
BRANCH  75  76
ATOM     76  C   UNL A   1      31.569  30.016  25.859  1.00  0.00     0.261 C 
BRANCH  76  77
ATOM     77  O   UNL A   1      31.685  28.594  25.905  1.00  0.00    -0.463 OA
BRANCH  77  78
ATOM     78  C   UNL A   1      31.311  27.934  24.799  1.00  0.00     0.310 C 
ATOM     79  O   UNL A   1      30.341  28.240  24.112  1.00  0.00    -0.252 OA
BRANCH  78  80
ATOM     80  C   UNL A   1      32.311  26.888  24.397  1.00  0.00     0.117 C 
ATOM     81  C   UNL A   1      32.200  26.587  22.885  1.00  0.00     0.017 C 
ATOM     82  C   UNL A   1      32.642  25.698  25.354  1.00  0.00     0.084 C 
ATOM     83  C   UNL A   1      33.402  25.830  22.325  1.00  0.00     0.001 C 
ATOM     84  C   UNL A   1      33.930  25.116  24.651  1.00  0.00     0.021 C 
ATOM     85  C   UNL A   1      33.688  24.643  23.211  1.00  0.00     0.002 C 
BRANCH  82  86
ATOM     86  N   UNL A   1      31.629  24.596  25.726  1.00  0.00    -0.207 NA
ATOM     87  H   UNL A   1      31.095  24.481  24.865  1.00  0.00     0.141 HD
BRANCH  86  88
ATOM     88  S   UNL A   1      31.748  22.943  26.336  1.00  0.00     0.240 S 
ATOM     89  O   UNL A   1      32.331  22.997  27.663  1.00  0.00    -0.207 OA
ATOM     90  O   UNL A   1      30.396  22.453  26.182  1.00  0.00    -0.207 OA
BRANCH  88  91
ATOM     91  C   UNL A   1      32.752  21.671  25.415  1.00  0.00     0.083 A 
ATOM     92  C   UNL A   1      34.126  21.599  25.514  1.00  0.00     0.022 A 
ATOM     93  C   UNL A   1      32.189  20.781  24.464  1.00  0.00     0.030 A 
ATOM     94  C   UNL A   1      34.780  20.390  25.188  1.00  0.00     0.010 A 
ATOM     95  C   UNL A   1      32.884  19.596  24.001  1.00  0.00    -0.017 A 
ATOM     96  C   UNL A   1      34.149  19.338  24.535  1.00  0.00    -0.018 A 
ATOM     97  C   UNL A   1      32.374  18.601  23.125  1.00  0.00     0.009 A 
ATOM     98  C   UNL A   1      34.770  18.070  24.410  1.00  0.00     0.009 A 
ATOM     99  C   UNL A   1      33.018  17.356  22.951  1.00  0.00     0.001 A 
ATOM    100  C   UNL A   1      34.188  17.068  23.643  1.00  0.00     0.001 A 
ENDBRANCH  88  91
ENDBRANCH  86  88
ENDBRANCH  82  86
ENDBRANCH  78  80
ENDBRANCH  77  78
ENDBRANCH  76  77
ENDBRANCH  75  76
ENDBRANCH  74  75
ENDBRANCH  73  74
ENDBRANCH   1  73
TORSDOF 23
ENDMDL
