MODEL 1
REMARK VINA RESULT:     -10.2      0.000      0.000
REMARK SMILES CCOc1cc(/C=C(\CC(=O)OCCOCCOCCOC(=O)c2ccc(-c3c4nc(c(-c5cccc(S(=O)(=O)[O-])c5F)c5ccc([nH]5)c(-c5cccc(S(=O)(=O)[O-])c5F)c5nc(c(-c6cccc(S(=O)(=O)[O-])c6F)c6ccc3[nH]6)C=C5)C=C4)cc2)c2nc3ccccc3o2)cc(Br)c1OC
REMARK SMILES IDX 16 1 15 2 14 3 13 4 12 5 10 6 11 7 9 8 8 9 7 10 6 11 4 12
REMARK SMILES IDX 5 13 99 14 97 15 96 16 98 17 3 18 2 19 1 20 100 21 101 22
REMARK SMILES IDX 87 23 88 24 95 25 89 26 94 27 90 28 93 29 91 30 92 31 17 32
REMARK SMILES IDX 18 33 19 34 20 35 21 36 22 37 23 38 24 39 25 40 86 41 26 42
REMARK SMILES IDX 85 43 27 44 28 45 29 46 79 47 30 48 84 49 78 50 80 51 31 52
REMARK SMILES IDX 83 53 77 54 76 55 32 57 64 58 44 59 63 60 45 61 48 62 62 63
REMARK SMILES IDX 81 64 46 65 47 66 61 68 82 69 49 70 33 71 34 72 42 73 35 74
REMARK SMILES IDX 37 75 43 76 36 77 38 78 39 79 40 80 41 81 65 82 66 83 74 84
REMARK SMILES IDX 67 85 69 86 75 87 68 88 70 89 71 90 72 91 73 92 50 93 51 94
REMARK SMILES IDX 59 95 52 96 54 97 60 98 53 99 55 100 56 101 57 102 58 103
REMARK H PARENT 80 56 48 67
REMARK Flexibility Score: inf
ROOT
ATOM      1  C   UNL A   1      35.295  32.171  28.932  1.00  0.00     0.188 C 
ENDROOT
BRANCH   1   2
ATOM      2  O   UNL A   1      35.499  31.002  28.149  1.00  0.00    -0.376 OA
BRANCH   2   3
ATOM      3  C   UNL A   1      34.477  30.586  27.263  1.00  0.00     0.202 C 
BRANCH   3   4
ATOM      4  C   UNL A   1      34.013  29.124  27.356  1.00  0.00     0.261 C 
BRANCH   4   5
ATOM      5  O   UNL A   1      34.347  28.294  26.213  1.00  0.00    -0.463 OA
BRANCH   5   6
ATOM      6  C   UNL A   1      33.474  27.286  25.946  1.00  0.00     0.310 C 
ATOM      7  O   UNL A   1      32.934  26.617  26.822  1.00  0.00    -0.252 OA
BRANCH   6   8
ATOM      8  C   UNL A   1      33.115  27.046  24.461  1.00  0.00     0.163 C 
BRANCH   8   9
ATOM      9  C   UNL A   1      31.738  26.682  23.888  1.00  0.00     0.026 C 
ATOM     10  C   UNL A   1      31.310  25.410  23.662  1.00  0.00     0.018 C 
BRANCH  10  11
ATOM     11  C   UNL A   1      31.993  24.092  23.820  1.00  0.00    -0.020 A 
ATOM     12  C   UNL A   1      33.551  22.568  24.939  1.00  0.00     0.162 A 
ATOM     13  C   UNL A   1      32.915  23.803  24.816  1.00  0.00     0.058 A 
ATOM     14  C   UNL A   1      33.294  21.516  24.054  1.00  0.00     0.174 A 
ATOM     15  C   UNL A   1      32.361  21.769  23.038  1.00  0.00     0.064 A 
ATOM     16  C   UNL A   1      31.730  23.042  22.928  1.00  0.00     0.028 A 
ATOM     17  Br  UNL A   1      31.817  20.522  21.705  1.00  0.00    -0.047 Br
BRANCH  12  18
ATOM     18  O   UNL A   1      34.558  22.461  25.874  1.00  0.00    -0.490 OA
BRANCH  18  19
ATOM     19  C   UNL A   1      34.216  23.021  27.150  1.00  0.00     0.226 C 
ATOM     20  C   UNL A   1      33.234  22.140  27.907  1.00  0.00     0.049 C 
ENDBRANCH  18  19
ENDBRANCH  12  18
BRANCH  14  21
ATOM     21  O   UNL A   1      34.009  20.403  24.378  1.00  0.00    -0.492 OA
ATOM     22  C   UNL A   1      33.419  19.240  24.912  1.00  0.00     0.278 C 
ENDBRANCH  14  21
ENDBRANCH  10  11
BRANCH   9  23
ATOM     23  C   UNL A   1      30.751  27.762  23.729  1.00  0.00     0.223 A 
ATOM     24  N   UNL A   1      29.630  27.630  23.030  1.00  0.00    -0.210 NA
ATOM     25  O   UNL A   1      30.889  29.079  24.196  1.00  0.00    -0.436 OA
ATOM     26  C   UNL A   1      29.031  28.865  22.998  1.00  0.00     0.110 A 
ATOM     27  C   UNL A   1      29.805  29.767  23.695  1.00  0.00     0.155 A 
ATOM     28  C   UNL A   1      27.846  29.314  22.394  1.00  0.00     0.032 A 
ATOM     29  C   UNL A   1      29.476  31.120  23.810  1.00  0.00     0.049 A 
ATOM     30  C   UNL A   1      27.491  30.659  22.463  1.00  0.00     0.003 A 
ATOM     31  C   UNL A   1      28.298  31.550  23.164  1.00  0.00     0.004 A 
ENDBRANCH   9  23
ENDBRANCH   8   9
ENDBRANCH   6   8
ENDBRANCH   5   6
ENDBRANCH   4   5
ENDBRANCH   3   4
ENDBRANCH   2   3
ENDBRANCH   1   2
BRANCH   1  32
ATOM     32  C   UNL A   1      35.782  33.538  28.388  1.00  0.00     0.188 C 
BRANCH  32  33
ATOM     33  O   UNL A   1      34.736  34.296  27.830  1.00  0.00    -0.376 OA
BRANCH  33  34
ATOM     34  C   UNL A   1      34.349  35.463  28.512  1.00  0.00     0.202 C 
BRANCH  34  35
ATOM     35  C   UNL A   1      32.956  35.610  29.169  1.00  0.00     0.261 C 
BRANCH  35  36
ATOM     36  O   UNL A   1      32.728  34.910  30.415  1.00  0.00    -0.460 OA
BRANCH  36  37
ATOM     37  C   UNL A   1      32.838  35.622  31.560  1.00  0.00     0.338 C 
ATOM     38  O   UNL A   1      32.113  36.563  31.858  1.00  0.00    -0.246 OA
BRANCH  37  39
ATOM     39  C   UNL A   1      33.892  35.157  32.531  1.00  0.00     0.060 A 
ATOM     40  C   UNL A   1      35.197  35.661  32.538  1.00  0.00     0.016 A 
ATOM     41  C   UNL A   1      33.674  33.924  33.150  1.00  0.00     0.016 A 
ATOM     42  C   UNL A   1      36.277  34.876  32.996  1.00  0.00     0.010 A 
ATOM     43  C   UNL A   1      34.743  33.177  33.684  1.00  0.00     0.010 A 
ATOM     44  C   UNL A   1      36.072  33.611  33.566  1.00  0.00    -0.014 A 
BRANCH  44  45
ATOM     45  C   UNL A   1      37.208  32.768  34.075  1.00  0.00     0.031 A 
ATOM     46  C   UNL A   1      37.963  33.103  35.350  1.00  0.00     0.074 A 
ATOM     47  C   UNL A   1      37.626  31.707  33.354  1.00  0.00     0.049 A 
ATOM     48  N   UNL A   1      39.085  32.597  35.808  1.00  0.00    -0.248 NA
ATOM     49  C   UNL A   1      37.382  34.132  36.224  1.00  0.00     0.031 C 
ATOM     50  C   UNL A   1      37.004  31.225  32.121  1.00  0.00     0.029 A 
ATOM     51  N   UNL A   1      38.704  30.866  33.532  1.00  0.00    -0.354 N 
ATOM     52  C   UNL A   1      39.377  33.279  36.988  1.00  0.00     0.074 A 
ATOM     53  C   UNL A   1      38.294  34.225  37.187  1.00  0.00     0.031 C 
ATOM     54  C   UNL A   1      37.714  30.196  31.642  1.00  0.00     0.029 A 
ATOM     55  C   UNL A   1      38.889  29.995  32.482  1.00  0.00     0.049 A 
ATOM     56  H   UNL A   1      39.282  30.887  34.328  1.00  0.00     0.167 HD
ATOM     57  C   UNL A   1      40.441  33.141  37.824  1.00  0.00     0.034 A 
ATOM     58  C   UNL A   1      39.908  29.168  32.175  1.00  0.00     0.034 A 
ATOM     59  C   UNL A   1      41.508  32.178  37.652  1.00  0.00     0.049 A 
ATOM     60  C   UNL A   1      41.094  29.062  33.088  1.00  0.00     0.074 A 
ATOM     61  C   UNL A   1      42.600  31.949  38.477  1.00  0.00     0.029 A 
ATOM     62  N   UNL A   1      41.631  31.296  36.591  1.00  0.00    -0.354 N 
ATOM     63  N   UNL A   1      41.325  29.682  34.218  1.00  0.00    -0.248 NA
ATOM     64  C   UNL A   1      42.148  28.117  32.694  1.00  0.00     0.031 C 
ATOM     65  C   UNL A   1      43.402  30.961  37.894  1.00  0.00     0.029 A 
ATOM     66  C   UNL A   1      42.785  30.535  36.731  1.00  0.00     0.049 A 
ATOM     67  H   UNL A   1      40.993  31.219  35.846  1.00  0.00     0.167 HD
ATOM     68  C   UNL A   1      42.531  29.175  34.688  1.00  0.00     0.074 A 
ATOM     69  C   UNL A   1      42.968  28.180  33.732  1.00  0.00     0.031 C 
ATOM     70  C   UNL A   1      43.216  29.516  35.808  1.00  0.00     0.034 A 
BRANCH  57  71
ATOM     71  C   UNL A   1      40.534  34.049  39.033  1.00  0.00     0.023 A 
ATOM     72  C   UNL A   1      41.285  35.240  38.966  1.00  0.00     0.012 A 
ATOM     73  C   UNL A   1      39.777  33.782  40.195  1.00  0.00     0.148 A 
ATOM     74  C   UNL A   1      41.302  36.133  40.040  1.00  0.00     0.002 A 
ATOM     75  C   UNL A   1      39.764  34.696  41.244  1.00  0.00     0.091 A 
ATOM     76  F   UNL A   1      39.070  32.643  40.248  1.00  0.00    -0.205 F 
ATOM     77  C   UNL A   1      40.535  35.868  41.172  1.00  0.00     0.022 A 
BRANCH  75  78
ATOM     78  S   UNL A   1      38.742  34.491  42.708  1.00  0.00     0.127 S 
ATOM     79  O   UNL A   1      39.618  35.007  43.756  1.00  0.00    -0.237 OA
ATOM     80  O   UNL A   1      37.588  35.334  42.404  1.00  0.00    -0.237 OA
ATOM     81  O   UNL A   1      38.444  33.062  42.791  1.00  0.00    -0.744 OA
ENDBRANCH  75  78
ENDBRANCH  57  71
BRANCH  58  82
ATOM     82  C   UNL A   1      39.844  28.369  30.918  1.00  0.00     0.023 A 
ATOM     83  C   UNL A   1      38.952  27.284  30.830  1.00  0.00     0.012 A 
ATOM     84  C   UNL A   1      40.629  28.712  29.800  1.00  0.00     0.148 A 
ATOM     85  C   UNL A   1      38.859  26.540  29.653  1.00  0.00     0.002 A 
ATOM     86  C   UNL A   1      40.479  28.012  28.611  1.00  0.00     0.091 A 
ATOM     87  F   UNL A   1      41.487  29.736  29.916  1.00  0.00    -0.205 F 
ATOM     88  C   UNL A   1      39.609  26.914  28.540  1.00  0.00     0.022 A 
BRANCH  86  89
ATOM     89  S   UNL A   1      41.286  28.522  27.090  1.00  0.00     0.127 S 
ATOM     90  O   UNL A   1      42.263  29.490  27.582  1.00  0.00    -0.237 OA
ATOM     91  O   UNL A   1      41.853  27.261  26.613  1.00  0.00    -0.237 OA
ATOM     92  O   UNL A   1      40.229  29.062  26.245  1.00  0.00    -0.744 OA
ENDBRANCH  86  89
ENDBRANCH  58  82
BRANCH  70  93
ATOM     93  C   UNL A   1      44.494  28.763  36.093  1.00  0.00     0.023 A 
ATOM     94  C   UNL A   1      45.725  29.242  35.602  1.00  0.00     0.012 A 
ATOM     95  C   UNL A   1      44.475  27.573  36.848  1.00  0.00     0.148 A 
ATOM     96  C   UNL A   1      46.904  28.520  35.803  1.00  0.00     0.002 A 
ATOM     97  C   UNL A   1      45.661  26.886  37.089  1.00  0.00     0.091 A 
ATOM     98  F   UNL A   1      43.296  27.114  37.293  1.00  0.00    -0.205 F 
ATOM     99  C   UNL A   1      46.872  27.347  36.552  1.00  0.00     0.022 A 
BRANCH  97 100
ATOM    100  S   UNL A   1      45.726  25.414  38.118  1.00  0.00     0.127 S 
ATOM    101  O   UNL A   1      47.087  25.478  38.646  1.00  0.00    -0.237 OA
ATOM    102  O   UNL A   1      44.677  25.677  39.105  1.00  0.00    -0.237 OA
ATOM    103  O   UNL A   1      45.448  24.293  37.230  1.00  0.00    -0.744 OA
ENDBRANCH  97 100
ENDBRANCH  70  93
ENDBRANCH  44  45
ENDBRANCH  37  39
ENDBRANCH  36  37
ENDBRANCH  35  36
ENDBRANCH  34  35
ENDBRANCH  33  34
ENDBRANCH  32  33
ENDBRANCH   1  32
TORSDOF 26
ENDMDL
MODEL 2
REMARK VINA RESULT:     -10.0      3.451      8.733
REMARK SMILES CCOc1cc(/C=C(\CC(=O)OCCOCCOCCOC(=O)c2ccc(-c3c4nc(c(-c5cccc(S(=O)(=O)[O-])c5F)c5ccc([nH]5)c(-c5cccc(S(=O)(=O)[O-])c5F)c5nc(c(-c6cccc(S(=O)(=O)[O-])c6F)c6ccc3[nH]6)C=C5)C=C4)cc2)c2nc3ccccc3o2)cc(Br)c1OC
REMARK SMILES IDX 16 1 15 2 14 3 13 4 12 5 10 6 11 7 9 8 8 9 7 10 6 11 4 12
REMARK SMILES IDX 5 13 99 14 97 15 96 16 98 17 3 18 2 19 1 20 100 21 101 22
REMARK SMILES IDX 87 23 88 24 95 25 89 26 94 27 90 28 93 29 91 30 92 31 17 32
REMARK SMILES IDX 18 33 19 34 20 35 21 36 22 37 23 38 24 39 25 40 86 41 26 42
REMARK SMILES IDX 85 43 27 44 28 45 29 46 79 47 30 48 84 49 78 50 80 51 31 52
REMARK SMILES IDX 83 53 77 54 76 55 32 57 64 58 44 59 63 60 45 61 48 62 62 63
REMARK SMILES IDX 81 64 46 65 47 66 61 68 82 69 49 70 33 71 34 72 42 73 35 74
REMARK SMILES IDX 37 75 43 76 36 77 38 78 39 79 40 80 41 81 65 82 66 83 74 84
REMARK SMILES IDX 67 85 69 86 75 87 68 88 70 89 71 90 72 91 73 92 50 93 51 94
REMARK SMILES IDX 59 95 52 96 54 97 60 98 53 99 55 100 56 101 57 102 58 103
REMARK H PARENT 80 56 48 67
REMARK Flexibility Score: inf
ROOT
ATOM      1  C   UNL A   1      30.455  24.465  26.117  1.00  0.00     0.188 C 
ENDROOT
BRANCH   1   2
ATOM      2  O   UNL A   1      31.175  23.852  27.179  1.00  0.00    -0.376 OA
BRANCH   2   3
ATOM      3  C   UNL A   1      32.585  23.773  27.091  1.00  0.00     0.202 C 
BRANCH   3   4
ATOM      4  C   UNL A   1      33.232  22.401  27.336  1.00  0.00     0.261 C 
BRANCH   4   5
ATOM      5  O   UNL A   1      32.971  21.400  26.318  1.00  0.00    -0.463 OA
BRANCH   5   6
ATOM      6  C   UNL A   1      32.957  21.856  25.037  1.00  0.00     0.310 C 
ATOM      7  O   UNL A   1      31.938  21.902  24.353  1.00  0.00    -0.252 OA
BRANCH   6   8
ATOM      8  C   UNL A   1      34.291  22.399  24.472  1.00  0.00     0.163 C 
BRANCH   8   9
ATOM      9  C   UNL A   1      34.766  23.859  24.463  1.00  0.00     0.026 C 
ATOM     10  C   UNL A   1      36.018  24.263  24.814  1.00  0.00     0.018 C 
BRANCH  10  11
ATOM     11  C   UNL A   1      37.196  23.505  25.330  1.00  0.00    -0.020 A 
ATOM     12  C   UNL A   1      38.543  21.472  25.567  1.00  0.00     0.162 A 
ATOM     13  C   UNL A   1      37.442  22.165  25.064  1.00  0.00     0.058 A 
ATOM     14  C   UNL A   1      39.494  22.092  26.382  1.00  0.00     0.174 A 
ATOM     15  C   UNL A   1      39.282  23.449  26.667  1.00  0.00     0.064 A 
ATOM     16  C   UNL A   1      38.145  24.134  26.149  1.00  0.00     0.028 A 
ATOM     17  Br  UNL A   1      40.415  24.541  27.740  1.00  0.00    -0.047 Br
BRANCH  12  18
ATOM     18  O   UNL A   1      38.587  20.110  25.356  1.00  0.00    -0.490 OA
BRANCH  18  19
ATOM     19  C   UNL A   1      37.668  19.656  24.352  1.00  0.00     0.226 C 
ATOM     20  C   UNL A   1      36.527  18.853  24.956  1.00  0.00     0.049 C 
ENDBRANCH  18  19
ENDBRANCH  12  18
BRANCH  14  21
ATOM     21  O   UNL A   1      40.489  21.232  26.735  1.00  0.00    -0.492 OA
ATOM     22  C   UNL A   1      40.908  21.049  28.067  1.00  0.00     0.278 C 
ENDBRANCH  14  21
ENDBRANCH  10  11
BRANCH   9  23
ATOM     23  C   UNL A   1      33.871  24.871  23.880  1.00  0.00     0.223 A 
ATOM     24  N   UNL A   1      34.148  26.170  23.864  1.00  0.00    -0.210 NA
ATOM     25  O   UNL A   1      32.590  24.634  23.356  1.00  0.00    -0.436 OA
ATOM     26  C   UNL A   1      33.042  26.808  23.363  1.00  0.00     0.110 A 
ATOM     27  C   UNL A   1      32.071  25.877  23.065  1.00  0.00     0.155 A 
ATOM     28  C   UNL A   1      32.767  28.167  23.141  1.00  0.00     0.032 A 
ATOM     29  C   UNL A   1      30.812  26.224  22.570  1.00  0.00     0.049 A 
ATOM     30  C   UNL A   1      31.517  28.561  22.671  1.00  0.00     0.003 A 
ATOM     31  C   UNL A   1      30.552  27.599  22.389  1.00  0.00     0.004 A 
ENDBRANCH   9  23
ENDBRANCH   8   9
ENDBRANCH   6   8
ENDBRANCH   5   6
ENDBRANCH   4   5
ENDBRANCH   3   4
ENDBRANCH   2   3
ENDBRANCH   1   2
BRANCH   1  32
ATOM     32  C   UNL A   1      30.179  25.989  26.175  1.00  0.00     0.188 C 
BRANCH  32  33
ATOM     33  O   UNL A   1      30.970  26.641  27.139  1.00  0.00    -0.376 OA
BRANCH  33  34
ATOM     34  C   UNL A   1      32.066  27.389  26.677  1.00  0.00     0.202 C 
BRANCH  34  35
ATOM     35  C   UNL A   1      32.040  28.935  26.613  1.00  0.00     0.261 C 
BRANCH  35  36
ATOM     36  O   UNL A   1      32.611  29.660  27.727  1.00  0.00    -0.460 OA
BRANCH  36  37
ATOM     37  C   UNL A   1      33.378  30.737  27.441  1.00  0.00     0.338 C 
ATOM     38  O   UNL A   1      32.935  31.840  27.147  1.00  0.00    -0.246 OA
BRANCH  37  39
ATOM     39  C   UNL A   1      34.867  30.542  27.567  1.00  0.00     0.060 A 
ATOM     40  C   UNL A   1      35.447  29.321  27.930  1.00  0.00     0.016 A 
ATOM     41  C   UNL A   1      35.641  31.694  27.720  1.00  0.00     0.016 A 
ATOM     42  C   UNL A   1      36.694  29.277  28.590  1.00  0.00     0.010 A 
ATOM     43  C   UNL A   1      36.923  31.639  28.302  1.00  0.00     0.010 A 
ATOM     44  C   UNL A   1      37.452  30.439  28.801  1.00  0.00    -0.014 A 
BRANCH  44  45
ATOM     45  C   UNL A   1      38.790  30.410  29.485  1.00  0.00     0.031 A 
ATOM     46  C   UNL A   1      39.983  29.665  28.910  1.00  0.00     0.074 A 
ATOM     47  C   UNL A   1      38.939  31.008  30.685  1.00  0.00     0.049 A 
ATOM     48  N   UNL A   1      41.133  29.378  29.473  1.00  0.00    -0.248 NA
ATOM     49  C   UNL A   1      39.872  29.189  27.523  1.00  0.00     0.031 C 
ATOM     50  C   UNL A   1      37.910  31.787  31.374  1.00  0.00     0.029 A 
ATOM     51  N   UNL A   1      40.003  31.018  31.561  1.00  0.00    -0.354 N 
ATOM     52  C   UNL A   1      41.861  28.641  28.541  1.00  0.00     0.074 A 
ATOM     53  C   UNL A   1      41.024  28.546  27.358  1.00  0.00     0.031 C 
ATOM     54  C   UNL A   1      38.378  32.179  32.566  1.00  0.00     0.029 A 
ATOM     55  C   UNL A   1      39.707  31.612  32.766  1.00  0.00     0.049 A 
ATOM     56  H   UNL A   1      40.885  30.638  31.345  1.00  0.00     0.167 HD
ATOM     57  C   UNL A   1      43.100  28.091  28.652  1.00  0.00     0.034 A 
ATOM     58  C   UNL A   1      40.380  31.653  33.933  1.00  0.00     0.034 A 
ATOM     59  C   UNL A   1      43.956  28.209  29.813  1.00  0.00     0.049 A 
ATOM     60  C   UNL A   1      41.727  31.003  34.049  1.00  0.00     0.074 A 
ATOM     61  C   UNL A   1      45.240  27.715  29.988  1.00  0.00     0.029 A 
ATOM     62  N   UNL A   1      43.622  28.850  30.995  1.00  0.00    -0.354 N 
ATOM     63  N   UNL A   1      42.412  30.354  33.142  1.00  0.00    -0.248 NA
ATOM     64  C   UNL A   1      42.406  31.117  35.348  1.00  0.00     0.031 C 
ATOM     65  C   UNL A   1      45.664  28.020  31.287  1.00  0.00     0.029 A 
ATOM     66  C   UNL A   1      44.666  28.751  31.907  1.00  0.00     0.049 A 
ATOM     67  H   UNL A   1      42.769  29.311  31.165  1.00  0.00     0.167 HD
ATOM     68  C   UNL A   1      43.616  30.015  33.747  1.00  0.00     0.074 A 
ATOM     69  C   UNL A   1      43.576  30.553  35.090  1.00  0.00     0.031 C 
ATOM     70  C   UNL A   1      44.656  29.312  33.234  1.00  0.00     0.034 A 
BRANCH  57  71
ATOM     71  C   UNL A   1      43.647  27.296  27.484  1.00  0.00     0.023 A 
ATOM     72  C   UNL A   1      44.100  27.960  26.326  1.00  0.00     0.012 A 
ATOM     73  C   UNL A   1      43.826  25.898  27.586  1.00  0.00     0.148 A 
ATOM     74  C   UNL A   1      44.693  27.248  25.282  1.00  0.00     0.002 A 
ATOM     75  C   UNL A   1      44.458  25.201  26.560  1.00  0.00     0.091 A 
ATOM     76  F   UNL A   1      43.388  25.277  28.691  1.00  0.00    -0.205 F 
ATOM     77  C   UNL A   1      44.882  25.873  25.403  1.00  0.00     0.022 A 
BRANCH  75  78
ATOM     78  S   UNL A   1      44.827  23.444  26.656  1.00  0.00     0.127 S 
ATOM     79  O   UNL A   1      43.519  22.852  26.395  1.00  0.00    -0.237 OA
ATOM     80  O   UNL A   1      45.802  23.272  25.581  1.00  0.00    -0.237 OA
ATOM     81  O   UNL A   1      45.359  23.219  27.998  1.00  0.00    -0.744 OA
ENDBRANCH  75  78
ENDBRANCH  57  71
BRANCH  58  82
ATOM     82  C   UNL A   1      39.768  32.345  35.103  1.00  0.00     0.023 A 
ATOM     83  C   UNL A   1      38.903  31.636  35.956  1.00  0.00     0.012 A 
ATOM     84  C   UNL A   1      40.080  33.688  35.396  1.00  0.00     0.148 A 
ATOM     85  C   UNL A   1      38.341  32.260  37.071  1.00  0.00     0.002 A 
ATOM     86  C   UNL A   1      39.574  34.279  36.544  1.00  0.00     0.091 A 
ATOM     87  F   UNL A   1      40.890  34.350  34.556  1.00  0.00    -0.205 F 
ATOM     88  C   UNL A   1      38.689  33.573  37.374  1.00  0.00     0.022 A 
BRANCH  86  89
ATOM     89  S   UNL A   1      40.093  35.909  37.092  1.00  0.00     0.127 S 
ATOM     90  O   UNL A   1      41.533  35.723  37.254  1.00  0.00    -0.237 OA
ATOM     91  O   UNL A   1      39.703  36.745  35.957  1.00  0.00    -0.237 OA
ATOM     92  O   UNL A   1      39.346  36.170  38.314  1.00  0.00    -0.744 OA
ENDBRANCH  86  89
ENDBRANCH  58  82
BRANCH  70  93
ATOM     93  C   UNL A   1      45.869  29.127  34.115  1.00  0.00     0.023 A 
ATOM     94  C   UNL A   1      46.930  30.054  34.067  1.00  0.00     0.012 A 
ATOM     95  C   UNL A   1      45.960  28.027  34.993  1.00  0.00     0.148 A 
ATOM     96  C   UNL A   1      48.085  29.857  34.828  1.00  0.00     0.002 A 
ATOM     97  C   UNL A   1      47.091  27.866  35.787  1.00  0.00     0.091 A 
ATOM     98  F   UNL A   1      44.954  27.141  35.016  1.00  0.00    -0.205 F 
ATOM     99  C   UNL A   1      48.161  28.769  35.692  1.00  0.00     0.022 A 
BRANCH  97 100
ATOM    100  S   UNL A   1      47.237  26.542  36.993  1.00  0.00     0.127 S 
ATOM    101  O   UNL A   1      46.076  26.788  37.848  1.00  0.00    -0.237 OA
ATOM    102  O   UNL A   1      47.134  25.346  36.156  1.00  0.00    -0.237 OA
ATOM    103  O   UNL A   1      48.535  26.722  37.630  1.00  0.00    -0.744 OA
ENDBRANCH  97 100
ENDBRANCH  70  93
ENDBRANCH  44  45
ENDBRANCH  37  39
ENDBRANCH  36  37
ENDBRANCH  35  36
ENDBRANCH  34  35
ENDBRANCH  33  34
ENDBRANCH  32  33
ENDBRANCH   1  32
TORSDOF 26
ENDMDL
MODEL 3
REMARK VINA RESULT:      -9.7      2.060      2.503
REMARK SMILES CCOc1cc(/C=C(\CC(=O)OCCOCCOCCOC(=O)c2ccc(-c3c4nc(c(-c5cccc(S(=O)(=O)[O-])c5F)c5ccc([nH]5)c(-c5cccc(S(=O)(=O)[O-])c5F)c5nc(c(-c6cccc(S(=O)(=O)[O-])c6F)c6ccc3[nH]6)C=C5)C=C4)cc2)c2nc3ccccc3o2)cc(Br)c1OC
REMARK SMILES IDX 16 1 15 2 14 3 13 4 12 5 10 6 11 7 9 8 8 9 7 10 6 11 4 12
REMARK SMILES IDX 5 13 99 14 97 15 96 16 98 17 3 18 2 19 1 20 100 21 101 22
REMARK SMILES IDX 87 23 88 24 95 25 89 26 94 27 90 28 93 29 91 30 92 31 17 32
REMARK SMILES IDX 18 33 19 34 20 35 21 36 22 37 23 38 24 39 25 40 86 41 26 42
REMARK SMILES IDX 85 43 27 44 28 45 29 46 79 47 30 48 84 49 78 50 80 51 31 52
REMARK SMILES IDX 83 53 77 54 76 55 32 57 64 58 44 59 63 60 45 61 48 62 62 63
REMARK SMILES IDX 81 64 46 65 47 66 61 68 82 69 49 70 33 71 34 72 42 73 35 74
REMARK SMILES IDX 37 75 43 76 36 77 38 78 39 79 40 80 41 81 65 82 66 83 74 84
REMARK SMILES IDX 67 85 69 86 75 87 68 88 70 89 71 90 72 91 73 92 50 93 51 94
REMARK SMILES IDX 59 95 52 96 54 97 60 98 53 99 55 100 56 101 57 102 58 103
REMARK H PARENT 80 56 48 67
REMARK Flexibility Score: inf
ROOT
ATOM      1  C   UNL A   1      36.174  31.378  29.449  1.00  0.00     0.188 C 
ENDROOT
BRANCH   1   2
ATOM      2  O   UNL A   1      37.005  30.347  28.932  1.00  0.00    -0.376 OA
BRANCH   2   3
ATOM      3  C   UNL A   1      36.517  29.541  27.877  1.00  0.00     0.202 C 
BRANCH   3   4
ATOM      4  C   UNL A   1      34.993  29.427  27.722  1.00  0.00     0.261 C 
BRANCH   4   5
ATOM      5  O   UNL A   1      34.540  28.683  26.561  1.00  0.00    -0.463 OA
BRANCH   5   6
ATOM      6  C   UNL A   1      33.534  29.258  25.851  1.00  0.00     0.310 C 
ATOM      7  O   UNL A   1      33.023  30.331  26.160  1.00  0.00    -0.252 OA
BRANCH   6   8
ATOM      8  C   UNL A   1      33.084  28.534  24.560  1.00  0.00     0.163 C 
BRANCH   8   9
ATOM      9  C   UNL A   1      31.652  28.145  24.167  1.00  0.00     0.026 C 
ATOM     10  C   UNL A   1      31.054  26.969  24.502  1.00  0.00     0.018 C 
BRANCH  10  11
ATOM     11  C   UNL A   1      31.565  25.771  25.234  1.00  0.00    -0.020 A 
ATOM     12  C   UNL A   1      33.363  24.326  26.056  1.00  0.00     0.162 A 
ATOM     13  C   UNL A   1      32.908  25.457  25.380  1.00  0.00     0.058 A 
ATOM     14  C   UNL A   1      32.481  23.418  26.649  1.00  0.00     0.174 A 
ATOM     15  C   UNL A   1      31.113  23.707  26.528  1.00  0.00     0.064 A 
ATOM     16  C   UNL A   1      30.672  24.865  25.824  1.00  0.00     0.028 A 
ATOM     17  Br  UNL A   1      29.696  22.652  27.240  1.00  0.00    -0.047 Br
BRANCH  12  18
ATOM     18  O   UNL A   1      34.712  24.048  25.996  1.00  0.00    -0.490 OA
BRANCH  18  19
ATOM     19  C   UNL A   1      35.200  23.870  24.659  1.00  0.00     0.226 C 
ATOM     20  C   UNL A   1      36.685  23.545  24.639  1.00  0.00     0.049 C 
ENDBRANCH  18  19
ENDBRANCH  12  18
BRANCH  14  21
ATOM     21  O   UNL A   1      33.146  22.405  27.271  1.00  0.00    -0.492 OA
ATOM     22  C   UNL A   1      33.356  21.146  26.677  1.00  0.00     0.278 C 
ENDBRANCH  14  21
ENDBRANCH  10  11
BRANCH   9  23
ATOM     23  C   UNL A   1      30.810  29.170  23.531  1.00  0.00     0.223 A 
ATOM     24  N   UNL A   1      30.316  30.217  24.182  1.00  0.00    -0.210 NA
ATOM     25  O   UNL A   1      30.338  29.145  22.208  1.00  0.00    -0.436 OA
ATOM     26  C   UNL A   1      29.487  30.875  23.309  1.00  0.00     0.110 A 
ATOM     27  C   UNL A   1      29.477  30.215  22.099  1.00  0.00     0.155 A 
ATOM     28  C   UNL A   1      28.695  32.025  23.459  1.00  0.00     0.032 A 
ATOM     29  C   UNL A   1      28.696  30.625  21.016  1.00  0.00     0.049 A 
ATOM     30  C   UNL A   1      27.881  32.456  22.413  1.00  0.00     0.003 A 
ATOM     31  C   UNL A   1      27.885  31.763  21.207  1.00  0.00     0.004 A 
ENDBRANCH   9  23
ENDBRANCH   8   9
ENDBRANCH   6   8
ENDBRANCH   5   6
ENDBRANCH   4   5
ENDBRANCH   3   4
ENDBRANCH   2   3
ENDBRANCH   1   2
BRANCH   1  32
ATOM     32  C   UNL A   1      36.316  32.815  28.886  1.00  0.00     0.188 C 
BRANCH  32  33
ATOM     33  O   UNL A   1      35.292  33.138  27.976  1.00  0.00    -0.376 OA
BRANCH  33  34
ATOM     34  C   UNL A   1      34.824  34.463  27.974  1.00  0.00     0.202 C 
BRANCH  34  35
ATOM     35  C   UNL A   1      33.562  34.892  28.760  1.00  0.00     0.261 C 
BRANCH  35  36
ATOM     36  O   UNL A   1      33.305  34.233  30.022  1.00  0.00    -0.460 OA
BRANCH  36  37
ATOM     37  C   UNL A   1      33.242  35.008  31.129  1.00  0.00     0.338 C 
ATOM     38  O   UNL A   1      32.449  35.928  31.280  1.00  0.00    -0.246 OA
BRANCH  37  39
ATOM     39  C   UNL A   1      34.182  34.643  32.248  1.00  0.00     0.060 A 
ATOM     40  C   UNL A   1      35.256  35.452  32.636  1.00  0.00     0.016 A 
ATOM     41  C   UNL A   1      34.222  33.298  32.621  1.00  0.00     0.016 A 
ATOM     42  C   UNL A   1      36.412  34.894  33.224  1.00  0.00     0.010 A 
ATOM     43  C   UNL A   1      35.341  32.758  33.285  1.00  0.00     0.010 A 
ATOM     44  C   UNL A   1      36.483  33.531  33.547  1.00  0.00    -0.014 A 
BRANCH  44  45
ATOM     45  C   UNL A   1      37.697  32.923  34.190  1.00  0.00     0.031 A 
ATOM     46  C   UNL A   1      38.013  33.097  35.666  1.00  0.00     0.074 A 
ATOM     47  C   UNL A   1      38.584  32.245  33.431  1.00  0.00     0.049 A 
ATOM     48  N   UNL A   1      39.114  32.810  36.320  1.00  0.00    -0.248 NA
ATOM     49  C   UNL A   1      36.954  33.661  36.517  1.00  0.00     0.031 C 
ATOM     50  C   UNL A   1      38.431  31.959  32.006  1.00  0.00     0.029 A 
ATOM     51  N   UNL A   1      39.815  31.710  33.746  1.00  0.00    -0.354 N 
ATOM     52  C   UNL A   1      38.910  33.207  37.640  1.00  0.00     0.074 A 
ATOM     53  C   UNL A   1      37.559  33.737  37.698  1.00  0.00     0.031 C 
ATOM     54  C   UNL A   1      39.525  31.326  31.563  1.00  0.00     0.029 A 
ATOM     55  C   UNL A   1      40.495  31.234  32.648  1.00  0.00     0.049 A 
ATOM     56  H   UNL A   1      40.172  31.674  34.663  1.00  0.00     0.167 HD
ATOM     57  C   UNL A   1      39.757  33.144  38.702  1.00  0.00     0.034 A 
ATOM     58  C   UNL A   1      41.769  30.825  32.493  1.00  0.00     0.034 A 
ATOM     59  C   UNL A   1      41.092  32.587  38.662  1.00  0.00     0.049 A 
ATOM     60  C   UNL A   1      42.703  30.804  33.668  1.00  0.00     0.074 A 
ATOM     61  C   UNL A   1      41.998  32.450  39.704  1.00  0.00     0.029 A 
ATOM     62  N   UNL A   1      41.721  32.086  37.533  1.00  0.00    -0.354 N 
ATOM     63  N   UNL A   1      42.472  31.139  34.912  1.00  0.00    -0.248 NA
ATOM     64  C   UNL A   1      44.068  30.319  33.418  1.00  0.00     0.031 C 
ATOM     65  C   UNL A   1      43.185  31.907  39.198  1.00  0.00     0.029 A 
ATOM     66  C   UNL A   1      43.004  31.655  37.849  1.00  0.00     0.049 A 
ATOM     67  H   UNL A   1      41.317  32.040  36.637  1.00  0.00     0.167 HD
ATOM     68  C   UNL A   1      43.649  30.872  35.601  1.00  0.00     0.074 A 
ATOM     69  C   UNL A   1      44.581  30.323  34.639  1.00  0.00     0.031 C 
ATOM     70  C   UNL A   1      43.930  31.074  36.912  1.00  0.00     0.034 A 
BRANCH  57  71
ATOM     71  C   UNL A   1      39.289  33.688  40.036  1.00  0.00     0.023 A 
ATOM     72  C   UNL A   1      39.501  35.043  40.361  1.00  0.00     0.012 A 
ATOM     73  C   UNL A   1      38.527  32.885  40.914  1.00  0.00     0.148 A 
ATOM     74  C   UNL A   1      38.991  35.581  41.544  1.00  0.00     0.002 A 
ATOM     75  C   UNL A   1      37.986  33.439  42.070  1.00  0.00     0.091 A 
ATOM     76  F   UNL A   1      38.335  31.597  40.595  1.00  0.00    -0.205 F 
ATOM     77  C   UNL A   1      38.226  34.784  42.392  1.00  0.00     0.022 A 
BRANCH  75  78
ATOM     78  S   UNL A   1      36.913  32.521  43.184  1.00  0.00     0.127 S 
ATOM     79  O   UNL A   1      36.245  33.599  43.906  1.00  0.00    -0.237 OA
ATOM     80  O   UNL A   1      36.059  31.783  42.256  1.00  0.00    -0.237 OA
ATOM     81  O   UNL A   1      37.797  31.683  43.991  1.00  0.00    -0.744 OA
ENDBRANCH  75  78
ENDBRANCH  57  71
BRANCH  58  82
ATOM     82  C   UNL A   1      42.239  30.402  31.143  1.00  0.00     0.023 A 
ATOM     83  C   UNL A   1      42.802  31.353  30.273  1.00  0.00     0.012 A 
ATOM     84  C   UNL A   1      42.172  29.053  30.742  1.00  0.00     0.148 A 
ATOM     85  C   UNL A   1      43.271  30.971  29.016  1.00  0.00     0.002 A 
ATOM     86  C   UNL A   1      42.704  28.670  29.519  1.00  0.00     0.091 A 
ATOM     87  F   UNL A   1      41.611  28.168  31.579  1.00  0.00    -0.205 F 
ATOM     88  C   UNL A   1      43.238  29.629  28.646  1.00  0.00     0.022 A 
BRANCH  86  89
ATOM     89  S   UNL A   1      42.845  26.946  29.033  1.00  0.00     0.127 S 
ATOM     90  O   UNL A   1      43.624  26.389  30.136  1.00  0.00    -0.237 OA
ATOM     91  O   UNL A   1      41.442  26.530  28.996  1.00  0.00    -0.237 OA
ATOM     92  O   UNL A   1      43.502  26.955  27.734  1.00  0.00    -0.744 OA
ENDBRANCH  86  89
ENDBRANCH  58  82
BRANCH  70  93
ATOM     93  C   UNL A   1      45.294  30.647  37.401  1.00  0.00     0.023 A 
ATOM     94  C   UNL A   1      46.364  31.564  37.413  1.00  0.00     0.012 A 
ATOM     95  C   UNL A   1      45.519  29.328  37.846  1.00  0.00     0.148 A 
ATOM     96  C   UNL A   1      47.644  31.163  37.800  1.00  0.00     0.002 A 
ATOM     97  C   UNL A   1      46.785  28.949  38.281  1.00  0.00     0.091 A 
ATOM     98  F   UNL A   1      44.499  28.457  37.811  1.00  0.00    -0.205 F 
ATOM     99  C   UNL A   1      47.852  29.859  38.241  1.00  0.00     0.022 A 
BRANCH  97 100
ATOM    100  S   UNL A   1      47.122  27.315  38.948  1.00  0.00     0.127 S 
ATOM    101  O   UNL A   1      48.583  27.293  38.960  1.00  0.00    -0.237 OA
ATOM    102  O   UNL A   1      46.503  27.385  40.272  1.00  0.00    -0.237 OA
ATOM    103  O   UNL A   1      46.487  26.372  38.036  1.00  0.00    -0.744 OA
ENDBRANCH  97 100
ENDBRANCH  70  93
ENDBRANCH  44  45
ENDBRANCH  37  39
ENDBRANCH  36  37
ENDBRANCH  35  36
ENDBRANCH  34  35
ENDBRANCH  33  34
ENDBRANCH  32  33
ENDBRANCH   1  32
TORSDOF 26
ENDMDL
