MODEL 1
REMARK VINA RESULT:     -10.1      0.000      0.000
REMARK SMILES CC(C)(C)c1cc(NC(=O)CSC[C@H]([NH3+])C(=O)OCCOCCOCCOC(=O)c2ccc(-c3c4nc(c(-c5cccc(S(=O)(=O)[O-])c5F)c5ccc([nH]5)c(-c5cccc(S(=O)(=O)[O-])c5F)c5nc(c(-c6cccc(S(=O)(=O)[O-])c6F)c6ccc3[nH]6)C=C5)C=C4)cc2)on1
REMARK SMILES IDX 21 1 20 2 19 3 18 4 16 5 17 6 14 7 13 8 12 9 11 10 9 11 8 12
REMARK SMILES IDX 10 14 7 15 5 16 6 17 94 18 93 19 2 20 1 21 3 22 4 23 15 24
REMARK SMILES IDX 22 28 23 29 24 30 25 31 26 32 27 33 28 34 29 35 30 36 31 37
REMARK SMILES IDX 92 38 32 39 91 40 33 41 34 42 35 43 85 44 36 45 90 46 84 47
REMARK SMILES IDX 86 48 37 49 89 50 83 51 82 52 38 54 70 55 50 56 69 57 51 58
REMARK SMILES IDX 54 59 68 60 87 61 52 62 53 63 67 65 88 66 55 67 39 68 40 69
REMARK SMILES IDX 48 70 41 71 43 72 49 73 42 74 44 75 45 76 46 77 47 78 71 79
REMARK SMILES IDX 72 80 80 81 73 82 75 83 81 84 74 85 76 86 77 87 78 88 79 89
REMARK SMILES IDX 56 90 57 91 65 92 58 93 60 94 66 95 59 96 61 97 62 98 63 99
REMARK SMILES IDX 64 100
REMARK H PARENT 8 13 15 25 15 26 15 27 86 53 54 64
REMARK Flexibility Score: inf
ROOT
ATOM      1  O   UNL A   1      34.394  24.063  26.116  1.00  0.00    -0.376 OA
ENDROOT
BRANCH   1   2
ATOM      2  C   UNL A   1      35.274  23.256  25.367  1.00  0.00     0.202 C 
BRANCH   2   3
ATOM      3  C   UNL A   1      34.854  21.991  24.597  1.00  0.00     0.261 C 
BRANCH   3   4
ATOM      4  O   UNL A   1      33.736  21.192  25.004  1.00  0.00    -0.459 OA
BRANCH   4   5
ATOM      5  C   UNL A   1      32.582  21.407  24.314  1.00  0.00     0.365 C 
ATOM      6  O   UNL A   1      32.432  21.096  23.139  1.00  0.00    -0.245 OA
BRANCH   5   7
ATOM      7  C   UNL A   1      31.474  22.079  25.138  1.00  0.00     0.301 C 
BRANCH   7   8
ATOM      8  C   UNL A   1      31.025  23.371  24.454  1.00  0.00     0.147 C 
BRANCH   8   9
ATOM      9  S   UNL A   1      32.150  23.973  23.142  1.00  0.00    -0.145 SA
BRANCH   9  10
ATOM     10  C   UNL A   1      31.619  25.721  22.861  1.00  0.00     0.170 C 
BRANCH  10  11
ATOM     11  C   UNL A   1      32.677  26.610  22.218  1.00  0.00     0.236 C 
ATOM     12  N   UNL A   1      32.613  27.967  22.230  1.00  0.00    -0.294 N 
ATOM     13  H   UNL A   1      33.421  28.455  21.952  1.00  0.00     0.173 HD
ATOM     14  O   UNL A   1      33.670  26.147  21.649  1.00  0.00    -0.274 OA
BRANCH  12  15
ATOM     15  C   UNL A   1      31.537  28.712  22.590  1.00  0.00     0.231 A 
ATOM     16  C   UNL A   1      29.639  29.780  22.811  1.00  0.00     0.091 A 
ATOM     17  C   UNL A   1      30.470  29.146  21.854  1.00  0.00     0.097 A 
ATOM     18  N   UNL A   1      30.198  29.762  24.023  1.00  0.00    -0.082 NA
ATOM     19  O   UNL A   1      31.370  29.081  23.877  1.00  0.00    -0.338 OA
BRANCH  16  20
ATOM     20  C   UNL A   1      28.264  30.349  22.626  1.00  0.00     0.008 C 
ATOM     21  C   UNL A   1      27.208  29.315  23.050  1.00  0.00     0.018 C 
ATOM     22  C   UNL A   1      28.008  30.734  21.152  1.00  0.00     0.018 C 
ATOM     23  C   UNL A   1      28.143  31.617  23.491  1.00  0.00     0.018 C 
ENDBRANCH  16  20
ENDBRANCH  12  15
ENDBRANCH  10  11
ENDBRANCH   9  10
ENDBRANCH   8   9
ENDBRANCH   7   8
BRANCH   7  24
ATOM     24  N   UNL A   1      31.879  22.326  26.546  1.00  0.00    -0.345 N 
ATOM     25  H   UNL A   1      31.049  22.342  27.140  1.00  0.00     0.345 HD
ATOM     26  H   UNL A   1      32.360  23.223  26.609  1.00  0.00     0.345 HD
ATOM     27  H   UNL A   1      32.505  21.582  26.855  1.00  0.00     0.345 HD
ENDBRANCH   7  24
ENDBRANCH   5   7
ENDBRANCH   4   5
ENDBRANCH   3   4
ENDBRANCH   2   3
ENDBRANCH   1   2
BRANCH   1  28
ATOM     28  C   UNL A   1      34.160  25.384  25.690  1.00  0.00     0.188 C 
BRANCH  28  29
ATOM     29  C   UNL A   1      32.921  26.005  26.364  1.00  0.00     0.188 C 
BRANCH  29  30
ATOM     30  O   UNL A   1      32.634  27.383  26.168  1.00  0.00    -0.376 OA
BRANCH  30  31
ATOM     31  C   UNL A   1      31.960  28.075  27.210  1.00  0.00     0.202 C 
BRANCH  31  32
ATOM     32  C   UNL A   1      31.918  29.623  27.267  1.00  0.00     0.261 C 
BRANCH  32  33
ATOM     33  O   UNL A   1      32.943  30.354  26.567  1.00  0.00    -0.460 OA
BRANCH  33  34
ATOM     34  C   UNL A   1      33.455  31.448  27.196  1.00  0.00     0.338 C 
ATOM     35  O   UNL A   1      32.866  32.479  27.450  1.00  0.00    -0.246 OA
BRANCH  34  36
ATOM     36  C   UNL A   1      34.797  31.114  27.753  1.00  0.00     0.060 A 
ATOM     37  C   UNL A   1      35.123  29.764  27.981  1.00  0.00     0.016 A 
ATOM     38  C   UNL A   1      35.729  32.109  28.041  1.00  0.00     0.016 A 
ATOM     39  C   UNL A   1      36.371  29.406  28.497  1.00  0.00     0.010 A 
ATOM     40  C   UNL A   1      36.963  31.752  28.604  1.00  0.00     0.010 A 
ATOM     41  C   UNL A   1      37.282  30.403  28.858  1.00  0.00    -0.014 A 
BRANCH  41  42
ATOM     42  C   UNL A   1      38.468  30.067  29.688  1.00  0.00     0.031 A 
ATOM     43  C   UNL A   1      39.498  29.137  29.105  1.00  0.00     0.074 A 
ATOM     44  C   UNL A   1      38.623  30.541  30.937  1.00  0.00     0.049 A 
ATOM     45  N   UNL A   1      40.557  28.612  29.663  1.00  0.00    -0.248 NA
ATOM     46  C   UNL A   1      39.299  28.741  27.700  1.00  0.00     0.031 C 
ATOM     47  C   UNL A   1      37.727  31.480  31.607  1.00  0.00     0.029 A 
ATOM     48  N   UNL A   1      39.586  30.264  31.877  1.00  0.00    -0.354 N 
ATOM     49  C   UNL A   1      41.121  27.785  28.700  1.00  0.00     0.074 A 
ATOM     50  C   UNL A   1      40.292  27.884  27.519  1.00  0.00     0.031 C 
ATOM     51  C   UNL A   1      38.162  31.674  32.865  1.00  0.00     0.029 A 
ATOM     52  C   UNL A   1      39.345  30.847  33.100  1.00  0.00     0.049 A 
ATOM     53  H   UNL A   1      40.374  29.703  31.694  1.00  0.00     0.167 HD
ATOM     54  C   UNL A   1      42.227  27.010  28.789  1.00  0.00     0.034 A 
ATOM     55  C   UNL A   1      39.986  30.703  34.279  1.00  0.00     0.034 A 
ATOM     56  C   UNL A   1      43.060  26.923  29.957  1.00  0.00     0.049 A 
ATOM     57  C   UNL A   1      41.188  29.792  34.366  1.00  0.00     0.074 A 
ATOM     58  C   UNL A   1      44.237  26.214  30.120  1.00  0.00     0.029 A 
ATOM     59  N   UNL A   1      42.794  27.542  31.168  1.00  0.00    -0.354 N 
ATOM     60  N   UNL A   1      41.776  29.103  33.417  1.00  0.00    -0.248 NA
ATOM     61  C   UNL A   1      41.828  29.659  35.684  1.00  0.00     0.031 C 
ATOM     62  C   UNL A   1      44.656  26.364  31.446  1.00  0.00     0.029 A 
ATOM     63  C   UNL A   1      43.768  27.207  32.093  1.00  0.00     0.049 A 
ATOM     64  H   UNL A   1      42.027  28.133  31.343  1.00  0.00     0.167 HD
ATOM     65  C   UNL A   1      42.876  28.491  34.013  1.00  0.00     0.074 A 
ATOM     66  C   UNL A   1      42.880  28.901  35.402  1.00  0.00     0.031 C 
ATOM     67  C   UNL A   1      43.794  27.658  33.462  1.00  0.00     0.034 A 
BRANCH  54  68
ATOM     68  C   UNL A   1      42.595  26.179  27.587  1.00  0.00     0.023 A 
ATOM     69  C   UNL A   1      43.395  26.728  26.564  1.00  0.00     0.012 A 
ATOM     70  C   UNL A   1      42.181  24.835  27.495  1.00  0.00     0.148 A 
ATOM     71  C   UNL A   1      43.744  25.966  25.450  1.00  0.00     0.002 A 
ATOM     72  C   UNL A   1      42.574  24.067  26.406  1.00  0.00     0.091 A 
ATOM     73  F   UNL A   1      41.402  24.339  28.467  1.00  0.00    -0.205 F 
ATOM     74  C   UNL A   1      43.343  24.633  25.377  1.00  0.00     0.022 A 
BRANCH  72  75
ATOM     75  S   UNL A   1      42.179  22.321  26.263  1.00  0.00     0.127 S 
ATOM     76  O   UNL A   1      40.723  22.359  26.126  1.00  0.00    -0.237 OA
ATOM     77  O   UNL A   1      42.896  21.943  25.046  1.00  0.00    -0.237 OA
ATOM     78  O   UNL A   1      42.676  21.694  27.479  1.00  0.00    -0.744 OA
ENDBRANCH  72  75
ENDBRANCH  54  68
BRANCH  55  79
ATOM     79  C   UNL A   1      39.526  31.457  35.482  1.00  0.00     0.023 A 
ATOM     80  C   UNL A   1      38.417  30.983  36.211  1.00  0.00     0.012 A 
ATOM     81  C   UNL A   1      40.171  32.637  35.904  1.00  0.00     0.148 A 
ATOM     82  C   UNL A   1      37.941  31.684  37.319  1.00  0.00     0.002 A 
ATOM     83  C   UNL A   1      39.724  33.301  37.042  1.00  0.00     0.091 A 
ATOM     84  F   UNL A   1      41.212  33.083  35.187  1.00  0.00    -0.205 F 
ATOM     85  C   UNL A   1      38.599  32.836  37.740  1.00  0.00     0.022 A 
BRANCH  83  86
ATOM     86  S   UNL A   1      40.568  34.732  37.724  1.00  0.00     0.127 S 
ATOM     87  O   UNL A   1      40.408  35.713  36.653  1.00  0.00    -0.237 OA
ATOM     88  O   UNL A   1      39.778  34.999  38.927  1.00  0.00    -0.237 OA
ATOM     89  O   UNL A   1      41.935  34.302  37.982  1.00  0.00    -0.744 OA
ENDBRANCH  83  86
ENDBRANCH  55  79
BRANCH  67  90
ATOM     90  C   UNL A   1      44.918  27.160  34.337  1.00  0.00     0.023 A 
ATOM     91  C   UNL A   1      46.122  27.888  34.425  1.00  0.00     0.012 A 
ATOM     92  C   UNL A   1      44.745  26.016  35.142  1.00  0.00     0.148 A 
ATOM     93  C   UNL A   1      47.145  27.467  35.274  1.00  0.00     0.002 A 
ATOM     94  C   UNL A   1      45.749  25.632  36.024  1.00  0.00     0.091 A 
ATOM     95  F   UNL A   1      43.599  25.328  35.037  1.00  0.00    -0.205 F 
ATOM     96  C   UNL A   1      46.954  26.348  36.082  1.00  0.00     0.022 A 
BRANCH  94  97
ATOM     97  S   UNL A   1      45.555  24.267  37.176  1.00  0.00     0.127 S 
ATOM     98  O   UNL A   1      45.111  23.190  36.291  1.00  0.00    -0.237 OA
ATOM     99  O   UNL A   1      46.912  24.106  37.697  1.00  0.00    -0.237 OA
ATOM    100  O   UNL A   1      44.575  24.704  38.161  1.00  0.00    -0.744 OA
ENDBRANCH  94  97
ENDBRANCH  67  90
ENDBRANCH  41  42
ENDBRANCH  34  36
ENDBRANCH  33  34
ENDBRANCH  32  33
ENDBRANCH  31  32
ENDBRANCH  30  31
ENDBRANCH  29  30
ENDBRANCH  28  29
ENDBRANCH   1  28
TORSDOF 27
ENDMDL
MODEL 2
REMARK VINA RESULT:      -9.3      1.991      7.674
REMARK SMILES CC(C)(C)c1cc(NC(=O)CSC[C@H]([NH3+])C(=O)OCCOCCOCCOC(=O)c2ccc(-c3c4nc(c(-c5cccc(S(=O)(=O)[O-])c5F)c5ccc([nH]5)c(-c5cccc(S(=O)(=O)[O-])c5F)c5nc(c(-c6cccc(S(=O)(=O)[O-])c6F)c6ccc3[nH]6)C=C5)C=C4)cc2)on1
REMARK SMILES IDX 21 1 20 2 19 3 18 4 16 5 17 6 14 7 13 8 12 9 11 10 9 11 8 12
REMARK SMILES IDX 10 14 7 15 5 16 6 17 94 18 93 19 2 20 1 21 3 22 4 23 15 24
REMARK SMILES IDX 22 28 23 29 24 30 25 31 26 32 27 33 28 34 29 35 30 36 31 37
REMARK SMILES IDX 92 38 32 39 91 40 33 41 34 42 35 43 85 44 36 45 90 46 84 47
REMARK SMILES IDX 86 48 37 49 89 50 83 51 82 52 38 54 70 55 50 56 69 57 51 58
REMARK SMILES IDX 54 59 68 60 87 61 52 62 53 63 67 65 88 66 55 67 39 68 40 69
REMARK SMILES IDX 48 70 41 71 43 72 49 73 42 74 44 75 45 76 46 77 47 78 71 79
REMARK SMILES IDX 72 80 80 81 73 82 75 83 81 84 74 85 76 86 77 87 78 88 79 89
REMARK SMILES IDX 56 90 57 91 65 92 58 93 60 94 66 95 59 96 61 97 62 98 63 99
REMARK SMILES IDX 64 100
REMARK H PARENT 8 13 15 25 15 26 15 27 86 53 54 64
REMARK Flexibility Score: inf
ROOT
ATOM      1  O   UNL A   1      34.126  24.138  26.095  1.00  0.00    -0.376 OA
ENDROOT
BRANCH   1   2
ATOM      2  C   UNL A   1      35.026  23.190  25.568  1.00  0.00     0.202 C 
BRANCH   2   3
ATOM      3  C   UNL A   1      34.612  21.977  24.715  1.00  0.00     0.261 C 
BRANCH   3   4
ATOM      4  O   UNL A   1      33.418  21.231  24.986  1.00  0.00    -0.459 OA
BRANCH   4   5
ATOM      5  C   UNL A   1      32.396  21.425  24.107  1.00  0.00     0.365 C 
ATOM      6  O   UNL A   1      32.397  20.986  22.964  1.00  0.00    -0.245 OA
BRANCH   5   7
ATOM      7  C   UNL A   1      31.229  22.249  24.674  1.00  0.00     0.301 C 
BRANCH   7   8
ATOM      8  C   UNL A   1      30.861  23.370  23.700  1.00  0.00     0.147 C 
BRANCH   8   9
ATOM      9  S   UNL A   1      32.288  24.170  22.878  1.00  0.00    -0.145 SA
BRANCH   9  10
ATOM     10  C   UNL A   1      31.721  25.904  22.580  1.00  0.00     0.170 C 
BRANCH  10  11
ATOM     11  C   UNL A   1      32.837  26.886  22.243  1.00  0.00     0.236 C 
ATOM     12  N   UNL A   1      32.731  28.226  22.445  1.00  0.00    -0.294 N 
ATOM     13  H   UNL A   1      33.557  28.756  22.368  1.00  0.00     0.173 HD
ATOM     14  O   UNL A   1      33.916  26.521  21.768  1.00  0.00    -0.274 OA
BRANCH  12  15
ATOM     15  C   UNL A   1      31.592  28.901  22.745  1.00  0.00     0.231 A 
ATOM     16  C   UNL A   1      29.606  29.811  22.882  1.00  0.00     0.091 A 
ATOM     17  C   UNL A   1      30.493  29.172  21.980  1.00  0.00     0.097 A 
ATOM     18  N   UNL A   1      30.162  29.948  24.088  1.00  0.00    -0.082 NA
ATOM     19  O   UNL A   1      31.390  29.363  23.997  1.00  0.00    -0.338 OA
BRANCH  16  20
ATOM     20  C   UNL A   1      28.187  30.238  22.656  1.00  0.00     0.008 C 
ATOM     21  C   UNL A   1      27.236  29.061  22.931  1.00  0.00     0.018 C 
ATOM     22  C   UNL A   1      27.968  30.714  21.203  1.00  0.00     0.018 C 
ATOM     23  C   UNL A   1      27.873  31.407  23.607  1.00  0.00     0.018 C 
ENDBRANCH  16  20
ENDBRANCH  12  15
ENDBRANCH  10  11
ENDBRANCH   9  10
ENDBRANCH   8   9
ENDBRANCH   7   8
BRANCH   7  24
ATOM     24  N   UNL A   1      31.514  22.784  26.030  1.00  0.00    -0.345 N 
ATOM     25  H   UNL A   1      32.383  22.380  26.379  1.00  0.00     0.345 HD
ATOM     26  H   UNL A   1      30.749  22.541  26.658  1.00  0.00     0.345 HD
ATOM     27  H   UNL A   1      31.606  23.799  25.983  1.00  0.00     0.345 HD
ENDBRANCH   7  24
ENDBRANCH   5   7
ENDBRANCH   4   5
ENDBRANCH   3   4
ENDBRANCH   2   3
ENDBRANCH   1   2
BRANCH   1  28
ATOM     28  C   UNL A   1      34.014  25.389  25.459  1.00  0.00     0.188 C 
BRANCH  28  29
ATOM     29  C   UNL A   1      32.955  26.290  26.123  1.00  0.00     0.188 C 
BRANCH  29  30
ATOM     30  O   UNL A   1      33.086  27.703  26.040  1.00  0.00    -0.376 OA
BRANCH  30  31
ATOM     31  C   UNL A   1      32.501  28.485  27.071  1.00  0.00     0.202 C 
BRANCH  31  32
ATOM     32  C   UNL A   1      32.966  29.934  27.360  1.00  0.00     0.261 C 
BRANCH  32  33
ATOM     33  O   UNL A   1      34.351  30.260  27.128  1.00  0.00    -0.460 OA
BRANCH  33  34
ATOM     34  C   UNL A   1      34.883  31.256  27.888  1.00  0.00     0.338 C 
ATOM     35  O   UNL A   1      34.360  32.318  28.158  1.00  0.00    -0.246 OA
BRANCH  34  36
ATOM     36  C   UNL A   1      36.122  30.761  28.554  1.00  0.00     0.060 A 
ATOM     37  C   UNL A   1      37.334  31.439  28.327  1.00  0.00     0.016 A 
ATOM     38  C   UNL A   1      36.097  29.652  29.396  1.00  0.00     0.016 A 
ATOM     39  C   UNL A   1      38.517  31.013  28.935  1.00  0.00     0.010 A 
ATOM     40  C   UNL A   1      37.293  29.196  29.968  1.00  0.00     0.010 A 
ATOM     41  C   UNL A   1      38.513  29.857  29.722  1.00  0.00    -0.014 A 
BRANCH  41  42
ATOM     42  C   UNL A   1      39.795  29.216  30.114  1.00  0.00     0.031 A 
ATOM     43  C   UNL A   1      40.588  29.843  31.229  1.00  0.00     0.074 A 
ATOM     44  C   UNL A   1      40.269  28.125  29.485  1.00  0.00     0.049 A 
ATOM     45  N   UNL A   1      41.776  29.537  31.679  1.00  0.00    -0.248 NA
ATOM     46  C   UNL A   1      39.953  30.975  31.924  1.00  0.00     0.031 C 
ATOM     47  C   UNL A   1      39.586  27.394  28.421  1.00  0.00     0.029 A 
ATOM     48  N   UNL A   1      41.463  27.462  29.638  1.00  0.00    -0.354 N 
ATOM     49  C   UNL A   1      42.054  30.468  32.672  1.00  0.00     0.074 A 
ATOM     50  C   UNL A   1      40.907  31.344  32.765  1.00  0.00     0.031 C 
ATOM     51  C   UNL A   1      40.388  26.404  27.989  1.00  0.00     0.029 A 
ATOM     52  C   UNL A   1      41.653  26.453  28.721  1.00  0.00     0.049 A 
ATOM     53  H   UNL A   1      42.120  27.688  30.335  1.00  0.00     0.167 HD
ATOM     54  C   UNL A   1      43.164  30.587  33.438  1.00  0.00     0.034 A 
ATOM     55  C   UNL A   1      42.735  25.684  28.481  1.00  0.00     0.034 A 
ATOM     56  C   UNL A   1      44.298  29.707  33.358  1.00  0.00     0.049 A 
ATOM     57  C   UNL A   1      43.981  25.869  29.315  1.00  0.00     0.074 A 
ATOM     58  C   UNL A   1      45.442  29.710  34.136  1.00  0.00     0.029 A 
ATOM     59  N   UNL A   1      44.446  28.687  32.432  1.00  0.00    -0.354 N 
ATOM     60  N   UNL A   1      44.188  26.679  30.325  1.00  0.00    -0.248 NA
ATOM     61  C   UNL A   1      45.134  25.016  28.988  1.00  0.00     0.031 C 
ATOM     62  C   UNL A   1      46.303  28.722  33.647  1.00  0.00     0.029 A 
ATOM     63  C   UNL A   1      45.675  28.072  32.598  1.00  0.00     0.049 A 
ATOM     64  H   UNL A   1      43.775  28.436  31.756  1.00  0.00     0.167 HD
ATOM     65  C   UNL A   1      45.476  26.404  30.780  1.00  0.00     0.074 A 
ATOM     66  C   UNL A   1      45.995  25.343  29.943  1.00  0.00     0.031 C 
ATOM     67  C   UNL A   1      46.167  26.983  31.793  1.00  0.00     0.034 A 
BRANCH  54  68
ATOM     68  C   UNL A   1      43.212  31.723  34.426  1.00  0.00     0.023 A 
ATOM     69  C   UNL A   1      43.629  33.004  34.014  1.00  0.00     0.012 A 
ATOM     70  C   UNL A   1      42.799  31.526  35.759  1.00  0.00     0.148 A 
ATOM     71  C   UNL A   1      43.673  34.062  34.921  1.00  0.00     0.002 A 
ATOM     72  C   UNL A   1      42.797  32.597  36.645  1.00  0.00     0.091 A 
ATOM     73  F   UNL A   1      42.428  30.295  36.138  1.00  0.00    -0.205 F 
ATOM     74  C   UNL A   1      43.246  33.861  36.232  1.00  0.00     0.022 A 
BRANCH  72  75
ATOM     75  S   UNL A   1      42.189  32.457  38.328  1.00  0.00     0.127 S 
ATOM     76  O   UNL A   1      42.644  33.718  38.913  1.00  0.00    -0.237 OA
ATOM     77  O   UNL A   1      40.742  32.366  38.125  1.00  0.00    -0.237 OA
ATOM     78  O   UNL A   1      42.800  31.256  38.879  1.00  0.00    -0.744 OA
ENDBRANCH  72  75
ENDBRANCH  54  68
BRANCH  55  79
ATOM     79  C   UNL A   1      42.693  24.639  27.416  1.00  0.00     0.023 A 
ATOM     80  C   UNL A   1      43.235  24.925  26.147  1.00  0.00     0.012 A 
ATOM     81  C   UNL A   1      42.118  23.373  27.646  1.00  0.00     0.148 A 
ATOM     82  C   UNL A   1      43.180  23.983  25.120  1.00  0.00     0.002 A 
ATOM     83  C   UNL A   1      42.114  22.419  26.634  1.00  0.00     0.091 A 
ATOM     84  F   UNL A   1      41.590  23.125  28.853  1.00  0.00    -0.205 F 
ATOM     85  C   UNL A   1      42.629  22.728  25.365  1.00  0.00     0.022 A 
BRANCH  83  86
ATOM     86  S   UNL A   1      41.524  20.742  26.883  1.00  0.00     0.127 S 
ATOM     87  O   UNL A   1      40.128  20.966  27.248  1.00  0.00    -0.237 OA
ATOM     88  O   UNL A   1      41.728  20.153  25.559  1.00  0.00    -0.237 OA
ATOM     89  O   UNL A   1      42.364  20.177  27.932  1.00  0.00    -0.744 OA
ENDBRANCH  83  86
ENDBRANCH  55  79
BRANCH  67  90
ATOM     90  C   UNL A   1      47.550  26.461  32.099  1.00  0.00     0.023 A 
ATOM     91  C   UNL A   1      48.680  27.069  31.519  1.00  0.00     0.012 A 
ATOM     92  C   UNL A   1      47.731  25.421  33.035  1.00  0.00     0.148 A 
ATOM     93  C   UNL A   1      49.965  26.630  31.840  1.00  0.00     0.002 A 
ATOM     94  C   UNL A   1      49.015  25.025  33.389  1.00  0.00     0.091 A 
ATOM     95  F   UNL A   1      46.644  24.845  33.568  1.00  0.00    -0.205 F 
ATOM     96  C   UNL A   1      50.133  25.619  32.783  1.00  0.00     0.022 A 
BRANCH  94  97
ATOM     97  S   UNL A   1      49.333  23.802  34.666  1.00  0.00     0.127 S 
ATOM     98  O   UNL A   1      50.720  23.431  34.385  1.00  0.00    -0.237 OA
ATOM     99  O   UNL A   1      49.147  24.579  35.892  1.00  0.00    -0.237 OA
ATOM    100  O   UNL A   1      48.354  22.742  34.465  1.00  0.00    -0.744 OA
ENDBRANCH  94  97
ENDBRANCH  67  90
ENDBRANCH  41  42
ENDBRANCH  34  36
ENDBRANCH  33  34
ENDBRANCH  32  33
ENDBRANCH  31  32
ENDBRANCH  30  31
ENDBRANCH  29  30
ENDBRANCH  28  29
ENDBRANCH   1  28
TORSDOF 27
ENDMDL
MODEL 3
REMARK VINA RESULT:      -9.0      2.376      2.889
REMARK SMILES CC(C)(C)c1cc(NC(=O)CSC[C@H]([NH3+])C(=O)OCCOCCOCCOC(=O)c2ccc(-c3c4nc(c(-c5cccc(S(=O)(=O)[O-])c5F)c5ccc([nH]5)c(-c5cccc(S(=O)(=O)[O-])c5F)c5nc(c(-c6cccc(S(=O)(=O)[O-])c6F)c6ccc3[nH]6)C=C5)C=C4)cc2)on1
REMARK SMILES IDX 21 1 20 2 19 3 18 4 16 5 17 6 14 7 13 8 12 9 11 10 9 11 8 12
REMARK SMILES IDX 10 14 7 15 5 16 6 17 94 18 93 19 2 20 1 21 3 22 4 23 15 24
REMARK SMILES IDX 22 28 23 29 24 30 25 31 26 32 27 33 28 34 29 35 30 36 31 37
REMARK SMILES IDX 92 38 32 39 91 40 33 41 34 42 35 43 85 44 36 45 90 46 84 47
REMARK SMILES IDX 86 48 37 49 89 50 83 51 82 52 38 54 70 55 50 56 69 57 51 58
REMARK SMILES IDX 54 59 68 60 87 61 52 62 53 63 67 65 88 66 55 67 39 68 40 69
REMARK SMILES IDX 48 70 41 71 43 72 49 73 42 74 44 75 45 76 46 77 47 78 71 79
REMARK SMILES IDX 72 80 80 81 73 82 75 83 81 84 74 85 76 86 77 87 78 88 79 89
REMARK SMILES IDX 56 90 57 91 65 92 58 93 60 94 66 95 59 96 61 97 62 98 63 99
REMARK SMILES IDX 64 100
REMARK H PARENT 8 13 15 25 15 26 15 27 86 53 54 64
REMARK Flexibility Score: inf
ROOT
ATOM      1  O   UNL A   1      34.631  24.535  26.345  1.00  0.00    -0.376 OA
ENDROOT
BRANCH   1   2
ATOM      2  C   UNL A   1      35.090  23.242  26.020  1.00  0.00     0.202 C 
BRANCH   2   3
ATOM      3  C   UNL A   1      34.199  21.988  25.976  1.00  0.00     0.261 C 
BRANCH   3   4
ATOM      4  O   UNL A   1      32.845  22.002  26.448  1.00  0.00    -0.459 OA
BRANCH   4   5
ATOM      5  C   UNL A   1      31.895  21.749  25.507  1.00  0.00     0.365 C 
ATOM      6  O   UNL A   1      31.800  20.682  24.913  1.00  0.00    -0.245 OA
BRANCH   5   7
ATOM      7  C   UNL A   1      30.941  22.926  25.247  1.00  0.00     0.301 C 
BRANCH   7   8
ATOM      8  C   UNL A   1      30.848  23.199  23.745  1.00  0.00     0.147 C 
BRANCH   8   9
ATOM      9  S   UNL A   1      32.312  24.028  23.025  1.00  0.00    -0.145 SA
BRANCH   9  10
ATOM     10  C   UNL A   1      31.720  25.736  22.641  1.00  0.00     0.170 C 
BRANCH  10  11
ATOM     11  C   UNL A   1      32.811  26.698  22.186  1.00  0.00     0.236 C 
ATOM     12  N   UNL A   1      32.719  28.046  22.333  1.00  0.00    -0.294 N 
ATOM     13  H   UNL A   1      33.538  28.569  22.177  1.00  0.00     0.173 HD
ATOM     14  O   UNL A   1      33.855  26.309  21.658  1.00  0.00    -0.274 OA
BRANCH  12  15
ATOM     15  C   UNL A   1      31.603  28.738  22.677  1.00  0.00     0.231 A 
ATOM     16  C   UNL A   1      29.640  29.682  22.887  1.00  0.00     0.091 A 
ATOM     17  C   UNL A   1      30.486  29.039  21.950  1.00  0.00     0.097 A 
ATOM     18  N   UNL A   1      30.236  29.795  24.077  1.00  0.00    -0.082 NA
ATOM     19  O   UNL A   1      31.449  29.189  23.940  1.00  0.00    -0.338 OA
BRANCH  16  20
ATOM     20  C   UNL A   1      28.222  30.138  22.711  1.00  0.00     0.008 C 
ATOM     21  C   UNL A   1      27.952  31.363  23.600  1.00  0.00     0.018 C 
ATOM     22  C   UNL A   1      27.222  29.025  23.094  1.00  0.00     0.018 C 
ATOM     23  C   UNL A   1      28.009  30.500  21.230  1.00  0.00     0.018 C 
ENDBRANCH  16  20
ENDBRANCH  12  15
ENDBRANCH  10  11
ENDBRANCH   9  10
ENDBRANCH   8   9
ENDBRANCH   7   8
BRANCH   7  24
ATOM     24  N   UNL A   1      31.327  24.149  25.995  1.00  0.00    -0.345 N 
ATOM     25  H   UNL A   1      30.494  24.710  26.180  1.00  0.00     0.345 HD
ATOM     26  H   UNL A   1      31.987  24.693  25.441  1.00  0.00     0.345 HD
ATOM     27  H   UNL A   1      31.761  23.885  26.879  1.00  0.00     0.345 HD
ENDBRANCH   7  24
ENDBRANCH   5   7
ENDBRANCH   4   5
ENDBRANCH   3   4
ENDBRANCH   2   3
ENDBRANCH   1   2
BRANCH   1  28
ATOM     28  C   UNL A   1      34.560  25.503  25.325  1.00  0.00     0.188 C 
BRANCH  28  29
ATOM     29  C   UNL A   1      33.627  26.672  25.693  1.00  0.00     0.188 C 
BRANCH  29  30
ATOM     30  O   UNL A   1      34.101  27.704  26.548  1.00  0.00    -0.376 OA
BRANCH  30  31
ATOM     31  C   UNL A   1      33.140  28.458  27.274  1.00  0.00     0.202 C 
BRANCH  31  32
ATOM     32  C   UNL A   1      33.142  30.007  27.265  1.00  0.00     0.261 C 
BRANCH  32  33
ATOM     33  O   UNL A   1      34.415  30.682  27.225  1.00  0.00    -0.460 OA
BRANCH  33  34
ATOM     34  C   UNL A   1      34.824  31.286  28.375  1.00  0.00     0.338 C 
ATOM     35  O   UNL A   1      34.159  32.006  29.092  1.00  0.00    -0.246 OA
BRANCH  34  36
ATOM     36  C   UNL A   1      36.156  30.744  28.769  1.00  0.00     0.060 A 
ATOM     37  C   UNL A   1      36.233  29.843  29.847  1.00  0.00     0.016 A 
ATOM     38  C   UNL A   1      37.316  31.107  28.087  1.00  0.00     0.016 A 
ATOM     39  C   UNL A   1      37.459  29.307  30.247  1.00  0.00     0.010 A 
ATOM     40  C   UNL A   1      38.552  30.605  28.519  1.00  0.00     0.010 A 
ATOM     41  C   UNL A   1      38.635  29.724  29.614  1.00  0.00    -0.014 A 
BRANCH  41  42
ATOM     42  C   UNL A   1      39.957  29.416  30.218  1.00  0.00     0.031 A 
ATOM     43  C   UNL A   1      40.694  28.199  29.724  1.00  0.00     0.074 A 
ATOM     44  C   UNL A   1      40.486  30.167  31.200  1.00  0.00     0.049 A 
ATOM     45  N   UNL A   1      41.803  27.664  30.162  1.00  0.00    -0.248 NA
ATOM     46  C   UNL A   1      40.090  27.488  28.585  1.00  0.00     0.031 C 
ATOM     47  C   UNL A   1      39.902  31.391  31.742  1.00  0.00     0.029 A 
ATOM     48  N   UNL A   1      41.631  29.984  31.938  1.00  0.00    -0.354 N 
ATOM     49  C   UNL A   1      42.003  26.526  29.389  1.00  0.00     0.074 A 
ATOM     50  C   UNL A   1      40.905  26.454  28.450  1.00  0.00     0.031 C 
ATOM     51  C   UNL A   1      40.673  31.831  32.754  1.00  0.00     0.029 A 
ATOM     52  C   UNL A   1      41.785  30.901  32.953  1.00  0.00     0.049 A 
ATOM     53  H   UNL A   1      42.279  29.265  31.760  1.00  0.00     0.167 HD
ATOM     54  C   UNL A   1      43.007  25.620  29.454  1.00  0.00     0.034 A 
ATOM     55  C   UNL A   1      42.696  30.963  33.945  1.00  0.00     0.034 A 
ATOM     56  C   UNL A   1      44.107  25.700  30.376  1.00  0.00     0.049 A 
ATOM     57  C   UNL A   1      43.778  29.912  34.028  1.00  0.00     0.074 A 
ATOM     58  C   UNL A   1      45.205  24.865  30.476  1.00  0.00     0.029 A 
ATOM     59  N   UNL A   1      44.237  26.653  31.374  1.00  0.00    -0.354 N 
ATOM     60  N   UNL A   1      44.019  28.905  33.222  1.00  0.00    -0.248 NA
ATOM     61  C   UNL A   1      44.728  30.020  35.147  1.00  0.00     0.031 C 
ATOM     62  C   UNL A   1      45.974  25.283  31.566  1.00  0.00     0.029 A 
ATOM     63  C   UNL A   1      45.381  26.409  32.114  1.00  0.00     0.049 A 
ATOM     64  H   UNL A   1      43.609  27.394  31.533  1.00  0.00     0.167 HD
ATOM     65  C   UNL A   1      45.168  28.289  33.711  1.00  0.00     0.074 A 
ATOM     66  C   UNL A   1      45.583  29.043  34.875  1.00  0.00     0.031 C 
ATOM     67  C   UNL A   1      45.816  27.193  33.243  1.00  0.00     0.034 A 
BRANCH  54  68
ATOM     68  C   UNL A   1      42.956  24.452  28.506  1.00  0.00     0.023 A 
ATOM     69  C   UNL A   1      42.125  23.348  28.785  1.00  0.00     0.012 A 
ATOM     70  C   UNL A   1      43.702  24.470  27.310  1.00  0.00     0.148 A 
ATOM     71  C   UNL A   1      42.068  22.263  27.911  1.00  0.00     0.002 A 
ATOM     72  C   UNL A   1      43.602  23.408  26.420  1.00  0.00     0.091 A 
ATOM     73  F   UNL A   1      44.504  25.518  27.073  1.00  0.00    -0.205 F 
ATOM     74  C   UNL A   1      42.797  22.299  26.724  1.00  0.00     0.022 A 
BRANCH  72  75
ATOM     75  S   UNL A   1      44.436  23.400  24.830  1.00  0.00     0.127 S 
ATOM     76  O   UNL A   1      43.425  22.786  23.969  1.00  0.00    -0.237 OA
ATOM     77  O   UNL A   1      44.655  24.827  24.591  1.00  0.00    -0.237 OA
ATOM     78  O   UNL A   1      45.653  22.623  25.017  1.00  0.00    -0.744 OA
ENDBRANCH  72  75
ENDBRANCH  54  68
BRANCH  55  79
ATOM     79  C   UNL A   1      42.653  32.075  34.939  1.00  0.00     0.023 A 
ATOM     80  C   UNL A   1      43.278  33.300  34.631  1.00  0.00     0.012 A 
ATOM     81  C   UNL A   1      42.007  31.929  36.183  1.00  0.00     0.148 A 
ATOM     82  C   UNL A   1      43.286  34.348  35.552  1.00  0.00     0.002 A 
ATOM     83  C   UNL A   1      41.973  32.995  37.075  1.00  0.00     0.091 A 
ATOM     84  F   UNL A   1      41.435  30.750  36.466  1.00  0.00    -0.205 F 
ATOM     85  C   UNL A   1      42.625  34.199  36.769  1.00  0.00     0.022 A 
BRANCH  83  86
ATOM     86  S   UNL A   1      41.060  32.938  38.621  1.00  0.00     0.127 S 
ATOM     87  O   UNL A   1      41.231  34.299  39.122  1.00  0.00    -0.237 OA
ATOM     88  O   UNL A   1      39.709  32.617  38.158  1.00  0.00    -0.237 OA
ATOM     89  O   UNL A   1      41.690  31.893  39.416  1.00  0.00    -0.744 OA
ENDBRANCH  83  86
ENDBRANCH  55  79
BRANCH  67  90
ATOM     90  C   UNL A   1      47.075  26.754  33.951  1.00  0.00     0.023 A 
ATOM     91  C   UNL A   1      47.008  25.811  34.995  1.00  0.00     0.012 A 
ATOM     92  C   UNL A   1      48.336  27.215  33.518  1.00  0.00     0.148 A 
ATOM     93  C   UNL A   1      48.171  25.357  35.617  1.00  0.00     0.002 A 
ATOM     94  C   UNL A   1      49.493  26.719  34.108  1.00  0.00     0.091 A 
ATOM     95  F   UNL A   1      48.381  28.123  32.532  1.00  0.00    -0.205 F 
ATOM     96  C   UNL A   1      49.412  25.801  35.166  1.00  0.00     0.022 A 
BRANCH  94  97
ATOM     97  S   UNL A   1      51.137  27.154  33.528  1.00  0.00     0.127 S 
ATOM     98  O   UNL A   1      51.125  26.617  32.168  1.00  0.00    -0.237 OA
ATOM     99  O   UNL A   1      51.117  28.614  33.607  1.00  0.00    -0.237 OA
ATOM    100  O   UNL A   1      52.072  26.510  34.441  1.00  0.00    -0.744 OA
ENDBRANCH  94  97
ENDBRANCH  67  90
ENDBRANCH  41  42
ENDBRANCH  34  36
ENDBRANCH  33  34
ENDBRANCH  32  33
ENDBRANCH  31  32
ENDBRANCH  30  31
ENDBRANCH  29  30
ENDBRANCH  28  29
ENDBRANCH   1  28
TORSDOF 27
ENDMDL
