MODEL 1
REMARK VINA RESULT:     -10.3      0.000      0.000
REMARK SMILES C#CC[N@@H+](CC(=O)Nc1c(Cl)cccc1Cl)CC(=O)OCCOCCOCCOC(=O)c1ccc(-c2c3nc(c(-c4cccc(S(=O)(=O)[O-])c4F)c4ccc([nH]4)c(-c4cccc(S(=O)(=O)[O-])c4F)c4nc(c(-c5cccc(S(=O)(=O)[O-])c5F)c5ccc2[nH]5)C=C4)C=C3)cc1
REMARK SMILES IDX 24 1 23 2 22 3 21 4 20 5 18 6 19 7 17 8 4 9 3 11 2 12 1 13
REMARK SMILES IDX 5 14 6 15 7 16 8 17 9 19 10 20 15 21 11 22 12 23 14 24 16 25
REMARK SMILES IDX 13 26 25 27 26 28 27 29 28 30 29 31 30 32 31 33 32 34 33 35
REMARK SMILES IDX 94 36 34 37 93 38 35 39 36 40 37 41 87 42 38 43 92 44 86 45
REMARK SMILES IDX 88 46 39 47 91 48 85 49 84 50 40 52 72 53 52 54 71 55 53 56
REMARK SMILES IDX 56 57 70 58 89 59 54 60 55 61 69 63 90 64 57 65 41 66 42 67
REMARK SMILES IDX 50 68 43 69 45 70 51 71 44 72 46 73 47 74 48 75 49 76 73 77
REMARK SMILES IDX 74 78 82 79 75 80 77 81 83 82 76 83 78 84 79 85 80 86 81 87
REMARK SMILES IDX 58 88 59 89 67 90 60 91 62 92 68 93 61 94 63 95 64 96 65 97
REMARK SMILES IDX 66 98
REMARK H PARENT 4 10 8 18 88 51 56 62
REMARK Flexibility Score: inf
ROOT
ATOM      1  C   UNL A   1      32.362  22.690  25.217  1.00  0.00     0.188 C 
ENDROOT
BRANCH   1   2
ATOM      2  O   UNL A   1      31.245  22.204  25.962  1.00  0.00    -0.376 OA
BRANCH   2   3
ATOM      3  C   UNL A   1      30.485  23.214  26.621  1.00  0.00     0.202 C 
BRANCH   3   4
ATOM      4  C   UNL A   1      31.024  24.617  26.341  1.00  0.00     0.261 C 
BRANCH   4   5
ATOM      5  O   UNL A   1      30.089  25.465  25.639  1.00  0.00    -0.459 OA
BRANCH   5   6
ATOM      6  C   UNL A   1      30.554  26.156  24.572  1.00  0.00     0.361 C 
ATOM      7  O   UNL A   1      30.045  26.122  23.457  1.00  0.00    -0.245 OA
BRANCH   6   8
ATOM      8  C   UNL A   1      31.915  26.803  24.834  1.00  0.00     0.387 C 
BRANCH   8   9
ATOM      9  N   UNL A   1      32.470  27.810  23.905  1.00  0.00    -0.308 N 
ATOM     10  H   UNL A   1      33.106  28.263  24.563  1.00  0.00     0.349 HD
BRANCH   9  11
ATOM     11  C   UNL A   1      33.216  27.274  22.800  1.00  0.00     0.354 C 
BRANCH  11  12
ATOM     12  C   UNL A   1      33.278  25.786  22.497  1.00  0.00    -0.047 C 
ATOM     13  C   UNL A   1      33.332  24.510  22.237  1.00  0.00     0.010 C 
ENDBRANCH  11  12
ENDBRANCH   9  11
BRANCH   9  14
ATOM     14  C   UNL A   1      31.577  28.894  23.411  1.00  0.00     0.365 C 
BRANCH  14  15
ATOM     15  C   UNL A   1      30.875  29.873  24.405  1.00  0.00     0.279 C 
ATOM     16  O   UNL A   1      31.322  29.969  25.560  1.00  0.00    -0.268 OA
ATOM     17  N   UNL A   1      29.901  30.797  24.088  1.00  0.00    -0.319 N 
ATOM     18  H   UNL A   1      29.627  31.348  24.855  1.00  0.00     0.170 HD
BRANCH  17  19
ATOM     19  C   UNL A   1      29.212  31.124  22.891  1.00  0.00     0.079 A 
ATOM     20  C   UNL A   1      28.451  30.177  22.189  1.00  0.00     0.066 A 
ATOM     21  C   UNL A   1      29.005  32.448  22.502  1.00  0.00     0.066 A 
ATOM     22  Cl  UNL A   1      28.109  28.656  22.858  1.00  0.00    -0.082 Cl
ATOM     23  C   UNL A   1      27.830  30.443  20.969  1.00  0.00     0.023 A 
ATOM     24  C   UNL A   1      28.304  32.754  21.320  1.00  0.00     0.023 A 
ATOM     25  Cl  UNL A   1      29.536  33.760  23.491  1.00  0.00    -0.082 Cl
ATOM     26  C   UNL A   1      27.779  31.744  20.514  1.00  0.00     0.003 A 
ENDBRANCH  17  19
ENDBRANCH  14  15
ENDBRANCH   9  14
ENDBRANCH   8   9
ENDBRANCH   6   8
ENDBRANCH   5   6
ENDBRANCH   4   5
ENDBRANCH   3   4
ENDBRANCH   2   3
ENDBRANCH   1   2
BRANCH   1  27
ATOM     27  C   UNL A   1      33.447  21.620  25.070  1.00  0.00     0.188 C 
BRANCH  27  28
ATOM     28  O   UNL A   1      34.121  21.393  26.316  1.00  0.00    -0.376 OA
BRANCH  28  29
ATOM     29  C   UNL A   1      35.505  21.751  26.278  1.00  0.00     0.202 C 
BRANCH  29  30
ATOM     30  C   UNL A   1      36.245  21.434  24.964  1.00  0.00     0.261 C 
BRANCH  30  31
ATOM     31  O   UNL A   1      37.443  22.219  24.794  1.00  0.00    -0.460 OA
BRANCH  31  32
ATOM     32  C   UNL A   1      38.487  21.820  25.568  1.00  0.00     0.338 C 
ATOM     33  O   UNL A   1      39.061  20.745  25.476  1.00  0.00    -0.246 OA
BRANCH  32  34
ATOM     34  C   UNL A   1      38.978  22.900  26.477  1.00  0.00     0.060 A 
ATOM     35  C   UNL A   1      38.590  24.233  26.323  1.00  0.00     0.016 A 
ATOM     36  C   UNL A   1      40.025  22.616  27.348  1.00  0.00     0.016 A 
ATOM     37  C   UNL A   1      39.356  25.270  26.870  1.00  0.00     0.010 A 
ATOM     38  C   UNL A   1      40.675  23.654  28.034  1.00  0.00     0.010 A 
ATOM     39  C   UNL A   1      40.398  25.010  27.764  1.00  0.00    -0.014 A 
BRANCH  39  40
ATOM     40  C   UNL A   1      41.228  26.085  28.415  1.00  0.00     0.031 A 
ATOM     41  C   UNL A   1      40.527  27.169  29.206  1.00  0.00     0.074 A 
ATOM     42  C   UNL A   1      42.568  26.184  28.271  1.00  0.00     0.049 A 
ATOM     43  N   UNL A   1      40.864  28.418  29.393  1.00  0.00    -0.248 NA
ATOM     44  C   UNL A   1      39.248  26.796  29.834  1.00  0.00     0.031 C 
ATOM     45  C   UNL A   1      43.460  25.193  27.671  1.00  0.00     0.029 A 
ATOM     46  N   UNL A   1      43.418  27.227  28.591  1.00  0.00    -0.354 N 
ATOM     47  C   UNL A   1      39.775  29.014  30.022  1.00  0.00     0.074 A 
ATOM     48  C   UNL A   1      38.793  27.973  30.239  1.00  0.00     0.031 C 
ATOM     49  C   UNL A   1      44.715  25.663  27.660  1.00  0.00     0.029 A 
ATOM     50  C   UNL A   1      44.697  27.047  28.106  1.00  0.00     0.049 A 
ATOM     51  H   UNL A   1      43.140  28.015  29.110  1.00  0.00     0.167 HD
ATOM     52  C   UNL A   1      39.605  30.318  30.354  1.00  0.00     0.034 A 
ATOM     53  C   UNL A   1      45.714  27.913  27.922  1.00  0.00     0.034 A 
ATOM     54  C   UNL A   1      40.640  31.312  30.229  1.00  0.00     0.049 A 
ATOM     55  C   UNL A   1      45.510  29.363  28.268  1.00  0.00     0.074 A 
ATOM     56  C   UNL A   1      40.593  32.656  30.555  1.00  0.00     0.029 A 
ATOM     57  N   UNL A   1      41.921  31.060  29.762  1.00  0.00    -0.354 N 
ATOM     58  N   UNL A   1      44.458  29.950  28.782  1.00  0.00    -0.248 NA
ATOM     59  C   UNL A   1      46.635  30.271  27.999  1.00  0.00     0.031 C 
ATOM     60  C   UNL A   1      41.840  33.221  30.262  1.00  0.00     0.029 A 
ATOM     61  C   UNL A   1      42.674  32.220  29.791  1.00  0.00     0.049 A 
ATOM     62  H   UNL A   1      42.247  30.183  29.454  1.00  0.00     0.167 HD
ATOM     63  C   UNL A   1      44.803  31.288  28.928  1.00  0.00     0.074 A 
ATOM     64  C   UNL A   1      46.170  31.421  28.467  1.00  0.00     0.031 C 
ATOM     65  C   UNL A   1      44.052  32.319  29.386  1.00  0.00     0.034 A 
BRANCH  52  66
ATOM     66  C   UNL A   1      38.248  30.759  30.844  1.00  0.00     0.023 A 
ATOM     67  C   UNL A   1      37.908  30.669  32.208  1.00  0.00     0.012 A 
ATOM     68  C   UNL A   1      37.316  31.311  29.938  1.00  0.00     0.148 A 
ATOM     69  C   UNL A   1      36.649  31.079  32.654  1.00  0.00     0.002 A 
ATOM     70  C   UNL A   1      36.085  31.762  30.398  1.00  0.00     0.091 A 
ATOM     71  F   UNL A   1      37.649  31.377  28.641  1.00  0.00    -0.205 F 
ATOM     72  C   UNL A   1      35.743  31.633  31.753  1.00  0.00     0.022 A 
BRANCH  70  73
ATOM     73  S   UNL A   1      34.881  32.562  29.329  1.00  0.00     0.127 S 
ATOM     74  O   UNL A   1      33.958  33.140  30.305  1.00  0.00    -0.237 OA
ATOM     75  O   UNL A   1      35.704  33.539  28.617  1.00  0.00    -0.237 OA
ATOM     76  O   UNL A   1      34.323  31.509  28.491  1.00  0.00    -0.744 OA
ENDBRANCH  70  73
ENDBRANCH  52  66
BRANCH  53  77
ATOM     77  C   UNL A   1      47.003  27.447  27.325  1.00  0.00     0.023 A 
ATOM     78  C   UNL A   1      48.007  26.932  28.167  1.00  0.00     0.012 A 
ATOM     79  C   UNL A   1      47.232  27.487  25.934  1.00  0.00     0.148 A 
ATOM     80  C   UNL A   1      49.220  26.487  27.640  1.00  0.00     0.002 A 
ATOM     81  C   UNL A   1      48.415  26.980  25.409  1.00  0.00     0.091 A 
ATOM     82  F   UNL A   1      46.279  28.004  25.147  1.00  0.00    -0.205 F 
ATOM     83  C   UNL A   1      49.419  26.496  26.261  1.00  0.00     0.022 A 
BRANCH  81  84
ATOM     84  S   UNL A   1      48.697  26.822  23.641  1.00  0.00     0.127 S 
ATOM     85  O   UNL A   1      47.999  25.577  23.337  1.00  0.00    -0.237 OA
ATOM     86  O   UNL A   1      48.056  28.031  23.124  1.00  0.00    -0.237 OA
ATOM     87  O   UNL A   1      50.146  26.794  23.476  1.00  0.00    -0.744 OA
ENDBRANCH  81  84
ENDBRANCH  53  77
BRANCH  65  88
ATOM     88  C   UNL A   1      44.710  33.670  29.482  1.00  0.00     0.023 A 
ATOM     89  C   UNL A   1      45.397  34.042  30.653  1.00  0.00     0.012 A 
ATOM     90  C   UNL A   1      44.700  34.542  28.376  1.00  0.00     0.148 A 
ATOM     91  C   UNL A   1      46.039  35.278  30.734  1.00  0.00     0.002 A 
ATOM     92  C   UNL A   1      45.386  35.748  28.445  1.00  0.00     0.091 A 
ATOM     93  F   UNL A   1      44.021  34.176  27.279  1.00  0.00    -0.205 F 
ATOM     94  C   UNL A   1      46.044  36.124  29.626  1.00  0.00     0.022 A 
BRANCH  92  95
ATOM     95  S   UNL A   1      45.530  36.851  27.035  1.00  0.00     0.127 S 
ATOM     96  O   UNL A   1      44.128  37.100  26.705  1.00  0.00    -0.237 OA
ATOM     97  O   UNL A   1      46.235  37.997  27.610  1.00  0.00    -0.237 OA
ATOM     98  O   UNL A   1      46.288  36.122  26.027  1.00  0.00    -0.744 OA
ENDBRANCH  92  95
ENDBRANCH  65  88
ENDBRANCH  39  40
ENDBRANCH  32  34
ENDBRANCH  31  32
ENDBRANCH  30  31
ENDBRANCH  29  30
ENDBRANCH  28  29
ENDBRANCH  27  28
ENDBRANCH   1  27
TORSDOF 26
ENDMDL
MODEL 2
REMARK VINA RESULT:      -9.5      4.767      9.339
REMARK SMILES C#CC[N@@H+](CC(=O)Nc1c(Cl)cccc1Cl)CC(=O)OCCOCCOCCOC(=O)c1ccc(-c2c3nc(c(-c4cccc(S(=O)(=O)[O-])c4F)c4ccc([nH]4)c(-c4cccc(S(=O)(=O)[O-])c4F)c4nc(c(-c5cccc(S(=O)(=O)[O-])c5F)c5ccc2[nH]5)C=C4)C=C3)cc1
REMARK SMILES IDX 24 1 23 2 22 3 21 4 20 5 18 6 19 7 17 8 4 9 3 11 2 12 1 13
REMARK SMILES IDX 5 14 6 15 7 16 8 17 9 19 10 20 15 21 11 22 12 23 14 24 16 25
REMARK SMILES IDX 13 26 25 27 26 28 27 29 28 30 29 31 30 32 31 33 32 34 33 35
REMARK SMILES IDX 94 36 34 37 93 38 35 39 36 40 37 41 87 42 38 43 92 44 86 45
REMARK SMILES IDX 88 46 39 47 91 48 85 49 84 50 40 52 72 53 52 54 71 55 53 56
REMARK SMILES IDX 56 57 70 58 89 59 54 60 55 61 69 63 90 64 57 65 41 66 42 67
REMARK SMILES IDX 50 68 43 69 45 70 51 71 44 72 46 73 47 74 48 75 49 76 73 77
REMARK SMILES IDX 74 78 82 79 75 80 77 81 83 82 76 83 78 84 79 85 80 86 81 87
REMARK SMILES IDX 58 88 59 89 67 90 60 91 62 92 68 93 61 94 63 95 64 96 65 97
REMARK SMILES IDX 66 98
REMARK H PARENT 4 10 8 18 88 51 56 62
REMARK Flexibility Score: inf
ROOT
ATOM      1  C   UNL A   1      40.502  21.068  26.726  1.00  0.00     0.188 C 
ENDROOT
BRANCH   1   2
ATOM      2  O   UNL A   1      39.385  21.278  25.861  1.00  0.00    -0.376 OA
BRANCH   2   3
ATOM      3  C   UNL A   1      38.714  22.522  26.048  1.00  0.00     0.202 C 
BRANCH   3   4
ATOM      4  C   UNL A   1      37.449  22.630  25.197  1.00  0.00     0.261 C 
BRANCH   4   5
ATOM      5  O   UNL A   1      36.232  22.412  25.942  1.00  0.00    -0.459 OA
BRANCH   5   6
ATOM      6  C   UNL A   1      35.439  21.387  25.553  1.00  0.00     0.361 C 
ATOM      7  O   UNL A   1      35.846  20.384  24.976  1.00  0.00    -0.245 OA
BRANCH   6   8
ATOM      8  C   UNL A   1      33.949  21.703  25.696  1.00  0.00     0.387 C 
BRANCH   8   9
ATOM      9  N   UNL A   1      33.220  22.427  24.633  1.00  0.00    -0.308 N 
ATOM     10  H   UNL A   1      34.017  22.609  24.023  1.00  0.00     0.349 HD
BRANCH   9  11
ATOM     11  C   UNL A   1      32.238  21.649  23.931  1.00  0.00     0.354 C 
BRANCH  11  12
ATOM     12  C   UNL A   1      32.389  20.155  23.696  1.00  0.00    -0.047 C 
ATOM     13  C   UNL A   1      32.518  18.874  23.495  1.00  0.00     0.010 C 
ENDBRANCH  11  12
ENDBRANCH   9  11
BRANCH   9  14
ATOM     14  C   UNL A   1      32.650  23.767  24.945  1.00  0.00     0.365 C 
BRANCH  14  15
ATOM     15  C   UNL A   1      33.564  25.031  25.027  1.00  0.00     0.279 C 
ATOM     16  O   UNL A   1      34.744  24.888  25.388  1.00  0.00    -0.268 OA
ATOM     17  N   UNL A   1      33.254  26.292  24.563  1.00  0.00    -0.319 N 
ATOM     18  H   UNL A   1      33.991  26.935  24.671  1.00  0.00     0.170 HD
BRANCH  17  19
ATOM     19  C   UNL A   1      32.100  26.861  23.962  1.00  0.00     0.079 A 
ATOM     20  C   UNL A   1      30.849  26.846  24.595  1.00  0.00     0.066 A 
ATOM     21  C   UNL A   1      32.192  27.715  22.862  1.00  0.00     0.066 A 
ATOM     22  Cl  UNL A   1      30.691  26.369  26.216  1.00  0.00    -0.082 Cl
ATOM     23  C   UNL A   1      29.681  27.321  23.999  1.00  0.00     0.023 A 
ATOM     24  C   UNL A   1      31.038  28.283  22.290  1.00  0.00     0.023 A 
ATOM     25  Cl  UNL A   1      33.726  28.165  22.209  1.00  0.00    -0.082 Cl
ATOM     26  C   UNL A   1      29.774  28.025  22.816  1.00  0.00     0.003 A 
ENDBRANCH  17  19
ENDBRANCH  14  15
ENDBRANCH   9  14
ENDBRANCH   8   9
ENDBRANCH   6   8
ENDBRANCH   5   6
ENDBRANCH   4   5
ENDBRANCH   3   4
ENDBRANCH   2   3
ENDBRANCH   1   2
BRANCH   1  27
ATOM     27  C   UNL A   1      41.113  19.678  26.526  1.00  0.00     0.188 C 
BRANCH  27  28
ATOM     28  O   UNL A   1      42.380  19.762  25.856  1.00  0.00    -0.376 OA
BRANCH  28  29
ATOM     29  C   UNL A   1      43.140  20.912  26.237  1.00  0.00     0.202 C 
BRANCH  29  30
ATOM     30  C   UNL A   1      43.599  21.826  25.084  1.00  0.00     0.261 C 
BRANCH  30  31
ATOM     31  O   UNL A   1      42.828  23.042  24.995  1.00  0.00    -0.460 OA
BRANCH  31  32
ATOM     32  C   UNL A   1      43.553  24.178  25.179  1.00  0.00     0.338 C 
ATOM     33  O   UNL A   1      44.656  24.393  24.699  1.00  0.00    -0.246 OA
BRANCH  32  34
ATOM     34  C   UNL A   1      42.800  25.229  25.928  1.00  0.00     0.060 A 
ATOM     35  C   UNL A   1      42.567  26.498  25.393  1.00  0.00     0.016 A 
ATOM     36  C   UNL A   1      42.527  25.022  27.277  1.00  0.00     0.016 A 
ATOM     37  C   UNL A   1      42.261  27.581  26.228  1.00  0.00     0.010 A 
ATOM     38  C   UNL A   1      42.046  26.076  28.070  1.00  0.00     0.010 A 
ATOM     39  C   UNL A   1      41.962  27.396  27.580  1.00  0.00    -0.014 A 
BRANCH  39  40
ATOM     40  C   UNL A   1      41.586  28.515  28.513  1.00  0.00     0.031 A 
ATOM     41  C   UNL A   1      42.482  28.810  29.698  1.00  0.00     0.074 A 
ATOM     42  C   UNL A   1      40.445  29.231  28.401  1.00  0.00     0.049 A 
ATOM     43  N   UNL A   1      42.180  29.281  30.878  1.00  0.00    -0.248 NA
ATOM     44  C   UNL A   1      43.910  28.487  29.532  1.00  0.00     0.031 C 
ATOM     45  C   UNL A   1      39.506  29.211  27.280  1.00  0.00     0.029 A 
ATOM     46  N   UNL A   1      39.852  30.099  29.298  1.00  0.00    -0.354 N 
ATOM     47  C   UNL A   1      43.339  29.165  31.641  1.00  0.00     0.074 A 
ATOM     48  C   UNL A   1      44.365  28.638  30.768  1.00  0.00     0.031 C 
ATOM     49  C   UNL A   1      38.467  30.013  27.548  1.00  0.00     0.029 A 
ATOM     50  C   UNL A   1      38.582  30.483  28.919  1.00  0.00     0.049 A 
ATOM     51  H   UNL A   1      40.290  30.411  30.123  1.00  0.00     0.167 HD
ATOM     52  C   UNL A   1      43.512  29.445  32.957  1.00  0.00     0.034 A 
ATOM     53  C   UNL A   1      37.571  31.041  29.614  1.00  0.00     0.034 A 
ATOM     54  C   UNL A   1      42.507  30.072  33.775  1.00  0.00     0.049 A 
ATOM     55  C   UNL A   1      37.761  31.324  31.079  1.00  0.00     0.074 A 
ATOM     56  C   UNL A   1      42.576  30.425  35.112  1.00  0.00     0.029 A 
ATOM     57  N   UNL A   1      41.255  30.464  33.324  1.00  0.00    -0.354 N 
ATOM     58  N   UNL A   1      38.821  31.141  31.826  1.00  0.00    -0.248 NA
ATOM     59  C   UNL A   1      36.607  31.886  31.799  1.00  0.00     0.031 C 
ATOM     60  C   UNL A   1      41.356  31.010  35.473  1.00  0.00     0.029 A 
ATOM     61  C   UNL A   1      40.543  31.056  34.352  1.00  0.00     0.049 A 
ATOM     62  H   UNL A   1      40.922  30.340  32.406  1.00  0.00     0.167 HD
ATOM     63  C   UNL A   1      38.476  31.592  33.094  1.00  0.00     0.074 A 
ATOM     64  C   UNL A   1      37.113  32.077  33.009  1.00  0.00     0.031 C 
ATOM     65  C   UNL A   1      39.211  31.589  34.232  1.00  0.00     0.034 A 
BRANCH  52  66
ATOM     66  C   UNL A   1      44.812  29.042  33.607  1.00  0.00     0.023 A 
ATOM     67  C   UNL A   1      45.808  29.998  33.885  1.00  0.00     0.012 A 
ATOM     68  C   UNL A   1      45.024  27.698  33.986  1.00  0.00     0.148 A 
ATOM     69  C   UNL A   1      47.010  29.617  34.487  1.00  0.00     0.002 A 
ATOM     70  C   UNL A   1      46.202  27.336  34.628  1.00  0.00     0.091 A 
ATOM     71  F   UNL A   1      44.073  26.797  33.702  1.00  0.00    -0.205 F 
ATOM     72  C   UNL A   1      47.203  28.290  34.866  1.00  0.00     0.022 A 
BRANCH  70  73
ATOM     73  S   UNL A   1      46.511  25.669  35.227  1.00  0.00     0.127 S 
ATOM     74  O   UNL A   1      47.244  25.931  36.465  1.00  0.00    -0.237 OA
ATOM     75  O   UNL A   1      45.154  25.155  35.419  1.00  0.00    -0.237 OA
ATOM     76  O   UNL A   1      47.273  25.000  34.181  1.00  0.00    -0.744 OA
ENDBRANCH  70  73
ENDBRANCH  52  66
BRANCH  53  77
ATOM     77  C   UNL A   1      36.261  31.316  28.949  1.00  0.00     0.023 A 
ATOM     78  C   UNL A   1      35.790  32.641  28.871  1.00  0.00     0.012 A 
ATOM     79  C   UNL A   1      35.490  30.283  28.374  1.00  0.00     0.148 A 
ATOM     80  C   UNL A   1      34.572  32.930  28.256  1.00  0.00     0.002 A 
ATOM     81  C   UNL A   1      34.312  30.586  27.703  1.00  0.00     0.091 A 
ATOM     82  F   UNL A   1      35.937  29.024  28.478  1.00  0.00    -0.205 F 
ATOM     83  C   UNL A   1      33.840  31.906  27.658  1.00  0.00     0.022 A 
BRANCH  81  84
ATOM     84  S   UNL A   1      33.380  29.353  26.785  1.00  0.00     0.127 S 
ATOM     85  O   UNL A   1      32.841  28.525  27.859  1.00  0.00    -0.237 OA
ATOM     86  O   UNL A   1      32.394  30.178  26.087  1.00  0.00    -0.237 OA
ATOM     87  O   UNL A   1      34.347  28.704  25.908  1.00  0.00    -0.744 OA
ENDBRANCH  81  84
ENDBRANCH  53  77
BRANCH  65  88
ATOM     88  C   UNL A   1      38.590  32.193  35.464  1.00  0.00     0.023 A 
ATOM     89  C   UNL A   1      38.409  33.587  35.555  1.00  0.00     0.012 A 
ATOM     90  C   UNL A   1      38.125  31.363  36.501  1.00  0.00     0.148 A 
ATOM     91  C   UNL A   1      37.801  34.148  36.678  1.00  0.00     0.002 A 
ATOM     92  C   UNL A   1      37.474  31.924  37.592  1.00  0.00     0.091 A 
ATOM     93  F   UNL A   1      38.329  30.041  36.402  1.00  0.00    -0.205 F 
ATOM     94  C   UNL A   1      37.323  33.317  37.689  1.00  0.00     0.022 A 
BRANCH  92  95
ATOM     95  S   UNL A   1      36.737  30.924  38.889  1.00  0.00     0.127 S 
ATOM     96  O   UNL A   1      36.623  29.622  38.234  1.00  0.00    -0.237 OA
ATOM     97  O   UNL A   1      37.750  30.991  39.943  1.00  0.00    -0.237 OA
ATOM     98  O   UNL A   1      35.474  31.566  39.225  1.00  0.00    -0.744 OA
ENDBRANCH  92  95
ENDBRANCH  65  88
ENDBRANCH  39  40
ENDBRANCH  32  34
ENDBRANCH  31  32
ENDBRANCH  30  31
ENDBRANCH  29  30
ENDBRANCH  28  29
ENDBRANCH  27  28
ENDBRANCH   1  27
TORSDOF 26
ENDMDL
MODEL 3
REMARK VINA RESULT:      -8.8      6.251     10.500
REMARK SMILES C#CC[N@@H+](CC(=O)Nc1c(Cl)cccc1Cl)CC(=O)OCCOCCOCCOC(=O)c1ccc(-c2c3nc(c(-c4cccc(S(=O)(=O)[O-])c4F)c4ccc([nH]4)c(-c4cccc(S(=O)(=O)[O-])c4F)c4nc(c(-c5cccc(S(=O)(=O)[O-])c5F)c5ccc2[nH]5)C=C4)C=C3)cc1
REMARK SMILES IDX 24 1 23 2 22 3 21 4 20 5 18 6 19 7 17 8 4 9 3 11 2 12 1 13
REMARK SMILES IDX 5 14 6 15 7 16 8 17 9 19 10 20 15 21 11 22 12 23 14 24 16 25
REMARK SMILES IDX 13 26 25 27 26 28 27 29 28 30 29 31 30 32 31 33 32 34 33 35
REMARK SMILES IDX 94 36 34 37 93 38 35 39 36 40 37 41 87 42 38 43 92 44 86 45
REMARK SMILES IDX 88 46 39 47 91 48 85 49 84 50 40 52 72 53 52 54 71 55 53 56
REMARK SMILES IDX 56 57 70 58 89 59 54 60 55 61 69 63 90 64 57 65 41 66 42 67
REMARK SMILES IDX 50 68 43 69 45 70 51 71 44 72 46 73 47 74 48 75 49 76 73 77
REMARK SMILES IDX 74 78 82 79 75 80 77 81 83 82 76 83 78 84 79 85 80 86 81 87
REMARK SMILES IDX 58 88 59 89 67 90 60 91 62 92 68 93 61 94 63 95 64 96 65 97
REMARK SMILES IDX 66 98
REMARK H PARENT 4 10 8 18 88 51 56 62
REMARK Flexibility Score: inf
ROOT
ATOM      1  C   UNL A   1      40.434  21.117  26.423  1.00  0.00     0.188 C 
ENDROOT
BRANCH   1   2
ATOM      2  O   UNL A   1      39.303  21.534  25.656  1.00  0.00    -0.376 OA
BRANCH   2   3
ATOM      3  C   UNL A   1      38.549  22.594  26.240  1.00  0.00     0.202 C 
BRANCH   3   4
ATOM      4  C   UNL A   1      37.328  22.966  25.397  1.00  0.00     0.261 C 
BRANCH   4   5
ATOM      5  O   UNL A   1      36.071  22.640  26.028  1.00  0.00    -0.459 OA
BRANCH   5   6
ATOM      6  C   UNL A   1      35.378  21.590  25.531  1.00  0.00     0.361 C 
ATOM      7  O   UNL A   1      35.892  20.643  24.944  1.00  0.00    -0.245 OA
BRANCH   6   8
ATOM      8  C   UNL A   1      33.865  21.809  25.566  1.00  0.00     0.387 C 
BRANCH   8   9
ATOM      9  N   UNL A   1      33.087  21.948  24.317  1.00  0.00    -0.308 N 
ATOM     10  H   UNL A   1      33.853  22.250  23.714  1.00  0.00     0.349 HD
BRANCH   9  11
ATOM     11  C   UNL A   1      32.522  20.728  23.812  1.00  0.00     0.354 C 
BRANCH  11  12
ATOM     12  C   UNL A   1      32.584  19.416  24.577  1.00  0.00    -0.047 C 
ATOM     13  C   UNL A   1      32.636  18.292  25.233  1.00  0.00     0.010 C 
ENDBRANCH  11  12
ENDBRANCH   9  11
BRANCH   9  14
ATOM     14  C   UNL A   1      32.068  23.031  24.229  1.00  0.00     0.365 C 
BRANCH  14  15
ATOM     15  C   UNL A   1      31.178  23.399  25.459  1.00  0.00     0.279 C 
ATOM     16  O   UNL A   1      30.734  22.481  26.168  1.00  0.00    -0.268 OA
ATOM     17  N   UNL A   1      30.971  24.666  25.963  1.00  0.00    -0.319 N 
ATOM     18  H   UNL A   1      30.413  24.672  26.774  1.00  0.00     0.170 HD
BRANCH  17  19
ATOM     19  C   UNL A   1      31.390  25.962  25.564  1.00  0.00     0.079 A 
ATOM     20  C   UNL A   1      32.720  26.386  25.694  1.00  0.00     0.066 A 
ATOM     21  C   UNL A   1      30.590  26.777  24.761  1.00  0.00     0.066 A 
ATOM     22  Cl  UNL A   1      33.952  25.294  26.104  1.00  0.00    -0.082 Cl
ATOM     23  C   UNL A   1      33.148  27.678  25.389  1.00  0.00     0.023 A 
ATOM     24  C   UNL A   1      31.029  28.053  24.360  1.00  0.00     0.023 A 
ATOM     25  Cl  UNL A   1      29.067  26.221  24.167  1.00  0.00    -0.082 Cl
ATOM     26  C   UNL A   1      32.283  28.532  24.738  1.00  0.00     0.003 A 
ENDBRANCH  17  19
ENDBRANCH  14  15
ENDBRANCH   9  14
ENDBRANCH   8   9
ENDBRANCH   6   8
ENDBRANCH   5   6
ENDBRANCH   4   5
ENDBRANCH   3   4
ENDBRANCH   2   3
ENDBRANCH   1   2
BRANCH   1  27
ATOM     27  C   UNL A   1      40.714  19.623  26.241  1.00  0.00     0.188 C 
BRANCH  27  28
ATOM     28  O   UNL A   1      41.873  19.411  25.421  1.00  0.00    -0.376 OA
BRANCH  28  29
ATOM     29  C   UNL A   1      43.031  20.100  25.900  1.00  0.00     0.202 C 
BRANCH  29  30
ATOM     30  C   UNL A   1      44.188  20.249  24.892  1.00  0.00     0.261 C 
BRANCH  30  31
ATOM     31  O   UNL A   1      44.432  21.622  24.522  1.00  0.00    -0.460 OA
BRANCH  31  32
ATOM     32  C   UNL A   1      45.635  22.106  24.930  1.00  0.00     0.338 C 
ATOM     33  O   UNL A   1      46.719  21.753  24.491  1.00  0.00    -0.246 OA
BRANCH  32  34
ATOM     34  C   UNL A   1      45.504  23.243  25.890  1.00  0.00     0.060 A 
ATOM     35  C   UNL A   1      45.877  24.546  25.553  1.00  0.00     0.016 A 
ATOM     36  C   UNL A   1      45.228  22.962  27.225  1.00  0.00     0.016 A 
ATOM     37  C   UNL A   1      46.159  25.491  26.548  1.00  0.00     0.010 A 
ATOM     38  C   UNL A   1      45.341  23.969  28.197  1.00  0.00     0.010 A 
ATOM     39  C   UNL A   1      45.870  25.240  27.892  1.00  0.00    -0.014 A 
BRANCH  39  40
ATOM     40  C   UNL A   1      46.112  26.231  28.998  1.00  0.00     0.031 A 
ATOM     41  C   UNL A   1      47.436  26.196  29.733  1.00  0.00     0.074 A 
ATOM     42  C   UNL A   1      45.182  27.111  29.431  1.00  0.00     0.049 A 
ATOM     43  N   UNL A   1      47.713  26.503  30.973  1.00  0.00    -0.248 NA
ATOM     44  C   UNL A   1      48.595  25.705  28.967  1.00  0.00     0.031 C 
ATOM     45  C   UNL A   1      43.898  27.410  28.797  1.00  0.00     0.029 A 
ATOM     46  N   UNL A   1      45.165  27.894  30.570  1.00  0.00    -0.354 N 
ATOM     47  C   UNL A   1      49.029  26.099  31.179  1.00  0.00     0.074 A 
ATOM     48  C   UNL A   1      49.513  25.583  29.916  1.00  0.00     0.031 C 
ATOM     49  C   UNL A   1      43.223  28.297  29.541  1.00  0.00     0.029 A 
ATOM     50  C   UNL A   1      43.950  28.512  30.782  1.00  0.00     0.049 A 
ATOM     51  H   UNL A   1      45.940  28.000  31.168  1.00  0.00     0.167 HD
ATOM     52  C   UNL A   1      49.748  26.130  32.328  1.00  0.00     0.034 A 
ATOM     53  C   UNL A   1      43.418  29.086  31.880  1.00  0.00     0.034 A 
ATOM     54  C   UNL A   1      49.283  26.750  33.541  1.00  0.00     0.049 A 
ATOM     55  C   UNL A   1      44.210  29.093  33.158  1.00  0.00     0.074 A 
ATOM     56  C   UNL A   1      49.931  26.864  34.759  1.00  0.00     0.029 A 
ATOM     57  N   UNL A   1      48.058  27.385  33.681  1.00  0.00    -0.354 N 
ATOM     58  N   UNL A   1      45.419  28.639  33.384  1.00  0.00    -0.248 NA
ATOM     59  C   UNL A   1      43.560  29.686  34.336  1.00  0.00     0.031 C 
ATOM     60  C   UNL A   1      49.087  27.548  35.641  1.00  0.00     0.029 A 
ATOM     61  C   UNL A   1      47.931  27.894  34.962  1.00  0.00     0.049 A 
ATOM     62  H   UNL A   1      47.379  27.463  32.973  1.00  0.00     0.167 HD
ATOM     63  C   UNL A   1      45.687  28.919  34.718  1.00  0.00     0.074 A 
ATOM     64  C   UNL A   1      44.522  29.600  35.245  1.00  0.00     0.031 C 
ATOM     65  C   UNL A   1      46.789  28.624  35.449  1.00  0.00     0.034 A 
BRANCH  52  66
ATOM     66  C   UNL A   1      51.092  25.444  32.346  1.00  0.00     0.023 A 
ATOM     67  C   UNL A   1      52.278  26.172  32.127  1.00  0.00     0.012 A 
ATOM     68  C   UNL A   1      51.175  24.064  32.631  1.00  0.00     0.148 A 
ATOM     69  C   UNL A   1      53.519  25.530  32.147  1.00  0.00     0.002 A 
ATOM     70  C   UNL A   1      52.417  23.442  32.697  1.00  0.00     0.091 A 
ATOM     71  F   UNL A   1      50.037  23.382  32.824  1.00  0.00    -0.205 F 
ATOM     72  C   UNL A   1      53.589  24.170  32.439  1.00  0.00     0.022 A 
BRANCH  70  73
ATOM     73  S   UNL A   1      52.616  21.713  33.145  1.00  0.00     0.127 S 
ATOM     74  O   UNL A   1      52.192  21.720  34.545  1.00  0.00    -0.237 OA
ATOM     75  O   UNL A   1      51.686  21.049  32.231  1.00  0.00    -0.237 OA
ATOM     76  O   UNL A   1      54.020  21.397  32.921  1.00  0.00    -0.744 OA
ENDBRANCH  70  73
ENDBRANCH  52  66
BRANCH  53  77
ATOM     77  C   UNL A   1      42.034  29.650  31.839  1.00  0.00     0.023 A 
ATOM     78  C   UNL A   1      41.857  31.032  31.631  1.00  0.00     0.012 A 
ATOM     79  C   UNL A   1      40.895  28.830  31.981  1.00  0.00     0.148 A 
ATOM     80  C   UNL A   1      40.579  31.588  31.587  1.00  0.00     0.002 A 
ATOM     81  C   UNL A   1      39.624  29.380  31.868  1.00  0.00     0.091 A 
ATOM     82  F   UNL A   1      41.077  27.521  32.205  1.00  0.00    -0.205 F 
ATOM     83  C   UNL A   1      39.462  30.762  31.689  1.00  0.00     0.022 A 
BRANCH  81  84
ATOM     84  S   UNL A   1      38.135  28.373  31.846  1.00  0.00     0.127 S 
ATOM     85  O   UNL A   1      38.256  27.689  30.562  1.00  0.00    -0.237 OA
ATOM     86  O   UNL A   1      38.328  27.522  33.019  1.00  0.00    -0.237 OA
ATOM     87  O   UNL A   1      37.025  29.312  31.961  1.00  0.00    -0.744 OA
ENDBRANCH  81  84
ENDBRANCH  53  77
BRANCH  65  88
ATOM     88  C   UNL A   1      46.824  29.098  36.878  1.00  0.00     0.023 A 
ATOM     89  C   UNL A   1      47.183  30.427  37.174  1.00  0.00     0.012 A 
ATOM     90  C   UNL A   1      46.433  28.235  37.919  1.00  0.00     0.148 A 
ATOM     91  C   UNL A   1      47.183  30.881  38.493  1.00  0.00     0.002 A 
ATOM     92  C   UNL A   1      46.384  28.710  39.224  1.00  0.00     0.091 A 
ATOM     93  F   UNL A   1      46.117  26.968  37.615  1.00  0.00    -0.205 F 
ATOM     94  C   UNL A   1      46.771  30.027  39.514  1.00  0.00     0.022 A 
BRANCH  92  95
ATOM     95  S   UNL A   1      45.771  27.712  40.585  1.00  0.00     0.127 S 
ATOM     96  O   UNL A   1      46.791  26.669  40.675  1.00  0.00    -0.237 OA
ATOM     97  O   UNL A   1      45.774  28.667  41.694  1.00  0.00    -0.237 OA
ATOM     98  O   UNL A   1      44.446  27.256  40.187  1.00  0.00    -0.744 OA
ENDBRANCH  92  95
ENDBRANCH  65  88
ENDBRANCH  39  40
ENDBRANCH  32  34
ENDBRANCH  31  32
ENDBRANCH  30  31
ENDBRANCH  29  30
ENDBRANCH  28  29
ENDBRANCH  27  28
ENDBRANCH   1  27
TORSDOF 26
ENDMDL
