MODEL 1
REMARK VINA RESULT:      -9.2      0.000      0.000
REMARK SMILES O=C(N[C@@H](CS)C(=O)N[C@@H](CO)C(=O)OCCOCCOCCOC(=O)c1ccc(-c2c3nc(c(-c4cccc(S(=O)(=O)[O-])c4F)c4ccc([nH]4)c(-c4cccc(S(=O)(=O)[O-])c4F)c4nc(c(-c5cccc(S(=O)(=O)[O-])c5F)c5ccc2[nH]5)C=C4)C=C3)cc1)c1ccc(F)cc1
REMARK SMILES IDX 19 1 18 2 17 3 16 4 15 5 13 6 14 7 10 8 9 9 7 10 8 11 4 13
REMARK SMILES IDX 3 14 1 15 2 16 90 18 91 19 96 20 92 21 95 22 93 23 94 24
REMARK SMILES IDX 5 25 6 26 11 28 12 29 20 31 21 32 22 33 23 34 24 35 25 36
REMARK SMILES IDX 26 37 27 38 28 39 89 40 29 41 88 42 30 43 31 44 32 45 82 46
REMARK SMILES IDX 33 47 87 48 81 49 83 50 34 51 86 52 80 53 79 54 35 56 67 57
REMARK SMILES IDX 47 58 66 59 48 60 51 61 65 62 84 63 49 64 50 65 64 67 85 68
REMARK SMILES IDX 52 69 36 70 37 71 45 72 38 73 40 74 46 75 39 76 41 77 42 78
REMARK SMILES IDX 43 79 44 80 68 81 69 82 77 83 70 84 72 85 78 86 71 87 73 88
REMARK SMILES IDX 74 89 75 90 76 91 53 92 54 93 62 94 55 95 57 96 63 97 56 98
REMARK SMILES IDX 58 99 59 100 60 101 61 102
REMARK H PARENT 9 12 3 17 6 27 12 30 83 55 51 66
REMARK Flexibility Score: inf
ROOT
ATOM      1  C   UNL A   1      39.804  21.785  26.170  1.00  0.00     0.188 C 
ENDROOT
BRANCH   1   2
ATOM      2  O   UNL A   1      38.395  21.872  26.049  1.00  0.00    -0.376 OA
BRANCH   2   3
ATOM      3  C   UNL A   1      37.783  21.328  24.884  1.00  0.00     0.202 C 
BRANCH   3   4
ATOM      4  C   UNL A   1      36.884  20.105  25.065  1.00  0.00     0.261 C 
BRANCH   4   5
ATOM      5  O   UNL A   1      35.503  20.394  24.762  1.00  0.00    -0.462 OA
BRANCH   5   6
ATOM      6  C   UNL A   1      34.709  19.287  24.683  1.00  0.00     0.331 C 
ATOM      7  O   UNL A   1      35.137  18.150  24.511  1.00  0.00    -0.250 OA
BRANCH   6   8
ATOM      8  C   UNL A   1      33.203  19.597  24.816  1.00  0.00     0.218 C 
BRANCH   8   9
ATOM      9  N   UNL A   1      32.628  20.489  23.801  1.00  0.00    -0.339 N 
ATOM     10  C   UNL A   1      32.152  21.758  23.832  1.00  0.00     0.244 C 
ATOM     11  O   UNL A   1      31.602  22.149  22.794  1.00  0.00    -0.273 OA
ATOM     12  H   UNL A   1      32.576  20.077  22.908  1.00  0.00     0.164 HD
BRANCH  10  13
ATOM     13  C   UNL A   1      32.290  22.743  25.016  1.00  0.00     0.181 C 
BRANCH  13  14
ATOM     14  N   UNL A   1      31.187  22.753  25.972  1.00  0.00    -0.339 N 
ATOM     15  O   UNL A   1      29.700  23.689  27.379  1.00  0.00    -0.269 OA
ATOM     16  C   UNL A   1      30.478  23.837  26.442  1.00  0.00     0.251 C 
ATOM     17  H   UNL A   1      30.916  21.874  26.326  1.00  0.00     0.164 HD
BRANCH  16  18
ATOM     18  C   UNL A   1      30.658  25.189  25.851  1.00  0.00     0.040 A 
ATOM     19  C   UNL A   1      29.866  25.630  24.782  1.00  0.00     0.017 A 
ATOM     20  C   UNL A   1      31.598  26.057  26.425  1.00  0.00     0.017 A 
ATOM     21  C   UNL A   1      30.065  26.905  24.245  1.00  0.00     0.040 A 
ATOM     22  C   UNL A   1      31.782  27.337  25.895  1.00  0.00     0.040 A 
ATOM     23  C   UNL A   1      31.022  27.745  24.804  1.00  0.00     0.123 A 
ATOM     24  F   UNL A   1      31.201  28.968  24.289  1.00  0.00    -0.207 F 
ENDBRANCH  16  18
ENDBRANCH  13  14
BRANCH  13  25
ATOM     25  C   UNL A   1      33.687  22.804  25.651  1.00  0.00     0.101 C 
BRANCH  25  26
ATOM     26  S   UNL A   1      33.863  22.341  27.395  1.00  0.00    -0.177 SA
ATOM     27  H   UNL A   1      35.054  22.796  27.867  1.00  0.00     0.102 HD
ENDBRANCH  25  26
ENDBRANCH  13  25
ENDBRANCH  10  13
ENDBRANCH   8   9
BRANCH   8  28
ATOM     28  C   UNL A   1      32.452  18.261  24.813  1.00  0.00     0.193 C 
BRANCH  28  29
ATOM     29  O   UNL A   1      32.254  17.781  23.482  1.00  0.00    -0.394 OA
ATOM     30  H   UNL A   1      31.353  17.431  23.395  1.00  0.00     0.210 HD
ENDBRANCH  28  29
ENDBRANCH   8  28
ENDBRANCH   6   8
ENDBRANCH   5   6
ENDBRANCH   4   5
ENDBRANCH   3   4
ENDBRANCH   2   3
ENDBRANCH   1   2
BRANCH   1  31
ATOM     31  C   UNL A   1      40.463  20.395  26.146  1.00  0.00     0.188 C 
BRANCH  31  32
ATOM     32  O   UNL A   1      41.839  20.229  26.438  1.00  0.00    -0.376 OA
BRANCH  32  33
ATOM     33  C   UNL A   1      42.360  18.905  26.447  1.00  0.00     0.202 C 
BRANCH  33  34
ATOM     34  C   UNL A   1      43.501  18.560  25.486  1.00  0.00     0.261 C 
BRANCH  34  35
ATOM     35  O   UNL A   1      43.688  19.548  24.460  1.00  0.00    -0.460 OA
BRANCH  35  36
ATOM     36  C   UNL A   1      44.976  19.928  24.264  1.00  0.00     0.338 C 
ATOM     37  O   UNL A   1      45.839  19.340  23.639  1.00  0.00    -0.246 OA
BRANCH  36  38
ATOM     38  C   UNL A   1      45.162  21.281  24.816  1.00  0.00     0.060 A 
ATOM     39  C   UNL A   1      45.174  22.367  23.935  1.00  0.00     0.016 A 
ATOM     40  C   UNL A   1      45.395  21.467  26.177  1.00  0.00     0.016 A 
ATOM     41  C   UNL A   1      45.370  23.659  24.423  1.00  0.00     0.010 A 
ATOM     42  C   UNL A   1      45.624  22.760  26.659  1.00  0.00     0.010 A 
ATOM     43  C   UNL A   1      45.608  23.862  25.786  1.00  0.00    -0.014 A 
BRANCH  43  44
ATOM     44  C   UNL A   1      45.957  25.213  26.280  1.00  0.00     0.031 A 
ATOM     45  C   UNL A   1      44.856  26.134  26.717  1.00  0.00     0.074 A 
ATOM     46  C   UNL A   1      47.240  25.614  26.347  1.00  0.00     0.049 A 
ATOM     47  N   UNL A   1      44.913  27.403  27.018  1.00  0.00    -0.248 NA
ATOM     48  C   UNL A   1      43.517  25.537  26.850  1.00  0.00     0.031 C 
ATOM     49  C   UNL A   1      48.404  24.781  26.050  1.00  0.00     0.029 A 
ATOM     50  N   UNL A   1      47.773  26.840  26.664  1.00  0.00    -0.354 N 
ATOM     51  C   UNL A   1      43.612  27.771  27.336  1.00  0.00     0.074 A 
ATOM     52  C   UNL A   1      42.793  26.584  27.218  1.00  0.00     0.031 C 
ATOM     53  C   UNL A   1      49.515  25.531  26.161  1.00  0.00     0.029 A 
ATOM     54  C   UNL A   1      49.134  26.908  26.477  1.00  0.00     0.049 A 
ATOM     55  H   UNL A   1      47.234  27.595  26.994  1.00  0.00     0.167 HD
ATOM     56  C   UNL A   1      43.144  28.991  27.687  1.00  0.00     0.034 A 
ATOM     57  C   UNL A   1      49.965  27.970  26.496  1.00  0.00     0.034 A 
ATOM     58  C   UNL A   1      43.962  30.166  27.807  1.00  0.00     0.049 A 
ATOM     59  C   UNL A   1      49.397  29.341  26.769  1.00  0.00     0.074 A 
ATOM     60  C   UNL A   1      43.575  31.451  28.143  1.00  0.00     0.029 A 
ATOM     61  N   UNL A   1      45.328  30.203  27.583  1.00  0.00    -0.354 N 
ATOM     62  N   UNL A   1      48.174  29.679  27.103  1.00  0.00    -0.248 NA
ATOM     63  C   UNL A   1      50.324  30.479  26.664  1.00  0.00     0.031 C 
ATOM     64  C   UNL A   1      44.708  32.271  28.100  1.00  0.00     0.029 A 
ATOM     65  C   UNL A   1      45.800  31.492  27.754  1.00  0.00     0.049 A 
ATOM     66  H   UNL A   1      45.882  29.427  27.337  1.00  0.00     0.167 HD
ATOM     67  C   UNL A   1      48.190  31.061  27.263  1.00  0.00     0.074 A 
ATOM     68  C   UNL A   1      49.550  31.495  27.021  1.00  0.00     0.031 C 
ATOM     69  C   UNL A   1      47.167  31.900  27.559  1.00  0.00     0.034 A 
BRANCH  56  70
ATOM     70  C   UNL A   1      41.672  29.117  27.957  1.00  0.00     0.023 A 
ATOM     71  C   UNL A   1      40.767  29.173  26.880  1.00  0.00     0.012 A 
ATOM     72  C   UNL A   1      41.186  29.131  29.277  1.00  0.00     0.148 A 
ATOM     73  C   UNL A   1      39.396  29.257  27.114  1.00  0.00     0.002 A 
ATOM     74  C   UNL A   1      39.816  29.180  29.503  1.00  0.00     0.091 A 
ATOM     75  F   UNL A   1      42.070  29.106  30.285  1.00  0.00    -0.205 F 
ATOM     76  C   UNL A   1      38.920  29.250  28.424  1.00  0.00     0.022 A 
BRANCH  74  77
ATOM     77  S   UNL A   1      39.105  29.117  31.151  1.00  0.00     0.127 S 
ATOM     78  O   UNL A   1      40.002  28.178  31.823  1.00  0.00    -0.237 OA
ATOM     79  O   UNL A   1      39.233  30.506  31.593  1.00  0.00    -0.237 OA
ATOM     80  O   UNL A   1      37.734  28.657  30.981  1.00  0.00    -0.744 OA
ENDBRANCH  74  77
ENDBRANCH  56  70
BRANCH  57  81
ATOM     81  C   UNL A   1      51.418  27.800  26.210  1.00  0.00     0.023 A 
ATOM     82  C   UNL A   1      52.342  27.799  27.273  1.00  0.00     0.012 A 
ATOM     83  C   UNL A   1      51.894  27.662  24.891  1.00  0.00     0.148 A 
ATOM     84  C   UNL A   1      53.712  27.691  27.026  1.00  0.00     0.002 A 
ATOM     85  C   UNL A   1      53.255  27.497  24.656  1.00  0.00     0.091 A 
ATOM     86  F   UNL A   1      51.008  27.705  23.885  1.00  0.00    -0.205 F 
ATOM     87  C   UNL A   1      54.168  27.527  25.720  1.00  0.00     0.022 A 
BRANCH  85  88
ATOM     88  S   UNL A   1      53.903  27.157  23.016  1.00  0.00     0.127 S 
ATOM     89  O   UNL A   1      53.028  26.078  22.565  1.00  0.00    -0.237 OA
ATOM     90  O   UNL A   1      53.704  28.438  22.336  1.00  0.00    -0.237 OA
ATOM     91  O   UNL A   1      55.302  26.802  23.218  1.00  0.00    -0.744 OA
ENDBRANCH  85  88
ENDBRANCH  57  81
BRANCH  69  92
ATOM     92  C   UNL A   1      47.468  33.374  27.647  1.00  0.00     0.023 A 
ATOM     93  C   UNL A   1      47.313  34.182  26.503  1.00  0.00     0.012 A 
ATOM     94  C   UNL A   1      47.807  33.972  28.877  1.00  0.00     0.148 A 
ATOM     95  C   UNL A   1      47.510  35.560  26.578  1.00  0.00     0.002 A 
ATOM     96  C   UNL A   1      47.958  35.352  28.953  1.00  0.00     0.091 A 
ATOM     97  F   UNL A   1      47.963  33.182  29.950  1.00  0.00    -0.205 F 
ATOM     98  C   UNL A   1      47.819  36.145  27.803  1.00  0.00     0.022 A 
BRANCH  96  99
ATOM     99  S   UNL A   1      48.268  36.206  30.502  1.00  0.00     0.127 S 
ATOM    100  O   UNL A   1      48.395  37.594  30.058  1.00  0.00    -0.237 OA
ATOM    101  O   UNL A   1      47.051  35.919  31.263  1.00  0.00    -0.237 OA
ATOM    102  O   UNL A   1      49.480  35.616  31.054  1.00  0.00    -0.744 OA
ENDBRANCH  96  99
ENDBRANCH  69  92
ENDBRANCH  43  44
ENDBRANCH  36  38
ENDBRANCH  35  36
ENDBRANCH  34  35
ENDBRANCH  33  34
ENDBRANCH  32  33
ENDBRANCH  31  32
ENDBRANCH   1  31
TORSDOF 28
ENDMDL
MODEL 2
REMARK VINA RESULT:      -9.1      1.650      7.685
REMARK SMILES O=C(N[C@@H](CS)C(=O)N[C@@H](CO)C(=O)OCCOCCOCCOC(=O)c1ccc(-c2c3nc(c(-c4cccc(S(=O)(=O)[O-])c4F)c4ccc([nH]4)c(-c4cccc(S(=O)(=O)[O-])c4F)c4nc(c(-c5cccc(S(=O)(=O)[O-])c5F)c5ccc2[nH]5)C=C4)C=C3)cc1)c1ccc(F)cc1
REMARK SMILES IDX 19 1 18 2 17 3 16 4 15 5 13 6 14 7 10 8 9 9 7 10 8 11 4 13
REMARK SMILES IDX 3 14 1 15 2 16 90 18 91 19 96 20 92 21 95 22 93 23 94 24
REMARK SMILES IDX 5 25 6 26 11 28 12 29 20 31 21 32 22 33 23 34 24 35 25 36
REMARK SMILES IDX 26 37 27 38 28 39 89 40 29 41 88 42 30 43 31 44 32 45 82 46
REMARK SMILES IDX 33 47 87 48 81 49 83 50 34 51 86 52 80 53 79 54 35 56 67 57
REMARK SMILES IDX 47 58 66 59 48 60 51 61 65 62 84 63 49 64 50 65 64 67 85 68
REMARK SMILES IDX 52 69 36 70 37 71 45 72 38 73 40 74 46 75 39 76 41 77 42 78
REMARK SMILES IDX 43 79 44 80 68 81 69 82 77 83 70 84 72 85 78 86 71 87 73 88
REMARK SMILES IDX 74 89 75 90 76 91 53 92 54 93 62 94 55 95 57 96 63 97 56 98
REMARK SMILES IDX 58 99 59 100 60 101 61 102
REMARK H PARENT 9 12 3 17 6 27 12 30 83 55 51 66
REMARK Flexibility Score: inf
ROOT
ATOM      1  C   UNL A   1      39.833  22.881  26.335  1.00  0.00     0.188 C 
ENDROOT
BRANCH   1   2
ATOM      2  O   UNL A   1      38.559  23.417  26.646  1.00  0.00    -0.376 OA
BRANCH   2   3
ATOM      3  C   UNL A   1      37.566  23.433  25.627  1.00  0.00     0.202 C 
BRANCH   3   4
ATOM      4  C   UNL A   1      36.382  22.478  25.781  1.00  0.00     0.261 C 
BRANCH   4   5
ATOM      5  O   UNL A   1      35.578  22.409  24.584  1.00  0.00    -0.462 OA
BRANCH   5   6
ATOM      6  C   UNL A   1      34.648  21.410  24.598  1.00  0.00     0.331 C 
ATOM      7  O   UNL A   1      34.906  20.239  24.857  1.00  0.00    -0.250 OA
BRANCH   6   8
ATOM      8  C   UNL A   1      33.225  21.888  24.239  1.00  0.00     0.218 C 
BRANCH   8   9
ATOM      9  N   UNL A   1      33.101  22.730  23.042  1.00  0.00    -0.339 N 
ATOM     10  C   UNL A   1      32.782  24.033  22.845  1.00  0.00     0.244 C 
ATOM     11  O   UNL A   1      32.634  24.374  21.663  1.00  0.00    -0.273 OA
ATOM     12  H   UNL A   1      33.290  22.246  22.206  1.00  0.00     0.164 HD
BRANCH  10  13
ATOM     13  C   UNL A   1      32.646  25.106  23.950  1.00  0.00     0.181 C 
BRANCH  13  14
ATOM     14  N   UNL A   1      31.661  24.830  24.992  1.00  0.00    -0.339 N 
ATOM     15  O   UNL A   1      29.965  25.313  26.391  1.00  0.00    -0.269 OA
ATOM     16  C   UNL A   1      30.590  25.607  25.376  1.00  0.00     0.251 C 
ATOM     17  H   UNL A   1      31.777  23.983  25.481  1.00  0.00     0.164 HD
BRANCH  16  18
ATOM     18  C   UNL A   1      30.193  26.810  24.600  1.00  0.00     0.040 A 
ATOM     19  C   UNL A   1      29.004  26.840  23.857  1.00  0.00     0.017 A 
ATOM     20  C   UNL A   1      30.998  27.956  24.671  1.00  0.00     0.017 A 
ATOM     21  C   UNL A   1      28.662  27.984  23.132  1.00  0.00     0.040 A 
ATOM     22  C   UNL A   1      30.644  29.104  23.956  1.00  0.00     0.040 A 
ATOM     23  C   UNL A   1      29.486  29.104  23.186  1.00  0.00     0.123 A 
ATOM     24  F   UNL A   1      29.147  30.201  22.495  1.00  0.00    -0.207 F 
ENDBRANCH  16  18
ENDBRANCH  13  14
BRANCH  13  25
ATOM     25  C   UNL A   1      33.974  25.683  24.462  1.00  0.00     0.101 C 
BRANCH  25  26
ATOM     26  S   UNL A   1      33.967  26.614  26.017  1.00  0.00    -0.177 SA
ATOM     27  H   UNL A   1      34.146  27.936  25.755  1.00  0.00     0.102 HD
ENDBRANCH  25  26
ENDBRANCH  13  25
ENDBRANCH  10  13
ENDBRANCH   8   9
BRANCH   8  28
ATOM     28  C   UNL A   1      32.342  20.644  24.088  1.00  0.00     0.193 C 
BRANCH  28  29
ATOM     29  O   UNL A   1      31.964  20.119  25.362  1.00  0.00    -0.394 OA
ATOM     30  H   UNL A   1      31.326  19.399  25.238  1.00  0.00     0.210 HD
ENDBRANCH  28  29
ENDBRANCH   8  28
ENDBRANCH   6   8
ENDBRANCH   5   6
ENDBRANCH   4   5
ENDBRANCH   3   4
ENDBRANCH   2   3
ENDBRANCH   1   2
BRANCH   1  31
ATOM     31  C   UNL A   1      40.013  21.352  26.345  1.00  0.00     0.188 C 
BRANCH  31  32
ATOM     32  O   UNL A   1      41.275  20.763  26.604  1.00  0.00    -0.376 OA
BRANCH  32  33
ATOM     33  C   UNL A   1      41.328  19.348  26.748  1.00  0.00     0.202 C 
BRANCH  33  34
ATOM     34  C   UNL A   1      42.491  18.590  26.102  1.00  0.00     0.261 C 
BRANCH  34  35
ATOM     35  O   UNL A   1      42.934  19.184  24.872  1.00  0.00    -0.460 OA
BRANCH  35  36
ATOM     36  C   UNL A   1      44.229  19.590  24.871  1.00  0.00     0.338 C 
ATOM     37  O   UNL A   1      45.209  18.952  24.534  1.00  0.00    -0.246 OA
BRANCH  36  38
ATOM     38  C   UNL A   1      44.279  21.022  25.212  1.00  0.00     0.060 A 
ATOM     39  C   UNL A   1      44.133  21.961  24.186  1.00  0.00     0.016 A 
ATOM     40  C   UNL A   1      44.540  21.432  26.518  1.00  0.00     0.016 A 
ATOM     41  C   UNL A   1      44.197  23.324  24.472  1.00  0.00     0.010 A 
ATOM     42  C   UNL A   1      44.637  22.799  26.797  1.00  0.00     0.010 A 
ATOM     43  C   UNL A   1      44.461  23.751  25.777  1.00  0.00    -0.014 A 
BRANCH  43  44
ATOM     44  C   UNL A   1      44.671  25.190  26.054  1.00  0.00     0.031 A 
ATOM     45  C   UNL A   1      46.055  25.758  25.934  1.00  0.00     0.074 A 
ATOM     46  C   UNL A   1      43.642  25.986  26.398  1.00  0.00     0.049 A 
ATOM     47  N   UNL A   1      46.497  26.934  26.289  1.00  0.00    -0.248 NA
ATOM     48  C   UNL A   1      47.069  24.890  25.314  1.00  0.00     0.031 C 
ATOM     49  C   UNL A   1      42.239  25.580  26.449  1.00  0.00     0.029 A 
ATOM     50  N   UNL A   1      43.628  27.300  26.797  1.00  0.00    -0.354 N 
ATOM     51  C   UNL A   1      47.850  26.936  25.976  1.00  0.00     0.074 A 
ATOM     52  C   UNL A   1      48.150  25.653  25.376  1.00  0.00     0.031 C 
ATOM     53  C   UNL A   1      41.503  26.613  26.895  1.00  0.00     0.029 A 
ATOM     54  C   UNL A   1      42.391  27.730  27.216  1.00  0.00     0.049 A 
ATOM     55  H   UNL A   1      44.426  27.877  26.785  1.00  0.00     0.167 HD
ATOM     56  C   UNL A   1      48.760  27.916  26.178  1.00  0.00     0.034 A 
ATOM     57  C   UNL A   1      42.030  28.868  27.844  1.00  0.00     0.034 A 
ATOM     58  C   UNL A   1      48.458  29.189  26.770  1.00  0.00     0.049 A 
ATOM     59  C   UNL A   1      43.088  29.895  28.169  1.00  0.00     0.074 A 
ATOM     60  C   UNL A   1      49.317  30.243  27.030  1.00  0.00     0.029 A 
ATOM     61  N   UNL A   1      47.202  29.579  27.206  1.00  0.00    -0.354 N 
ATOM     62  N   UNL A   1      44.357  29.907  27.840  1.00  0.00    -0.248 NA
ATOM     63  C   UNL A   1      42.662  31.063  28.956  1.00  0.00     0.031 C 
ATOM     64  C   UNL A   1      48.583  31.261  27.645  1.00  0.00     0.029 A 
ATOM     65  C   UNL A   1      47.265  30.849  27.752  1.00  0.00     0.049 A 
ATOM     66  H   UNL A   1      46.386  29.032  27.140  1.00  0.00     0.167 HD
ATOM     67  C   UNL A   1      44.876  31.087  28.364  1.00  0.00     0.074 A 
ATOM     68  C   UNL A   1      43.776  31.780  29.004  1.00  0.00     0.031 C 
ATOM     69  C   UNL A   1      46.151  31.546  28.341  1.00  0.00     0.034 A 
BRANCH  56  70
ATOM     70  C   UNL A   1      50.178  27.643  25.762  1.00  0.00     0.023 A 
ATOM     71  C   UNL A   1      51.145  27.338  26.739  1.00  0.00     0.012 A 
ATOM     72  C   UNL A   1      50.536  27.640  24.402  1.00  0.00     0.148 A 
ATOM     73  C   UNL A   1      52.457  27.049  26.367  1.00  0.00     0.002 A 
ATOM     74  C   UNL A   1      51.837  27.318  24.036  1.00  0.00     0.091 A 
ATOM     75  F   UNL A   1      49.603  27.962  23.494  1.00  0.00    -0.205 F 
ATOM     76  C   UNL A   1      52.800  27.030  25.017  1.00  0.00     0.022 A 
BRANCH  74  77
ATOM     77  S   UNL A   1      52.361  27.209  22.322  1.00  0.00     0.127 S 
ATOM     78  O   UNL A   1      51.130  26.769  21.666  1.00  0.00    -0.237 OA
ATOM     79  O   UNL A   1      52.747  28.590  22.031  1.00  0.00    -0.237 OA
ATOM     80  O   UNL A   1      53.458  26.252  22.296  1.00  0.00    -0.744 OA
ENDBRANCH  74  77
ENDBRANCH  56  70
BRANCH  57  81
ATOM     81  C   UNL A   1      40.613  29.093  28.249  1.00  0.00     0.023 A 
ATOM     82  C   UNL A   1      39.660  29.461  27.280  1.00  0.00     0.012 A 
ATOM     83  C   UNL A   1      40.206  28.965  29.592  1.00  0.00     0.148 A 
ATOM     84  C   UNL A   1      38.339  29.724  27.643  1.00  0.00     0.002 A 
ATOM     85  C   UNL A   1      38.875  29.172  29.939  1.00  0.00     0.091 A 
ATOM     86  F   UNL A   1      41.131  28.653  30.512  1.00  0.00    -0.205 F 
ATOM     87  C   UNL A   1      37.943  29.568  28.969  1.00  0.00     0.022 A 
BRANCH  85  88
ATOM     88  S   UNL A   1      38.266  28.870  31.602  1.00  0.00     0.127 S 
ATOM     89  O   UNL A   1      36.837  29.133  31.449  1.00  0.00    -0.237 OA
ATOM     90  O   UNL A   1      38.617  27.463  31.805  1.00  0.00    -0.237 OA
ATOM     91  O   UNL A   1      38.999  29.795  32.456  1.00  0.00    -0.744 OA
ENDBRANCH  85  88
ENDBRANCH  57  81
BRANCH  69  92
ATOM     92  C   UNL A   1      46.439  32.861  29.017  1.00  0.00     0.023 A 
ATOM     93  C   UNL A   1      46.892  32.868  30.352  1.00  0.00     0.012 A 
ATOM     94  C   UNL A   1      46.356  34.075  28.307  1.00  0.00     0.148 A 
ATOM     95  C   UNL A   1      47.239  34.067  30.974  1.00  0.00     0.002 A 
ATOM     96  C   UNL A   1      46.746  35.260  28.921  1.00  0.00     0.091 A 
ATOM     97  F   UNL A   1      45.908  34.046  27.043  1.00  0.00    -0.205 F 
ATOM     98  C   UNL A   1      47.178  35.258  30.257  1.00  0.00     0.022 A 
BRANCH  96  99
ATOM     99  S   UNL A   1      46.788  36.831  28.051  1.00  0.00     0.127 S 
ATOM    100  O   UNL A   1      45.425  37.321  28.252  1.00  0.00    -0.237 OA
ATOM    101  O   UNL A   1      47.815  37.567  28.790  1.00  0.00    -0.237 OA
ATOM    102  O   UNL A   1      47.140  36.520  26.672  1.00  0.00    -0.744 OA
ENDBRANCH  96  99
ENDBRANCH  69  92
ENDBRANCH  43  44
ENDBRANCH  36  38
ENDBRANCH  35  36
ENDBRANCH  34  35
ENDBRANCH  33  34
ENDBRANCH  32  33
ENDBRANCH  31  32
ENDBRANCH   1  31
TORSDOF 28
ENDMDL
MODEL 3
REMARK VINA RESULT:      -8.9      6.073      8.795
REMARK SMILES O=C(N[C@@H](CS)C(=O)N[C@@H](CO)C(=O)OCCOCCOCCOC(=O)c1ccc(-c2c3nc(c(-c4cccc(S(=O)(=O)[O-])c4F)c4ccc([nH]4)c(-c4cccc(S(=O)(=O)[O-])c4F)c4nc(c(-c5cccc(S(=O)(=O)[O-])c5F)c5ccc2[nH]5)C=C4)C=C3)cc1)c1ccc(F)cc1
REMARK SMILES IDX 19 1 18 2 17 3 16 4 15 5 13 6 14 7 10 8 9 9 7 10 8 11 4 13
REMARK SMILES IDX 3 14 1 15 2 16 90 18 91 19 96 20 92 21 95 22 93 23 94 24
REMARK SMILES IDX 5 25 6 26 11 28 12 29 20 31 21 32 22 33 23 34 24 35 25 36
REMARK SMILES IDX 26 37 27 38 28 39 89 40 29 41 88 42 30 43 31 44 32 45 82 46
REMARK SMILES IDX 33 47 87 48 81 49 83 50 34 51 86 52 80 53 79 54 35 56 67 57
REMARK SMILES IDX 47 58 66 59 48 60 51 61 65 62 84 63 49 64 50 65 64 67 85 68
REMARK SMILES IDX 52 69 36 70 37 71 45 72 38 73 40 74 46 75 39 76 41 77 42 78
REMARK SMILES IDX 43 79 44 80 68 81 69 82 77 83 70 84 72 85 78 86 71 87 73 88
REMARK SMILES IDX 74 89 75 90 76 91 53 92 54 93 62 94 55 95 57 96 63 97 56 98
REMARK SMILES IDX 58 99 59 100 60 101 61 102
REMARK H PARENT 9 12 3 17 6 27 12 30 83 55 51 66
REMARK Flexibility Score: inf
ROOT
ATOM      1  C   UNL A   1      40.586  22.620  26.532  1.00  0.00     0.188 C 
ENDROOT
BRANCH   1   2
ATOM      2  O   UNL A   1      39.206  22.527  26.225  1.00  0.00    -0.376 OA
BRANCH   2   3
ATOM      3  C   UNL A   1      38.381  23.660  26.475  1.00  0.00     0.202 C 
BRANCH   3   4
ATOM      4  C   UNL A   1      37.088  23.782  25.669  1.00  0.00     0.261 C 
BRANCH   4   5
ATOM      5  O   UNL A   1      36.920  22.691  24.739  1.00  0.00    -0.462 OA
BRANCH   5   6
ATOM      6  C   UNL A   1      35.807  22.796  23.957  1.00  0.00     0.331 C 
ATOM      7  O   UNL A   1      35.802  23.300  22.838  1.00  0.00    -0.250 OA
BRANCH   6   8
ATOM      8  C   UNL A   1      34.533  22.230  24.619  1.00  0.00     0.218 C 
BRANCH   8   9
ATOM      9  N   UNL A   1      33.513  21.686  23.713  1.00  0.00    -0.339 N 
ATOM     10  C   UNL A   1      32.377  22.191  23.173  1.00  0.00     0.244 C 
ATOM     11  O   UNL A   1      31.674  21.383  22.552  1.00  0.00    -0.273 OA
ATOM     12  H   UNL A   1      33.692  20.757  23.441  1.00  0.00     0.164 HD
BRANCH  10  13
ATOM     13  C   UNL A   1      31.932  23.671  23.229  1.00  0.00     0.181 C 
BRANCH  13  14
ATOM     14  N   UNL A   1      31.922  24.384  21.955  1.00  0.00    -0.339 N 
ATOM     15  O   UNL A   1      31.719  26.177  20.609  1.00  0.00    -0.269 OA
ATOM     16  C   UNL A   1      31.908  25.745  21.742  1.00  0.00     0.251 C 
ATOM     17  H   UNL A   1      31.924  23.821  21.146  1.00  0.00     0.164 HD
BRANCH  16  18
ATOM     18  C   UNL A   1      32.092  26.702  22.865  1.00  0.00     0.040 A 
ATOM     19  C   UNL A   1      31.009  27.407  23.409  1.00  0.00     0.017 A 
ATOM     20  C   UNL A   1      33.369  26.847  23.425  1.00  0.00     0.017 A 
ATOM     21  C   UNL A   1      31.217  28.304  24.459  1.00  0.00     0.040 A 
ATOM     22  C   UNL A   1      33.570  27.735  24.486  1.00  0.00     0.040 A 
ATOM     23  C   UNL A   1      32.495  28.463  24.986  1.00  0.00     0.123 A 
ATOM     24  F   UNL A   1      32.685  29.319  25.999  1.00  0.00    -0.207 F 
ENDBRANCH  16  18
ENDBRANCH  13  14
BRANCH  13  25
ATOM     25  C   UNL A   1      30.720  23.952  24.129  1.00  0.00     0.101 C 
BRANCH  25  26
ATOM     26  S   UNL A   1      31.019  24.446  25.848  1.00  0.00    -0.177 SA
ATOM     27  H   UNL A   1      30.790  25.780  25.982  1.00  0.00     0.102 HD
ENDBRANCH  25  26
ENDBRANCH  13  25
ENDBRANCH  10  13
ENDBRANCH   8   9
BRANCH   8  28
ATOM     28  C   UNL A   1      34.968  21.149  25.614  1.00  0.00     0.193 C 
BRANCH  28  29
ATOM     29  O   UNL A   1      35.526  20.019  24.939  1.00  0.00    -0.394 OA
ATOM     30  H   UNL A   1      34.811  19.457  24.604  1.00  0.00     0.210 HD
ENDBRANCH  28  29
ENDBRANCH   8  28
ENDBRANCH   6   8
ENDBRANCH   5   6
ENDBRANCH   4   5
ENDBRANCH   3   4
ENDBRANCH   2   3
ENDBRANCH   1   2
BRANCH   1  31
ATOM     31  C   UNL A   1      41.415  21.326  26.608  1.00  0.00     0.188 C 
BRANCH  31  32
ATOM     32  O   UNL A   1      42.825  21.363  26.742  1.00  0.00    -0.376 OA
BRANCH  32  33
ATOM     33  C   UNL A   1      43.601  21.457  25.553  1.00  0.00     0.202 C 
BRANCH  33  34
ATOM     34  C   UNL A   1      44.462  22.705  25.337  1.00  0.00     0.261 C 
BRANCH  34  35
ATOM     35  O   UNL A   1      43.687  23.877  25.041  1.00  0.00    -0.460 OA
BRANCH  35  36
ATOM     36  C   UNL A   1      44.306  25.053  25.315  1.00  0.00     0.338 C 
ATOM     37  O   UNL A   1      45.206  25.583  24.692  1.00  0.00    -0.246 OA
BRANCH  36  38
ATOM     38  C   UNL A   1      43.615  25.704  26.441  1.00  0.00     0.060 A 
ATOM     39  C   UNL A   1      44.088  26.941  26.892  1.00  0.00     0.016 A 
ATOM     40  C   UNL A   1      42.560  25.068  27.090  1.00  0.00     0.016 A 
ATOM     41  C   UNL A   1      43.470  27.574  27.970  1.00  0.00     0.010 A 
ATOM     42  C   UNL A   1      41.963  25.690  28.192  1.00  0.00     0.010 A 
ATOM     43  C   UNL A   1      42.411  26.946  28.634  1.00  0.00    -0.014 A 
BRANCH  43  44
ATOM     44  C   UNL A   1      41.851  27.551  29.864  1.00  0.00     0.031 A 
ATOM     45  C   UNL A   1      40.548  28.289  29.782  1.00  0.00     0.074 A 
ATOM     46  C   UNL A   1      42.490  27.437  31.043  1.00  0.00     0.049 A 
ATOM     47  N   UNL A   1      39.963  29.033  30.681  1.00  0.00    -0.248 NA
ATOM     48  C   UNL A   1      39.796  28.153  28.524  1.00  0.00     0.031 C 
ATOM     49  C   UNL A   1      43.707  26.661  31.275  1.00  0.00     0.029 A 
ATOM     50  N   UNL A   1      42.211  28.002  32.264  1.00  0.00    -0.354 N 
ATOM     51  C   UNL A   1      38.795  29.491  30.087  1.00  0.00     0.074 A 
ATOM     52  C   UNL A   1      38.739  28.917  28.759  1.00  0.00     0.031 C 
ATOM     53  C   UNL A   1      44.094  26.831  32.552  1.00  0.00     0.029 A 
ATOM     54  C   UNL A   1      43.186  27.773  33.207  1.00  0.00     0.049 A 
ATOM     55  H   UNL A   1      41.394  28.520  32.446  1.00  0.00     0.167 HD
ATOM     56  C   UNL A   1      37.857  30.320  30.600  1.00  0.00     0.034 A 
ATOM     57  C   UNL A   1      43.358  28.310  34.432  1.00  0.00     0.034 A 
ATOM     58  C   UNL A   1      37.914  30.884  31.920  1.00  0.00     0.049 A 
ATOM     59  C   UNL A   1      42.363  29.328  34.933  1.00  0.00     0.074 A 
ATOM     60  C   UNL A   1      37.017  31.748  32.525  1.00  0.00     0.029 A 
ATOM     61  N   UNL A   1      38.927  30.652  32.835  1.00  0.00    -0.354 N 
ATOM     62  N   UNL A   1      41.242  29.730  34.383  1.00  0.00    -0.248 NA
ATOM     63  C   UNL A   1      42.659  29.969  36.224  1.00  0.00     0.031 C 
ATOM     64  C   UNL A   1      37.504  32.056  33.800  1.00  0.00     0.029 A 
ATOM     65  C   UNL A   1      38.691  31.370  33.994  1.00  0.00     0.049 A 
ATOM     66  H   UNL A   1      39.703  30.064  32.683  1.00  0.00     0.167 HD
ATOM     67  C   UNL A   1      40.694  30.655  35.265  1.00  0.00     0.074 A 
ATOM     68  C   UNL A   1      41.589  30.731  36.402  1.00  0.00     0.031 C 
ATOM     69  C   UNL A   1      39.566  31.397  35.137  1.00  0.00     0.034 A 
BRANCH  56  70
ATOM     70  C   UNL A   1      36.691  30.677  29.723  1.00  0.00     0.023 A 
ATOM     71  C   UNL A   1      35.958  29.656  29.088  1.00  0.00     0.012 A 
ATOM     72  C   UNL A   1      36.295  32.018  29.571  1.00  0.00     0.148 A 
ATOM     73  C   UNL A   1      34.853  29.969  28.298  1.00  0.00     0.002 A 
ATOM     74  C   UNL A   1      35.172  32.319  28.810  1.00  0.00     0.091 A 
ATOM     75  F   UNL A   1      37.027  32.973  30.163  1.00  0.00    -0.205 F 
ATOM     76  C   UNL A   1      34.455  31.297  28.167  1.00  0.00     0.022 A 
BRANCH  74  77
ATOM     77  S   UNL A   1      34.547  33.993  28.630  1.00  0.00     0.127 S 
ATOM     78  O   UNL A   1      35.780  34.776  28.690  1.00  0.00    -0.237 OA
ATOM     79  O   UNL A   1      33.918  33.945  27.309  1.00  0.00    -0.237 OA
ATOM     80  O   UNL A   1      33.623  34.199  29.736  1.00  0.00    -0.744 OA
ENDBRANCH  74  77
ENDBRANCH  56  70
BRANCH  57  81
ATOM     81  C   UNL A   1      44.537  27.937  35.264  1.00  0.00     0.023 A 
ATOM     82  C   UNL A   1      45.803  28.475  34.960  1.00  0.00     0.012 A 
ATOM     83  C   UNL A   1      44.419  27.035  36.340  1.00  0.00     0.148 A 
ATOM     84  C   UNL A   1      46.930  28.102  35.694  1.00  0.00     0.002 A 
ATOM     85  C   UNL A   1      45.536  26.713  37.104  1.00  0.00     0.091 A 
ATOM     86  F   UNL A   1      43.216  26.500  36.594  1.00  0.00    -0.205 F 
ATOM     87  C   UNL A   1      46.796  27.232  36.773  1.00  0.00     0.022 A 
BRANCH  85  88
ATOM     88  S   UNL A   1      45.418  25.699  38.582  1.00  0.00     0.127 S 
ATOM     89  O   UNL A   1      46.787  25.748  39.089  1.00  0.00    -0.237 OA
ATOM     90  O   UNL A   1      44.437  26.435  39.382  1.00  0.00    -0.237 OA
ATOM     91  O   UNL A   1      44.953  24.397  38.122  1.00  0.00    -0.744 OA
ENDBRANCH  85  88
ENDBRANCH  57  81
BRANCH  69  92
ATOM     92  C   UNL A   1      39.220  32.350  36.251  1.00  0.00     0.023 A 
ATOM     93  C   UNL A   1      39.650  33.690  36.173  1.00  0.00     0.012 A 
ATOM     94  C   UNL A   1      38.391  31.950  37.318  1.00  0.00     0.148 A 
ATOM     95  C   UNL A   1      39.278  34.611  37.151  1.00  0.00     0.002 A 
ATOM     96  C   UNL A   1      37.988  32.884  38.265  1.00  0.00     0.091 A 
ATOM     97  F   UNL A   1      38.006  30.666  37.379  1.00  0.00    -0.205 F 
ATOM     98  C   UNL A   1      38.438  34.212  38.188  1.00  0.00     0.022 A 
BRANCH  96  99
ATOM     99  S   UNL A   1      36.836  32.487  39.585  1.00  0.00     0.127 S 
ATOM    100  O   UNL A   1      35.592  32.284  38.844  1.00  0.00    -0.237 OA
ATOM    101  O   UNL A   1      37.418  31.266  40.146  1.00  0.00    -0.237 OA
ATOM    102  O   UNL A   1      36.845  33.632  40.486  1.00  0.00    -0.744 OA
ENDBRANCH  96  99
ENDBRANCH  69  92
ENDBRANCH  43  44
ENDBRANCH  36  38
ENDBRANCH  35  36
ENDBRANCH  34  35
ENDBRANCH  33  34
ENDBRANCH  32  33
ENDBRANCH  31  32
ENDBRANCH   1  31
TORSDOF 28
ENDMDL
