MODEL 1
REMARK VINA RESULT:      -8.7      0.000      0.000
REMARK SMILES CC(C)(C)[N@H+](CCC(=O)OCCOCCOCCOC(=O)c1ccc(-c2c3nc(c(-c4cccc(S(=O)(=O)[O-])c4F)c4ccc([nH]4)c(-c4cccc(S(=O)(=O)[O-])c4F)c4nc(c(-c5cccc(S(=O)(=O)[O-])c5F)c5ccc2[nH]5)C=C4)C=C3)cc1)C[C@H]1COc2ccccc21
REMARK SMILES IDX 14 1 13 2 12 3 11 4 10 5 8 6 9 7 7 8 6 9 5 10 2 12 1 13 3 14
REMARK SMILES IDX 4 15 85 16 86 17 87 18 94 19 88 20 89 21 93 22 90 23 92 24
REMARK SMILES IDX 91 25 15 26 16 27 17 28 18 29 19 30 20 31 21 32 22 33 23 34
REMARK SMILES IDX 84 35 24 36 83 37 25 38 26 39 27 40 77 41 28 42 82 43 76 44
REMARK SMILES IDX 78 45 29 46 81 47 75 48 74 49 30 51 62 52 42 53 61 54 43 55
REMARK SMILES IDX 46 56 60 57 79 58 44 59 45 60 59 62 80 63 47 64 31 65 32 66
REMARK SMILES IDX 40 67 33 68 35 69 41 70 34 71 36 72 37 73 38 74 39 75 63 76
REMARK SMILES IDX 64 77 72 78 65 79 67 80 73 81 66 82 68 83 69 84 70 85 71 86
REMARK SMILES IDX 48 87 49 88 57 89 50 90 52 91 58 92 51 93 53 94 54 95 55 96
REMARK SMILES IDX 56 97
REMARK H PARENT 5 11 78 50 46 61
REMARK Flexibility Score: inf
ROOT
ATOM      1  C   UNL A   1      40.893  27.889  27.132  1.00  0.00     0.188 C 
ENDROOT
BRANCH   1   2
ATOM      2  O   UNL A   1      40.860  26.686  26.396  1.00  0.00    -0.376 OA
BRANCH   2   3
ATOM      3  C   UNL A   1      40.037  25.675  26.962  1.00  0.00     0.202 C 
BRANCH   3   4
ATOM      4  C   UNL A   1      39.632  24.546  25.991  1.00  0.00     0.261 C 
BRANCH   4   5
ATOM      5  O   UNL A   1      38.839  23.519  26.700  1.00  0.00    -0.463 OA
BRANCH   5   6
ATOM      6  C   UNL A   1      37.857  22.932  25.951  1.00  0.00     0.311 C 
ATOM      7  O   UNL A   1      37.836  21.718  25.749  1.00  0.00    -0.252 OA
BRANCH   6   8
ATOM      8  C   UNL A   1      36.723  23.857  25.412  1.00  0.00     0.184 C 
BRANCH   8   9
ATOM      9  C   UNL A   1      35.151  23.901  25.694  1.00  0.00     0.274 C 
BRANCH   9  10
ATOM     10  N   UNL A   1      34.072  23.192  24.907  1.00  0.00    -0.330 N 
ATOM     11  H   UNL A   1      33.447  23.046  25.699  1.00  0.00     0.348 HD
BRANCH  10  12
ATOM     12  C   UNL A   1      33.171  23.947  23.971  1.00  0.00     0.089 C 
ATOM     13  C   UNL A   1      31.762  24.250  24.520  1.00  0.00     0.078 C 
ATOM     14  C   UNL A   1      32.953  23.050  22.719  1.00  0.00     0.078 C 
ATOM     15  C   UNL A   1      33.743  25.306  23.467  1.00  0.00     0.078 C 
ENDBRANCH  10  12
BRANCH  10  16
ATOM     16  C   UNL A   1      34.477  21.865  24.330  1.00  0.00     0.274 C 
BRANCH  16  17
ATOM     17  C   UNL A   1      34.367  20.589  25.232  1.00  0.00     0.116 C 
ATOM     18  C   UNL A   1      32.971  20.624  25.772  1.00  0.00     0.244 C 
ATOM     19  C   UNL A   1      34.216  19.254  24.558  1.00  0.00     0.006 A 
ATOM     20  O   UNL A   1      32.172  20.156  24.669  1.00  0.00    -0.492 OA
ATOM     21  C   UNL A   1      32.923  19.195  24.081  1.00  0.00     0.123 A 
ATOM     22  C   UNL A   1      34.946  18.093  24.516  1.00  0.00     0.008 A 
ATOM     23  C   UNL A   1      32.394  18.217  23.277  1.00  0.00     0.047 A 
ATOM     24  C   UNL A   1      34.395  16.991  23.826  1.00  0.00     0.001 A 
ATOM     25  C   UNL A   1      33.163  17.079  23.144  1.00  0.00     0.004 A 
ENDBRANCH  16  17
ENDBRANCH  10  16
ENDBRANCH   9  10
ENDBRANCH   8   9
ENDBRANCH   6   8
ENDBRANCH   5   6
ENDBRANCH   4   5
ENDBRANCH   3   4
ENDBRANCH   2   3
ENDBRANCH   1   2
BRANCH   1  26
ATOM     26  C   UNL A   1      39.591  28.345  27.787  1.00  0.00     0.188 C 
BRANCH  26  27
ATOM     27  O   UNL A   1      38.860  29.454  27.269  1.00  0.00    -0.376 OA
BRANCH  27  28
ATOM     28  C   UNL A   1      38.194  30.188  28.326  1.00  0.00     0.202 C 
BRANCH  28  29
ATOM     29  C   UNL A   1      36.831  29.598  28.767  1.00  0.00     0.261 C 
BRANCH  29  30
ATOM     30  O   UNL A   1      36.840  28.985  30.078  1.00  0.00    -0.460 OA
BRANCH  30  31
ATOM     31  C   UNL A   1      37.265  29.752  31.120  1.00  0.00     0.338 C 
ATOM     32  O   UNL A   1      36.595  30.557  31.716  1.00  0.00    -0.246 OA
BRANCH  31  33
ATOM     33  C   UNL A   1      38.600  29.238  31.589  1.00  0.00     0.060 A 
ATOM     34  C   UNL A   1      39.614  30.180  31.818  1.00  0.00     0.016 A 
ATOM     35  C   UNL A   1      38.823  27.899  31.939  1.00  0.00     0.016 A 
ATOM     36  C   UNL A   1      40.854  29.784  32.340  1.00  0.00     0.010 A 
ATOM     37  C   UNL A   1      40.058  27.505  32.474  1.00  0.00     0.010 A 
ATOM     38  C   UNL A   1      41.100  28.437  32.635  1.00  0.00    -0.014 A 
BRANCH  38  39
ATOM     39  C   UNL A   1      42.491  27.958  32.866  1.00  0.00     0.031 A 
ATOM     40  C   UNL A   1      43.327  27.627  31.655  1.00  0.00     0.074 A 
ATOM     41  C   UNL A   1      43.021  27.803  34.095  1.00  0.00     0.049 A 
ATOM     42  N   UNL A   1      44.549  27.171  31.583  1.00  0.00    -0.248 NA
ATOM     43  C   UNL A   1      42.687  27.837  30.344  1.00  0.00     0.031 C 
ATOM     44  C   UNL A   1      42.347  28.085  35.358  1.00  0.00     0.029 A 
ATOM     45  N   UNL A   1      44.262  27.341  34.472  1.00  0.00    -0.354 N 
ATOM     46  C   UNL A   1      44.816  27.015  30.228  1.00  0.00     0.074 A 
ATOM     47  C   UNL A   1      43.622  27.403  29.512  1.00  0.00     0.031 C 
ATOM     48  C   UNL A   1      43.171  27.764  36.374  1.00  0.00     0.029 A 
ATOM     49  C   UNL A   1      44.427  27.240  35.835  1.00  0.00     0.049 A 
ATOM     50  H   UNL A   1      44.967  27.105  33.827  1.00  0.00     0.167 HD
ATOM     51  C   UNL A   1      45.955  26.608  29.622  1.00  0.00     0.034 A 
ATOM     52  C   UNL A   1      45.464  26.768  36.560  1.00  0.00     0.034 A 
ATOM     53  C   UNL A   1      47.158  26.239  30.314  1.00  0.00     0.049 A 
ATOM     54  C   UNL A   1      46.716  26.288  35.861  1.00  0.00     0.074 A 
ATOM     55  C   UNL A   1      48.375  25.860  29.775  1.00  0.00     0.029 A 
ATOM     56  N   UNL A   1      47.295  26.188  31.690  1.00  0.00    -0.354 N 
ATOM     57  N   UNL A   1      46.998  26.276  34.581  1.00  0.00    -0.248 NA
ATOM     58  C   UNL A   1      47.806  25.785  36.714  1.00  0.00     0.031 C 
ATOM     59  C   UNL A   1      49.242  25.554  30.828  1.00  0.00     0.029 A 
ATOM     60  C   UNL A   1      48.572  25.770  32.022  1.00  0.00     0.049 A 
ATOM     61  H   UNL A   1      46.589  26.417  32.337  1.00  0.00     0.167 HD
ATOM     62  C   UNL A   1      48.306  25.807  34.479  1.00  0.00     0.074 A 
ATOM     63  C   UNL A   1      48.768  25.560  35.828  1.00  0.00     0.031 C 
ATOM     64  C   UNL A   1      49.051  25.588  33.367  1.00  0.00     0.034 A 
BRANCH  51  65
ATOM     65  C   UNL A   1      45.959  26.570  28.118  1.00  0.00     0.023 A 
ATOM     66  C   UNL A   1      46.148  27.764  27.394  1.00  0.00     0.012 A 
ATOM     67  C   UNL A   1      45.809  25.354  27.426  1.00  0.00     0.148 A 
ATOM     68  C   UNL A   1      46.156  27.754  26.000  1.00  0.00     0.002 A 
ATOM     69  C   UNL A   1      45.862  25.345  26.038  1.00  0.00     0.091 A 
ATOM     70  F   UNL A   1      45.600  24.236  28.135  1.00  0.00    -0.205 F 
ATOM     71  C   UNL A   1      46.023  26.544  25.324  1.00  0.00     0.022 A 
BRANCH  69  72
ATOM     72  S   UNL A   1      45.773  23.829  25.080  1.00  0.00     0.127 S 
ATOM     73  O   UNL A   1      46.677  24.128  23.971  1.00  0.00    -0.237 OA
ATOM     74  O   UNL A   1      46.278  22.835  26.028  1.00  0.00    -0.237 OA
ATOM     75  O   UNL A   1      44.371  23.666  24.720  1.00  0.00    -0.744 OA
ENDBRANCH  69  72
ENDBRANCH  51  65
BRANCH  52  76
ATOM     76  C   UNL A   1      45.395  26.755  38.051  1.00  0.00     0.023 A 
ATOM     77  C   UNL A   1      45.154  25.541  38.724  1.00  0.00     0.012 A 
ATOM     78  C   UNL A   1      45.544  27.937  38.804  1.00  0.00     0.148 A 
ATOM     79  C   UNL A   1      45.030  25.507  40.114  1.00  0.00     0.002 A 
ATOM     80  C   UNL A   1      45.469  27.888  40.192  1.00  0.00     0.091 A 
ATOM     81  F   UNL A   1      45.747  29.086  38.146  1.00  0.00    -0.205 F 
ATOM     82  C   UNL A   1      45.196  26.678  40.848  1.00  0.00     0.022 A 
BRANCH  80  83
ATOM     83  S   UNL A   1      45.769  29.326  41.227  1.00  0.00     0.127 S 
ATOM     84  O   UNL A   1      45.851  28.726  42.557  1.00  0.00    -0.237 OA
ATOM     85  O   UNL A   1      47.041  29.818  40.696  1.00  0.00    -0.237 OA
ATOM     86  O   UNL A   1      44.638  30.215  41.005  1.00  0.00    -0.744 OA
ENDBRANCH  80  83
ENDBRANCH  52  76
BRANCH  64  87
ATOM     87  C   UNL A   1      50.466  25.090  33.539  1.00  0.00     0.023 A 
ATOM     88  C   UNL A   1      51.474  25.977  33.966  1.00  0.00     0.012 A 
ATOM     89  C   UNL A   1      50.774  23.725  33.373  1.00  0.00     0.148 A 
ATOM     90  C   UNL A   1      52.771  25.519  34.198  1.00  0.00     0.002 A 
ATOM     91  C   UNL A   1      52.058  23.267  33.652  1.00  0.00     0.091 A 
ATOM     92  F   UNL A   1      49.808  22.897  32.952  1.00  0.00    -0.205 F 
ATOM     93  C   UNL A   1      53.060  24.164  34.054  1.00  0.00     0.022 A 
BRANCH  91  94
ATOM     94  S   UNL A   1      52.494  21.525  33.589  1.00  0.00     0.127 S 
ATOM     95  O   UNL A   1      51.603  20.956  34.599  1.00  0.00    -0.237 OA
ATOM     96  O   UNL A   1      52.158  21.167  32.210  1.00  0.00    -0.237 OA
ATOM     97  O   UNL A   1      53.916  21.457  33.899  1.00  0.00    -0.744 OA
ENDBRANCH  91  94
ENDBRANCH  64  87
ENDBRANCH  38  39
ENDBRANCH  31  33
ENDBRANCH  30  31
ENDBRANCH  29  30
ENDBRANCH  28  29
ENDBRANCH  27  28
ENDBRANCH  26  27
ENDBRANCH   1  26
TORSDOF 25
ENDMDL
MODEL 2
REMARK VINA RESULT:      -8.6      4.961     10.165
REMARK SMILES CC(C)(C)[N@H+](CCC(=O)OCCOCCOCCOC(=O)c1ccc(-c2c3nc(c(-c4cccc(S(=O)(=O)[O-])c4F)c4ccc([nH]4)c(-c4cccc(S(=O)(=O)[O-])c4F)c4nc(c(-c5cccc(S(=O)(=O)[O-])c5F)c5ccc2[nH]5)C=C4)C=C3)cc1)C[C@H]1COc2ccccc21
REMARK SMILES IDX 14 1 13 2 12 3 11 4 10 5 8 6 9 7 7 8 6 9 5 10 2 12 1 13 3 14
REMARK SMILES IDX 4 15 85 16 86 17 87 18 94 19 88 20 89 21 93 22 90 23 92 24
REMARK SMILES IDX 91 25 15 26 16 27 17 28 18 29 19 30 20 31 21 32 22 33 23 34
REMARK SMILES IDX 84 35 24 36 83 37 25 38 26 39 27 40 77 41 28 42 82 43 76 44
REMARK SMILES IDX 78 45 29 46 81 47 75 48 74 49 30 51 62 52 42 53 61 54 43 55
REMARK SMILES IDX 46 56 60 57 79 58 44 59 45 60 59 62 80 63 47 64 31 65 32 66
REMARK SMILES IDX 40 67 33 68 35 69 41 70 34 71 36 72 37 73 38 74 39 75 63 76
REMARK SMILES IDX 64 77 72 78 65 79 67 80 73 81 66 82 68 83 69 84 70 85 71 86
REMARK SMILES IDX 48 87 49 88 57 89 50 90 52 91 58 92 51 93 53 94 54 95 55 96
REMARK SMILES IDX 56 97
REMARK H PARENT 5 11 78 50 46 61
REMARK Flexibility Score: inf
ROOT
ATOM      1  C   UNL A   1      44.980  21.630  24.250  1.00  0.00     0.188 C 
ENDROOT
BRANCH   1   2
ATOM      2  O   UNL A   1      45.373  20.546  25.061  1.00  0.00    -0.376 OA
BRANCH   2   3
ATOM      3  C   UNL A   1      44.873  19.284  24.639  1.00  0.00     0.202 C 
BRANCH   3   4
ATOM      4  C   UNL A   1      43.661  18.762  25.439  1.00  0.00     0.261 C 
BRANCH   4   5
ATOM      5  O   UNL A   1      42.478  19.613  25.193  1.00  0.00    -0.463 OA
BRANCH   5   6
ATOM      6  C   UNL A   1      41.888  20.117  26.319  1.00  0.00     0.311 C 
ATOM      7  O   UNL A   1      42.114  19.645  27.434  1.00  0.00    -0.252 OA
BRANCH   6   8
ATOM      8  C   UNL A   1      40.962  21.359  26.144  1.00  0.00     0.184 C 
BRANCH   8   9
ATOM      9  C   UNL A   1      39.372  21.513  26.102  1.00  0.00     0.274 C 
BRANCH   9  10
ATOM     10  N   UNL A   1      38.595  22.777  25.809  1.00  0.00    -0.330 N 
ATOM     11  H   UNL A   1      39.109  23.017  24.962  1.00  0.00     0.348 HD
BRANCH  10  12
ATOM     12  C   UNL A   1      37.190  22.718  25.279  1.00  0.00     0.089 C 
ATOM     13  C   UNL A   1      37.023  23.171  23.815  1.00  0.00     0.078 C 
ATOM     14  C   UNL A   1      36.338  23.705  26.128  1.00  0.00     0.078 C 
ATOM     15  C   UNL A   1      36.511  21.320  25.382  1.00  0.00     0.078 C 
ENDBRANCH  10  12
BRANCH  10  16
ATOM     16  C   UNL A   1      38.755  23.870  26.826  1.00  0.00     0.274 C 
BRANCH  16  17
ATOM     17  C   UNL A   1      39.683  25.085  26.484  1.00  0.00     0.116 C 
ATOM     18  C   UNL A   1      39.509  26.031  27.632  1.00  0.00     0.244 C 
ATOM     19  C   UNL A   1      41.165  24.920  26.670  1.00  0.00     0.006 A 
ATOM     20  O   UNL A   1      40.319  25.449  28.672  1.00  0.00    -0.492 OA
ATOM     21  C   UNL A   1      41.400  24.947  28.029  1.00  0.00     0.123 A 
ATOM     22  C   UNL A   1      42.264  24.972  25.850  1.00  0.00     0.008 A 
ATOM     23  C   UNL A   1      42.593  24.691  28.656  1.00  0.00     0.047 A 
ATOM     24  C   UNL A   1      43.539  24.860  26.446  1.00  0.00     0.001 A 
ATOM     25  C   UNL A   1      43.698  24.642  27.831  1.00  0.00     0.004 A 
ENDBRANCH  16  17
ENDBRANCH  10  16
ENDBRANCH   9  10
ENDBRANCH   8   9
ENDBRANCH   6   8
ENDBRANCH   5   6
ENDBRANCH   4   5
ENDBRANCH   3   4
ENDBRANCH   2   3
ENDBRANCH   1   2
BRANCH   1  26
ATOM     26  C   UNL A   1      45.878  22.866  24.249  1.00  0.00     0.188 C 
BRANCH  26  27
ATOM     27  O   UNL A   1      46.524  23.302  25.443  1.00  0.00    -0.376 OA
BRANCH  27  28
ATOM     28  C   UNL A   1      47.190  24.574  25.249  1.00  0.00     0.202 C 
BRANCH  28  29
ATOM     29  C   UNL A   1      47.981  25.087  26.478  1.00  0.00     0.261 C 
BRANCH  29  30
ATOM     30  O   UNL A   1      48.914  26.154  26.186  1.00  0.00    -0.460 OA
BRANCH  30  31
ATOM     31  C   UNL A   1      48.405  27.291  25.637  1.00  0.00     0.338 C 
ATOM     32  O   UNL A   1      48.528  27.630  24.487  1.00  0.00    -0.246 OA
BRANCH  31  33
ATOM     33  C   UNL A   1      47.433  27.907  26.607  1.00  0.00     0.060 A 
ATOM     34  C   UNL A   1      47.963  28.613  27.697  1.00  0.00     0.016 A 
ATOM     35  C   UNL A   1      46.047  27.927  26.392  1.00  0.00     0.016 A 
ATOM     36  C   UNL A   1      47.119  29.287  28.592  1.00  0.00     0.010 A 
ATOM     37  C   UNL A   1      45.205  28.612  27.279  1.00  0.00     0.010 A 
ATOM     38  C   UNL A   1      45.730  29.259  28.413  1.00  0.00    -0.014 A 
BRANCH  38  39
ATOM     39  C   UNL A   1      44.820  29.675  29.515  1.00  0.00     0.031 A 
ATOM     40  C   UNL A   1      44.252  31.071  29.465  1.00  0.00     0.074 A 
ATOM     41  C   UNL A   1      44.497  28.869  30.546  1.00  0.00     0.049 A 
ATOM     42  N   UNL A   1      43.462  31.682  30.308  1.00  0.00    -0.248 NA
ATOM     43  C   UNL A   1      44.636  31.890  28.301  1.00  0.00     0.031 C 
ATOM     44  C   UNL A   1      44.957  27.496  30.734  1.00  0.00     0.029 A 
ATOM     45  N   UNL A   1      43.710  29.114  31.648  1.00  0.00    -0.354 N 
ATOM     46  C   UNL A   1      43.276  32.960  29.794  1.00  0.00     0.074 A 
ATOM     47  C   UNL A   1      44.052  33.046  28.577  1.00  0.00     0.031 C 
ATOM     48  C   UNL A   1      44.467  27.028  31.897  1.00  0.00     0.029 A 
ATOM     49  C   UNL A   1      43.670  28.070  32.545  1.00  0.00     0.049 A 
ATOM     50  H   UNL A   1      43.220  29.957  31.783  1.00  0.00     0.167 HD
ATOM     51  C   UNL A   1      42.512  33.970  30.269  1.00  0.00     0.034 A 
ATOM     52  C   UNL A   1      43.072  27.974  33.752  1.00  0.00     0.034 A 
ATOM     53  C   UNL A   1      41.718  33.898  31.463  1.00  0.00     0.049 A 
ATOM     54  C   UNL A   1      42.249  29.128  34.280  1.00  0.00     0.074 A 
ATOM     55  C   UNL A   1      40.877  34.860  31.993  1.00  0.00     0.029 A 
ATOM     56  N   UNL A   1      41.676  32.812  32.320  1.00  0.00    -0.354 N 
ATOM     57  N   UNL A   1      41.975  30.278  33.714  1.00  0.00    -0.248 NA
ATOM     58  C   UNL A   1      41.627  28.955  35.604  1.00  0.00     0.031 C 
ATOM     59  C   UNL A   1      40.343  34.364  33.187  1.00  0.00     0.029 A 
ATOM     60  C   UNL A   1      40.833  33.083  33.384  1.00  0.00     0.049 A 
ATOM     61  H   UNL A   1      42.170  31.970  32.191  1.00  0.00     0.167 HD
ATOM     62  C   UNL A   1      41.119  30.944  34.589  1.00  0.00     0.074 A 
ATOM     63  C   UNL A   1      40.907  30.063  35.717  1.00  0.00     0.031 C 
ATOM     64  C   UNL A   1      40.571  32.179  34.473  1.00  0.00     0.034 A 
BRANCH  51  65
ATOM     65  C   UNL A   1      42.479  35.244  29.469  1.00  0.00     0.023 A 
ATOM     66  C   UNL A   1      41.583  35.362  28.387  1.00  0.00     0.012 A 
ATOM     67  C   UNL A   1      43.308  36.331  29.806  1.00  0.00     0.148 A 
ATOM     68  C   UNL A   1      41.535  36.532  27.632  1.00  0.00     0.002 A 
ATOM     69  C   UNL A   1      43.222  37.509  29.076  1.00  0.00     0.091 A 
ATOM     70  F   UNL A   1      44.173  36.185  30.820  1.00  0.00    -0.205 F 
ATOM     71  C   UNL A   1      42.346  37.607  27.982  1.00  0.00     0.022 A 
BRANCH  69  72
ATOM     72  S   UNL A   1      44.173  38.974  29.496  1.00  0.00     0.127 S 
ATOM     73  O   UNL A   1      45.533  38.544  29.172  1.00  0.00    -0.237 OA
ATOM     74  O   UNL A   1      43.616  39.974  28.584  1.00  0.00    -0.237 OA
ATOM     75  O   UNL A   1      43.914  39.228  30.906  1.00  0.00    -0.744 OA
ENDBRANCH  69  72
ENDBRANCH  51  65
BRANCH  52  76
ATOM     76  C   UNL A   1      43.186  26.718  34.551  1.00  0.00     0.023 A 
ATOM     77  C   UNL A   1      42.210  25.712  34.406  1.00  0.00     0.012 A 
ATOM     78  C   UNL A   1      44.239  26.523  35.466  1.00  0.00     0.148 A 
ATOM     79  C   UNL A   1      42.261  24.551  35.179  1.00  0.00     0.002 A 
ATOM     80  C   UNL A   1      44.311  25.342  36.198  1.00  0.00     0.091 A 
ATOM     81  F   UNL A   1      45.144  27.501  35.610  1.00  0.00    -0.205 F 
ATOM     82  C   UNL A   1      43.315  24.362  36.068  1.00  0.00     0.022 A 
BRANCH  80  83
ATOM     83  S   UNL A   1      45.686  24.966  37.292  1.00  0.00     0.127 S 
ATOM     84  O   UNL A   1      45.714  26.144  38.155  1.00  0.00    -0.237 OA
ATOM     85  O   UNL A   1      45.225  23.738  37.943  1.00  0.00    -0.237 OA
ATOM     86  O   UNL A   1      46.843  24.791  36.425  1.00  0.00    -0.744 OA
ENDBRANCH  80  83
ENDBRANCH  52  76
BRANCH  64  87
ATOM     87  C   UNL A   1      39.649  32.659  35.568  1.00  0.00     0.023 A 
ATOM     88  C   UNL A   1      38.253  32.563  35.402  1.00  0.00     0.012 A 
ATOM     89  C   UNL A   1      40.167  33.113  36.798  1.00  0.00     0.148 A 
ATOM     90  C   UNL A   1      37.388  32.935  36.431  1.00  0.00     0.002 A 
ATOM     91  C   UNL A   1      39.300  33.438  37.836  1.00  0.00     0.091 A 
ATOM     92  F   UNL A   1      41.497  33.213  36.934  1.00  0.00    -0.205 F 
ATOM     93  C   UNL A   1      37.910  33.360  37.651  1.00  0.00     0.022 A 
BRANCH  91  94
ATOM     94  S   UNL A   1      39.884  33.900  39.471  1.00  0.00     0.127 S 
ATOM     95  O   UNL A   1      40.633  32.709  39.869  1.00  0.00    -0.237 OA
ATOM     96  O   UNL A   1      40.713  35.073  39.188  1.00  0.00    -0.237 OA
ATOM     97  O   UNL A   1      38.691  34.181  40.258  1.00  0.00    -0.744 OA
ENDBRANCH  91  94
ENDBRANCH  64  87
ENDBRANCH  38  39
ENDBRANCH  31  33
ENDBRANCH  30  31
ENDBRANCH  29  30
ENDBRANCH  28  29
ENDBRANCH  27  28
ENDBRANCH  26  27
ENDBRANCH   1  26
TORSDOF 25
ENDMDL
MODEL 3
REMARK VINA RESULT:      -8.5      6.097     10.551
REMARK SMILES CC(C)(C)[N@H+](CCC(=O)OCCOCCOCCOC(=O)c1ccc(-c2c3nc(c(-c4cccc(S(=O)(=O)[O-])c4F)c4ccc([nH]4)c(-c4cccc(S(=O)(=O)[O-])c4F)c4nc(c(-c5cccc(S(=O)(=O)[O-])c5F)c5ccc2[nH]5)C=C4)C=C3)cc1)C[C@H]1COc2ccccc21
REMARK SMILES IDX 14 1 13 2 12 3 11 4 10 5 8 6 9 7 7 8 6 9 5 10 2 12 1 13 3 14
REMARK SMILES IDX 4 15 85 16 86 17 87 18 94 19 88 20 89 21 93 22 90 23 92 24
REMARK SMILES IDX 91 25 15 26 16 27 17 28 18 29 19 30 20 31 21 32 22 33 23 34
REMARK SMILES IDX 84 35 24 36 83 37 25 38 26 39 27 40 77 41 28 42 82 43 76 44
REMARK SMILES IDX 78 45 29 46 81 47 75 48 74 49 30 51 62 52 42 53 61 54 43 55
REMARK SMILES IDX 46 56 60 57 79 58 44 59 45 60 59 62 80 63 47 64 31 65 32 66
REMARK SMILES IDX 40 67 33 68 35 69 41 70 34 71 36 72 37 73 38 74 39 75 63 76
REMARK SMILES IDX 64 77 72 78 65 79 67 80 73 81 66 82 68 83 69 84 70 85 71 86
REMARK SMILES IDX 48 87 49 88 57 89 50 90 52 91 58 92 51 93 53 94 54 95 55 96
REMARK SMILES IDX 56 97
REMARK H PARENT 5 11 78 50 46 61
REMARK Flexibility Score: inf
ROOT
ATOM      1  C   UNL A   1      38.319  32.784  40.915  1.00  0.00     0.188 C 
ENDROOT
BRANCH   1   2
ATOM      2  O   UNL A   1      37.529  31.691  40.503  1.00  0.00    -0.376 OA
BRANCH   2   3
ATOM      3  C   UNL A   1      36.988  31.817  39.195  1.00  0.00     0.202 C 
BRANCH   3   4
ATOM      4  C   UNL A   1      38.026  32.060  38.080  1.00  0.00     0.261 C 
BRANCH   4   5
ATOM      5  O   UNL A   1      37.476  31.657  36.769  1.00  0.00    -0.463 OA
BRANCH   5   6
ATOM      6  C   UNL A   1      38.348  30.975  35.965  1.00  0.00     0.311 C 
ATOM      7  O   UNL A   1      38.923  29.957  36.351  1.00  0.00    -0.252 OA
BRANCH   6   8
ATOM      8  C   UNL A   1      38.537  31.504  34.510  1.00  0.00     0.184 C 
BRANCH   8   9
ATOM      9  C   UNL A   1      39.197  30.850  33.210  1.00  0.00     0.274 C 
BRANCH   9  10
ATOM     10  N   UNL A   1      38.496  30.513  31.914  1.00  0.00    -0.330 N 
ATOM     11  H   UNL A   1      39.124  31.049  31.316  1.00  0.00     0.348 HD
BRANCH  10  12
ATOM     12  C   UNL A   1      38.617  29.148  31.298  1.00  0.00     0.089 C 
ATOM     13  C   UNL A   1      37.753  28.918  30.041  1.00  0.00     0.078 C 
ATOM     14  C   UNL A   1      38.110  28.122  32.353  1.00  0.00     0.078 C 
ATOM     15  C   UNL A   1      40.066  28.731  30.912  1.00  0.00     0.078 C 
ENDBRANCH  10  12
BRANCH  10  16
ATOM     16  C   UNL A   1      37.099  31.051  31.791  1.00  0.00     0.274 C 
BRANCH  16  17
ATOM     17  C   UNL A   1      36.905  32.566  31.442  1.00  0.00     0.116 C 
ATOM     18  C   UNL A   1      38.083  32.913  30.585  1.00  0.00     0.244 C 
ATOM     19  C   UNL A   1      35.877  32.930  30.408  1.00  0.00     0.006 A 
ATOM     20  O   UNL A   1      37.734  32.367  29.298  1.00  0.00    -0.492 OA
ATOM     21  C   UNL A   1      36.402  32.574  29.183  1.00  0.00     0.123 A 
ATOM     22  C   UNL A   1      34.727  33.681  30.396  1.00  0.00     0.008 A 
ATOM     23  C   UNL A   1      35.747  32.597  27.978  1.00  0.00     0.047 A 
ATOM     24  C   UNL A   1      34.075  33.869  29.158  1.00  0.00     0.001 A 
ATOM     25  C   UNL A   1      34.540  33.264  27.971  1.00  0.00     0.004 A 
ENDBRANCH  16  17
ENDBRANCH  10  16
ENDBRANCH   9  10
ENDBRANCH   8   9
ENDBRANCH   6   8
ENDBRANCH   5   6
ENDBRANCH   4   5
ENDBRANCH   3   4
ENDBRANCH   2   3
ENDBRANCH   1   2
BRANCH   1  26
ATOM     26  C   UNL A   1      39.148  32.610  42.186  1.00  0.00     0.188 C 
BRANCH  26  27
ATOM     27  O   UNL A   1      40.371  33.319  42.365  1.00  0.00    -0.376 OA
BRANCH  27  28
ATOM     28  C   UNL A   1      40.201  34.737  42.118  1.00  0.00     0.202 C 
BRANCH  28  29
ATOM     29  C   UNL A   1      40.945  35.273  40.870  1.00  0.00     0.261 C 
BRANCH  29  30
ATOM     30  O   UNL A   1      40.078  35.700  39.794  1.00  0.00    -0.460 OA
BRANCH  30  31
ATOM     31  C   UNL A   1      40.612  36.536  38.860  1.00  0.00     0.338 C 
ATOM     32  O   UNL A   1      40.864  37.703  39.027  1.00  0.00    -0.246 OA
BRANCH  31  33
ATOM     33  C   UNL A   1      41.098  35.717  37.695  1.00  0.00     0.060 A 
ATOM     34  C   UNL A   1      40.130  35.152  36.850  1.00  0.00     0.016 A 
ATOM     35  C   UNL A   1      42.451  35.616  37.343  1.00  0.00     0.016 A 
ATOM     36  C   UNL A   1      40.510  34.451  35.696  1.00  0.00     0.010 A 
ATOM     37  C   UNL A   1      42.830  34.927  36.182  1.00  0.00     0.010 A 
ATOM     38  C   UNL A   1      41.865  34.299  35.374  1.00  0.00    -0.014 A 
BRANCH  38  39
ATOM     39  C   UNL A   1      42.289  33.294  34.361  1.00  0.00     0.031 A 
ATOM     40  C   UNL A   1      42.525  33.777  32.951  1.00  0.00     0.074 A 
ATOM     41  C   UNL A   1      42.459  31.988  34.646  1.00  0.00     0.049 A 
ATOM     42  N   UNL A   1      42.873  33.105  31.885  1.00  0.00    -0.248 NA
ATOM     43  C   UNL A   1      42.336  35.219  32.716  1.00  0.00     0.031 C 
ATOM     44  C   UNL A   1      42.278  31.369  35.956  1.00  0.00     0.029 A 
ATOM     45  N   UNL A   1      42.807  30.940  33.825  1.00  0.00    -0.354 N 
ATOM     46  C   UNL A   1      42.918  34.033  30.852  1.00  0.00     0.074 A 
ATOM     47  C   UNL A   1      42.542  35.312  31.412  1.00  0.00     0.031 C 
ATOM     48  C   UNL A   1      42.488  30.044  35.845  1.00  0.00     0.029 A 
ATOM     49  C   UNL A   1      42.805  29.715  34.455  1.00  0.00     0.049 A 
ATOM     50  H   UNL A   1      43.037  31.054  32.874  1.00  0.00     0.167 HD
ATOM     51  C   UNL A   1      43.264  33.855  29.556  1.00  0.00     0.034 A 
ATOM     52  C   UNL A   1      43.022  28.477  33.963  1.00  0.00     0.034 A 
ATOM     53  C   UNL A   1      43.661  32.598  28.986  1.00  0.00     0.049 A 
ATOM     54  C   UNL A   1      43.375  28.296  32.504  1.00  0.00     0.074 A 
ATOM     55  C   UNL A   1      44.072  32.336  27.691  1.00  0.00     0.029 A 
ATOM     56  N   UNL A   1      43.683  31.393  29.666  1.00  0.00    -0.354 N 
ATOM     57  N   UNL A   1      43.546  29.202  31.573  1.00  0.00    -0.248 NA
ATOM     58  C   UNL A   1      43.595  26.916  32.036  1.00  0.00     0.031 C 
ATOM     59  C   UNL A   1      44.320  30.964  27.581  1.00  0.00     0.029 A 
ATOM     60  C   UNL A   1      44.088  30.378  28.815  1.00  0.00     0.049 A 
ATOM     61  H   UNL A   1      43.447  31.274  30.614  1.00  0.00     0.167 HD
ATOM     62  C   UNL A   1      43.933  28.511  30.427  1.00  0.00     0.074 A 
ATOM     63  C   UNL A   1      43.987  27.109  30.783  1.00  0.00     0.031 C 
ATOM     64  C   UNL A   1      44.205  28.993  29.189  1.00  0.00     0.034 A 
BRANCH  51  65
ATOM     65  C   UNL A   1      43.253  35.067  28.667  1.00  0.00     0.023 A 
ATOM     66  C   UNL A   1      42.033  35.521  28.125  1.00  0.00     0.012 A 
ATOM     67  C   UNL A   1      44.440  35.774  28.395  1.00  0.00     0.148 A 
ATOM     68  C   UNL A   1      41.999  36.642  27.298  1.00  0.00     0.002 A 
ATOM     69  C   UNL A   1      44.390  36.916  27.606  1.00  0.00     0.091 A 
ATOM     70  F   UNL A   1      45.592  35.308  28.896  1.00  0.00    -0.205 F 
ATOM     71  C   UNL A   1      43.175  37.345  27.047  1.00  0.00     0.022 A 
BRANCH  69  72
ATOM     72  S   UNL A   1      45.838  37.930  27.286  1.00  0.00     0.127 S 
ATOM     73  O   UNL A   1      46.359  38.133  28.637  1.00  0.00    -0.237 OA
ATOM     74  O   UNL A   1      46.650  37.049  26.445  1.00  0.00    -0.237 OA
ATOM     75  O   UNL A   1      45.348  39.126  26.615  1.00  0.00    -0.744 OA
ENDBRANCH  69  72
ENDBRANCH  51  65
BRANCH  52  76
ATOM     76  C   UNL A   1      42.954  27.287  34.863  1.00  0.00     0.023 A 
ATOM     77  C   UNL A   1      41.726  26.617  35.034  1.00  0.00     0.012 A 
ATOM     78  C   UNL A   1      44.087  26.831  35.566  1.00  0.00     0.148 A 
ATOM     79  C   UNL A   1      41.619  25.536  35.911  1.00  0.00     0.002 A 
ATOM     80  C   UNL A   1      43.985  25.723  36.400  1.00  0.00     0.091 A 
ATOM     81  F   UNL A   1      45.239  27.497  35.410  1.00  0.00    -0.205 F 
ATOM     82  C   UNL A   1      42.749  25.084  36.587  1.00  0.00     0.022 A 
BRANCH  80  83
ATOM     83  S   UNL A   1      45.406  25.006  37.233  1.00  0.00     0.127 S 
ATOM     84  O   UNL A   1      46.070  24.300  36.140  1.00  0.00    -0.237 OA
ATOM     85  O   UNL A   1      46.108  26.199  37.709  1.00  0.00    -0.237 OA
ATOM     86  O   UNL A   1      44.862  24.165  38.289  1.00  0.00    -0.744 OA
ENDBRANCH  80  83
ENDBRANCH  52  76
BRANCH  64  87
ATOM     87  C   UNL A   1      44.629  28.018  28.117  1.00  0.00     0.023 A 
ATOM     88  C   UNL A   1      45.996  27.739  27.925  1.00  0.00     0.012 A 
ATOM     89  C   UNL A   1      43.668  27.307  27.371  1.00  0.00     0.148 A 
ATOM     90  C   UNL A   1      46.402  26.788  26.987  1.00  0.00     0.002 A 
ATOM     91  C   UNL A   1      44.077  26.327  26.472  1.00  0.00     0.091 A 
ATOM     92  F   UNL A   1      42.372  27.595  27.555  1.00  0.00    -0.205 F 
ATOM     93  C   UNL A   1      45.444  26.073  26.271  1.00  0.00     0.022 A 
BRANCH  91  94
ATOM     94  S   UNL A   1      42.912  25.290  25.580  1.00  0.00     0.127 S 
ATOM     95  O   UNL A   1      43.806  24.438  24.799  1.00  0.00    -0.237 OA
ATOM     96  O   UNL A   1      42.211  24.602  26.665  1.00  0.00    -0.237 OA
ATOM     97  O   UNL A   1      42.078  26.199  24.805  1.00  0.00    -0.744 OA
ENDBRANCH  91  94
ENDBRANCH  64  87
ENDBRANCH  38  39
ENDBRANCH  31  33
ENDBRANCH  30  31
ENDBRANCH  29  30
ENDBRANCH  28  29
ENDBRANCH  27  28
ENDBRANCH  26  27
ENDBRANCH   1  26
TORSDOF 25
ENDMDL
