MODEL 1
REMARK VINA RESULT:      -8.4      0.000      0.000
REMARK SMILES C[C@@H](C(=O)OCCOCCOCCOC(=O)c1ccc(-c2c3nc(c(-c4cccc(S(=O)(=O)[O-])c4F)c4ccc([nH]4)c(-c4cccc(S(=O)(=O)[O-])c4F)c4nc(c(-c5cccc(S(=O)(=O)[O-])c5F)c5ccc2[nH]5)C=C4)C=C3)cc1)[C@H](C)[N@@H+](C)[C@@H](C)C1CC1
REMARK SMILES IDX 9 1 8 2 7 3 6 4 5 5 3 6 4 7 2 8 1 9 80 10 81 11 82 12 83 13
REMARK SMILES IDX 84 15 85 16 86 17 87 18 88 19 10 20 11 21 12 22 13 23 14 24
REMARK SMILES IDX 15 25 16 26 17 27 18 28 79 29 19 30 78 31 20 32 21 33 22 34
REMARK SMILES IDX 72 35 23 36 77 37 71 38 73 39 24 40 76 41 70 42 69 43 25 45
REMARK SMILES IDX 57 46 37 47 56 48 38 49 41 50 55 51 74 52 39 53 40 54 54 56
REMARK SMILES IDX 75 57 42 58 26 59 27 60 35 61 28 62 30 63 36 64 29 65 31 66
REMARK SMILES IDX 32 67 33 68 34 69 58 70 59 71 67 72 60 73 62 74 68 75 61 76
REMARK SMILES IDX 63 77 64 78 65 79 66 80 43 81 44 82 52 83 45 84 47 85 53 86
REMARK SMILES IDX 46 87 48 88 49 89 50 90 51 91
REMARK H PARENT 82 14 73 44 41 55
REMARK Flexibility Score: inf
ROOT
ATOM      1  C   UNL A   1      34.021  31.138  27.629  1.00  0.00     0.188 C 
ENDROOT
BRANCH   1   2
ATOM      2  O   UNL A   1      34.361  29.760  27.529  1.00  0.00    -0.376 OA
BRANCH   2   3
ATOM      3  C   UNL A   1      33.986  29.100  26.327  1.00  0.00     0.202 C 
BRANCH   3   4
ATOM      4  C   UNL A   1      33.088  27.874  26.512  1.00  0.00     0.261 C 
BRANCH   4   5
ATOM      5  O   UNL A   1      33.721  26.623  26.165  1.00  0.00    -0.463 OA
BRANCH   5   6
ATOM      6  C   UNL A   1      33.138  25.946  25.131  1.00  0.00     0.314 C 
ATOM      7  O   UNL A   1      32.089  26.291  24.595  1.00  0.00    -0.252 OA
BRANCH   6   8
ATOM      8  C   UNL A   1      33.840  24.642  24.752  1.00  0.00     0.154 C 
ATOM      9  C   UNL A   1      34.067  24.395  23.258  1.00  0.00     0.026 C 
BRANCH   8  10
ATOM     10  C   UNL A   1      33.379  23.423  25.615  1.00  0.00     0.195 C 
ATOM     11  C   UNL A   1      32.207  23.796  26.539  1.00  0.00     0.076 C 
BRANCH  10  12
ATOM     12  N   UNL A   1      34.324  22.553  26.328  1.00  0.00    -0.332 N 
ATOM     13  C   UNL A   1      33.968  22.342  27.733  1.00  0.00     0.333 C 
ATOM     14  H   UNL A   1      35.108  23.192  26.194  1.00  0.00     0.348 HD
BRANCH  12  15
ATOM     15  C   UNL A   1      35.055  21.436  25.729  1.00  0.00     0.184 C 
ATOM     16  C   UNL A   1      34.230  20.349  25.055  1.00  0.00     0.075 C 
BRANCH  15  17
ATOM     17  C   UNL A   1      36.285  21.872  24.971  1.00  0.00     0.047 C 
ATOM     18  C   UNL A   1      37.597  22.054  25.711  1.00  0.00     0.010 C 
ATOM     19  C   UNL A   1      37.478  21.007  24.643  1.00  0.00     0.010 C 
ENDBRANCH  15  17
ENDBRANCH  12  15
ENDBRANCH  10  12
ENDBRANCH   8  10
ENDBRANCH   6   8
ENDBRANCH   5   6
ENDBRANCH   4   5
ENDBRANCH   3   4
ENDBRANCH   2   3
ENDBRANCH   1   2
BRANCH   1  20
ATOM     20  C   UNL A   1      35.180  32.096  27.952  1.00  0.00     0.188 C 
BRANCH  20  21
ATOM     21  O   UNL A   1      34.870  33.169  28.837  1.00  0.00    -0.376 OA
BRANCH  21  22
ATOM     22  C   UNL A   1      34.569  34.422  28.218  1.00  0.00     0.202 C 
BRANCH  22  23
ATOM     23  C   UNL A   1      33.458  35.204  28.922  1.00  0.00     0.261 C 
BRANCH  23  24
ATOM     24  O   UNL A   1      33.045  34.503  30.113  1.00  0.00    -0.460 OA
BRANCH  24  25
ATOM     25  C   UNL A   1      33.188  35.216  31.254  1.00  0.00     0.338 C 
ATOM     26  O   UNL A   1      32.521  36.173  31.603  1.00  0.00    -0.246 OA
BRANCH  25  27
ATOM     27  C   UNL A   1      34.273  34.650  32.078  1.00  0.00     0.060 A 
ATOM     28  C   UNL A   1      35.289  35.485  32.533  1.00  0.00     0.016 A 
ATOM     29  C   UNL A   1      34.382  33.270  32.238  1.00  0.00     0.016 A 
ATOM     30  C   UNL A   1      36.467  34.936  33.052  1.00  0.00     0.010 A 
ATOM     31  C   UNL A   1      35.534  32.728  32.825  1.00  0.00     0.010 A 
ATOM     32  C   UNL A   1      36.617  33.550  33.191  1.00  0.00    -0.014 A 
BRANCH  32  33
ATOM     33  C   UNL A   1      37.928  32.952  33.590  1.00  0.00     0.031 A 
ATOM     34  C   UNL A   1      38.514  31.835  32.760  1.00  0.00     0.074 A 
ATOM     35  C   UNL A   1      38.627  33.394  34.655  1.00  0.00     0.049 A 
ATOM     36  N   UNL A   1      39.500  31.020  33.038  1.00  0.00    -0.248 NA
ATOM     37  C   UNL A   1      37.903  31.607  31.440  1.00  0.00     0.031 C 
ATOM     38  C   UNL A   1      38.257  34.520  35.510  1.00  0.00     0.029 A 
ATOM     39  N   UNL A   1      39.799  32.929  35.211  1.00  0.00    -0.354 N 
ATOM     40  C   UNL A   1      39.573  30.133  31.969  1.00  0.00     0.074 A 
ATOM     41  C   UNL A   1      38.549  30.525  31.025  1.00  0.00     0.031 C 
ATOM     42  C   UNL A   1      39.180  34.661  36.477  1.00  0.00     0.029 A 
ATOM     43  C   UNL A   1      40.159  33.583  36.367  1.00  0.00     0.049 A 
ATOM     44  H   UNL A   1      40.329  32.198  34.817  1.00  0.00     0.167 HD
ATOM     45  C   UNL A   1      40.413  29.087  31.787  1.00  0.00     0.034 A 
ATOM     46  C   UNL A   1      41.126  33.316  37.271  1.00  0.00     0.034 A 
ATOM     47  C   UNL A   1      41.481  28.732  32.683  1.00  0.00     0.049 A 
ATOM     48  C   UNL A   1      42.024  32.122  37.071  1.00  0.00     0.074 A 
ATOM     49  C   UNL A   1      42.372  27.677  32.585  1.00  0.00     0.029 A 
ATOM     50  N   UNL A   1      41.816  29.432  33.830  1.00  0.00    -0.354 N 
ATOM     51  N   UNL A   1      42.070  31.279  36.069  1.00  0.00    -0.248 NA
ATOM     52  C   UNL A   1      43.005  31.842  38.132  1.00  0.00     0.031 C 
ATOM     53  C   UNL A   1      43.242  27.735  33.680  1.00  0.00     0.029 A 
ATOM     54  C   UNL A   1      42.901  28.835  34.449  1.00  0.00     0.049 A 
ATOM     55  H   UNL A   1      41.351  30.236  34.157  1.00  0.00     0.167 HD
ATOM     56  C   UNL A   1      43.093  30.385  36.367  1.00  0.00     0.074 A 
ATOM     57  C   UNL A   1      43.663  30.806  37.630  1.00  0.00     0.031 C 
ATOM     58  C   UNL A   1      43.505  29.297  35.672  1.00  0.00     0.034 A 
BRANCH  45  59
ATOM     59  C   UNL A   1      40.209  28.238  30.561  1.00  0.00     0.023 A 
ATOM     60  C   UNL A   1      39.179  27.278  30.532  1.00  0.00     0.012 A 
ATOM     61  C   UNL A   1      41.020  28.420  29.422  1.00  0.00     0.148 A 
ATOM     62  C   UNL A   1      38.977  26.491  29.398  1.00  0.00     0.002 A 
ATOM     63  C   UNL A   1      40.788  27.659  28.282  1.00  0.00     0.091 A 
ATOM     64  F   UNL A   1      42.009  29.323  29.479  1.00  0.00    -0.205 F 
ATOM     65  C   UNL A   1      39.774  26.688  28.272  1.00  0.00     0.022 A 
BRANCH  63  66
ATOM     66  S   UNL A   1      41.720  27.890  26.765  1.00  0.00     0.127 S 
ATOM     67  O   UNL A   1      43.089  27.653  27.221  1.00  0.00    -0.237 OA
ATOM     68  O   UNL A   1      41.174  26.841  25.902  1.00  0.00    -0.237 OA
ATOM     69  O   UNL A   1      41.433  29.247  26.322  1.00  0.00    -0.744 OA
ENDBRANCH  63  66
ENDBRANCH  45  59
BRANCH  46  70
ATOM     70  C   UNL A   1      41.284  34.185  38.474  1.00  0.00     0.023 A 
ATOM     71  C   UNL A   1      42.079  35.346  38.397  1.00  0.00     0.012 A 
ATOM     72  C   UNL A   1      40.651  33.870  39.692  1.00  0.00     0.148 A 
ATOM     73  C   UNL A   1      42.256  36.163  39.514  1.00  0.00     0.002 A 
ATOM     74  C   UNL A   1      40.779  34.723  40.783  1.00  0.00     0.091 A 
ATOM     75  F   UNL A   1      39.929  32.742  39.763  1.00  0.00    -0.205 F 
ATOM     76  C   UNL A   1      41.595  35.861  40.702  1.00  0.00     0.022 A 
BRANCH  74  77
ATOM     77  S   UNL A   1      39.847  34.477  42.299  1.00  0.00     0.127 S 
ATOM     78  O   UNL A   1      38.505  34.218  41.787  1.00  0.00    -0.237 OA
ATOM     79  O   UNL A   1      40.519  33.317  42.886  1.00  0.00    -0.237 OA
ATOM     80  O   UNL A   1      40.013  35.709  43.060  1.00  0.00    -0.744 OA
ENDBRANCH  74  77
ENDBRANCH  46  70
BRANCH  58  81
ATOM     81  C   UNL A   1      44.649  28.491  36.234  1.00  0.00     0.023 A 
ATOM     82  C   UNL A   1      45.973  28.832  35.895  1.00  0.00     0.012 A 
ATOM     83  C   UNL A   1      44.418  27.454  37.159  1.00  0.00     0.148 A 
ATOM     84  C   UNL A   1      47.049  28.138  36.448  1.00  0.00     0.002 A 
ATOM     85  C   UNL A   1      45.496  26.795  37.740  1.00  0.00     0.091 A 
ATOM     86  F   UNL A   1      43.150  27.130  37.454  1.00  0.00    -0.205 F 
ATOM     87  C   UNL A   1      46.811  27.130  37.378  1.00  0.00     0.022 A 
BRANCH  85  88
ATOM     88  S   UNL A   1      45.285  25.545  39.013  1.00  0.00     0.127 S 
ATOM     89  O   UNL A   1      44.434  26.239  39.976  1.00  0.00    -0.237 OA
ATOM     90  O   UNL A   1      44.623  24.463  38.283  1.00  0.00    -0.237 OA
ATOM     91  O   UNL A   1      46.627  25.222  39.480  1.00  0.00    -0.744 OA
ENDBRANCH  85  88
ENDBRANCH  58  81
ENDBRANCH  32  33
ENDBRANCH  25  27
ENDBRANCH  24  25
ENDBRANCH  23  24
ENDBRANCH  22  23
ENDBRANCH  21  22
ENDBRANCH  20  21
ENDBRANCH   1  20
TORSDOF 24
ENDMDL
MODEL 2
REMARK VINA RESULT:      -8.2      3.040      7.850
REMARK SMILES C[C@@H](C(=O)OCCOCCOCCOC(=O)c1ccc(-c2c3nc(c(-c4cccc(S(=O)(=O)[O-])c4F)c4ccc([nH]4)c(-c4cccc(S(=O)(=O)[O-])c4F)c4nc(c(-c5cccc(S(=O)(=O)[O-])c5F)c5ccc2[nH]5)C=C4)C=C3)cc1)[C@H](C)[N@@H+](C)[C@@H](C)C1CC1
REMARK SMILES IDX 9 1 8 2 7 3 6 4 5 5 3 6 4 7 2 8 1 9 80 10 81 11 82 12 83 13
REMARK SMILES IDX 84 15 85 16 86 17 87 18 88 19 10 20 11 21 12 22 13 23 14 24
REMARK SMILES IDX 15 25 16 26 17 27 18 28 79 29 19 30 78 31 20 32 21 33 22 34
REMARK SMILES IDX 72 35 23 36 77 37 71 38 73 39 24 40 76 41 70 42 69 43 25 45
REMARK SMILES IDX 57 46 37 47 56 48 38 49 41 50 55 51 74 52 39 53 40 54 54 56
REMARK SMILES IDX 75 57 42 58 26 59 27 60 35 61 28 62 30 63 36 64 29 65 31 66
REMARK SMILES IDX 32 67 33 68 34 69 58 70 59 71 67 72 60 73 62 74 68 75 61 76
REMARK SMILES IDX 63 77 64 78 65 79 66 80 43 81 44 82 52 83 45 84 47 85 53 86
REMARK SMILES IDX 46 87 48 88 49 89 50 90 51 91
REMARK H PARENT 82 14 73 44 41 55
REMARK Flexibility Score: inf
ROOT
ATOM      1  C   UNL A   1      33.956  31.182  27.629  1.00  0.00     0.188 C 
ENDROOT
BRANCH   1   2
ATOM      2  O   UNL A   1      34.307  29.806  27.541  1.00  0.00    -0.376 OA
BRANCH   2   3
ATOM      3  C   UNL A   1      33.980  29.145  26.325  1.00  0.00     0.202 C 
BRANCH   3   4
ATOM      4  C   UNL A   1      33.062  27.929  26.474  1.00  0.00     0.261 C 
BRANCH   4   5
ATOM      5  O   UNL A   1      33.690  26.672  26.141  1.00  0.00    -0.463 OA
BRANCH   5   6
ATOM      6  C   UNL A   1      33.114  25.993  25.104  1.00  0.00     0.314 C 
ATOM      7  O   UNL A   1      32.063  26.331  24.568  1.00  0.00    -0.252 OA
BRANCH   6   8
ATOM      8  C   UNL A   1      33.825  24.694  24.723  1.00  0.00     0.154 C 
ATOM      9  C   UNL A   1      34.048  24.447  23.229  1.00  0.00     0.026 C 
BRANCH   8  10
ATOM     10  C   UNL A   1      33.380  23.473  25.591  1.00  0.00     0.195 C 
ATOM     11  C   UNL A   1      32.198  23.831  26.507  1.00  0.00     0.076 C 
BRANCH  10  12
ATOM     12  N   UNL A   1      34.334  22.621  26.312  1.00  0.00    -0.332 N 
ATOM     13  C   UNL A   1      33.984  22.424  27.721  1.00  0.00     0.333 C 
ATOM     14  H   UNL A   1      35.112  23.266  26.169  1.00  0.00     0.348 HD
BRANCH  12  15
ATOM     15  C   UNL A   1      35.076  21.504  25.726  1.00  0.00     0.184 C 
ATOM     16  C   UNL A   1      34.261  20.400  25.068  1.00  0.00     0.075 C 
BRANCH  15  17
ATOM     17  C   UNL A   1      36.299  21.943  24.960  1.00  0.00     0.047 C 
ATOM     18  C   UNL A   1      37.615  22.136  25.692  1.00  0.00     0.010 C 
ATOM     19  C   UNL A   1      37.495  21.082  24.629  1.00  0.00     0.010 C 
ENDBRANCH  15  17
ENDBRANCH  12  15
ENDBRANCH  10  12
ENDBRANCH   8  10
ENDBRANCH   6   8
ENDBRANCH   5   6
ENDBRANCH   4   5
ENDBRANCH   3   4
ENDBRANCH   2   3
ENDBRANCH   1   2
BRANCH   1  20
ATOM     20  C   UNL A   1      35.096  32.144  28.002  1.00  0.00     0.188 C 
BRANCH  20  21
ATOM     21  O   UNL A   1      34.726  33.262  28.805  1.00  0.00    -0.376 OA
BRANCH  21  22
ATOM     22  C   UNL A   1      34.531  34.495  28.107  1.00  0.00     0.202 C 
BRANCH  22  23
ATOM     23  C   UNL A   1      33.386  35.342  28.666  1.00  0.00     0.261 C 
BRANCH  23  24
ATOM     24  O   UNL A   1      32.851  34.721  29.852  1.00  0.00    -0.460 OA
BRANCH  24  25
ATOM     25  C   UNL A   1      32.911  35.495  30.961  1.00  0.00     0.338 C 
ATOM     26  O   UNL A   1      32.244  36.486  31.194  1.00  0.00    -0.246 OA
BRANCH  25  27
ATOM     27  C   UNL A   1      33.901  34.952  31.910  1.00  0.00     0.060 A 
ATOM     28  C   UNL A   1      34.843  35.808  32.476  1.00  0.00     0.016 A 
ATOM     29  C   UNL A   1      34.015  33.576  32.090  1.00  0.00     0.016 A 
ATOM     30  C   UNL A   1      35.961  35.283  33.133  1.00  0.00     0.010 A 
ATOM     31  C   UNL A   1      35.100  33.057  32.813  1.00  0.00     0.010 A 
ATOM     32  C   UNL A   1      36.117  33.900  33.298  1.00  0.00    -0.014 A 
BRANCH  32  33
ATOM     33  C   UNL A   1      37.383  33.328  33.852  1.00  0.00     0.031 A 
ATOM     34  C   UNL A   1      37.599  33.321  35.347  1.00  0.00     0.074 A 
ATOM     35  C   UNL A   1      38.335  32.789  33.064  1.00  0.00     0.049 A 
ATOM     36  N   UNL A   1      38.694  33.098  36.028  1.00  0.00    -0.248 NA
ATOM     37  C   UNL A   1      36.422  33.605  36.183  1.00  0.00     0.031 C 
ATOM     38  C   UNL A   1      38.251  32.629  31.613  1.00  0.00     0.029 A 
ATOM     39  N   UNL A   1      39.578  32.285  33.380  1.00  0.00    -0.354 N 
ATOM     40  C   UNL A   1      38.358  33.296  37.363  1.00  0.00     0.074 A 
ATOM     41  C   UNL A   1      36.951  33.632  37.398  1.00  0.00     0.031 C 
ATOM     42  C   UNL A   1      39.387  32.068  31.166  1.00  0.00     0.029 A 
ATOM     43  C   UNL A   1      40.316  31.908  32.281  1.00  0.00     0.049 A 
ATOM     44  H   UNL A   1      39.907  32.203  34.304  1.00  0.00     0.167 HD
ATOM     45  C   UNL A   1      39.146  33.208  38.461  1.00  0.00     0.034 A 
ATOM     46  C   UNL A   1      41.608  31.534  32.168  1.00  0.00     0.034 A 
ATOM     47  C   UNL A   1      40.526  32.806  38.445  1.00  0.00     0.049 A 
ATOM     48  C   UNL A   1      42.480  31.483  33.397  1.00  0.00     0.074 A 
ATOM     49  C   UNL A   1      41.405  32.704  39.510  1.00  0.00     0.029 A 
ATOM     50  N   UNL A   1      41.224  32.418  37.313  1.00  0.00    -0.354 N 
ATOM     51  N   UNL A   1      42.157  31.693  34.650  1.00  0.00    -0.248 NA
ATOM     52  C   UNL A   1      43.897  31.144  33.195  1.00  0.00     0.031 C 
ATOM     53  C   UNL A   1      42.640  32.263  39.019  1.00  0.00     0.029 A 
ATOM     54  C   UNL A   1      42.522  32.075  37.652  1.00  0.00     0.049 A 
ATOM     55  H   UNL A   1      40.852  32.391  36.402  1.00  0.00     0.167 HD
ATOM     56  C   UNL A   1      43.321  31.492  35.385  1.00  0.00     0.074 A 
ATOM     57  C   UNL A   1      44.352  31.114  34.441  1.00  0.00     0.031 C 
ATOM     58  C   UNL A   1      43.526  31.636  36.716  1.00  0.00     0.034 A 
BRANCH  45  59
ATOM     59  C   UNL A   1      38.528  33.561  39.788  1.00  0.00     0.023 A 
ATOM     60  C   UNL A   1      38.716  34.846  40.333  1.00  0.00     0.012 A 
ATOM     61  C   UNL A   1      37.730  32.626  40.476  1.00  0.00     0.148 A 
ATOM     62  C   UNL A   1      38.143  35.186  41.559  1.00  0.00     0.002 A 
ATOM     63  C   UNL A   1      37.130  32.984  41.678  1.00  0.00     0.091 A 
ATOM     64  F   UNL A   1      37.584  31.400  39.951  1.00  0.00    -0.205 F 
ATOM     65  C   UNL A   1      37.343  34.259  42.225  1.00  0.00     0.022 A 
BRANCH  63  66
ATOM     66  S   UNL A   1      36.032  31.879  42.573  1.00  0.00     0.127 S 
ATOM     67  O   UNL A   1      36.943  30.799  42.949  1.00  0.00    -0.237 OA
ATOM     68  O   UNL A   1      35.588  32.719  43.686  1.00  0.00    -0.237 OA
ATOM     69  O   UNL A   1      34.981  31.514  41.634  1.00  0.00    -0.744 OA
ENDBRANCH  63  66
ENDBRANCH  45  59
BRANCH  46  70
ATOM     70  C   UNL A   1      42.176  31.199  30.828  1.00  0.00     0.023 A 
ATOM     71  C   UNL A   1      41.944  29.926  30.271  1.00  0.00     0.012 A 
ATOM     72  C   UNL A   1      42.939  32.135  30.103  1.00  0.00     0.148 A 
ATOM     73  C   UNL A   1      42.480  29.585  29.029  1.00  0.00     0.002 A 
ATOM     74  C   UNL A   1      43.415  31.811  28.837  1.00  0.00     0.091 A 
ATOM     75  F   UNL A   1      43.183  33.329  30.662  1.00  0.00    -0.205 F 
ATOM     76  C   UNL A   1      43.202  30.531  28.305  1.00  0.00     0.022 A 
BRANCH  74  77
ATOM     77  S   UNL A   1      44.230  33.020  27.788  1.00  0.00     0.127 S 
ATOM     78  O   UNL A   1      43.389  34.198  27.980  1.00  0.00    -0.237 OA
ATOM     79  O   UNL A   1      45.559  33.105  28.395  1.00  0.00    -0.237 OA
ATOM     80  O   UNL A   1      44.222  32.441  26.451  1.00  0.00    -0.744 OA
ENDBRANCH  74  77
ENDBRANCH  46  70
BRANCH  58  81
ATOM     81  C   UNL A   1      44.905  31.354  37.254  1.00  0.00     0.023 A 
ATOM     82  C   UNL A   1      45.241  30.048  37.661  1.00  0.00     0.012 A 
ATOM     83  C   UNL A   1      45.892  32.360  37.277  1.00  0.00     0.148 A 
ATOM     84  C   UNL A   1      46.529  29.752  38.106  1.00  0.00     0.002 A 
ATOM     85  C   UNL A   1      47.185  32.048  37.681  1.00  0.00     0.091 A 
ATOM     86  F   UNL A   1      45.549  33.602  36.905  1.00  0.00    -0.205 F 
ATOM     87  C   UNL A   1      47.503  30.747  38.105  1.00  0.00     0.022 A 
BRANCH  85  88
ATOM     88  S   UNL A   1      48.524  33.245  37.627  1.00  0.00     0.127 S 
ATOM     89  O   UNL A   1      48.466  33.696  36.238  1.00  0.00    -0.237 OA
ATOM     90  O   UNL A   1      48.095  34.241  38.609  1.00  0.00    -0.237 OA
ATOM     91  O   UNL A   1      49.728  32.514  37.999  1.00  0.00    -0.744 OA
ENDBRANCH  85  88
ENDBRANCH  58  81
ENDBRANCH  32  33
ENDBRANCH  25  27
ENDBRANCH  24  25
ENDBRANCH  23  24
ENDBRANCH  22  23
ENDBRANCH  21  22
ENDBRANCH  20  21
ENDBRANCH   1  20
TORSDOF 24
ENDMDL
MODEL 3
REMARK VINA RESULT:      -8.2      5.830     15.411
REMARK SMILES C[C@@H](C(=O)OCCOCCOCCOC(=O)c1ccc(-c2c3nc(c(-c4cccc(S(=O)(=O)[O-])c4F)c4ccc([nH]4)c(-c4cccc(S(=O)(=O)[O-])c4F)c4nc(c(-c5cccc(S(=O)(=O)[O-])c5F)c5ccc2[nH]5)C=C4)C=C3)cc1)[C@H](C)[N@@H+](C)[C@@H](C)C1CC1
REMARK SMILES IDX 9 1 8 2 7 3 6 4 5 5 3 6 4 7 2 8 1 9 80 10 81 11 82 12 83 13
REMARK SMILES IDX 84 15 85 16 86 17 87 18 88 19 10 20 11 21 12 22 13 23 14 24
REMARK SMILES IDX 15 25 16 26 17 27 18 28 79 29 19 30 78 31 20 32 21 33 22 34
REMARK SMILES IDX 72 35 23 36 77 37 71 38 73 39 24 40 76 41 70 42 69 43 25 45
REMARK SMILES IDX 57 46 37 47 56 48 38 49 41 50 55 51 74 52 39 53 40 54 54 56
REMARK SMILES IDX 75 57 42 58 26 59 27 60 35 61 28 62 30 63 36 64 29 65 31 66
REMARK SMILES IDX 32 67 33 68 34 69 58 70 59 71 67 72 60 73 62 74 68 75 61 76
REMARK SMILES IDX 63 77 64 78 65 79 66 80 43 81 44 82 52 83 45 84 47 85 53 86
REMARK SMILES IDX 46 87 48 88 49 89 50 90 51 91
REMARK H PARENT 82 14 73 44 41 55
REMARK Flexibility Score: inf
ROOT
ATOM      1  C   UNL A   1      46.163  19.387  37.500  1.00  0.00     0.188 C 
ENDROOT
BRANCH   1   2
ATOM      2  O   UNL A   1      47.005  19.309  38.644  1.00  0.00    -0.376 OA
BRANCH   2   3
ATOM      3  C   UNL A   1      46.426  18.760  39.821  1.00  0.00     0.202 C 
BRANCH   3   4
ATOM      4  C   UNL A   1      47.313  17.767  40.578  1.00  0.00     0.261 C 
BRANCH   4   5
ATOM      5  O   UNL A   1      46.662  17.132  41.700  1.00  0.00    -0.463 OA
BRANCH   5   6
ATOM      6  C   UNL A   1      46.526  17.917  42.811  1.00  0.00     0.314 C 
ATOM      7  O   UNL A   1      47.390  18.032  43.674  1.00  0.00    -0.252 OA
BRANCH   6   8
ATOM      8  C   UNL A   1      45.151  18.568  42.963  1.00  0.00     0.154 C 
ATOM      9  C   UNL A   1      45.118  20.098  43.013  1.00  0.00     0.026 C 
BRANCH   8  10
ATOM     10  C   UNL A   1      44.213  17.801  43.950  1.00  0.00     0.195 C 
ATOM     11  C   UNL A   1      44.463  18.221  45.408  1.00  0.00     0.076 C 
BRANCH  10  12
ATOM     12  N   UNL A   1      43.998  16.350  43.875  1.00  0.00    -0.332 N 
ATOM     13  C   UNL A   1      43.786  15.867  42.508  1.00  0.00     0.333 C 
ATOM     14  H   UNL A   1      43.146  16.387  44.434  1.00  0.00     0.348 HD
BRANCH  12  15
ATOM     15  C   UNL A   1      44.610  15.361  44.763  1.00  0.00     0.184 C 
ATOM     16  C   UNL A   1      43.669  14.470  45.561  1.00  0.00     0.075 C 
BRANCH  15  17
ATOM     17  C   UNL A   1      45.789  14.655  44.139  1.00  0.00     0.047 C 
ATOM     18  C   UNL A   1      47.145  14.717  44.816  1.00  0.00     0.010 C 
ATOM     19  C   UNL A   1      46.446  13.398  44.658  1.00  0.00     0.010 C 
ENDBRANCH  15  17
ENDBRANCH  12  15
ENDBRANCH  10  12
ENDBRANCH   8  10
ENDBRANCH   6   8
ENDBRANCH   5   6
ENDBRANCH   4   5
ENDBRANCH   3   4
ENDBRANCH   2   3
ENDBRANCH   1   2
BRANCH   1  20
ATOM     20  C   UNL A   1      46.756  20.101  36.275  1.00  0.00     0.188 C 
BRANCH  20  21
ATOM     21  O   UNL A   1      45.831  20.832  35.475  1.00  0.00    -0.376 OA
BRANCH  21  22
ATOM     22  C   UNL A   1      45.557  22.170  35.902  1.00  0.00     0.202 C 
BRANCH  22  23
ATOM     23  C   UNL A   1      46.781  22.896  36.465  1.00  0.00     0.261 C 
BRANCH  23  24
ATOM     24  O   UNL A   1      46.972  24.146  35.771  1.00  0.00    -0.460 OA
BRANCH  24  25
ATOM     25  C   UNL A   1      46.872  25.241  36.560  1.00  0.00     0.338 C 
ATOM     26  O   UNL A   1      47.542  25.491  37.545  1.00  0.00    -0.246 OA
BRANCH  25  27
ATOM     27  C   UNL A   1      45.833  26.151  36.043  1.00  0.00     0.060 A 
ATOM     28  C   UNL A   1      44.501  25.746  36.062  1.00  0.00     0.016 A 
ATOM     29  C   UNL A   1      46.196  27.316  35.371  1.00  0.00     0.016 A 
ATOM     30  C   UNL A   1      43.545  26.447  35.319  1.00  0.00     0.010 A 
ATOM     31  C   UNL A   1      45.221  28.057  34.687  1.00  0.00     0.010 A 
ATOM     32  C   UNL A   1      43.891  27.603  34.606  1.00  0.00    -0.014 A 
BRANCH  32  33
ATOM     33  C   UNL A   1      42.915  28.260  33.682  1.00  0.00     0.031 A 
ATOM     34  C   UNL A   1      41.971  29.305  34.227  1.00  0.00     0.074 A 
ATOM     35  C   UNL A   1      42.863  27.973  32.366  1.00  0.00     0.049 A 
ATOM     36  N   UNL A   1      40.904  29.829  33.680  1.00  0.00    -0.248 NA
ATOM     37  C   UNL A   1      42.272  29.828  35.570  1.00  0.00     0.031 C 
ATOM     38  C   UNL A   1      43.759  27.061  31.657  1.00  0.00     0.029 A 
ATOM     39  N   UNL A   1      42.001  28.415  31.388  1.00  0.00    -0.354 N 
ATOM     40  C   UNL A   1      40.361  30.677  34.639  1.00  0.00     0.074 A 
ATOM     41  C   UNL A   1      41.231  30.617  35.795  1.00  0.00     0.031 C 
ATOM     42  C   UNL A   1      43.402  27.012  30.362  1.00  0.00     0.029 A 
ATOM     43  C   UNL A   1      42.200  27.818  30.164  1.00  0.00     0.049 A 
ATOM     44  H   UNL A   1      41.307  29.096  31.549  1.00  0.00     0.167 HD
ATOM     45  C   UNL A   1      39.242  31.436  34.570  1.00  0.00     0.034 A 
ATOM     46  C   UNL A   1      41.472  27.861  29.028  1.00  0.00     0.034 A 
ATOM     47  C   UNL A   1      38.410  31.558  33.403  1.00  0.00     0.049 A 
ATOM     48  C   UNL A   1      40.206  28.678  28.985  1.00  0.00     0.074 A 
ATOM     49  C   UNL A   1      37.247  32.293  33.249  1.00  0.00     0.029 A 
ATOM     50  N   UNL A   1      38.661  30.948  32.185  1.00  0.00    -0.354 N 
ATOM     51  N   UNL A   1      39.692  29.458  29.904  1.00  0.00    -0.248 NA
ATOM     52  C   UNL A   1      39.418  28.620  27.743  1.00  0.00     0.031 C 
ATOM     53  C   UNL A   1      36.789  32.119  31.937  1.00  0.00     0.029 A 
ATOM     54  C   UNL A   1      37.677  31.289  31.273  1.00  0.00     0.049 A 
ATOM     55  H   UNL A   1      39.426  30.358  31.997  1.00  0.00     0.167 HD
ATOM     56  C   UNL A   1      38.536  29.996  29.347  1.00  0.00     0.074 A 
ATOM     57  C   UNL A   1      38.440  29.479  27.998  1.00  0.00     0.031 C 
ATOM     58  C   UNL A   1      37.622  30.822  29.911  1.00  0.00     0.034 A 
BRANCH  45  59
ATOM     59  C   UNL A   1      38.843  32.200  35.804  1.00  0.00     0.023 A 
ATOM     60  C   UNL A   1      39.106  33.580  35.894  1.00  0.00     0.012 A 
ATOM     61  C   UNL A   1      38.172  31.551  36.861  1.00  0.00     0.148 A 
ATOM     62  C   UNL A   1      38.735  34.299  37.031  1.00  0.00     0.002 A 
ATOM     63  C   UNL A   1      37.771  32.281  37.973  1.00  0.00     0.091 A 
ATOM     64  F   UNL A   1      37.953  30.231  36.764  1.00  0.00    -0.205 F 
ATOM     65  C   UNL A   1      38.060  33.651  38.065  1.00  0.00     0.022 A 
BRANCH  63  66
ATOM     66  S   UNL A   1      36.839  31.546  39.322  1.00  0.00     0.127 S 
ATOM     67  O   UNL A   1      37.882  31.347  40.327  1.00  0.00    -0.237 OA
ATOM     68  O   UNL A   1      35.875  32.600  39.643  1.00  0.00    -0.237 OA
ATOM     69  O   UNL A   1      36.247  30.330  38.782  1.00  0.00    -0.744 OA
ENDBRANCH  63  66
ENDBRANCH  45  59
BRANCH  46  70
ATOM     70  C   UNL A   1      41.906  27.080  27.832  1.00  0.00     0.023 A 
ATOM     71  C   UNL A   1      42.636  27.718  26.810  1.00  0.00     0.012 A 
ATOM     72  C   UNL A   1      41.603  25.710  27.703  1.00  0.00     0.148 A 
ATOM     73  C   UNL A   1      43.036  27.013  25.674  1.00  0.00     0.002 A 
ATOM     74  C   UNL A   1      42.061  24.998  26.600  1.00  0.00     0.091 A 
ATOM     75  F   UNL A   1      40.875  25.125  28.665  1.00  0.00    -0.205 F 
ATOM     76  C   UNL A   1      42.762  25.651  25.575  1.00  0.00     0.022 A 
BRANCH  74  77
ATOM     77  S   UNL A   1      41.871  23.216  26.470  1.00  0.00     0.127 S 
ATOM     78  O   UNL A   1      40.421  23.077  26.364  1.00  0.00    -0.237 OA
ATOM     79  O   UNL A   1      42.611  22.919  25.244  1.00  0.00    -0.237 OA
ATOM     80  O   UNL A   1      42.477  22.674  27.679  1.00  0.00    -0.744 OA
ENDBRANCH  74  77
ENDBRANCH  46  70
BRANCH  58  81
ATOM     81  C   UNL A   1      36.447  31.254  29.072  1.00  0.00     0.023 A 
ATOM     82  C   UNL A   1      36.276  32.617  28.764  1.00  0.00     0.012 A 
ATOM     83  C   UNL A   1      35.564  30.304  28.521  1.00  0.00     0.148 A 
ATOM     84  C   UNL A   1      35.229  33.033  27.940  1.00  0.00     0.002 A 
ATOM     85  C   UNL A   1      34.549  30.721  27.666  1.00  0.00     0.091 A 
ATOM     86  F   UNL A   1      35.731  29.013  28.842  1.00  0.00    -0.205 F 
ATOM     87  C   UNL A   1      34.375  32.086  27.383  1.00  0.00     0.022 A 
BRANCH  85  88
ATOM     88  S   UNL A   1      33.458  29.562  26.833  1.00  0.00     0.127 S 
ATOM     89  O   UNL A   1      32.640  29.072  27.940  1.00  0.00    -0.237 OA
ATOM     90  O   UNL A   1      32.750  30.424  25.886  1.00  0.00    -0.237 OA
ATOM     91  O   UNL A   1      34.329  28.573  26.210  1.00  0.00    -0.744 OA
ENDBRANCH  85  88
ENDBRANCH  58  81
ENDBRANCH  32  33
ENDBRANCH  25  27
ENDBRANCH  24  25
ENDBRANCH  23  24
ENDBRANCH  22  23
ENDBRANCH  21  22
ENDBRANCH  20  21
ENDBRANCH   1  20
TORSDOF 24
ENDMDL
