MODEL 1
REMARK VINA RESULT:     -10.5      0.000      0.000
REMARK SMILES C[C@H]1C[NH+](CC[C@@H]2CCC[C@]2([NH3+])C(=O)OCCOCCOCCOC(=O)c2ccc(-c3c4nc(c(-c5cccc(S(=O)(=O)[O-])c5F)c5ccc([nH]5)c(-c5cccc(S(=O)(=O)[O-])c5F)c5nc(c(-c6cccc(S(=O)(=O)[O-])c6F)c6ccc3[nH]6)C=C5)C=C4)cc2)C[C@H](C)O1
REMARK SMILES IDX 19 1 18 2 17 3 16 4 15 5 13 6 14 7 11 8 7 9 8 10 9 11 10 12
REMARK SMILES IDX 6 13 5 14 4 15 1 16 2 17 3 18 93 19 91 20 90 21 92 23 12 24
REMARK SMILES IDX 20 28 21 29 22 30 23 31 24 32 25 33 26 34 27 35 28 36 89 37
REMARK SMILES IDX 29 38 88 39 30 40 31 41 32 42 82 43 33 44 87 45 81 46 83 47
REMARK SMILES IDX 34 48 86 49 80 50 79 51 35 53 67 54 47 55 66 56 48 57 51 58
REMARK SMILES IDX 65 59 84 60 49 61 50 62 64 64 85 65 52 66 36 67 37 68 45 69
REMARK SMILES IDX 38 70 40 71 46 72 39 73 41 74 42 75 43 76 44 77 68 78 69 79
REMARK SMILES IDX 77 80 70 81 72 82 78 83 71 84 73 85 74 86 75 87 76 88 53 89
REMARK SMILES IDX 54 90 62 91 55 92 57 93 63 94 56 95 58 96 59 97 60 98 61 99
REMARK H PARENT 4 22 12 25 12 26 12 27 83 52 51 63
REMARK Flexibility Score: inf
ROOT
ATOM      1  C   UNL A   1      34.252  17.145  24.377  1.00  0.00     0.188 C 
ENDROOT
BRANCH   1   2
ATOM      2  O   UNL A   1      33.257  17.384  23.395  1.00  0.00    -0.376 OA
BRANCH   2   3
ATOM      3  C   UNL A   1      32.211  18.279  23.734  1.00  0.00     0.202 C 
BRANCH   3   4
ATOM      4  C   UNL A   1      32.307  19.685  23.145  1.00  0.00     0.261 C 
BRANCH   4   5
ATOM      5  O   UNL A   1      32.107  20.711  24.145  1.00  0.00    -0.459 OA
BRANCH   5   6
ATOM      6  C   UNL A   1      32.138  22.002  23.743  1.00  0.00     0.368 C 
ATOM      7  O   UNL A   1      32.463  22.344  22.610  1.00  0.00    -0.245 OA
BRANCH   6   8
ATOM      8  C   UNL A   1      31.918  23.044  24.909  1.00  0.00     0.195 C 
ATOM      9  C   UNL A   1      32.854  24.289  25.134  1.00  0.00     0.068 C 
ATOM     10  C   UNL A   1      33.861  23.849  26.236  1.00  0.00     0.011 C 
ATOM     11  C   UNL A   1      33.501  22.423  26.615  1.00  0.00     0.008 C 
ATOM     12  C   UNL A   1      32.049  22.276  26.242  1.00  0.00     0.081 C 
BRANCH   9  13
ATOM     13  C   UNL A   1      33.506  25.309  24.127  1.00  0.00     0.072 C 
BRANCH  13  14
ATOM     14  C   UNL A   1      33.803  26.817  24.316  1.00  0.00     0.262 C 
BRANCH  14  15
ATOM     15  N   UNL A   1      32.786  27.780  24.756  1.00  0.00    -0.331 N 
ATOM     16  C   UNL A   1      29.897  29.673  23.174  1.00  0.00     0.045 C 
ATOM     17  C   UNL A   1      30.686  29.088  24.338  1.00  0.00     0.170 C 
ATOM     18  C   UNL A   1      31.717  28.046  23.790  1.00  0.00     0.294 C 
ATOM     19  O   UNL A   1      31.236  30.246  24.991  1.00  0.00    -0.364 OA
ATOM     20  C   UNL A   1      32.353  29.988  25.829  1.00  0.00     0.170 C 
ATOM     21  C   UNL A   1      33.334  29.074  25.114  1.00  0.00     0.294 C 
ATOM     22  H   UNL A   1      32.397  27.304  25.571  1.00  0.00     0.348 HD
ATOM     23  C   UNL A   1      31.986  29.473  27.217  1.00  0.00     0.045 C 
ENDBRANCH  14  15
ENDBRANCH  13  14
ENDBRANCH   9  13
BRANCH   8  24
ATOM     24  N   UNL A   1      30.476  23.427  24.925  1.00  0.00    -0.343 N 
ATOM     25  H   UNL A   1      30.194  23.731  23.993  1.00  0.00     0.345 HD
ATOM     26  H   UNL A   1      30.334  24.189  25.589  1.00  0.00     0.345 HD
ATOM     27  H   UNL A   1      29.913  22.623  25.204  1.00  0.00     0.345 HD
ENDBRANCH   8  24
ENDBRANCH   6   8
ENDBRANCH   5   6
ENDBRANCH   4   5
ENDBRANCH   3   4
ENDBRANCH   2   3
ENDBRANCH   1   2
BRANCH   1  28
ATOM     28  C   UNL A   1      35.326  18.228  24.613  1.00  0.00     0.188 C 
BRANCH  28  29
ATOM     29  O   UNL A   1      35.009  19.524  25.088  1.00  0.00    -0.376 OA
BRANCH  29  30
ATOM     30  C   UNL A   1      35.918  20.579  24.840  1.00  0.00     0.202 C 
BRANCH  30  31
ATOM     31  C   UNL A   1      37.422  20.288  24.923  1.00  0.00     0.261 C 
BRANCH  31  32
ATOM     32  O   UNL A   1      38.229  21.389  25.373  1.00  0.00    -0.460 OA
BRANCH  32  33
ATOM     33  C   UNL A   1      39.346  21.069  26.076  1.00  0.00     0.338 C 
ATOM     34  O   UNL A   1      39.913  19.986  26.089  1.00  0.00    -0.246 OA
BRANCH  33  35
ATOM     35  C   UNL A   1      39.946  22.305  26.635  1.00  0.00     0.060 A 
ATOM     36  C   UNL A   1      39.545  23.533  26.091  1.00  0.00     0.016 A 
ATOM     37  C   UNL A   1      40.851  22.279  27.698  1.00  0.00     0.016 A 
ATOM     38  C   UNL A   1      40.021  24.733  26.619  1.00  0.00     0.010 A 
ATOM     39  C   UNL A   1      41.365  23.486  28.197  1.00  0.00     0.010 A 
ATOM     40  C   UNL A   1      40.956  24.719  27.657  1.00  0.00    -0.014 A 
BRANCH  40  41
ATOM     41  C   UNL A   1      41.676  25.971  27.994  1.00  0.00     0.031 A 
ATOM     42  C   UNL A   1      40.918  27.025  28.751  1.00  0.00     0.074 A 
ATOM     43  C   UNL A   1      42.968  26.174  27.675  1.00  0.00     0.049 A 
ATOM     44  N   UNL A   1      41.274  28.239  29.071  1.00  0.00    -0.248 NA
ATOM     45  C   UNL A   1      39.573  26.646  29.218  1.00  0.00     0.031 C 
ATOM     46  C   UNL A   1      43.849  25.204  27.028  1.00  0.00     0.029 A 
ATOM     47  N   UNL A   1      43.757  27.288  27.840  1.00  0.00    -0.354 N 
ATOM     48  C   UNL A   1      40.184  28.785  29.738  1.00  0.00     0.074 A 
ATOM     49  C   UNL A   1      39.161  27.765  29.792  1.00  0.00     0.031 C 
ATOM     50  C   UNL A   1      45.046  25.782  26.811  1.00  0.00     0.029 A 
ATOM     51  C   UNL A   1      45.001  27.173  27.262  1.00  0.00     0.049 A 
ATOM     52  H   UNL A   1      43.461  28.092  28.325  1.00  0.00     0.167 HD
ATOM     53  C   UNL A   1      40.043  30.027  30.255  1.00  0.00     0.034 A 
ATOM     54  C   UNL A   1      45.967  28.097  27.079  1.00  0.00     0.034 A 
ATOM     55  C   UNL A   1      41.056  31.043  30.200  1.00  0.00     0.049 A 
ATOM     56  C   UNL A   1      45.750  29.506  27.583  1.00  0.00     0.074 A 
ATOM     57  C   UNL A   1      41.004  32.333  30.695  1.00  0.00     0.029 A 
ATOM     58  N   UNL A   1      42.295  30.892  29.599  1.00  0.00    -0.354 N 
ATOM     59  N   UNL A   1      44.738  29.999  28.255  1.00  0.00    -0.248 NA
ATOM     60  C   UNL A   1      46.819  30.481  27.316  1.00  0.00     0.031 C 
ATOM     61  C   UNL A   1      42.199  32.977  30.357  1.00  0.00     0.029 A 
ATOM     62  C   UNL A   1      43.013  32.071  29.694  1.00  0.00     0.049 A 
ATOM     63  H   UNL A   1      42.618  30.067  29.169  1.00  0.00     0.167 HD
ATOM     64  C   UNL A   1      45.065  31.325  28.525  1.00  0.00     0.074 A 
ATOM     65  C   UNL A   1      46.377  31.555  27.958  1.00  0.00     0.031 C 
ATOM     66  C   UNL A   1      44.341  32.272  29.173  1.00  0.00     0.034 A 
BRANCH  53  67
ATOM     67  C   UNL A   1      38.726  30.359  30.898  1.00  0.00     0.023 A 
ATOM     68  C   UNL A   1      38.463  29.956  32.223  1.00  0.00     0.012 A 
ATOM     69  C   UNL A   1      37.754  31.092  30.190  1.00  0.00     0.148 A 
ATOM     70  C   UNL A   1      37.238  30.250  32.821  1.00  0.00     0.002 A 
ATOM     71  C   UNL A   1      36.557  31.423  30.811  1.00  0.00     0.091 A 
ATOM     72  F   UNL A   1      38.014  31.440  28.923  1.00  0.00    -0.205 F 
ATOM     73  C   UNL A   1      36.292  30.991  32.120  1.00  0.00     0.022 A 
BRANCH  71  74
ATOM     74  S   UNL A   1      35.307  32.439  30.018  1.00  0.00     0.127 S 
ATOM     75  O   UNL A   1      36.068  33.646  29.694  1.00  0.00    -0.237 OA
ATOM     76  O   UNL A   1      34.939  31.622  28.861  1.00  0.00    -0.237 OA
ATOM     77  O   UNL A   1      34.247  32.616  31.000  1.00  0.00    -0.744 OA
ENDBRANCH  71  74
ENDBRANCH  53  67
BRANCH  54  78
ATOM     78  C   UNL A   1      47.231  27.743  26.366  1.00  0.00     0.023 A 
ATOM     79  C   UNL A   1      48.354  27.317  27.102  1.00  0.00     0.012 A 
ATOM     80  C   UNL A   1      47.335  27.858  24.965  1.00  0.00     0.148 A 
ATOM     81  C   UNL A   1      49.565  27.045  26.462  1.00  0.00     0.002 A 
ATOM     82  C   UNL A   1      48.527  27.533  24.328  1.00  0.00     0.091 A 
ATOM     83  F   UNL A   1      46.265  28.291  24.283  1.00  0.00    -0.205 F 
ATOM     84  C   UNL A   1      49.649  27.144  25.076  1.00  0.00     0.022 A 
BRANCH  82  85
ATOM     85  S   UNL A   1      48.700  27.531  22.539  1.00  0.00     0.127 S 
ATOM     86  O   UNL A   1      49.999  28.178  22.364  1.00  0.00    -0.237 OA
ATOM     87  O   UNL A   1      48.679  26.100  22.238  1.00  0.00    -0.237 OA
ATOM     88  O   UNL A   1      47.556  28.273  22.030  1.00  0.00    -0.744 OA
ENDBRANCH  82  85
ENDBRANCH  54  78
BRANCH  66  89
ATOM     89  C   UNL A   1      44.959  33.636  29.361  1.00  0.00     0.023 A 
ATOM     90  C   UNL A   1      45.703  33.923  30.523  1.00  0.00     0.012 A 
ATOM     91  C   UNL A   1      44.878  34.602  28.338  1.00  0.00     0.148 A 
ATOM     92  C   UNL A   1      46.328  35.160  30.676  1.00  0.00     0.002 A 
ATOM     93  C   UNL A   1      45.547  35.812  28.475  1.00  0.00     0.091 A 
ATOM     94  F   UNL A   1      44.155  34.316  27.244  1.00  0.00    -0.205 F 
ATOM     95  C   UNL A   1      46.262  36.099  29.649  1.00  0.00     0.022 A 
BRANCH  93  96
ATOM     96  S   UNL A   1      45.603  37.040  27.164  1.00  0.00     0.127 S 
ATOM     97  O   UNL A   1      44.209  37.476  27.105  1.00  0.00    -0.237 OA
ATOM     98  O   UNL A   1      46.530  38.032  27.709  1.00  0.00    -0.237 OA
ATOM     99  O   UNL A   1      46.088  36.345  25.979  1.00  0.00    -0.744 OA
ENDBRANCH  93  96
ENDBRANCH  66  89
ENDBRANCH  40  41
ENDBRANCH  33  35
ENDBRANCH  32  33
ENDBRANCH  31  32
ENDBRANCH  30  31
ENDBRANCH  29  30
ENDBRANCH  28  29
ENDBRANCH   1  28
TORSDOF 24
ENDMDL
MODEL 2
REMARK VINA RESULT:      -9.8      2.880      9.245
REMARK SMILES C[C@H]1C[NH+](CC[C@@H]2CCC[C@]2([NH3+])C(=O)OCCOCCOCCOC(=O)c2ccc(-c3c4nc(c(-c5cccc(S(=O)(=O)[O-])c5F)c5ccc([nH]5)c(-c5cccc(S(=O)(=O)[O-])c5F)c5nc(c(-c6cccc(S(=O)(=O)[O-])c6F)c6ccc3[nH]6)C=C5)C=C4)cc2)C[C@H](C)O1
REMARK SMILES IDX 19 1 18 2 17 3 16 4 15 5 13 6 14 7 11 8 7 9 8 10 9 11 10 12
REMARK SMILES IDX 6 13 5 14 4 15 1 16 2 17 3 18 93 19 91 20 90 21 92 23 12 24
REMARK SMILES IDX 20 28 21 29 22 30 23 31 24 32 25 33 26 34 27 35 28 36 89 37
REMARK SMILES IDX 29 38 88 39 30 40 31 41 32 42 82 43 33 44 87 45 81 46 83 47
REMARK SMILES IDX 34 48 86 49 80 50 79 51 35 53 67 54 47 55 66 56 48 57 51 58
REMARK SMILES IDX 65 59 84 60 49 61 50 62 64 64 85 65 52 66 36 67 37 68 45 69
REMARK SMILES IDX 38 70 40 71 46 72 39 73 41 74 42 75 43 76 44 77 68 78 69 79
REMARK SMILES IDX 77 80 70 81 72 82 78 83 71 84 73 85 74 86 75 87 76 88 53 89
REMARK SMILES IDX 54 90 62 91 55 92 57 93 63 94 56 95 58 96 59 97 60 98 61 99
REMARK H PARENT 4 22 12 25 12 26 12 27 83 52 51 63
REMARK Flexibility Score: inf
ROOT
ATOM      1  C   UNL A   1      39.637  22.447  26.701  1.00  0.00     0.188 C 
ENDROOT
BRANCH   1   2
ATOM      2  O   UNL A   1      38.734  21.685  25.915  1.00  0.00    -0.376 OA
BRANCH   2   3
ATOM      3  C   UNL A   1      37.630  22.370  25.347  1.00  0.00     0.202 C 
BRANCH   3   4
ATOM      4  C   UNL A   1      36.244  21.892  25.781  1.00  0.00     0.261 C 
BRANCH   4   5
ATOM      5  O   UNL A   1      35.188  22.524  25.022  1.00  0.00    -0.459 OA
BRANCH   5   6
ATOM      6  C   UNL A   1      34.221  23.179  25.706  1.00  0.00     0.368 C 
ATOM      7  O   UNL A   1      34.316  23.460  26.897  1.00  0.00    -0.245 OA
BRANCH   6   8
ATOM      8  C   UNL A   1      32.879  23.371  24.897  1.00  0.00     0.195 C 
ATOM      9  C   UNL A   1      32.403  22.374  23.776  1.00  0.00     0.068 C 
ATOM     10  C   UNL A   1      32.853  23.023  22.435  1.00  0.00     0.011 C 
ATOM     11  C   UNL A   1      33.545  24.328  22.789  1.00  0.00     0.008 C 
ATOM     12  C   UNL A   1      32.989  24.710  24.137  1.00  0.00     0.081 C 
BRANCH   9  13
ATOM     13  C   UNL A   1      32.418  20.802  23.692  1.00  0.00     0.072 C 
BRANCH  13  14
ATOM     14  C   UNL A   1      32.620  19.763  24.823  1.00  0.00     0.262 C 
BRANCH  14  15
ATOM     15  N   UNL A   1      32.932  18.352  24.562  1.00  0.00    -0.331 N 
ATOM     16  C   UNL A   1      32.363  15.024  26.303  1.00  0.00     0.045 C 
ATOM     17  C   UNL A   1      32.669  15.917  25.108  1.00  0.00     0.170 C 
ATOM     18  C   UNL A   1      32.274  17.391  25.453  1.00  0.00     0.294 C 
ATOM     19  O   UNL A   1      34.064  15.674  24.853  1.00  0.00    -0.364 OA
ATOM     20  C   UNL A   1      34.718  16.680  24.092  1.00  0.00     0.170 C 
ATOM     21  C   UNL A   1      34.348  18.053  24.626  1.00  0.00     0.294 C 
ATOM     22  H   UNL A   1      32.571  18.239  23.614  1.00  0.00     0.348 HD
ATOM     23  C   UNL A   1      34.500  16.564  22.586  1.00  0.00     0.045 C 
ENDBRANCH  14  15
ENDBRANCH  13  14
ENDBRANCH   9  13
BRANCH   8  24
ATOM     24  N   UNL A   1      31.788  23.669  25.871  1.00  0.00    -0.343 N 
ATOM     25  H   UNL A   1      32.159  24.230  26.637  1.00  0.00     0.345 HD
ATOM     26  H   UNL A   1      31.414  22.793  26.240  1.00  0.00     0.345 HD
ATOM     27  H   UNL A   1      31.044  24.185  25.401  1.00  0.00     0.345 HD
ENDBRANCH   8  24
ENDBRANCH   6   8
ENDBRANCH   5   6
ENDBRANCH   4   5
ENDBRANCH   3   4
ENDBRANCH   2   3
ENDBRANCH   1   2
BRANCH   1  28
ATOM     28  C   UNL A   1      41.125  22.038  26.716  1.00  0.00     0.188 C 
BRANCH  28  29
ATOM     29  O   UNL A   1      41.569  20.800  27.241  1.00  0.00    -0.376 OA
BRANCH  29  30
ATOM     30  C   UNL A   1      41.452  19.642  26.437  1.00  0.00     0.202 C 
BRANCH  30  31
ATOM     31  C   UNL A   1      42.734  18.927  25.988  1.00  0.00     0.261 C 
BRANCH  31  32
ATOM     32  O   UNL A   1      43.193  19.277  24.671  1.00  0.00    -0.460 OA
BRANCH  32  33
ATOM     33  C   UNL A   1      44.527  19.491  24.537  1.00  0.00     0.338 C 
ATOM     34  O   UNL A   1      45.350  18.705  24.088  1.00  0.00    -0.246 OA
BRANCH  33  35
ATOM     35  C   UNL A   1      44.820  20.927  24.769  1.00  0.00     0.060 A 
ATOM     36  C   UNL A   1      45.162  21.324  26.070  1.00  0.00     0.016 A 
ATOM     37  C   UNL A   1      44.807  21.867  23.738  1.00  0.00     0.016 A 
ATOM     38  C   UNL A   1      45.515  22.646  26.339  1.00  0.00     0.010 A 
ATOM     39  C   UNL A   1      45.117  23.207  24.020  1.00  0.00     0.010 A 
ATOM     40  C   UNL A   1      45.468  23.604  25.322  1.00  0.00    -0.014 A 
BRANCH  40  41
ATOM     41  C   UNL A   1      45.544  25.040  25.684  1.00  0.00     0.031 A 
ATOM     42  C   UNL A   1      46.897  25.693  25.653  1.00  0.00     0.074 A 
ATOM     43  C   UNL A   1      44.456  25.767  26.001  1.00  0.00     0.049 A 
ATOM     44  N   UNL A   1      47.252  26.893  26.024  1.00  0.00    -0.248 NA
ATOM     45  C   UNL A   1      48.000  24.875  25.118  1.00  0.00     0.031 C 
ATOM     46  C   UNL A   1      43.076  25.290  25.978  1.00  0.00     0.029 A 
ATOM     47  N   UNL A   1      44.355  27.070  26.429  1.00  0.00    -0.354 N 
ATOM     48  C   UNL A   1      48.623  26.961  25.811  1.00  0.00     0.074 A 
ATOM     49  C   UNL A   1      49.033  25.688  25.261  1.00  0.00     0.031 C 
ATOM     50  C   UNL A   1      42.268  26.274  26.417  1.00  0.00     0.029 A 
ATOM     51  C   UNL A   1      43.079  27.433  26.793  1.00  0.00     0.049 A 
ATOM     52  H   UNL A   1      45.123  27.686  26.470  1.00  0.00     0.167 HD
ATOM     53  C   UNL A   1      49.468  27.988  26.055  1.00  0.00     0.034 A 
ATOM     54  C   UNL A   1      42.629  28.550  27.402  1.00  0.00     0.034 A 
ATOM     55  C   UNL A   1      49.064  29.252  26.604  1.00  0.00     0.049 A 
ATOM     56  C   UNL A   1      43.607  29.649  27.751  1.00  0.00     0.074 A 
ATOM     57  C   UNL A   1      49.849  30.353  26.889  1.00  0.00     0.029 A 
ATOM     58  N   UNL A   1      47.768  29.576  26.969  1.00  0.00    -0.354 N 
ATOM     59  N   UNL A   1      44.892  29.724  27.501  1.00  0.00    -0.248 NA
ATOM     60  C   UNL A   1      43.068  30.824  28.453  1.00  0.00     0.031 C 
ATOM     61  C   UNL A   1      49.033  31.332  27.465  1.00  0.00     0.029 A 
ATOM     62  C   UNL A   1      47.731  30.856  27.493  1.00  0.00     0.049 A 
ATOM     63  H   UNL A   1      46.987  28.984  26.869  1.00  0.00     0.167 HD
ATOM     64  C   UNL A   1      45.304  30.967  27.976  1.00  0.00     0.074 A 
ATOM     65  C   UNL A   1      44.129  31.617  28.516  1.00  0.00     0.031 C 
ATOM     66  C   UNL A   1      46.545  31.515  27.978  1.00  0.00     0.034 A 
BRANCH  53  67
ATOM     67  C   UNL A   1      50.924  27.767  25.756  1.00  0.00     0.023 A 
ATOM     68  C   UNL A   1      51.830  27.497  26.802  1.00  0.00     0.012 A 
ATOM     69  C   UNL A   1      51.391  27.809  24.428  1.00  0.00     0.148 A 
ATOM     70  C   UNL A   1      53.184  27.303  26.532  1.00  0.00     0.002 A 
ATOM     71  C   UNL A   1      52.732  27.566  24.163  1.00  0.00     0.091 A 
ATOM     72  F   UNL A   1      50.518  28.097  23.453  1.00  0.00    -0.205 F 
ATOM     73  C   UNL A   1      53.632  27.328  25.214  1.00  0.00     0.022 A 
BRANCH  71  74
ATOM     74  S   UNL A   1      53.390  27.501  22.494  1.00  0.00     0.127 S 
ATOM     75  O   UNL A   1      52.399  26.665  21.817  1.00  0.00    -0.237 OA
ATOM     76  O   UNL A   1      53.369  28.911  22.103  1.00  0.00    -0.237 OA
ATOM     77  O   UNL A   1      54.721  26.921  22.607  1.00  0.00    -0.744 OA
ENDBRANCH  71  74
ENDBRANCH  53  67
BRANCH  54  78
ATOM     78  C   UNL A   1      41.184  28.696  27.750  1.00  0.00     0.023 A 
ATOM     79  C   UNL A   1      40.268  29.132  26.773  1.00  0.00     0.012 A 
ATOM     80  C   UNL A   1      40.718  28.437  29.055  1.00  0.00     0.148 A 
ATOM     81  C   UNL A   1      38.926  29.339  27.094  1.00  0.00     0.002 A 
ATOM     82  C   UNL A   1      39.370  28.592  29.355  1.00  0.00     0.091 A 
ATOM     83  F   UNL A   1      41.607  28.049  29.980  1.00  0.00    -0.205 F 
ATOM     84  C   UNL A   1      38.475  29.060  28.382  1.00  0.00     0.022 A 
BRANCH  82  85
ATOM     85  S   UNL A   1      38.678  28.160  30.956  1.00  0.00     0.127 S 
ATOM     86  O   UNL A   1      38.692  26.699  30.905  1.00  0.00    -0.237 OA
ATOM     87  O   UNL A   1      39.651  28.753  31.873  1.00  0.00    -0.237 OA
ATOM     88  O   UNL A   1      37.358  28.774  30.995  1.00  0.00    -0.744 OA
ENDBRANCH  82  85
ENDBRANCH  54  78
BRANCH  66  89
ATOM     89  C   UNL A   1      46.706  32.911  28.529  1.00  0.00     0.023 A 
ATOM     90  C   UNL A   1      47.003  33.104  29.893  1.00  0.00     0.012 A 
ATOM     91  C   UNL A   1      46.654  34.027  27.670  1.00  0.00     0.148 A 
ATOM     92  C   UNL A   1      47.213  34.387  30.398  1.00  0.00     0.002 A 
ATOM     93  C   UNL A   1      46.917  35.297  28.169  1.00  0.00     0.091 A 
ATOM     94  F   UNL A   1      46.358  33.826  26.377  1.00  0.00    -0.205 F 
ATOM     95  C   UNL A   1      47.183  35.481  29.536  1.00  0.00     0.022 A 
BRANCH  93  96
ATOM     96  S   UNL A   1      47.001  36.751  27.117  1.00  0.00     0.127 S 
ATOM     97  O   UNL A   1      48.072  36.388  26.192  1.00  0.00    -0.237 OA
ATOM     98  O   UNL A   1      45.665  36.781  26.522  1.00  0.00    -0.237 OA
ATOM     99  O   UNL A   1      47.295  37.872  28.000  1.00  0.00    -0.744 OA
ENDBRANCH  93  96
ENDBRANCH  66  89
ENDBRANCH  40  41
ENDBRANCH  33  35
ENDBRANCH  32  33
ENDBRANCH  31  32
ENDBRANCH  30  31
ENDBRANCH  29  30
ENDBRANCH  28  29
ENDBRANCH   1  28
TORSDOF 24
ENDMDL
MODEL 3
REMARK VINA RESULT:      -9.6      3.151      8.406
REMARK SMILES C[C@H]1C[NH+](CC[C@@H]2CCC[C@]2([NH3+])C(=O)OCCOCCOCCOC(=O)c2ccc(-c3c4nc(c(-c5cccc(S(=O)(=O)[O-])c5F)c5ccc([nH]5)c(-c5cccc(S(=O)(=O)[O-])c5F)c5nc(c(-c6cccc(S(=O)(=O)[O-])c6F)c6ccc3[nH]6)C=C5)C=C4)cc2)C[C@H](C)O1
REMARK SMILES IDX 19 1 18 2 17 3 16 4 15 5 13 6 14 7 11 8 7 9 8 10 9 11 10 12
REMARK SMILES IDX 6 13 5 14 4 15 1 16 2 17 3 18 93 19 91 20 90 21 92 23 12 24
REMARK SMILES IDX 20 28 21 29 22 30 23 31 24 32 25 33 26 34 27 35 28 36 89 37
REMARK SMILES IDX 29 38 88 39 30 40 31 41 32 42 82 43 33 44 87 45 81 46 83 47
REMARK SMILES IDX 34 48 86 49 80 50 79 51 35 53 67 54 47 55 66 56 48 57 51 58
REMARK SMILES IDX 65 59 84 60 49 61 50 62 64 64 85 65 52 66 36 67 37 68 45 69
REMARK SMILES IDX 38 70 40 71 46 72 39 73 41 74 42 75 43 76 44 77 68 78 69 79
REMARK SMILES IDX 77 80 70 81 72 82 78 83 71 84 73 85 74 86 75 87 76 88 53 89
REMARK SMILES IDX 54 90 62 91 55 92 57 93 63 94 56 95 58 96 59 97 60 98 61 99
REMARK H PARENT 4 22 12 25 12 26 12 27 83 52 51 63
REMARK Flexibility Score: inf
ROOT
ATOM      1  C   UNL A   1      39.632  22.060  26.460  1.00  0.00     0.188 C 
ENDROOT
BRANCH   1   2
ATOM      2  O   UNL A   1      38.680  21.827  25.434  1.00  0.00    -0.376 OA
BRANCH   2   3
ATOM      3  C   UNL A   1      37.347  22.244  25.677  1.00  0.00     0.202 C 
BRANCH   3   4
ATOM      4  C   UNL A   1      37.029  23.705  25.360  1.00  0.00     0.261 C 
BRANCH   4   5
ATOM      5  O   UNL A   1      35.743  23.856  24.716  1.00  0.00    -0.459 OA
BRANCH   5   6
ATOM      6  C   UNL A   1      34.634  23.609  25.451  1.00  0.00     0.368 C 
ATOM      7  O   UNL A   1      34.617  23.658  26.677  1.00  0.00    -0.245 OA
BRANCH   6   8
ATOM      8  C   UNL A   1      33.416  23.057  24.611  1.00  0.00     0.195 C 
ATOM      9  C   UNL A   1      32.091  22.523  25.272  1.00  0.00     0.068 C 
ATOM     10  C   UNL A   1      32.258  20.976  25.326  1.00  0.00     0.011 C 
ATOM     11  C   UNL A   1      33.613  20.659  24.717  1.00  0.00     0.008 C 
ATOM     12  C   UNL A   1      33.921  21.831  23.821  1.00  0.00     0.081 C 
BRANCH   9  13
ATOM     13  C   UNL A   1      31.228  23.054  26.477  1.00  0.00     0.072 C 
BRANCH  13  14
ATOM     14  C   UNL A   1      30.168  24.183  26.499  1.00  0.00     0.262 C 
BRANCH  14  15
ATOM     15  N   UNL A   1      30.486  25.581  26.186  1.00  0.00    -0.331 N 
ATOM     16  C   UNL A   1      30.849  27.704  23.056  1.00  0.00     0.045 C 
ATOM     17  C   UNL A   1      30.640  27.475  24.547  1.00  0.00     0.170 C 
ATOM     18  C   UNL A   1      30.267  25.976  24.791  1.00  0.00     0.294 C 
ATOM     19  O   UNL A   1      31.872  27.930  25.135  1.00  0.00    -0.364 OA
ATOM     20  C   UNL A   1      32.130  27.437  26.442  1.00  0.00     0.170 C 
ATOM     21  C   UNL A   1      31.855  25.944  26.494  1.00  0.00     0.294 C 
ATOM     22  H   UNL A   1      29.827  26.077  26.786  1.00  0.00     0.348 HD
ATOM     23  C   UNL A   1      31.408  28.199  27.550  1.00  0.00     0.045 C 
ENDBRANCH  14  15
ENDBRANCH  13  14
ENDBRANCH   9  13
BRANCH   8  24
ATOM     24  N   UNL A   1      33.132  24.026  23.512  1.00  0.00    -0.343 N 
ATOM     25  H   UNL A   1      33.727  23.815  22.711  1.00  0.00     0.345 HD
ATOM     26  H   UNL A   1      33.322  24.974  23.837  1.00  0.00     0.345 HD
ATOM     27  H   UNL A   1      32.153  23.950  23.236  1.00  0.00     0.345 HD
ENDBRANCH   8  24
ENDBRANCH   6   8
ENDBRANCH   5   6
ENDBRANCH   4   5
ENDBRANCH   3   4
ENDBRANCH   2   3
ENDBRANCH   1   2
BRANCH   1  28
ATOM     28  C   UNL A   1      41.127  21.852  26.136  1.00  0.00     0.188 C 
BRANCH  28  29
ATOM     29  O   UNL A   1      41.945  20.952  26.863  1.00  0.00    -0.376 OA
BRANCH  29  30
ATOM     30  C   UNL A   1      41.757  19.562  26.676  1.00  0.00     0.202 C 
BRANCH  30  31
ATOM     31  C   UNL A   1      42.843  18.766  25.939  1.00  0.00     0.261 C 
BRANCH  31  32
ATOM     32  O   UNL A   1      43.297  19.356  24.709  1.00  0.00    -0.460 OA
BRANCH  32  33
ATOM     33  C   UNL A   1      44.629  19.597  24.614  1.00  0.00     0.338 C 
ATOM     34  O   UNL A   1      45.483  18.823  24.203  1.00  0.00    -0.246 OA
BRANCH  33  35
ATOM     35  C   UNL A   1      44.885  21.042  24.833  1.00  0.00     0.060 A 
ATOM     36  C   UNL A   1      45.302  21.447  26.109  1.00  0.00     0.016 A 
ATOM     37  C   UNL A   1      44.764  21.984  23.811  1.00  0.00     0.016 A 
ATOM     38  C   UNL A   1      45.623  22.781  26.360  1.00  0.00     0.010 A 
ATOM     39  C   UNL A   1      45.043  23.333  24.078  1.00  0.00     0.010 A 
ATOM     40  C   UNL A   1      45.470  23.739  25.355  1.00  0.00    -0.014 A 
BRANCH  40  41
ATOM     41  C   UNL A   1      45.517  25.176  25.719  1.00  0.00     0.031 A 
ATOM     42  C   UNL A   1      46.856  25.859  25.679  1.00  0.00     0.074 A 
ATOM     43  C   UNL A   1      44.416  25.879  26.046  1.00  0.00     0.049 A 
ATOM     44  N   UNL A   1      47.187  27.065  26.050  1.00  0.00    -0.248 NA
ATOM     45  C   UNL A   1      47.972  25.065  25.134  1.00  0.00     0.031 C 
ATOM     46  C   UNL A   1      43.046  25.372  26.032  1.00  0.00     0.029 A 
ATOM     47  N   UNL A   1      44.290  27.179  26.476  1.00  0.00    -0.354 N 
ATOM     48  C   UNL A   1      48.555  27.163  25.826  1.00  0.00     0.074 A 
ATOM     49  C   UNL A   1      48.988  25.901  25.271  1.00  0.00     0.031 C 
ATOM     50  C   UNL A   1      42.221  26.338  26.479  1.00  0.00     0.029 A 
ATOM     51  C   UNL A   1      43.010  27.513  26.851  1.00  0.00     0.049 A 
ATOM     52  H   UNL A   1      45.045  27.811  26.513  1.00  0.00     0.167 HD
ATOM     53  C   UNL A   1      49.379  28.208  26.066  1.00  0.00     0.034 A 
ATOM     54  C   UNL A   1      42.540  28.619  27.465  1.00  0.00     0.034 A 
ATOM     55  C   UNL A   1      48.952  29.461  26.620  1.00  0.00     0.049 A 
ATOM     56  C   UNL A   1      43.498  29.738  27.810  1.00  0.00     0.074 A 
ATOM     57  C   UNL A   1      49.716  30.579  26.901  1.00  0.00     0.029 A 
ATOM     58  N   UNL A   1      47.652  29.757  26.996  1.00  0.00    -0.354 N 
ATOM     59  N   UNL A   1      44.779  29.842  27.549  1.00  0.00    -0.248 NA
ATOM     60  C   UNL A   1      42.938  30.901  28.518  1.00  0.00     0.031 C 
ATOM     61  C   UNL A   1      48.883  31.539  27.486  1.00  0.00     0.029 A 
ATOM     62  C   UNL A   1      47.592  31.035  27.523  1.00  0.00     0.049 A 
ATOM     63  H   UNL A   1      46.884  29.149  26.900  1.00  0.00     0.167 HD
ATOM     64  C   UNL A   1      45.167  31.092  28.024  1.00  0.00     0.074 A 
ATOM     65  C   UNL A   1      43.983  31.716  28.574  1.00  0.00     0.031 C 
ATOM     66  C   UNL A   1      46.396  31.668  28.017  1.00  0.00     0.034 A 
BRANCH  53  67
ATOM     67  C   UNL A   1      50.838  28.019  25.755  1.00  0.00     0.023 A 
ATOM     68  C   UNL A   1      51.328  28.292  24.462  1.00  0.00     0.012 A 
ATOM     69  C   UNL A   1      51.728  27.588  26.758  1.00  0.00     0.148 A 
ATOM     70  C   UNL A   1      52.678  28.106  24.164  1.00  0.00     0.002 A 
ATOM     71  C   UNL A   1      53.079  27.453  26.466  1.00  0.00     0.091 A 
ATOM     72  F   UNL A   1      51.235  27.306  27.971  1.00  0.00    -0.205 F 
ATOM     73  C   UNL A   1      53.552  27.698  25.166  1.00  0.00     0.022 A 
BRANCH  71  74
ATOM     74  S   UNL A   1      54.296  27.006  27.707  1.00  0.00     0.127 S 
ATOM     75  O   UNL A   1      55.424  26.585  26.878  1.00  0.00    -0.237 OA
ATOM     76  O   UNL A   1      54.495  28.276  28.409  1.00  0.00    -0.237 OA
ATOM     77  O   UNL A   1      53.686  25.956  28.511  1.00  0.00    -0.744 OA
ENDBRANCH  71  74
ENDBRANCH  53  67
BRANCH  54  78
ATOM     78  C   UNL A   1      41.095  28.734  27.825  1.00  0.00     0.023 A 
ATOM     79  C   UNL A   1      40.161  29.141  26.852  1.00  0.00     0.012 A 
ATOM     80  C   UNL A   1      40.647  28.472  29.135  1.00  0.00     0.148 A 
ATOM     81  C   UNL A   1      38.817  29.319  27.184  1.00  0.00     0.002 A 
ATOM     82  C   UNL A   1      39.297  28.597  29.446  1.00  0.00     0.091 A 
ATOM     83  F   UNL A   1      41.552  28.112  30.056  1.00  0.00    -0.205 F 
ATOM     84  C   UNL A   1      38.384  29.038  28.477  1.00  0.00     0.022 A 
BRANCH  82  85
ATOM     85  S   UNL A   1      38.629  28.160  31.056  1.00  0.00     0.127 S 
ATOM     86  O   UNL A   1      39.579  28.804  31.960  1.00  0.00    -0.237 OA
ATOM     87  O   UNL A   1      37.305  28.781  31.009  1.00  0.00    -0.237 OA
ATOM     88  O   UNL A   1      38.613  26.704  31.095  1.00  0.00    -0.744 OA
ENDBRANCH  82  85
ENDBRANCH  54  78
BRANCH  66  89
ATOM     89  C   UNL A   1      46.531  33.065  28.570  1.00  0.00     0.023 A 
ATOM     90  C   UNL A   1      46.790  33.263  29.941  1.00  0.00     0.012 A 
ATOM     91  C   UNL A   1      46.493  34.180  27.708  1.00  0.00     0.148 A 
ATOM     92  C   UNL A   1      46.976  34.549  30.449  1.00  0.00     0.002 A 
ATOM     93  C   UNL A   1      46.732  35.453  28.212  1.00  0.00     0.091 A 
ATOM     94  F   UNL A   1      46.233  33.974  26.408  1.00  0.00    -0.205 F 
ATOM     95  C   UNL A   1      46.961  35.641  29.584  1.00  0.00     0.022 A 
BRANCH  93  96
ATOM     96  S   UNL A   1      46.833  36.906  27.160  1.00  0.00     0.127 S 
ATOM     97  O   UNL A   1      45.933  37.832  27.844  1.00  0.00    -0.237 OA
ATOM     98  O   UNL A   1      48.251  37.255  27.249  1.00  0.00    -0.237 OA
ATOM     99  O   UNL A   1      46.397  36.478  25.837  1.00  0.00    -0.744 OA
ENDBRANCH  93  96
ENDBRANCH  66  89
ENDBRANCH  40  41
ENDBRANCH  33  35
ENDBRANCH  32  33
ENDBRANCH  31  32
ENDBRANCH  30  31
ENDBRANCH  29  30
ENDBRANCH  28  29
ENDBRANCH   1  28
TORSDOF 24
ENDMDL
