MODEL 1
REMARK VINA RESULT:      -8.1      0.000      0.000
REMARK SMILES C[C@@H](C(=O)OCCOCCOCCOC(=O)c1ccc(-c2c3nc(c(-c4cccc(S(=O)(=O)[O-])c4F)c4ccc([nH]4)c(-c4cccc(S(=O)(=O)[O-])c4F)c4nc(c(-c5cccc(S(=O)(=O)[O-])c5F)c5ccc2[nH]5)C=C4)C=C3)cc1)c1ccc(-c2cccc(OC(=O)Nc3ccccc3)c2)c(F)c1
REMARK SMILES IDX 9 1 8 2 7 3 6 4 5 5 3 6 4 7 2 8 1 9 80 10 81 11 102 12 82 13
REMARK SMILES IDX 100 14 83 15 101 16 84 17 85 18 99 19 86 20 88 21 87 22
REMARK SMILES IDX 89 23 90 24 91 25 92 26 93 28 94 29 98 30 95 31 97 32 96 33
REMARK SMILES IDX 10 34 11 35 12 36 13 37 14 38 15 39 16 40 17 41 18 42 79 43
REMARK SMILES IDX 19 44 78 45 20 46 21 47 22 48 72 49 23 50 77 51 71 52 73 53
REMARK SMILES IDX 24 54 76 55 70 56 69 57 25 59 57 60 37 61 56 62 38 63 41 64
REMARK SMILES IDX 55 65 74 66 39 67 40 68 54 70 75 71 42 72 26 73 27 74 35 75
REMARK SMILES IDX 28 76 30 77 36 78 29 79 31 80 32 81 33 82 34 83 58 84 59 85
REMARK SMILES IDX 67 86 60 87 62 88 68 89 61 90 63 91 64 92 65 93 66 94 43 95
REMARK SMILES IDX 44 96 52 97 45 98 47 99 53 100 46 101 48 102 49 103 50 104
REMARK SMILES IDX 51 105
REMARK H PARENT 92 27 73 58 41 69
REMARK Flexibility Score: inf
ROOT
ATOM      1  C   UNL A   1      42.291  19.429  25.970  1.00  0.00     0.188 C 
ENDROOT
BRANCH   1   2
ATOM      2  O   UNL A   1      42.044  19.790  27.326  1.00  0.00    -0.376 OA
BRANCH   2   3
ATOM      3  C   UNL A   1      41.199  20.910  27.580  1.00  0.00     0.202 C 
BRANCH   3   4
ATOM      4  C   UNL A   1      40.820  21.800  26.389  1.00  0.00     0.261 C 
BRANCH   4   5
ATOM      5  O   UNL A   1      41.369  23.137  26.457  1.00  0.00    -0.463 OA
BRANCH   5   6
ATOM      6  C   UNL A   1      40.606  24.056  27.112  1.00  0.00     0.313 C 
ATOM      7  O   UNL A   1      39.396  23.936  27.277  1.00  0.00    -0.252 OA
BRANCH   6   8
ATOM      8  C   UNL A   1      41.380  25.283  27.623  1.00  0.00     0.126 C 
ATOM      9  C   UNL A   1      42.251  25.109  28.873  1.00  0.00     0.025 C 
BRANCH   8  10
ATOM     10  C   UNL A   1      40.480  26.503  27.764  1.00  0.00    -0.031 A 
ATOM     11  C   UNL A   1      40.398  27.474  26.756  1.00  0.00     0.005 A 
ATOM     12  C   UNL A   1      39.709  26.690  28.912  1.00  0.00     0.044 A 
ATOM     13  C   UNL A   1      39.551  28.588  26.894  1.00  0.00     0.012 A 
ATOM     14  C   UNL A   1      38.869  27.790  29.037  1.00  0.00     0.131 A 
ATOM     15  C   UNL A   1      38.768  28.764  28.044  1.00  0.00     0.018 A 
ATOM     16  F   UNL A   1      38.154  27.891  30.163  1.00  0.00    -0.206 F 
BRANCH  15  17
ATOM     17  C   UNL A   1      37.901  29.935  28.234  1.00  0.00    -0.012 A 
ATOM     18  C   UNL A   1      36.671  30.056  27.568  1.00  0.00     0.009 A 
ATOM     19  C   UNL A   1      38.282  30.951  29.129  1.00  0.00     0.056 A 
ATOM     20  C   UNL A   1      35.844  31.160  27.792  1.00  0.00     0.004 A 
ATOM     21  C   UNL A   1      37.450  32.040  29.357  1.00  0.00     0.133 A 
ATOM     22  C   UNL A   1      36.230  32.152  28.692  1.00  0.00     0.047 A 
BRANCH  21  23
ATOM     23  O   UNL A   1      37.775  33.120  30.214  1.00  0.00    -0.410 OA
BRANCH  23  24
ATOM     24  C   UNL A   1      39.018  33.724  30.408  1.00  0.00     0.417 C 
ATOM     25  O   UNL A   1      39.403  34.754  29.856  1.00  0.00    -0.224 OA
ATOM     26  N   UNL A   1      39.774  33.160  31.406  1.00  0.00    -0.291 N 
ATOM     27  H   UNL A   1      40.570  33.676  31.671  1.00  0.00     0.173 HD
BRANCH  26  28
ATOM     28  C   UNL A   1      39.581  31.957  32.106  1.00  0.00     0.044 A 
ATOM     29  C   UNL A   1      38.868  32.017  33.312  1.00  0.00     0.026 A 
ATOM     30  C   UNL A   1      40.088  30.733  31.681  1.00  0.00     0.026 A 
ATOM     31  C   UNL A   1      38.636  30.859  34.059  1.00  0.00     0.002 A 
ATOM     32  C   UNL A   1      39.849  29.580  32.425  1.00  0.00     0.002 A 
ATOM     33  C   UNL A   1      39.129  29.638  33.614  1.00  0.00     0.000 A 
ENDBRANCH  26  28
ENDBRANCH  23  24
ENDBRANCH  21  23
ENDBRANCH  15  17
ENDBRANCH   8  10
ENDBRANCH   6   8
ENDBRANCH   5   6
ENDBRANCH   4   5
ENDBRANCH   3   4
ENDBRANCH   2   3
ENDBRANCH   1   2
BRANCH   1  34
ATOM     34  C   UNL A   1      43.672  19.778  25.392  1.00  0.00     0.188 C 
BRANCH  34  35
ATOM     35  O   UNL A   1      44.126  21.068  25.750  1.00  0.00    -0.376 OA
BRANCH  35  36
ATOM     36  C   UNL A   1      44.776  21.842  24.759  1.00  0.00     0.202 C 
BRANCH  36  37
ATOM     37  C   UNL A   1      45.766  22.919  25.220  1.00  0.00     0.261 C 
BRANCH  37  38
ATOM     38  O   UNL A   1      45.256  24.260  25.306  1.00  0.00    -0.460 OA
BRANCH  38  39
ATOM     39  C   UNL A   1      46.128  25.283  25.145  1.00  0.00     0.338 C 
ATOM     40  O   UNL A   1      46.995  25.371  24.293  1.00  0.00    -0.246 OA
BRANCH  39  41
ATOM     41  C   UNL A   1      45.708  26.376  26.056  1.00  0.00     0.060 A 
ATOM     42  C   UNL A   1      46.680  27.054  26.801  1.00  0.00     0.016 A 
ATOM     43  C   UNL A   1      44.364  26.750  26.157  1.00  0.00     0.016 A 
ATOM     44  C   UNL A   1      46.305  28.093  27.660  1.00  0.00     0.010 A 
ATOM     45  C   UNL A   1      43.989  27.782  27.027  1.00  0.00     0.010 A 
ATOM     46  C   UNL A   1      44.954  28.451  27.797  1.00  0.00    -0.014 A 
BRANCH  46  47
ATOM     47  C   UNL A   1      44.535  29.392  28.868  1.00  0.00     0.031 A 
ATOM     48  C   UNL A   1      44.258  28.838  30.237  1.00  0.00     0.074 A 
ATOM     49  C   UNL A   1      44.363  30.707  28.642  1.00  0.00     0.049 A 
ATOM     50  N   UNL A   1      43.852  29.454  31.316  1.00  0.00    -0.248 NA
ATOM     51  C   UNL A   1      44.440  27.386  30.400  1.00  0.00     0.031 C 
ATOM     52  C   UNL A   1      44.572  31.379  27.364  1.00  0.00     0.029 A 
ATOM     53  N   UNL A   1      43.961  31.715  29.490  1.00  0.00    -0.354 N 
ATOM     54  C   UNL A   1      43.696  28.464  32.278  1.00  0.00     0.074 A 
ATOM     55  C   UNL A   1      44.059  27.209  31.655  1.00  0.00     0.031 C 
ATOM     56  C   UNL A   1      44.319  32.690  27.513  1.00  0.00     0.029 A 
ATOM     57  C   UNL A   1      43.883  32.949  28.885  1.00  0.00     0.049 A 
ATOM     58  H   UNL A   1      43.748  31.566  30.440  1.00  0.00     0.167 HD
ATOM     59  C   UNL A   1      43.279  28.579  33.560  1.00  0.00     0.034 A 
ATOM     60  C   UNL A   1      43.495  34.143  29.376  1.00  0.00     0.034 A 
ATOM     61  C   UNL A   1      42.892  29.814  34.185  1.00  0.00     0.049 A 
ATOM     62  C   UNL A   1      43.060  34.250  30.820  1.00  0.00     0.074 A 
ATOM     63  C   UNL A   1      42.481  30.024  35.489  1.00  0.00     0.029 A 
ATOM     64  N   UNL A   1      42.846  31.045  33.550  1.00  0.00    -0.354 N 
ATOM     65  N   UNL A   1      43.018  33.324  31.749  1.00  0.00    -0.248 NA
ATOM     66  C   UNL A   1      42.633  35.579  31.288  1.00  0.00     0.031 C 
ATOM     67  C   UNL A   1      42.163  31.379  35.637  1.00  0.00     0.029 A 
ATOM     68  C   UNL A   1      42.416  32.021  34.436  1.00  0.00     0.049 A 
ATOM     69  H   UNL A   1      43.084  31.204  32.608  1.00  0.00     0.167 HD
ATOM     70  C   UNL A   1      42.563  33.956  32.904  1.00  0.00     0.074 A 
ATOM     71  C   UNL A   1      42.398  35.356  32.575  1.00  0.00     0.031 C 
ATOM     72  C   UNL A   1      42.281  33.421  34.119  1.00  0.00     0.034 A 
BRANCH  59  73
ATOM     73  C   UNL A   1      43.219  27.317  34.376  1.00  0.00     0.023 A 
ATOM     74  C   UNL A   1      41.998  26.622  34.495  1.00  0.00     0.012 A 
ATOM     75  C   UNL A   1      44.373  26.804  34.999  1.00  0.00     0.148 A 
ATOM     76  C   UNL A   1      41.918  25.455  35.253  1.00  0.00     0.002 A 
ATOM     77  C   UNL A   1      44.294  25.615  35.714  1.00  0.00     0.091 A 
ATOM     78  F   UNL A   1      45.517  27.495  34.898  1.00  0.00    -0.205 F 
ATOM     79  C   UNL A   1      43.067  24.947  35.852  1.00  0.00     0.022 A 
BRANCH  77  80
ATOM     80  S   UNL A   1      45.735  24.837  36.454  1.00  0.00     0.127 S 
ATOM     81  O   UNL A   1      45.916  25.642  37.662  1.00  0.00    -0.237 OA
ATOM     82  O   UNL A   1      45.259  23.475  36.695  1.00  0.00    -0.237 OA
ATOM     83  O   UNL A   1      46.800  24.942  35.466  1.00  0.00    -0.744 OA
ENDBRANCH  77  80
ENDBRANCH  59  73
BRANCH  60  84
ATOM     84  C   UNL A   1      43.524  35.358  28.505  1.00  0.00     0.023 A 
ATOM     85  C   UNL A   1      42.345  35.774  27.855  1.00  0.00     0.012 A 
ATOM     86  C   UNL A   1      44.703  36.106  28.319  1.00  0.00     0.148 A 
ATOM     87  C   UNL A   1      42.339  36.897  27.027  1.00  0.00     0.002 A 
ATOM     88  C   UNL A   1      44.679  37.255  27.535  1.00  0.00     0.091 A 
ATOM     89  F   UNL A   1      45.827  35.680  28.911  1.00  0.00    -0.205 F 
ATOM     90  C   UNL A   1      43.502  37.645  26.878  1.00  0.00     0.022 A 
BRANCH  88  91
ATOM     91  S   UNL A   1      46.102  38.340  27.373  1.00  0.00     0.127 S 
ATOM     92  O   UNL A   1      47.203  37.441  27.710  1.00  0.00    -0.237 OA
ATOM     93  O   UNL A   1      46.031  38.723  25.962  1.00  0.00    -0.237 OA
ATOM     94  O   UNL A   1      45.869  39.434  28.305  1.00  0.00    -0.744 OA
ENDBRANCH  88  91
ENDBRANCH  60  84
BRANCH  72  95
ATOM     95  C   UNL A   1      41.789  34.348  35.208  1.00  0.00     0.023 A 
ATOM     96  C   UNL A   1      40.414  34.431  35.502  1.00  0.00     0.012 A 
ATOM     97  C   UNL A   1      42.695  35.097  35.987  1.00  0.00     0.148 A 
ATOM     98  C   UNL A   1      39.951  35.271  36.518  1.00  0.00     0.002 A 
ATOM     99  C   UNL A   1      42.234  35.904  37.020  1.00  0.00     0.091 A 
ATOM    100  F   UNL A   1      44.000  35.007  35.716  1.00  0.00    -0.205 F 
ATOM    101  C   UNL A   1      40.860  36.002  37.280  1.00  0.00     0.022 A 
BRANCH  99 102
ATOM    102  S   UNL A   1      43.348  36.829  38.086  1.00  0.00     0.127 S 
ATOM    103  O   UNL A   1      42.410  37.495  38.988  1.00  0.00    -0.237 OA
ATOM    104  O   UNL A   1      44.139  35.764  38.703  1.00  0.00    -0.237 OA
ATOM    105  O   UNL A   1      44.102  37.718  37.212  1.00  0.00    -0.744 OA
ENDBRANCH  99 102
ENDBRANCH  72  95
ENDBRANCH  46  47
ENDBRANCH  39  41
ENDBRANCH  38  39
ENDBRANCH  37  38
ENDBRANCH  36  37
ENDBRANCH  35  36
ENDBRANCH  34  35
ENDBRANCH   1  34
TORSDOF 25
ENDMDL
MODEL 2
REMARK VINA RESULT:      -8.0      4.845      8.199
REMARK SMILES C[C@@H](C(=O)OCCOCCOCCOC(=O)c1ccc(-c2c3nc(c(-c4cccc(S(=O)(=O)[O-])c4F)c4ccc([nH]4)c(-c4cccc(S(=O)(=O)[O-])c4F)c4nc(c(-c5cccc(S(=O)(=O)[O-])c5F)c5ccc2[nH]5)C=C4)C=C3)cc1)c1ccc(-c2cccc(OC(=O)Nc3ccccc3)c2)c(F)c1
REMARK SMILES IDX 9 1 8 2 7 3 6 4 5 5 3 6 4 7 2 8 1 9 80 10 81 11 102 12 82 13
REMARK SMILES IDX 100 14 83 15 101 16 84 17 85 18 99 19 86 20 88 21 87 22
REMARK SMILES IDX 89 23 90 24 91 25 92 26 93 28 94 29 98 30 95 31 97 32 96 33
REMARK SMILES IDX 10 34 11 35 12 36 13 37 14 38 15 39 16 40 17 41 18 42 79 43
REMARK SMILES IDX 19 44 78 45 20 46 21 47 22 48 72 49 23 50 77 51 71 52 73 53
REMARK SMILES IDX 24 54 76 55 70 56 69 57 25 59 57 60 37 61 56 62 38 63 41 64
REMARK SMILES IDX 55 65 74 66 39 67 40 68 54 70 75 71 42 72 26 73 27 74 35 75
REMARK SMILES IDX 28 76 30 77 36 78 29 79 31 80 32 81 33 82 34 83 58 84 59 85
REMARK SMILES IDX 67 86 60 87 62 88 68 89 61 90 63 91 64 92 65 93 66 94 43 95
REMARK SMILES IDX 44 96 52 97 45 98 47 99 53 100 46 101 48 102 49 103 50 104
REMARK SMILES IDX 51 105
REMARK H PARENT 92 27 73 58 41 69
REMARK Flexibility Score: inf
ROOT
ATOM      1  C   UNL A   1      34.679  23.139  24.176  1.00  0.00     0.188 C 
ENDROOT
BRANCH   1   2
ATOM      2  O   UNL A   1      33.594  22.384  24.705  1.00  0.00    -0.376 OA
BRANCH   2   3
ATOM      3  C   UNL A   1      33.300  22.512  26.094  1.00  0.00     0.202 C 
BRANCH   3   4
ATOM      4  C   UNL A   1      32.349  23.638  26.519  1.00  0.00     0.261 C 
BRANCH   4   5
ATOM      5  O   UNL A   1      31.404  24.028  25.496  1.00  0.00    -0.463 OA
BRANCH   5   6
ATOM      6  C   UNL A   1      30.588  25.072  25.812  1.00  0.00     0.313 C 
ATOM      7  O   UNL A   1      29.743  25.026  26.701  1.00  0.00    -0.252 OA
BRANCH   6   8
ATOM      8  C   UNL A   1      30.794  26.329  24.949  1.00  0.00     0.126 C 
ATOM      9  C   UNL A   1      31.068  26.132  23.454  1.00  0.00     0.025 C 
BRANCH   8  10
ATOM     10  C   UNL A   1      31.818  27.275  25.562  1.00  0.00    -0.031 A 
ATOM     11  C   UNL A   1      33.193  27.009  25.498  1.00  0.00     0.005 A 
ATOM     12  C   UNL A   1      31.411  28.439  26.214  1.00  0.00     0.044 A 
ATOM     13  C   UNL A   1      34.128  27.898  26.057  1.00  0.00     0.012 A 
ATOM     14  C   UNL A   1      32.341  29.318  26.756  1.00  0.00     0.131 A 
ATOM     15  C   UNL A   1      33.713  29.075  26.698  1.00  0.00     0.018 A 
ATOM     16  F   UNL A   1      31.871  30.418  27.353  1.00  0.00    -0.206 F 
BRANCH  15  17
ATOM     17  C   UNL A   1      34.662  30.006  27.322  1.00  0.00    -0.012 A 
ATOM     18  C   UNL A   1      35.967  29.612  27.659  1.00  0.00     0.009 A 
ATOM     19  C   UNL A   1      34.282  31.339  27.561  1.00  0.00     0.056 A 
ATOM     20  C   UNL A   1      36.866  30.525  28.218  1.00  0.00     0.004 A 
ATOM     21  C   UNL A   1      35.183  32.245  28.105  1.00  0.00     0.133 A 
ATOM     22  C   UNL A   1      36.478  31.845  28.436  1.00  0.00     0.047 A 
BRANCH  21  23
ATOM     23  O   UNL A   1      34.869  33.592  28.408  1.00  0.00    -0.410 OA
BRANCH  23  24
ATOM     24  C   UNL A   1      33.766  34.085  29.107  1.00  0.00     0.417 C 
ATOM     25  O   UNL A   1      32.741  34.534  28.596  1.00  0.00    -0.224 OA
ATOM     26  N   UNL A   1      33.827  33.901  30.466  1.00  0.00    -0.291 N 
ATOM     27  H   UNL A   1      32.990  34.083  30.952  1.00  0.00     0.173 HD
BRANCH  26  28
ATOM     28  C   UNL A   1      34.905  33.491  31.268  1.00  0.00     0.044 A 
ATOM     29  C   UNL A   1      35.885  34.447  31.574  1.00  0.00     0.026 A 
ATOM     30  C   UNL A   1      35.062  32.189  31.735  1.00  0.00     0.026 A 
ATOM     31  C   UNL A   1      36.983  34.109  32.369  1.00  0.00     0.002 A 
ATOM     32  C   UNL A   1      36.155  31.858  32.532  1.00  0.00     0.002 A 
ATOM     33  C   UNL A   1      37.118  32.810  32.849  1.00  0.00     0.000 A 
ENDBRANCH  26  28
ENDBRANCH  23  24
ENDBRANCH  21  23
ENDBRANCH  15  17
ENDBRANCH   8  10
ENDBRANCH   6   8
ENDBRANCH   5   6
ENDBRANCH   4   5
ENDBRANCH   3   4
ENDBRANCH   2   3
ENDBRANCH   1   2
BRANCH   1  34
ATOM     34  C   UNL A   1      36.052  22.448  24.118  1.00  0.00     0.188 C 
BRANCH  34  35
ATOM     35  O   UNL A   1      36.519  22.013  25.380  1.00  0.00    -0.376 OA
BRANCH  35  36
ATOM     36  C   UNL A   1      37.851  22.328  25.738  1.00  0.00     0.202 C 
BRANCH  36  37
ATOM     37  C   UNL A   1      38.928  21.255  25.529  1.00  0.00     0.261 C 
BRANCH  37  38
ATOM     38  O   UNL A   1      39.929  21.147  26.555  1.00  0.00    -0.460 OA
BRANCH  38  39
ATOM     39  C   UNL A   1      41.165  20.728  26.194  1.00  0.00     0.338 C 
ATOM     40  O   UNL A   1      41.440  19.695  25.609  1.00  0.00    -0.246 OA
BRANCH  39  41
ATOM     41  C   UNL A   1      42.108  21.845  26.452  1.00  0.00     0.060 A 
ATOM     42  C   UNL A   1      42.768  21.909  27.685  1.00  0.00     0.016 A 
ATOM     43  C   UNL A   1      42.361  22.811  25.472  1.00  0.00     0.016 A 
ATOM     44  C   UNL A   1      43.667  22.950  27.942  1.00  0.00     0.010 A 
ATOM     45  C   UNL A   1      43.251  23.858  25.738  1.00  0.00     0.010 A 
ATOM     46  C   UNL A   1      43.899  23.946  26.980  1.00  0.00    -0.014 A 
BRANCH  46  47
ATOM     47  C   UNL A   1      44.672  25.164  27.336  1.00  0.00     0.031 A 
ATOM     48  C   UNL A   1      43.980  26.249  28.111  1.00  0.00     0.074 A 
ATOM     49  C   UNL A   1      45.952  25.338  26.958  1.00  0.00     0.049 A 
ATOM     50  N   UNL A   1      44.436  27.408  28.507  1.00  0.00    -0.248 NA
ATOM     51  C   UNL A   1      42.573  25.999  28.463  1.00  0.00     0.031 C 
ATOM     52  C   UNL A   1      46.742  24.385  26.188  1.00  0.00     0.029 A 
ATOM     53  N   UNL A   1      46.811  26.394  27.169  1.00  0.00    -0.354 N 
ATOM     54  C   UNL A   1      43.365  28.043  29.124  1.00  0.00     0.074 A 
ATOM     55  C   UNL A   1      42.240  27.134  29.057  1.00  0.00     0.031 C 
ATOM     56  C   UNL A   1      47.977  24.885  26.007  1.00  0.00     0.029 A 
ATOM     57  C   UNL A   1      48.055  26.216  26.608  1.00  0.00     0.049 A 
ATOM     58  H   UNL A   1      46.558  27.200  27.674  1.00  0.00     0.167 HD
ATOM     59  C   UNL A   1      43.312  29.272  29.687  1.00  0.00     0.034 A 
ATOM     60  C   UNL A   1      49.125  27.035  26.571  1.00  0.00     0.034 A 
ATOM     61  C   UNL A   1      44.413  30.194  29.739  1.00  0.00     0.049 A 
ATOM     62  C   UNL A   1      49.050  28.392  27.232  1.00  0.00     0.074 A 
ATOM     63  C   UNL A   1      44.453  31.451  30.315  1.00  0.00     0.029 A 
ATOM     64  N   UNL A   1      45.662  29.973  29.180  1.00  0.00    -0.354 N 
ATOM     65  N   UNL A   1      48.064  28.937  27.906  1.00  0.00    -0.248 NA
ATOM     66  C   UNL A   1      50.247  29.243  27.142  1.00  0.00     0.031 C 
ATOM     67  C   UNL A   1      45.718  32.001  30.083  1.00  0.00     0.029 A 
ATOM     68  C   UNL A   1      46.481  31.069  29.400  1.00  0.00     0.049 A 
ATOM     69  H   UNL A   1      45.928  29.156  28.699  1.00  0.00     0.167 HD
ATOM     70  C   UNL A   1      48.522  30.188  28.316  1.00  0.00     0.074 A 
ATOM     71  C   UNL A   1      49.893  30.297  27.866  1.00  0.00     0.031 C 
ATOM     72  C   UNL A   1      47.857  31.168  28.980  1.00  0.00     0.034 A 
BRANCH  59  73
ATOM     73  C   UNL A   1      42.001  29.690  30.295  1.00  0.00     0.023 A 
ATOM     74  C   UNL A   1      41.032  30.325  29.492  1.00  0.00     0.012 A 
ATOM     75  C   UNL A   1      41.717  29.430  31.649  1.00  0.00     0.148 A 
ATOM     76  C   UNL A   1      39.815  30.728  30.036  1.00  0.00     0.002 A 
ATOM     77  C   UNL A   1      40.482  29.792  32.172  1.00  0.00     0.091 A 
ATOM     78  F   UNL A   1      42.663  28.852  32.403  1.00  0.00    -0.205 F 
ATOM     79  C   UNL A   1      39.536  30.452  31.372  1.00  0.00     0.022 A 
BRANCH  77  80
ATOM     80  S   UNL A   1      39.999  29.408  33.859  1.00  0.00     0.127 S 
ATOM     81  O   UNL A   1      40.764  30.398  34.618  1.00  0.00    -0.237 OA
ATOM     82  O   UNL A   1      38.556  29.648  33.827  1.00  0.00    -0.237 OA
ATOM     83  O   UNL A   1      40.378  28.020  34.080  1.00  0.00    -0.744 OA
ENDBRANCH  77  80
ENDBRANCH  59  73
BRANCH  60  84
ATOM     84  C   UNL A   1      50.389  26.589  25.907  1.00  0.00     0.023 A 
ATOM     85  C   UNL A   1      51.230  25.669  26.563  1.00  0.00     0.012 A 
ATOM     86  C   UNL A   1      50.762  27.063  24.634  1.00  0.00     0.148 A 
ATOM     87  C   UNL A   1      52.421  25.239  25.977  1.00  0.00     0.002 A 
ATOM     88  C   UNL A   1      51.923  26.592  24.032  1.00  0.00     0.091 A 
ATOM     89  F   UNL A   1      49.974  27.967  24.036  1.00  0.00    -0.205 F 
ATOM     90  C   UNL A   1      52.762  25.690  24.706  1.00  0.00     0.022 A 
BRANCH  88  91
ATOM     91  S   UNL A   1      52.386  27.034  22.353  1.00  0.00     0.127 S 
ATOM     92  O   UNL A   1      51.185  26.667  21.606  1.00  0.00    -0.237 OA
ATOM     93  O   UNL A   1      52.619  28.475  22.473  1.00  0.00    -0.237 OA
ATOM     94  O   UNL A   1      53.580  26.255  22.056  1.00  0.00    -0.744 OA
ENDBRANCH  88  91
ENDBRANCH  60  84
BRANCH  72  95
ATOM     95  C   UNL A   1      48.604  32.445  29.296  1.00  0.00     0.023 A 
ATOM     96  C   UNL A   1      48.561  33.531  28.401  1.00  0.00     0.012 A 
ATOM     97  C   UNL A   1      49.301  32.595  30.513  1.00  0.00     0.148 A 
ATOM     98  C   UNL A   1      49.232  34.721  28.693  1.00  0.00     0.002 A 
ATOM     99  C   UNL A   1      49.938  33.792  30.815  1.00  0.00     0.091 A 
ATOM    100  F   UNL A   1      49.329  31.568  31.366  1.00  0.00    -0.205 F 
ATOM    101  C   UNL A   1      49.915  34.854  29.900  1.00  0.00     0.022 A 
BRANCH  99 102
ATOM    102  S   UNL A   1      50.786  34.061  32.378  1.00  0.00     0.127 S 
ATOM    103  O   UNL A   1      51.855  33.066  32.309  1.00  0.00    -0.237 OA
ATOM    104  O   UNL A   1      51.232  35.448  32.251  1.00  0.00    -0.237 OA
ATOM    105  O   UNL A   1      49.795  33.833  33.421  1.00  0.00    -0.744 OA
ENDBRANCH  99 102
ENDBRANCH  72  95
ENDBRANCH  46  47
ENDBRANCH  39  41
ENDBRANCH  38  39
ENDBRANCH  37  38
ENDBRANCH  36  37
ENDBRANCH  35  36
ENDBRANCH  34  35
ENDBRANCH   1  34
TORSDOF 25
ENDMDL
MODEL 3
REMARK VINA RESULT:      -7.8      4.607      8.310
REMARK SMILES C[C@@H](C(=O)OCCOCCOCCOC(=O)c1ccc(-c2c3nc(c(-c4cccc(S(=O)(=O)[O-])c4F)c4ccc([nH]4)c(-c4cccc(S(=O)(=O)[O-])c4F)c4nc(c(-c5cccc(S(=O)(=O)[O-])c5F)c5ccc2[nH]5)C=C4)C=C3)cc1)c1ccc(-c2cccc(OC(=O)Nc3ccccc3)c2)c(F)c1
REMARK SMILES IDX 9 1 8 2 7 3 6 4 5 5 3 6 4 7 2 8 1 9 80 10 81 11 102 12 82 13
REMARK SMILES IDX 100 14 83 15 101 16 84 17 85 18 99 19 86 20 88 21 87 22
REMARK SMILES IDX 89 23 90 24 91 25 92 26 93 28 94 29 98 30 95 31 97 32 96 33
REMARK SMILES IDX 10 34 11 35 12 36 13 37 14 38 15 39 16 40 17 41 18 42 79 43
REMARK SMILES IDX 19 44 78 45 20 46 21 47 22 48 72 49 23 50 77 51 71 52 73 53
REMARK SMILES IDX 24 54 76 55 70 56 69 57 25 59 57 60 37 61 56 62 38 63 41 64
REMARK SMILES IDX 55 65 74 66 39 67 40 68 54 70 75 71 42 72 26 73 27 74 35 75
REMARK SMILES IDX 28 76 30 77 36 78 29 79 31 80 32 81 33 82 34 83 58 84 59 85
REMARK SMILES IDX 67 86 60 87 62 88 68 89 61 90 63 91 64 92 65 93 66 94 43 95
REMARK SMILES IDX 44 96 52 97 45 98 47 99 53 100 46 101 48 102 49 103 50 104
REMARK SMILES IDX 51 105
REMARK H PARENT 92 27 73 58 41 69
REMARK Flexibility Score: inf
ROOT
ATOM      1  C   UNL A   1      34.716  22.392  24.438  1.00  0.00     0.188 C 
ENDROOT
BRANCH   1   2
ATOM      2  O   UNL A   1      33.427  21.892  24.778  1.00  0.00    -0.376 OA
BRANCH   2   3
ATOM      3  C   UNL A   1      33.033  21.927  26.147  1.00  0.00     0.202 C 
BRANCH   3   4
ATOM      4  C   UNL A   1      32.161  23.103  26.607  1.00  0.00     0.261 C 
BRANCH   4   5
ATOM      5  O   UNL A   1      31.171  23.516  25.636  1.00  0.00    -0.463 OA
BRANCH   5   6
ATOM      6  C   UNL A   1      30.439  24.616  25.970  1.00  0.00     0.313 C 
ATOM      7  O   UNL A   1      29.670  24.653  26.925  1.00  0.00    -0.252 OA
BRANCH   6   8
ATOM      8  C   UNL A   1      30.638  25.823  25.036  1.00  0.00     0.126 C 
ATOM      9  C   UNL A   1      30.904  25.543  23.553  1.00  0.00     0.025 C 
BRANCH   8  10
ATOM     10  C   UNL A   1      31.663  26.804  25.589  1.00  0.00    -0.031 A 
ATOM     11  C   UNL A   1      33.029  26.679  25.300  1.00  0.00     0.005 A 
ATOM     12  C   UNL A   1      31.266  27.860  26.410  1.00  0.00     0.044 A 
ATOM     13  C   UNL A   1      33.962  27.600  25.807  1.00  0.00     0.012 A 
ATOM     14  C   UNL A   1      32.194  28.772  26.900  1.00  0.00     0.131 A 
ATOM     15  C   UNL A   1      33.556  28.669  26.619  1.00  0.00     0.018 A 
ATOM     16  F   UNL A   1      31.732  29.763  27.670  1.00  0.00    -0.206 F 
BRANCH  15  17
ATOM     17  C   UNL A   1      34.510  29.627  27.193  1.00  0.00    -0.012 A 
ATOM     18  C   UNL A   1      35.804  29.238  27.574  1.00  0.00     0.009 A 
ATOM     19  C   UNL A   1      34.146  30.978  27.336  1.00  0.00     0.056 A 
ATOM     20  C   UNL A   1      36.709  30.174  28.083  1.00  0.00     0.004 A 
ATOM     21  C   UNL A   1      35.054  31.906  27.830  1.00  0.00     0.133 A 
ATOM     22  C   UNL A   1      36.338  31.511  28.206  1.00  0.00     0.047 A 
BRANCH  21  23
ATOM     23  O   UNL A   1      34.755  33.275  28.038  1.00  0.00    -0.410 OA
BRANCH  23  24
ATOM     24  C   UNL A   1      33.628  33.830  28.645  1.00  0.00     0.417 C 
ATOM     25  O   UNL A   1      32.600  34.173  28.062  1.00  0.00    -0.224 OA
ATOM     26  N   UNL A   1      33.671  33.842  30.018  1.00  0.00    -0.291 N 
ATOM     27  H   UNL A   1      32.822  34.067  30.462  1.00  0.00     0.173 HD
BRANCH  26  28
ATOM     28  C   UNL A   1      34.747  33.581  30.883  1.00  0.00     0.044 A 
ATOM     29  C   UNL A   1      34.885  32.272  31.368  1.00  0.00     0.026 A 
ATOM     30  C   UNL A   1      35.646  34.556  31.304  1.00  0.00     0.026 A 
ATOM     31  C   UNL A   1      35.934  31.941  32.230  1.00  0.00     0.002 A 
ATOM     32  C   UNL A   1      36.694  34.221  32.159  1.00  0.00     0.002 A 
ATOM     33  C   UNL A   1      36.840  32.919  32.626  1.00  0.00     0.000 A 
ENDBRANCH  26  28
ENDBRANCH  23  24
ENDBRANCH  21  23
ENDBRANCH  15  17
ENDBRANCH   8  10
ENDBRANCH   6   8
ENDBRANCH   5   6
ENDBRANCH   4   5
ENDBRANCH   3   4
ENDBRANCH   2   3
ENDBRANCH   1   2
BRANCH   1  34
ATOM     34  C   UNL A   1      35.913  21.450  24.649  1.00  0.00     0.188 C 
BRANCH  34  35
ATOM     35  O   UNL A   1      36.663  21.741  25.812  1.00  0.00    -0.376 OA
BRANCH  35  36
ATOM     36  C   UNL A   1      38.026  22.087  25.652  1.00  0.00     0.202 C 
BRANCH  36  37
ATOM     37  C   UNL A   1      39.052  20.950  25.557  1.00  0.00     0.261 C 
BRANCH  37  38
ATOM     38  O   UNL A   1      40.093  20.946  26.547  1.00  0.00    -0.460 OA
BRANCH  38  39
ATOM     39  C   UNL A   1      41.346  20.622  26.150  1.00  0.00     0.338 C 
ATOM     40  O   UNL A   1      41.684  19.609  25.563  1.00  0.00    -0.246 OA
BRANCH  39  41
ATOM     41  C   UNL A   1      42.206  21.812  26.370  1.00  0.00     0.060 A 
ATOM     42  C   UNL A   1      42.869  21.956  27.595  1.00  0.00     0.016 A 
ATOM     43  C   UNL A   1      42.379  22.767  25.364  1.00  0.00     0.016 A 
ATOM     44  C   UNL A   1      43.690  23.067  27.818  1.00  0.00     0.010 A 
ATOM     45  C   UNL A   1      43.192  23.884  25.595  1.00  0.00     0.010 A 
ATOM     46  C   UNL A   1      43.841  24.051  26.828  1.00  0.00    -0.014 A 
BRANCH  46  47
ATOM     47  C   UNL A   1      44.525  25.332  27.146  1.00  0.00     0.031 A 
ATOM     48  C   UNL A   1      43.770  26.371  27.926  1.00  0.00     0.074 A 
ATOM     49  C   UNL A   1      45.776  25.601  26.729  1.00  0.00     0.049 A 
ATOM     50  N   UNL A   1      44.143  27.569  28.293  1.00  0.00    -0.248 NA
ATOM     51  C   UNL A   1      42.397  26.016  28.321  1.00  0.00     0.031 C 
ATOM     52  C   UNL A   1      46.618  24.701  25.949  1.00  0.00     0.029 A 
ATOM     53  N   UNL A   1      46.554  26.724  26.901  1.00  0.00    -0.354 N 
ATOM     54  C   UNL A   1      43.043  28.126  28.932  1.00  0.00     0.074 A 
ATOM     55  C   UNL A   1      41.992  27.131  28.909  1.00  0.00     0.031 C 
ATOM     56  C   UNL A   1      47.804  25.294  25.727  1.00  0.00     0.029 A 
ATOM     57  C   UNL A   1      47.792  26.636  26.308  1.00  0.00     0.049 A 
ATOM     58  H   UNL A   1      46.252  27.516  27.403  1.00  0.00     0.167 HD
ATOM     59  C   UNL A   1      42.909  29.356  29.480  1.00  0.00     0.034 A 
ATOM     60  C   UNL A   1      48.793  27.536  26.229  1.00  0.00     0.034 A 
ATOM     61  C   UNL A   1      43.934  30.363  29.488  1.00  0.00     0.049 A 
ATOM     62  C   UNL A   1      48.628  28.893  26.874  1.00  0.00     0.074 A 
ATOM     63  C   UNL A   1      43.889  31.628  30.046  1.00  0.00     0.029 A 
ATOM     64  N   UNL A   1      45.180  30.232  28.897  1.00  0.00    -0.354 N 
ATOM     65  N   UNL A   1      47.621  29.370  27.568  1.00  0.00    -0.248 NA
ATOM     66  C   UNL A   1      49.751  29.835  26.739  1.00  0.00     0.031 C 
ATOM     67  C   UNL A   1      45.100  32.272  29.771  1.00  0.00     0.029 A 
ATOM     68  C   UNL A   1      45.916  31.392  29.078  1.00  0.00     0.049 A 
ATOM     69  H   UNL A   1      45.497  29.432  28.419  1.00  0.00     0.167 HD
ATOM     70  C   UNL A   1      47.989  30.659  27.949  1.00  0.00     0.074 A 
ATOM     71  C   UNL A   1      49.334  30.868  27.459  1.00  0.00     0.031 C 
ATOM     72  C   UNL A   1      47.268  31.593  28.619  1.00  0.00     0.034 A 
BRANCH  59  73
ATOM     73  C   UNL A   1      41.586  29.678  30.119  1.00  0.00     0.023 A 
ATOM     74  C   UNL A   1      40.687  30.544  29.463  1.00  0.00     0.012 A 
ATOM     75  C   UNL A   1      41.220  29.105  31.352  1.00  0.00     0.148 A 
ATOM     76  C   UNL A   1      39.460  30.863  30.041  1.00  0.00     0.002 A 
ATOM     77  C   UNL A   1      39.975  29.391  31.899  1.00  0.00     0.091 A 
ATOM     78  F   UNL A   1      42.100  28.308  31.974  1.00  0.00    -0.205 F 
ATOM     79  C   UNL A   1      39.100  30.279  31.252  1.00  0.00     0.022 A 
BRANCH  77  80
ATOM     80  S   UNL A   1      39.388  28.625  33.413  1.00  0.00     0.127 S 
ATOM     81  O   UNL A   1      38.621  29.715  34.017  1.00  0.00    -0.237 OA
ATOM     82  O   UNL A   1      38.576  27.519  32.904  1.00  0.00    -0.237 OA
ATOM     83  O   UNL A   1      40.578  28.216  34.145  1.00  0.00    -0.744 OA
ENDBRANCH  77  80
ENDBRANCH  59  73
BRANCH  60  84
ATOM     84  C   UNL A   1      50.069  27.182  25.535  1.00  0.00     0.023 A 
ATOM     85  C   UNL A   1      50.167  27.344  24.139  1.00  0.00     0.012 A 
ATOM     86  C   UNL A   1      51.184  26.691  26.242  1.00  0.00     0.148 A 
ATOM     87  C   UNL A   1      51.339  27.013  23.458  1.00  0.00     0.002 A 
ATOM     88  C   UNL A   1      52.367  26.413  25.567  1.00  0.00     0.091 A 
ATOM     89  F   UNL A   1      51.066  26.504  27.564  1.00  0.00    -0.205 F 
ATOM     90  C   UNL A   1      52.444  26.560  24.173  1.00  0.00     0.022 A 
BRANCH  88  91
ATOM     91  S   UNL A   1      53.873  25.928  26.419  1.00  0.00     0.127 S 
ATOM     92  O   UNL A   1      53.572  26.311  27.796  1.00  0.00    -0.237 OA
ATOM     93  O   UNL A   1      53.907  24.485  26.176  1.00  0.00    -0.237 OA
ATOM     94  O   UNL A   1      54.946  26.672  25.774  1.00  0.00    -0.744 OA
ENDBRANCH  88  91
ENDBRANCH  60  84
BRANCH  72  95
ATOM     95  C   UNL A   1      47.919  32.930  28.897  1.00  0.00     0.023 A 
ATOM     96  C   UNL A   1      48.852  33.060  29.942  1.00  0.00     0.012 A 
ATOM     97  C   UNL A   1      47.653  34.049  28.081  1.00  0.00     0.148 A 
ATOM     98  C   UNL A   1      49.473  34.286  30.195  1.00  0.00     0.002 A 
ATOM     99  C   UNL A   1      48.298  35.257  28.313  1.00  0.00     0.091 A 
ATOM    100  F   UNL A   1      46.777  33.920  27.081  1.00  0.00    -0.205 F 
ATOM    101  C   UNL A   1      49.201  35.382  29.378  1.00  0.00     0.022 A 
BRANCH  99 102
ATOM    102  S   UNL A   1      48.046  36.697  27.266  1.00  0.00     0.127 S 
ATOM    103  O   UNL A   1      46.842  37.282  27.852  1.00  0.00    -0.237 OA
ATOM    104  O   UNL A   1      49.272  37.462  27.495  1.00  0.00    -0.237 OA
ATOM    105  O   UNL A   1      47.890  36.190  25.909  1.00  0.00    -0.744 OA
ENDBRANCH  99 102
ENDBRANCH  72  95
ENDBRANCH  46  47
ENDBRANCH  39  41
ENDBRANCH  38  39
ENDBRANCH  37  38
ENDBRANCH  36  37
ENDBRANCH  35  36
ENDBRANCH  34  35
ENDBRANCH   1  34
TORSDOF 25
ENDMDL
