MODEL 1
REMARK VINA RESULT:      -9.9      0.000      0.000
REMARK SMILES CC(C)(C[C@@H](O)C(F)(F)F)C(=O)OCCOCCOCCOC(=O)c1ccc(-c2c3nc(c(-c4cccc(S(=O)(=O)[O-])c4F)c4ccc([nH]4)c(-c4cccc(S(=O)(=O)[O-])c4F)c4nc(c(-c5cccc(S(=O)(=O)[O-])c5F)c5ccc2[nH]5)C=C4)C=C3)cc1
REMARK SMILES IDX 17 1 16 2 15 3 14 4 13 5 11 6 12 7 2 8 1 9 3 10 4 11 5 12
REMARK SMILES IDX 6 13 7 15 8 16 9 17 10 18 18 19 19 20 20 21 21 22 22 23
REMARK SMILES IDX 23 24 24 25 25 26 26 27 87 28 27 29 86 30 28 31 29 32 30 33
REMARK SMILES IDX 80 34 31 35 85 36 79 37 81 38 32 39 84 40 78 41 77 42 33 44
REMARK SMILES IDX 65 45 45 46 64 47 46 48 49 49 63 50 82 51 47 52 48 53 62 55
REMARK SMILES IDX 83 56 50 57 34 58 35 59 43 60 36 61 38 62 44 63 37 64 39 65
REMARK SMILES IDX 40 66 41 67 42 68 66 69 67 70 75 71 68 72 70 73 76 74 69 75
REMARK SMILES IDX 71 76 72 77 73 78 74 79 51 80 52 81 60 82 53 83 55 84 61 85
REMARK SMILES IDX 54 86 56 87 57 88 58 89 59 90
REMARK H PARENT 6 14 81 43 49 54
REMARK Flexibility Score: inf
ROOT
ATOM      1  C   UNL A   1      31.060  27.662  22.796  1.00  0.00     0.188 C 
ENDROOT
BRANCH   1   2
ATOM      2  O   UNL A   1      31.155  26.476  22.018  1.00  0.00    -0.376 OA
BRANCH   2   3
ATOM      3  C   UNL A   1      32.399  26.057  21.486  1.00  0.00     0.202 C 
BRANCH   3   4
ATOM      4  C   UNL A   1      33.086  24.857  22.167  1.00  0.00     0.261 C 
BRANCH   4   5
ATOM      5  O   UNL A   1      32.759  24.553  23.552  1.00  0.00    -0.463 OA
BRANCH   5   6
ATOM      6  C   UNL A   1      32.194  23.327  23.732  1.00  0.00     0.311 C 
ATOM      7  O   UNL A   1      31.186  22.964  23.130  1.00  0.00    -0.252 OA
BRANCH   6   8
ATOM      8  C   UNL A   1      32.861  22.411  24.784  1.00  0.00     0.065 C 
ATOM      9  C   UNL A   1      33.151  23.300  26.014  1.00  0.00     0.023 C 
ATOM     10  C   UNL A   1      34.214  22.028  24.130  1.00  0.00     0.023 C 
BRANCH   8  11
ATOM     11  C   UNL A   1      32.228  21.050  25.229  1.00  0.00     0.059 C 
BRANCH  11  12
ATOM     12  C   UNL A   1      33.127  19.810  25.348  1.00  0.00     0.220 C 
BRANCH  12  13
ATOM     13  O   UNL A   1      32.951  19.276  26.672  1.00  0.00    -0.384 OA
ATOM     14  H   UNL A   1      32.036  19.417  26.959  1.00  0.00     0.211 HD
ENDBRANCH  12  13
BRANCH  12  15
ATOM     15  C   UNL A   1      32.808  18.714  24.301  1.00  0.00     0.414 C 
ATOM     16  F   UNL A   1      32.065  19.211  23.282  1.00  0.00    -0.168 F 
ATOM     17  F   UNL A   1      33.945  18.225  23.754  1.00  0.00    -0.168 F 
ATOM     18  F   UNL A   1      32.122  17.680  24.834  1.00  0.00    -0.168 F 
ENDBRANCH  12  15
ENDBRANCH  11  12
ENDBRANCH   8  11
ENDBRANCH   6   8
ENDBRANCH   5   6
ENDBRANCH   4   5
ENDBRANCH   3   4
ENDBRANCH   2   3
ENDBRANCH   1   2
BRANCH   1  19
ATOM     19  C   UNL A   1      32.248  28.612  22.910  1.00  0.00     0.188 C 
BRANCH  19  20
ATOM     20  O   UNL A   1      32.428  29.165  24.199  1.00  0.00    -0.376 OA
BRANCH  20  21
ATOM     21  C   UNL A   1      31.299  29.723  24.856  1.00  0.00     0.202 C 
BRANCH  21  22
ATOM     22  C   UNL A   1      31.674  30.528  26.106  1.00  0.00     0.261 C 
BRANCH  22  23
ATOM     23  O   UNL A   1      33.083  30.530  26.393  1.00  0.00    -0.460 OA
BRANCH  23  24
ATOM     24  C   UNL A   1      33.518  31.561  27.164  1.00  0.00     0.338 C 
ATOM     25  O   UNL A   1      32.858  32.500  27.558  1.00  0.00    -0.246 OA
BRANCH  24  26
ATOM     26  C   UNL A   1      34.867  31.220  27.674  1.00  0.00     0.060 A 
ATOM     27  C   UNL A   1      35.191  29.865  27.832  1.00  0.00     0.016 A 
ATOM     28  C   UNL A   1      35.800  32.210  27.982  1.00  0.00     0.016 A 
ATOM     29  C   UNL A   1      36.424  29.497  28.367  1.00  0.00     0.010 A 
ATOM     30  C   UNL A   1      37.030  31.842  28.536  1.00  0.00     0.010 A 
ATOM     31  C   UNL A   1      37.323  30.487  28.782  1.00  0.00    -0.014 A 
BRANCH  31  32
ATOM     32  C   UNL A   1      38.433  30.120  29.697  1.00  0.00     0.031 A 
ATOM     33  C   UNL A   1      39.466  29.144  29.197  1.00  0.00     0.074 A 
ATOM     34  C   UNL A   1      38.552  30.656  30.924  1.00  0.00     0.049 A 
ATOM     35  N   UNL A   1      40.511  28.651  29.808  1.00  0.00    -0.248 NA
ATOM     36  C   UNL A   1      39.293  28.654  27.818  1.00  0.00     0.031 C 
ATOM     37  C   UNL A   1      37.636  31.626  31.521  1.00  0.00     0.029 A 
ATOM     38  N   UNL A   1      39.496  30.437  31.899  1.00  0.00    -0.354 N 
ATOM     39  C   UNL A   1      41.095  27.768  28.907  1.00  0.00     0.074 A 
ATOM     40  C   UNL A   1      40.281  27.780  27.713  1.00  0.00     0.031 C 
ATOM     41  C   UNL A   1      38.049  31.901  32.772  1.00  0.00     0.029 A 
ATOM     42  C   UNL A   1      39.240  31.107  33.071  1.00  0.00     0.049 A 
ATOM     43  H   UNL A   1      40.279  29.856  31.769  1.00  0.00     0.167 HD
ATOM     44  C   UNL A   1      42.216  27.023  29.051  1.00  0.00     0.034 A 
ATOM     45  C   UNL A   1      39.883  31.064  34.258  1.00  0.00     0.034 A 
ATOM     46  C   UNL A   1      43.039  27.024  30.229  1.00  0.00     0.049 A 
ATOM     47  C   UNL A   1      41.114  30.204  34.401  1.00  0.00     0.074 A 
ATOM     48  C   UNL A   1      44.216  26.333  30.456  1.00  0.00     0.029 A 
ATOM     49  N   UNL A   1      42.764  27.737  31.385  1.00  0.00    -0.354 N 
ATOM     50  N   UNL A   1      41.709  29.451  33.509  1.00  0.00    -0.248 NA
ATOM     51  C   UNL A   1      41.782  30.219  35.711  1.00  0.00     0.031 C 
ATOM     52  C   UNL A   1      44.632  26.599  31.764  1.00  0.00     0.029 A 
ATOM     53  C   UNL A   1      43.742  27.494  32.334  1.00  0.00     0.049 A 
ATOM     54  H   UNL A   1      41.988  28.329  31.512  1.00  0.00     0.167 HD
ATOM     55  C   UNL A   1      42.841  28.936  34.134  1.00  0.00     0.074 A 
ATOM     56  C   UNL A   1      42.860  29.484  35.475  1.00  0.00     0.031 C 
ATOM     57  C   UNL A   1      43.776  28.079  33.650  1.00  0.00     0.034 A 
BRANCH  44  58
ATOM     58  C   UNL A   1      42.619  26.143  27.895  1.00  0.00     0.023 A 
ATOM     59  C   UNL A   1      43.577  26.595  26.964  1.00  0.00     0.012 A 
ATOM     60  C   UNL A   1      42.074  24.852  27.755  1.00  0.00     0.148 A 
ATOM     61  C   UNL A   1      43.956  25.790  25.890  1.00  0.00     0.002 A 
ATOM     62  C   UNL A   1      42.495  24.036  26.712  1.00  0.00     0.091 A 
ATOM     63  F   UNL A   1      41.147  24.450  28.636  1.00  0.00    -0.205 F 
ATOM     64  C   UNL A   1      43.425  24.509  25.770  1.00  0.00     0.022 A 
BRANCH  62  65
ATOM     65  S   UNL A   1      41.934  22.342  26.520  1.00  0.00     0.127 S 
ATOM     66  O   UNL A   1      40.487  22.523  26.398  1.00  0.00    -0.237 OA
ATOM     67  O   UNL A   1      42.603  21.936  25.284  1.00  0.00    -0.237 OA
ATOM     68  O   UNL A   1      42.374  21.633  27.713  1.00  0.00    -0.744 OA
ENDBRANCH  62  65
ENDBRANCH  44  58
BRANCH  45  69
ATOM     69  C   UNL A   1      39.390  31.874  35.408  1.00  0.00     0.023 A 
ATOM     70  C   UNL A   1      38.471  31.314  36.317  1.00  0.00     0.012 A 
ATOM     71  C   UNL A   1      39.819  33.203  35.597  1.00  0.00     0.148 A 
ATOM     72  C   UNL A   1      37.958  32.074  37.370  1.00  0.00     0.002 A 
ATOM     73  C   UNL A   1      39.348  33.935  36.681  1.00  0.00     0.091 A 
ATOM     74  F   UNL A   1      40.679  33.724  34.712  1.00  0.00    -0.205 F 
ATOM     75  C   UNL A   1      38.403  33.379  37.558  1.00  0.00     0.022 A 
BRANCH  73  76
ATOM     76  S   UNL A   1      39.955  35.579  37.072  1.00  0.00     0.127 S 
ATOM     77  O   UNL A   1      39.223  35.884  38.299  1.00  0.00    -0.237 OA
ATOM     78  O   UNL A   1      41.386  35.334  37.251  1.00  0.00    -0.237 OA
ATOM     79  O   UNL A   1      39.623  36.407  35.920  1.00  0.00    -0.744 OA
ENDBRANCH  73  76
ENDBRANCH  45  69
BRANCH  57  80
ATOM     80  C   UNL A   1      44.930  27.718  34.553  1.00  0.00     0.023 A 
ATOM     81  C   UNL A   1      46.100  28.504  34.560  1.00  0.00     0.012 A 
ATOM     82  C   UNL A   1      44.834  26.619  35.431  1.00  0.00     0.148 A 
ATOM     83  C   UNL A   1      47.174  28.172  35.386  1.00  0.00     0.002 A 
ATOM     84  C   UNL A   1      45.885  26.328  36.292  1.00  0.00     0.091 A 
ATOM     85  F   UNL A   1      43.721  25.873  35.403  1.00  0.00    -0.205 F 
ATOM     86  C   UNL A   1      47.064  27.091  36.258  1.00  0.00     0.022 A 
BRANCH  84  87
ATOM     87  S   UNL A   1      45.791  25.020  37.519  1.00  0.00     0.127 S 
ATOM     88  O   UNL A   1      45.589  23.840  36.681  1.00  0.00    -0.237 OA
ATOM     89  O   UNL A   1      47.105  25.097  38.158  1.00  0.00    -0.237 OA
ATOM     90  O   UNL A   1      44.676  25.367  38.390  1.00  0.00    -0.744 OA
ENDBRANCH  84  87
ENDBRANCH  57  80
ENDBRANCH  31  32
ENDBRANCH  24  26
ENDBRANCH  23  24
ENDBRANCH  22  23
ENDBRANCH  21  22
ENDBRANCH  20  21
ENDBRANCH  19  20
ENDBRANCH   1  19
TORSDOF 24
ENDMDL
MODEL 2
REMARK VINA RESULT:      -9.5      2.445      2.859
REMARK SMILES CC(C)(C[C@@H](O)C(F)(F)F)C(=O)OCCOCCOCCOC(=O)c1ccc(-c2c3nc(c(-c4cccc(S(=O)(=O)[O-])c4F)c4ccc([nH]4)c(-c4cccc(S(=O)(=O)[O-])c4F)c4nc(c(-c5cccc(S(=O)(=O)[O-])c5F)c5ccc2[nH]5)C=C4)C=C3)cc1
REMARK SMILES IDX 17 1 16 2 15 3 14 4 13 5 11 6 12 7 2 8 1 9 3 10 4 11 5 12
REMARK SMILES IDX 6 13 7 15 8 16 9 17 10 18 18 19 19 20 20 21 21 22 22 23
REMARK SMILES IDX 23 24 24 25 25 26 26 27 87 28 27 29 86 30 28 31 29 32 30 33
REMARK SMILES IDX 80 34 31 35 85 36 79 37 81 38 32 39 84 40 78 41 77 42 33 44
REMARK SMILES IDX 65 45 45 46 64 47 46 48 49 49 63 50 82 51 47 52 48 53 62 55
REMARK SMILES IDX 83 56 50 57 34 58 35 59 43 60 36 61 38 62 44 63 37 64 39 65
REMARK SMILES IDX 40 66 41 67 42 68 66 69 67 70 75 71 68 72 70 73 76 74 69 75
REMARK SMILES IDX 71 76 72 77 73 78 74 79 51 80 52 81 60 82 53 83 55 84 61 85
REMARK SMILES IDX 54 86 56 87 57 88 58 89 59 90
REMARK H PARENT 6 14 81 43 49 54
REMARK Flexibility Score: inf
ROOT
ATOM      1  C   UNL A   1      30.740  27.923  22.398  1.00  0.00     0.188 C 
ENDROOT
BRANCH   1   2
ATOM      2  O   UNL A   1      32.076  27.497  22.156  1.00  0.00    -0.376 OA
BRANCH   2   3
ATOM      3  C   UNL A   1      32.906  27.078  23.223  1.00  0.00     0.202 C 
BRANCH   3   4
ATOM      4  C   UNL A   1      33.637  25.730  23.057  1.00  0.00     0.261 C 
BRANCH   4   5
ATOM      5  O   UNL A   1      33.069  24.542  23.676  1.00  0.00    -0.463 OA
BRANCH   5   6
ATOM      6  C   UNL A   1      33.545  23.372  23.170  1.00  0.00     0.311 C 
ATOM      7  O   UNL A   1      33.723  23.189  21.968  1.00  0.00    -0.252 OA
BRANCH   6   8
ATOM      8  C   UNL A   1      33.814  22.241  24.191  1.00  0.00     0.065 C 
ATOM      9  C   UNL A   1      32.955  21.038  23.744  1.00  0.00     0.023 C 
ATOM     10  C   UNL A   1      33.225  22.795  25.515  1.00  0.00     0.023 C 
BRANCH   8  11
ATOM     11  C   UNL A   1      35.262  21.773  24.557  1.00  0.00     0.059 C 
BRANCH  11  12
ATOM     12  C   UNL A   1      35.995  22.450  25.727  1.00  0.00     0.220 C 
BRANCH  12  13
ATOM     13  O   UNL A   1      37.023  21.548  26.171  1.00  0.00    -0.384 OA
ATOM     14  H   UNL A   1      37.429  21.117  25.403  1.00  0.00     0.211 HD
ENDBRANCH  12  13
BRANCH  12  15
ATOM     15  C   UNL A   1      36.626  23.814  25.352  1.00  0.00     0.414 C 
ATOM     16  F   UNL A   1      37.663  24.115  26.170  1.00  0.00    -0.168 F 
ATOM     17  F   UNL A   1      37.116  23.788  24.091  1.00  0.00    -0.168 F 
ATOM     18  F   UNL A   1      35.738  24.829  25.435  1.00  0.00    -0.168 F 
ENDBRANCH  12  15
ENDBRANCH  11  12
ENDBRANCH   8  11
ENDBRANCH   6   8
ENDBRANCH   5   6
ENDBRANCH   4   5
ENDBRANCH   3   4
ENDBRANCH   2   3
ENDBRANCH   1   2
BRANCH   1  19
ATOM     19  C   UNL A   1      30.271  28.233  23.815  1.00  0.00     0.188 C 
BRANCH  19  20
ATOM     20  O   UNL A   1      30.827  29.412  24.365  1.00  0.00    -0.376 OA
BRANCH  20  21
ATOM     21  C   UNL A   1      31.430  29.337  25.649  1.00  0.00     0.202 C 
BRANCH  21  22
ATOM     22  C   UNL A   1      32.486  30.425  25.876  1.00  0.00     0.261 C 
BRANCH  22  23
ATOM     23  O   UNL A   1      32.919  30.534  27.244  1.00  0.00    -0.460 OA
BRANCH  23  24
ATOM     24  C   UNL A   1      33.644  31.646  27.536  1.00  0.00     0.338 C 
ATOM     25  O   UNL A   1      33.216  32.773  27.678  1.00  0.00    -0.246 OA
BRANCH  24  26
ATOM     26  C   UNL A   1      35.010  31.220  27.919  1.00  0.00     0.060 A 
ATOM     27  C   UNL A   1      35.228  29.861  28.187  1.00  0.00     0.016 A 
ATOM     28  C   UNL A   1      36.061  32.134  28.003  1.00  0.00     0.016 A 
ATOM     29  C   UNL A   1      36.481  29.423  28.611  1.00  0.00     0.010 A 
ATOM     30  C   UNL A   1      37.313  31.698  28.447  1.00  0.00     0.010 A 
ATOM     31  C   UNL A   1      37.511  30.351  28.805  1.00  0.00    -0.014 A 
BRANCH  31  32
ATOM     32  C   UNL A   1      38.691  29.963  29.619  1.00  0.00     0.031 A 
ATOM     33  C   UNL A   1      39.626  28.924  29.056  1.00  0.00     0.074 A 
ATOM     34  C   UNL A   1      38.957  30.533  30.807  1.00  0.00     0.049 A 
ATOM     35  N   UNL A   1      40.705  28.404  29.579  1.00  0.00    -0.248 NA
ATOM     36  C   UNL A   1      39.294  28.397  27.720  1.00  0.00     0.031 C 
ATOM     37  C   UNL A   1      38.148  31.564  31.455  1.00  0.00     0.029 A 
ATOM     38  N   UNL A   1      39.984  30.304  31.691  1.00  0.00    -0.354 N 
ATOM     39  C   UNL A   1      41.157  27.465  28.658  1.00  0.00     0.074 A 
ATOM     40  C   UNL A   1      40.228  27.475  27.551  1.00  0.00     0.031 C 
ATOM     41  C   UNL A   1      38.697  31.862  32.647  1.00  0.00     0.029 A 
ATOM     42  C   UNL A   1      39.877  31.024  32.856  1.00  0.00     0.049 A 
ATOM     43  H   UNL A   1      40.725  29.683  31.506  1.00  0.00     0.167 HD
ATOM     44  C   UNL A   1      42.254  26.674  28.718  1.00  0.00     0.034 A 
ATOM     45  C   UNL A   1      40.633  30.991  33.974  1.00  0.00     0.034 A 
ATOM     46  C   UNL A   1      43.191  26.676  29.808  1.00  0.00     0.049 A 
ATOM     47  C   UNL A   1      41.835  30.080  34.027  1.00  0.00     0.074 A 
ATOM     48  C   UNL A   1      44.355  25.940  29.942  1.00  0.00     0.029 A 
ATOM     49  N   UNL A   1      43.065  27.440  30.957  1.00  0.00    -0.354 N 
ATOM     50  N   UNL A   1      42.304  29.271  33.109  1.00  0.00    -0.248 NA
ATOM     51  C   UNL A   1      42.632  30.107  35.263  1.00  0.00     0.031 C 
ATOM     52  C   UNL A   1      44.911  26.229  31.192  1.00  0.00     0.029 A 
ATOM     53  C   UNL A   1      44.122  27.183  31.813  1.00  0.00     0.049 A 
ATOM     54  H   UNL A   1      42.332  28.070  31.138  1.00  0.00     0.167 HD
ATOM     55  C   UNL A   1      43.470  28.725  33.638  1.00  0.00     0.074 A 
ATOM     56  C   UNL A   1      43.647  29.315  34.948  1.00  0.00     0.031 C 
ATOM     57  C   UNL A   1      44.314  27.810  33.096  1.00  0.00     0.034 A 
BRANCH  44  58
ATOM     58  C   UNL A   1      42.500  25.739  27.562  1.00  0.00     0.023 A 
ATOM     59  C   UNL A   1      43.328  26.139  26.493  1.00  0.00     0.012 A 
ATOM     60  C   UNL A   1      41.940  24.446  27.555  1.00  0.00     0.148 A 
ATOM     61  C   UNL A   1      43.562  25.283  25.417  1.00  0.00     0.002 A 
ATOM     62  C   UNL A   1      42.219  23.580  26.506  1.00  0.00     0.091 A 
ATOM     63  F   UNL A   1      41.136  24.093  28.569  1.00  0.00    -0.205 F 
ATOM     64  C   UNL A   1      43.018  24.001  25.429  1.00  0.00     0.022 A 
BRANCH  62  65
ATOM     65  S   UNL A   1      41.635  21.883  26.469  1.00  0.00     0.127 S 
ATOM     66  O   UNL A   1      40.217  22.066  26.160  1.00  0.00    -0.237 OA
ATOM     67  O   UNL A   1      42.426  21.311  25.380  1.00  0.00    -0.237 OA
ATOM     68  O   UNL A   1      41.918  21.329  27.786  1.00  0.00    -0.744 OA
ENDBRANCH  62  65
ENDBRANCH  44  58
BRANCH  45  69
ATOM     69  C   UNL A   1      40.294  31.861  35.136  1.00  0.00     0.023 A 
ATOM     70  C   UNL A   1      40.994  33.068  35.335  1.00  0.00     0.012 A 
ATOM     71  C   UNL A   1      39.289  31.492  36.052  1.00  0.00     0.148 A 
ATOM     72  C   UNL A   1      40.726  33.870  36.446  1.00  0.00     0.002 A 
ATOM     73  C   UNL A   1      38.988  32.323  37.123  1.00  0.00     0.091 A 
ATOM     74  F   UNL A   1      38.647  30.331  35.855  1.00  0.00    -0.205 F 
ATOM     75  C   UNL A   1      39.719  33.503  37.334  1.00  0.00     0.022 A 
BRANCH  73  76
ATOM     76  S   UNL A   1      37.629  31.995  38.249  1.00  0.00     0.127 S 
ATOM     77  O   UNL A   1      36.632  32.967  37.806  1.00  0.00    -0.237 OA
ATOM     78  O   UNL A   1      37.312  30.600  37.935  1.00  0.00    -0.237 OA
ATOM     79  O   UNL A   1      38.163  32.206  39.587  1.00  0.00    -0.744 OA
ENDBRANCH  73  76
ENDBRANCH  45  69
BRANCH  57  80
ATOM     80  C   UNL A   1      45.537  27.426  33.893  1.00  0.00     0.023 A 
ATOM     81  C   UNL A   1      45.488  26.341  34.792  1.00  0.00     0.012 A 
ATOM     82  C   UNL A   1      46.753  28.116  33.712  1.00  0.00     0.148 A 
ATOM     83  C   UNL A   1      46.612  25.985  35.537  1.00  0.00     0.002 A 
ATOM     84  C   UNL A   1      47.884  27.719  34.415  1.00  0.00     0.091 A 
ATOM     85  F   UNL A   1      46.781  29.153  32.864  1.00  0.00    -0.205 F 
ATOM     86  C   UNL A   1      47.812  26.666  35.342  1.00  0.00     0.022 A 
BRANCH  84  87
ATOM     87  S   UNL A   1      49.494  28.471  34.153  1.00  0.00     0.127 S 
ATOM     88  O   UNL A   1      50.309  27.789  35.156  1.00  0.00    -0.237 OA
ATOM     89  O   UNL A   1      49.790  28.099  32.769  1.00  0.00    -0.237 OA
ATOM     90  O   UNL A   1      49.307  29.901  34.365  1.00  0.00    -0.744 OA
ENDBRANCH  84  87
ENDBRANCH  57  80
ENDBRANCH  31  32
ENDBRANCH  24  26
ENDBRANCH  23  24
ENDBRANCH  22  23
ENDBRANCH  21  22
ENDBRANCH  20  21
ENDBRANCH  19  20
ENDBRANCH   1  19
TORSDOF 24
ENDMDL
MODEL 3
REMARK VINA RESULT:      -9.5      4.986      8.291
REMARK SMILES CC(C)(C[C@@H](O)C(F)(F)F)C(=O)OCCOCCOCCOC(=O)c1ccc(-c2c3nc(c(-c4cccc(S(=O)(=O)[O-])c4F)c4ccc([nH]4)c(-c4cccc(S(=O)(=O)[O-])c4F)c4nc(c(-c5cccc(S(=O)(=O)[O-])c5F)c5ccc2[nH]5)C=C4)C=C3)cc1
REMARK SMILES IDX 17 1 16 2 15 3 14 4 13 5 11 6 12 7 2 8 1 9 3 10 4 11 5 12
REMARK SMILES IDX 6 13 7 15 8 16 9 17 10 18 18 19 19 20 20 21 21 22 22 23
REMARK SMILES IDX 23 24 24 25 25 26 26 27 87 28 27 29 86 30 28 31 29 32 30 33
REMARK SMILES IDX 80 34 31 35 85 36 79 37 81 38 32 39 84 40 78 41 77 42 33 44
REMARK SMILES IDX 65 45 45 46 64 47 46 48 49 49 63 50 82 51 47 52 48 53 62 55
REMARK SMILES IDX 83 56 50 57 34 58 35 59 43 60 36 61 38 62 44 63 37 64 39 65
REMARK SMILES IDX 40 66 41 67 42 68 66 69 67 70 75 71 68 72 70 73 76 74 69 75
REMARK SMILES IDX 71 76 72 77 73 78 74 79 51 80 52 81 60 82 53 83 55 84 61 85
REMARK SMILES IDX 54 86 56 87 57 88 58 89 59 90
REMARK H PARENT 6 14 81 43 49 54
REMARK Flexibility Score: inf
ROOT
ATOM      1  C   UNL A   1      34.028  21.070  25.817  1.00  0.00     0.188 C 
ENDROOT
BRANCH   1   2
ATOM      2  O   UNL A   1      33.142  22.003  25.212  1.00  0.00    -0.376 OA
BRANCH   2   3
ATOM      3  C   UNL A   1      31.938  22.380  25.856  1.00  0.00     0.202 C 
BRANCH   3   4
ATOM      4  C   UNL A   1      31.816  23.847  26.315  1.00  0.00     0.261 C 
BRANCH   4   5
ATOM      5  O   UNL A   1      31.585  24.879  25.315  1.00  0.00    -0.463 OA
BRANCH   5   6
ATOM      6  C   UNL A   1      31.706  26.148  25.790  1.00  0.00     0.311 C 
ATOM      7  O   UNL A   1      31.026  26.580  26.718  1.00  0.00    -0.252 OA
BRANCH   6   8
ATOM      8  C   UNL A   1      32.725  27.058  25.065  1.00  0.00     0.065 C 
ATOM      9  C   UNL A   1      33.767  27.478  26.126  1.00  0.00     0.023 C 
ATOM     10  C   UNL A   1      31.892  28.308  24.679  1.00  0.00     0.023 C 
BRANCH   8  11
ATOM     11  C   UNL A   1      33.439  26.623  23.741  1.00  0.00     0.059 C 
BRANCH  11  12
ATOM     12  C   UNL A   1      32.755  26.907  22.394  1.00  0.00     0.220 C 
BRANCH  12  13
ATOM     13  O   UNL A   1      33.755  27.433  21.505  1.00  0.00    -0.384 OA
ATOM     14  H   UNL A   1      34.421  26.750  21.326  1.00  0.00     0.211 HD
ENDBRANCH  12  13
BRANCH  12  15
ATOM     15  C   UNL A   1      32.102  25.655  21.758  1.00  0.00     0.414 C 
ATOM     16  F   UNL A   1      31.778  25.875  20.461  1.00  0.00    -0.168 F 
ATOM     17  F   UNL A   1      32.955  24.605  21.776  1.00  0.00    -0.168 F 
ATOM     18  F   UNL A   1      30.972  25.285  22.400  1.00  0.00    -0.168 F 
ENDBRANCH  12  15
ENDBRANCH  11  12
ENDBRANCH   8  11
ENDBRANCH   6   8
ENDBRANCH   5   6
ENDBRANCH   4   5
ENDBRANCH   3   4
ENDBRANCH   2   3
ENDBRANCH   1   2
BRANCH   1  19
ATOM     19  C   UNL A   1      35.095  20.364  24.985  1.00  0.00     0.188 C 
BRANCH  19  20
ATOM     20  O   UNL A   1      36.389  20.922  25.108  1.00  0.00    -0.376 OA
BRANCH  20  21
ATOM     21  C   UNL A   1      37.509  20.060  24.970  1.00  0.00     0.202 C 
BRANCH  21  22
ATOM     22  C   UNL A   1      38.776  20.618  25.630  1.00  0.00     0.261 C 
BRANCH  22  23
ATOM     23  O   UNL A   1      39.697  19.604  26.066  1.00  0.00    -0.460 OA
BRANCH  23  24
ATOM     24  C   UNL A   1      41.000  19.986  26.122  1.00  0.00     0.338 C 
ATOM     25  O   UNL A   1      41.947  19.409  25.630  1.00  0.00    -0.246 OA
BRANCH  24  26
ATOM     26  C   UNL A   1      41.053  21.367  26.656  1.00  0.00     0.060 A 
ATOM     27  C   UNL A   1      40.595  22.410  25.839  1.00  0.00     0.016 A 
ATOM     28  C   UNL A   1      41.535  21.633  27.938  1.00  0.00     0.016 A 
ATOM     29  C   UNL A   1      40.683  23.731  26.273  1.00  0.00     0.010 A 
ATOM     30  C   UNL A   1      41.642  22.960  28.367  1.00  0.00     0.010 A 
ATOM     31  C   UNL A   1      41.268  24.016  27.513  1.00  0.00    -0.014 A 
BRANCH  31  32
ATOM     32  C   UNL A   1      41.722  25.400  27.799  1.00  0.00     0.031 A 
ATOM     33  C   UNL A   1      43.109  25.793  27.360  1.00  0.00     0.074 A 
ATOM     34  C   UNL A   1      40.925  26.302  28.399  1.00  0.00     0.049 A 
ATOM     35  N   UNL A   1      43.740  26.928  27.512  1.00  0.00    -0.248 NA
ATOM     36  C   UNL A   1      43.890  24.762  26.655  1.00  0.00     0.031 C 
ATOM     37  C   UNL A   1      39.558  26.060  28.853  1.00  0.00     0.029 A 
ATOM     38  N   UNL A   1      41.170  27.610  28.744  1.00  0.00    -0.354 N 
ATOM     39  C   UNL A   1      45.002  26.735  26.960  1.00  0.00     0.074 A 
ATOM     40  C   UNL A   1      45.053  25.372  26.482  1.00  0.00     0.031 C 
ATOM     41  C   UNL A   1      39.091  27.176  29.442  1.00  0.00     0.029 A 
ATOM     42  C   UNL A   1      40.134  28.200  29.429  1.00  0.00     0.049 A 
ATOM     43  H   UNL A   1      42.006  28.078  28.522  1.00  0.00     0.167 HD
ATOM     44  C   UNL A   1      46.024  27.615  26.845  1.00  0.00     0.034 A 
ATOM     45  C   UNL A   1      40.051  29.420  30.001  1.00  0.00     0.034 A 
ATOM     46  C   UNL A   1      45.970  28.977  27.301  1.00  0.00     0.049 A 
ATOM     47  C   UNL A   1      41.215  30.373  29.883  1.00  0.00     0.074 A 
ATOM     48  C   UNL A   1      46.940  29.958  27.194  1.00  0.00     0.029 A 
ATOM     49  N   UNL A   1      44.895  29.547  27.964  1.00  0.00    -0.354 N 
ATOM     50  N   UNL A   1      42.363  30.210  29.272  1.00  0.00    -0.248 NA
ATOM     51  C   UNL A   1      41.053  31.695  30.507  1.00  0.00     0.031 C 
ATOM     52  C   UNL A   1      46.465  31.110  27.828  1.00  0.00     0.029 A 
ATOM     53  C   UNL A   1      45.180  30.863  28.284  1.00  0.00     0.049 A 
ATOM     54  H   UNL A   1      44.053  29.084  28.175  1.00  0.00     0.167 HD
ATOM     55  C   UNL A   1      43.042  31.418  29.402  1.00  0.00     0.074 A 
ATOM     56  C   UNL A   1      42.164  32.311  30.129  1.00  0.00     0.031 C 
ATOM     57  C   UNL A   1      44.283  31.758  28.969  1.00  0.00     0.034 A 
BRANCH  44  58
ATOM     58  C   UNL A   1      47.293  27.126  26.194  1.00  0.00     0.023 A 
ATOM     59  C   UNL A   1      47.519  27.361  24.822  1.00  0.00     0.012 A 
ATOM     60  C   UNL A   1      48.278  26.465  26.955  1.00  0.00     0.148 A 
ATOM     61  C   UNL A   1      48.688  26.913  24.210  1.00  0.00     0.002 A 
ATOM     62  C   UNL A   1      49.463  26.067  26.348  1.00  0.00     0.091 A 
ATOM     63  F   UNL A   1      48.034  26.230  28.251  1.00  0.00    -0.205 F 
ATOM     64  C   UNL A   1      49.663  26.277  24.973  1.00  0.00     0.022 A 
BRANCH  62  65
ATOM     65  S   UNL A   1      50.814  25.316  27.261  1.00  0.00     0.127 S 
ATOM     66  O   UNL A   1      50.141  24.190  27.910  1.00  0.00    -0.237 OA
ATOM     67  O   UNL A   1      51.735  24.940  26.190  1.00  0.00    -0.237 OA
ATOM     68  O   UNL A   1      51.313  26.345  28.163  1.00  0.00    -0.744 OA
ENDBRANCH  62  65
ENDBRANCH  44  58
BRANCH  45  69
ATOM     69  C   UNL A   1      38.813  29.826  30.724  1.00  0.00     0.023 A 
ATOM     70  C   UNL A   1      38.591  29.376  32.041  1.00  0.00     0.012 A 
ATOM     71  C   UNL A   1      37.848  30.648  30.108  1.00  0.00     0.148 A 
ATOM     72  C   UNL A   1      37.413  29.704  32.715  1.00  0.00     0.002 A 
ATOM     73  C   UNL A   1      36.705  31.017  30.806  1.00  0.00     0.091 A 
ATOM     74  F   UNL A   1      38.069  31.051  28.849  1.00  0.00    -0.205 F 
ATOM     75  C   UNL A   1      36.475  30.530  32.103  1.00  0.00     0.022 A 
BRANCH  73  76
ATOM     76  S   UNL A   1      35.501  32.174  30.145  1.00  0.00     0.127 S 
ATOM     77  O   UNL A   1      36.324  33.358  29.908  1.00  0.00    -0.237 OA
ATOM     78  O   UNL A   1      35.055  31.481  28.936  1.00  0.00    -0.237 OA
ATOM     79  O   UNL A   1      34.480  32.312  31.174  1.00  0.00    -0.744 OA
ENDBRANCH  73  76
ENDBRANCH  45  69
BRANCH  57  80
ATOM     80  C   UNL A   1      44.751  33.170  29.221  1.00  0.00     0.023 A 
ATOM     81  C   UNL A   1      45.427  33.492  30.415  1.00  0.00     0.012 A 
ATOM     82  C   UNL A   1      44.561  34.171  28.247  1.00  0.00     0.148 A 
ATOM     83  C   UNL A   1      45.857  34.797  30.659  1.00  0.00     0.002 A 
ATOM     84  C   UNL A   1      45.042  35.455  28.471  1.00  0.00     0.091 A 
ATOM     85  F   UNL A   1      43.905  33.853  27.122  1.00  0.00    -0.205 F 
ATOM     86  C   UNL A   1      45.674  35.775  29.684  1.00  0.00     0.022 A 
BRANCH  84  87
ATOM     87  S   UNL A   1      44.942  36.751  27.231  1.00  0.00     0.127 S 
ATOM     88  O   UNL A   1      45.437  37.910  27.972  1.00  0.00    -0.237 OA
ATOM     89  O   UNL A   1      45.847  36.258  26.192  1.00  0.00    -0.237 OA
ATOM     90  O   UNL A   1      43.543  36.815  26.831  1.00  0.00    -0.744 OA
ENDBRANCH  84  87
ENDBRANCH  57  80
ENDBRANCH  31  32
ENDBRANCH  24  26
ENDBRANCH  23  24
ENDBRANCH  22  23
ENDBRANCH  21  22
ENDBRANCH  20  21
ENDBRANCH  19  20
ENDBRANCH   1  19
TORSDOF 24
ENDMDL
