MODEL 1
REMARK VINA RESULT:      -8.1      0.000      0.000
REMARK SMILES CC(C)(C)[C@@H]1CC(C(=O)OCCOCCOCCOC(=O)c2ccc(-c3c4nc(c(-c5cccc(S(=O)(=O)[O-])c5F)c5ccc([nH]5)c(-c5cccc(S(=O)(=O)[O-])c5F)c5nc(c(-c6cccc(S(=O)(=O)[O-])c6F)c6ccc3[nH]6)C=C5)C=C4)cc2)C[C@@H](C(C)(C)C)C1
REMARK SMILES IDX 15 1 14 2 13 3 12 4 11 5 10 6 8 7 9 8 7 9 5 10 6 11 91 12
REMARK SMILES IDX 86 13 85 14 2 15 1 16 3 17 4 18 87 19 88 20 89 21 90 22
REMARK SMILES IDX 16 23 17 24 18 25 19 26 20 27 21 28 22 29 23 30 84 31 24 32
REMARK SMILES IDX 83 33 25 34 26 35 27 36 77 37 28 38 82 39 76 40 78 41 29 42
REMARK SMILES IDX 81 43 75 44 74 45 30 47 62 48 42 49 61 50 43 51 46 52 60 53
REMARK SMILES IDX 79 54 44 55 45 56 59 58 80 59 47 60 31 61 32 62 40 63 33 64
REMARK SMILES IDX 35 65 41 66 34 67 36 68 37 69 38 70 39 71 63 72 64 73 72 74
REMARK SMILES IDX 65 75 67 76 73 77 66 78 68 79 69 80 70 81 71 82 48 83 49 84
REMARK SMILES IDX 57 85 50 86 52 87 58 88 51 89 53 90 54 91 55 92 56 93
REMARK H PARENT 78 46 46 57
REMARK Flexibility Score: inf
ROOT
ATOM      1  C   UNL A   1      51.031  23.252  38.819  1.00  0.00     0.188 C 
ENDROOT
BRANCH   1   2
ATOM      2  C   UNL A   1      50.812  21.780  38.461  1.00  0.00     0.188 C 
BRANCH   2   3
ATOM      3  O   UNL A   1      51.059  21.423  37.105  1.00  0.00    -0.376 OA
BRANCH   3   4
ATOM      4  C   UNL A   1      52.397  21.567  36.634  1.00  0.00     0.202 C 
BRANCH   4   5
ATOM      5  C   UNL A   1      52.768  20.774  35.372  1.00  0.00     0.261 C 
BRANCH   5   6
ATOM      6  O   UNL A   1      51.633  20.387  34.567  1.00  0.00    -0.463 OA
BRANCH   6   7
ATOM      7  C   UNL A   1      51.424  21.146  33.458  1.00  0.00     0.309 C 
ATOM      8  O   UNL A   1      52.079  21.040  32.426  1.00  0.00    -0.252 OA
BRANCH   7   9
ATOM      9  C   UNL A   1      50.191  22.054  33.561  1.00  0.00     0.100 C 
ATOM     10  C   UNL A   1      47.824  22.519  34.427  1.00  0.00    -0.005 C 
ATOM     11  C   UNL A   1      48.972  21.478  34.312  1.00  0.00     0.019 C 
ATOM     12  C   UNL A   1      48.367  23.812  35.069  1.00  0.00     0.008 C 
ATOM     13  C   UNL A   1      49.578  24.449  34.370  1.00  0.00    -0.005 C 
ATOM     14  C   UNL A   1      50.661  23.380  34.179  1.00  0.00     0.019 C 
BRANCH  10  15
ATOM     15  C   UNL A   1      46.494  22.029  35.132  1.00  0.00    -0.035 C 
ATOM     16  C   UNL A   1      46.393  20.493  35.236  1.00  0.00     0.011 C 
ATOM     17  C   UNL A   1      45.234  22.539  34.411  1.00  0.00     0.011 C 
ATOM     18  C   UNL A   1      46.458  22.597  36.574  1.00  0.00     0.011 C 
ENDBRANCH  10  15
BRANCH  13  19
ATOM     19  C   UNL A   1      49.293  25.391  33.135  1.00  0.00    -0.035 C 
ATOM     20  C   UNL A   1      47.775  25.372  32.820  1.00  0.00     0.011 C 
ATOM     21  C   UNL A   1      49.691  26.864  33.309  1.00  0.00     0.011 C 
ATOM     22  C   UNL A   1      50.020  24.849  31.883  1.00  0.00     0.011 C 
ENDBRANCH  13  19
ENDBRANCH   7   9
ENDBRANCH   6   7
ENDBRANCH   5   6
ENDBRANCH   4   5
ENDBRANCH   3   4
ENDBRANCH   2   3
ENDBRANCH   1   2
BRANCH   1  23
ATOM     23  O   UNL A   1      49.987  24.130  38.407  1.00  0.00    -0.376 OA
BRANCH  23  24
ATOM     24  C   UNL A   1      49.110  24.601  39.431  1.00  0.00     0.202 C 
BRANCH  24  25
ATOM     25  C   UNL A   1      48.199  25.788  39.061  1.00  0.00     0.261 C 
BRANCH  25  26
ATOM     26  O   UNL A   1      47.685  25.764  37.715  1.00  0.00    -0.460 OA
BRANCH  26  27
ATOM     27  C   UNL A   1      48.003  26.799  36.902  1.00  0.00     0.338 C 
ATOM     28  O   UNL A   1      49.106  27.305  36.775  1.00  0.00    -0.246 OA
BRANCH  27  29
ATOM     29  C   UNL A   1      46.854  27.052  35.993  1.00  0.00     0.060 A 
ATOM     30  C   UNL A   1      46.898  28.188  35.171  1.00  0.00     0.016 A 
ATOM     31  C   UNL A   1      45.782  26.158  35.886  1.00  0.00     0.016 A 
ATOM     32  C   UNL A   1      45.851  28.460  34.286  1.00  0.00     0.010 A 
ATOM     33  C   UNL A   1      44.732  26.435  35.005  1.00  0.00     0.010 A 
ATOM     34  C   UNL A   1      44.741  27.607  34.229  1.00  0.00    -0.014 A 
BRANCH  34  35
ATOM     35  C   UNL A   1      43.505  28.043  33.531  1.00  0.00     0.031 A 
ATOM     36  C   UNL A   1      43.315  27.624  32.096  1.00  0.00     0.074 A 
ATOM     37  C   UNL A   1      42.570  28.800  34.132  1.00  0.00     0.049 A 
ATOM     38  N   UNL A   1      42.338  27.898  31.273  1.00  0.00    -0.248 NA
ATOM     39  C   UNL A   1      44.377  26.786  31.513  1.00  0.00     0.031 C 
ATOM     40  C   UNL A   1      42.623  29.281  35.509  1.00  0.00     0.029 A 
ATOM     41  N   UNL A   1      41.397  29.321  33.637  1.00  0.00    -0.354 N 
ATOM     42  C   UNL A   1      42.679  27.295  30.069  1.00  0.00     0.074 A 
ATOM     43  C   UNL A   1      43.958  26.649  30.265  1.00  0.00     0.031 C 
ATOM     44  C   UNL A   1      41.547  30.055  35.741  1.00  0.00     0.029 A 
ATOM     45  C   UNL A   1      40.740  30.140  34.523  1.00  0.00     0.049 A 
ATOM     46  H   UNL A   1      41.060  29.125  32.732  1.00  0.00     0.167 HD
ATOM     47  C   UNL A   1      41.987  27.263  28.906  1.00  0.00     0.034 A 
ATOM     48  C   UNL A   1      39.629  30.890  34.365  1.00  0.00     0.034 A 
ATOM     49  C   UNL A   1      40.708  27.887  28.704  1.00  0.00     0.049 A 
ATOM     50  C   UNL A   1      38.885  30.860  33.051  1.00  0.00     0.074 A 
ATOM     51  C   UNL A   1      39.908  27.855  27.577  1.00  0.00     0.029 A 
ATOM     52  N   UNL A   1      40.054  28.671  29.639  1.00  0.00    -0.354 N 
ATOM     53  N   UNL A   1      39.148  30.170  31.967  1.00  0.00    -0.248 NA
ATOM     54  C   UNL A   1      37.672  31.686  32.951  1.00  0.00     0.031 C 
ATOM     55  C   UNL A   1      38.781  28.648  27.820  1.00  0.00     0.029 A 
ATOM     56  C   UNL A   1      38.866  29.146  29.110  1.00  0.00     0.049 A 
ATOM     57  H   UNL A   1      40.384  28.863  30.547  1.00  0.00     0.167 HD
ATOM     58  C   UNL A   1      38.118  30.453  31.073  1.00  0.00     0.074 A 
ATOM     59  C   UNL A   1      37.217  31.363  31.748  1.00  0.00     0.031 C 
ATOM     60  C   UNL A   1      37.944  30.009  29.803  1.00  0.00     0.034 A 
BRANCH  47  61
ATOM     61  C   UNL A   1      42.602  26.509  27.758  1.00  0.00     0.023 A 
ATOM     62  C   UNL A   1      43.565  27.138  26.942  1.00  0.00     0.012 A 
ATOM     63  C   UNL A   1      42.251  25.168  27.508  1.00  0.00     0.148 A 
ATOM     64  C   UNL A   1      44.143  26.456  25.874  1.00  0.00     0.002 A 
ATOM     65  C   UNL A   1      42.865  24.481  26.470  1.00  0.00     0.091 A 
ATOM     66  F   UNL A   1      41.312  24.598  28.278  1.00  0.00    -0.205 F 
ATOM     67  C   UNL A   1      43.801  25.125  25.644  1.00  0.00     0.022 A 
BRANCH  65  68
ATOM     68  S   UNL A   1      42.546  22.744  26.144  1.00  0.00     0.127 S 
ATOM     69  O   UNL A   1      43.348  22.097  27.180  1.00  0.00    -0.237 OA
ATOM     70  O   UNL A   1      41.099  22.653  26.346  1.00  0.00    -0.237 OA
ATOM     71  O   UNL A   1      42.981  22.509  24.775  1.00  0.00    -0.744 OA
ENDBRANCH  65  68
ENDBRANCH  47  61
BRANCH  48  72
ATOM     72  C   UNL A   1      39.129  31.725  35.495  1.00  0.00     0.023 A 
ATOM     73  C   UNL A   1      38.206  31.181  36.408  1.00  0.00     0.012 A 
ATOM     74  C   UNL A   1      39.574  33.049  35.673  1.00  0.00     0.148 A 
ATOM     75  C   UNL A   1      37.715  31.949  37.465  1.00  0.00     0.002 A 
ATOM     76  C   UNL A   1      39.122  33.791  36.757  1.00  0.00     0.091 A 
ATOM     77  F   UNL A   1      40.438  33.553  34.780  1.00  0.00    -0.205 F 
ATOM     78  C   UNL A   1      38.180  33.249  37.646  1.00  0.00     0.022 A 
BRANCH  76  79
ATOM     79  S   UNL A   1      39.752  35.430  37.138  1.00  0.00     0.127 S 
ATOM     80  O   UNL A   1      41.175  35.165  37.337  1.00  0.00    -0.237 OA
ATOM     81  O   UNL A   1      39.426  36.165  35.915  1.00  0.00    -0.237 OA
ATOM     82  O   UNL A   1      39.022  35.868  38.319  1.00  0.00    -0.744 OA
ENDBRANCH  76  79
ENDBRANCH  48  72
BRANCH  60  83
ATOM     83  C   UNL A   1      36.715  30.461  29.053  1.00  0.00     0.023 A 
ATOM     84  C   UNL A   1      35.811  29.506  28.546  1.00  0.00     0.012 A 
ATOM     85  C   UNL A   1      36.408  31.832  28.935  1.00  0.00     0.148 A 
ATOM     86  C   UNL A   1      34.637  29.909  27.907  1.00  0.00     0.002 A 
ATOM     87  C   UNL A   1      35.214  32.225  28.339  1.00  0.00     0.091 A 
ATOM     88  F   UNL A   1      37.287  32.727  29.409  1.00  0.00    -0.205 F 
ATOM     89  C   UNL A   1      34.333  31.265  27.815  1.00  0.00     0.022 A 
BRANCH  87  90
ATOM     90  S   UNL A   1      34.694  33.943  28.264  1.00  0.00     0.127 S 
ATOM     91  O   UNL A   1      35.531  34.461  27.183  1.00  0.00    -0.237 OA
ATOM     92  O   UNL A   1      33.274  33.825  27.932  1.00  0.00    -0.237 OA
ATOM     93  O   UNL A   1      34.961  34.501  29.582  1.00  0.00    -0.744 OA
ENDBRANCH  87  90
ENDBRANCH  60  83
ENDBRANCH  34  35
ENDBRANCH  27  29
ENDBRANCH  26  27
ENDBRANCH  25  26
ENDBRANCH  24  25
ENDBRANCH  23  24
ENDBRANCH   1  23
TORSDOF 22
ENDMDL
MODEL 2
REMARK VINA RESULT:      -7.9      4.853     11.074
REMARK SMILES CC(C)(C)[C@@H]1CC(C(=O)OCCOCCOCCOC(=O)c2ccc(-c3c4nc(c(-c5cccc(S(=O)(=O)[O-])c5F)c5ccc([nH]5)c(-c5cccc(S(=O)(=O)[O-])c5F)c5nc(c(-c6cccc(S(=O)(=O)[O-])c6F)c6ccc3[nH]6)C=C5)C=C4)cc2)C[C@@H](C(C)(C)C)C1
REMARK SMILES IDX 15 1 14 2 13 3 12 4 11 5 10 6 8 7 9 8 7 9 5 10 6 11 91 12
REMARK SMILES IDX 86 13 85 14 2 15 1 16 3 17 4 18 87 19 88 20 89 21 90 22
REMARK SMILES IDX 16 23 17 24 18 25 19 26 20 27 21 28 22 29 23 30 84 31 24 32
REMARK SMILES IDX 83 33 25 34 26 35 27 36 77 37 28 38 82 39 76 40 78 41 29 42
REMARK SMILES IDX 81 43 75 44 74 45 30 47 62 48 42 49 61 50 43 51 46 52 60 53
REMARK SMILES IDX 79 54 44 55 45 56 59 58 80 59 47 60 31 61 32 62 40 63 33 64
REMARK SMILES IDX 35 65 41 66 34 67 36 68 37 69 38 70 39 71 63 72 64 73 72 74
REMARK SMILES IDX 65 75 67 76 73 77 66 78 68 79 69 80 70 81 71 82 48 83 49 84
REMARK SMILES IDX 57 85 50 86 52 87 58 88 51 89 53 90 54 91 55 92 56 93
REMARK H PARENT 78 46 46 57
REMARK Flexibility Score: inf
ROOT
ATOM      1  C   UNL A   1      37.824  32.472  40.282  1.00  0.00     0.188 C 
ENDROOT
BRANCH   1   2
ATOM      2  C   UNL A   1      37.284  32.077  38.905  1.00  0.00     0.188 C 
BRANCH   2   3
ATOM      3  O   UNL A   1      37.091  33.143  37.980  1.00  0.00    -0.376 OA
BRANCH   3   4
ATOM      4  C   UNL A   1      37.345  32.857  36.607  1.00  0.00     0.202 C 
BRANCH   4   5
ATOM      5  C   UNL A   1      38.344  31.727  36.316  1.00  0.00     0.261 C 
BRANCH   5   6
ATOM      6  O   UNL A   1      38.962  31.811  35.014  1.00  0.00    -0.463 OA
BRANCH   6   7
ATOM      7  C   UNL A   1      39.040  30.636  34.333  1.00  0.00     0.309 C 
ATOM      8  O   UNL A   1      39.371  29.572  34.846  1.00  0.00    -0.252 OA
BRANCH   7   9
ATOM      9  C   UNL A   1      38.536  30.732  32.887  1.00  0.00     0.100 C 
ATOM     10  C   UNL A   1      38.517  29.890  30.466  1.00  0.00    -0.005 C 
ATOM     11  C   UNL A   1      39.170  29.760  31.870  1.00  0.00     0.019 C 
ATOM     12  C   UNL A   1      36.991  29.711  30.592  1.00  0.00     0.008 C 
ATOM     13  C   UNL A   1      36.287  30.653  31.582  1.00  0.00    -0.005 C 
ATOM     14  C   UNL A   1      37.007  30.581  32.934  1.00  0.00     0.019 C 
BRANCH  10  15
ATOM     15  C   UNL A   1      39.121  28.980  29.319  1.00  0.00    -0.035 C 
ATOM     16  C   UNL A   1      39.721  27.659  29.845  1.00  0.00     0.011 C 
ATOM     17  C   UNL A   1      40.211  29.709  28.515  1.00  0.00     0.011 C 
ATOM     18  C   UNL A   1      37.987  28.615  28.327  1.00  0.00     0.011 C 
ENDBRANCH  10  15
BRANCH  13  19
ATOM     19  C   UNL A   1      35.899  32.094  31.066  1.00  0.00    -0.035 C 
ATOM     20  C   UNL A   1      34.758  32.662  31.947  1.00  0.00     0.011 C 
ATOM     21  C   UNL A   1      37.028  33.136  31.077  1.00  0.00     0.011 C 
ATOM     22  C   UNL A   1      35.353  32.005  29.623  1.00  0.00     0.011 C 
ENDBRANCH  13  19
ENDBRANCH   7   9
ENDBRANCH   6   7
ENDBRANCH   5   6
ENDBRANCH   4   5
ENDBRANCH   3   4
ENDBRANCH   2   3
ENDBRANCH   1   2
BRANCH   1  23
ATOM     23  O   UNL A   1      39.111  31.946  40.594  1.00  0.00    -0.376 OA
BRANCH  23  24
ATOM     24  C   UNL A   1      39.925  32.732  41.467  1.00  0.00     0.202 C 
BRANCH  24  25
ATOM     25  C   UNL A   1      40.983  33.629  40.796  1.00  0.00     0.261 C 
BRANCH  25  26
ATOM     26  O   UNL A   1      40.460  34.807  40.149  1.00  0.00    -0.460 OA
BRANCH  26  27
ATOM     27  C   UNL A   1      41.345  35.639  39.550  1.00  0.00     0.338 C 
ATOM     28  O   UNL A   1      41.947  36.557  40.082  1.00  0.00    -0.246 OA
BRANCH  27  29
ATOM     29  C   UNL A   1      41.665  35.093  38.205  1.00  0.00     0.060 A 
ATOM     30  C   UNL A   1      40.610  34.903  37.299  1.00  0.00     0.016 A 
ATOM     31  C   UNL A   1      42.981  34.840  37.801  1.00  0.00     0.016 A 
ATOM     32  C   UNL A   1      40.862  34.409  36.016  1.00  0.00     0.010 A 
ATOM     33  C   UNL A   1      43.231  34.340  36.519  1.00  0.00     0.010 A 
ATOM     34  C   UNL A   1      42.170  34.084  35.633  1.00  0.00    -0.014 A 
BRANCH  34  35
ATOM     35  C   UNL A   1      42.407  33.284  34.405  1.00  0.00     0.031 A 
ATOM     36  C   UNL A   1      42.528  31.789  34.544  1.00  0.00     0.074 A 
ATOM     37  C   UNL A   1      42.528  33.851  33.191  1.00  0.00     0.049 A 
ATOM     38  N   UNL A   1      42.758  30.886  33.628  1.00  0.00    -0.248 NA
ATOM     39  C   UNL A   1      42.372  31.244  35.903  1.00  0.00     0.031 C 
ATOM     40  C   UNL A   1      42.438  35.281  32.909  1.00  0.00     0.029 A 
ATOM     41  N   UNL A   1      42.782  33.280  31.966  1.00  0.00    -0.354 N 
ATOM     42  C   UNL A   1      42.805  29.671  34.301  1.00  0.00     0.074 A 
ATOM     43  C   UNL A   1      42.591  29.953  35.703  1.00  0.00     0.031 C 
ATOM     44  C   UNL A   1      42.667  35.480  31.598  1.00  0.00     0.029 A 
ATOM     45  C   UNL A   1      42.939  34.195  30.953  1.00  0.00     0.049 A 
ATOM     46  H   UNL A   1      42.846  32.307  31.828  1.00  0.00     0.167 HD
ATOM     47  C   UNL A   1      42.993  28.427  33.801  1.00  0.00     0.034 A 
ATOM     48  C   UNL A   1      43.285  34.020  29.660  1.00  0.00     0.034 A 
ATOM     49  C   UNL A   1      43.190  28.132  32.409  1.00  0.00     0.049 A 
ATOM     50  C   UNL A   1      43.513  32.626  29.128  1.00  0.00     0.074 A 
ATOM     51  C   UNL A   1      43.328  26.896  31.806  1.00  0.00     0.029 A 
ATOM     52  N   UNL A   1      43.299  29.082  31.406  1.00  0.00    -0.354 N 
ATOM     53  N   UNL A   1      43.415  31.476  29.750  1.00  0.00    -0.248 NA
ATOM     54  C   UNL A   1      43.869  32.504  27.705  1.00  0.00     0.031 C 
ATOM     55  C   UNL A   1      43.553  27.099  30.439  1.00  0.00     0.029 A 
ATOM     56  C   UNL A   1      43.522  28.461  30.189  1.00  0.00     0.049 A 
ATOM     57  H   UNL A   1      43.229  30.055  31.539  1.00  0.00     0.167 HD
ATOM     58  C   UNL A   1      43.662  30.497  28.791  1.00  0.00     0.074 A 
ATOM     59  C   UNL A   1      43.898  31.188  27.540  1.00  0.00     0.031 C 
ATOM     60  C   UNL A   1      43.703  29.149  28.937  1.00  0.00     0.034 A 
BRANCH  47  61
ATOM     61  C   UNL A   1      42.977  27.282  34.777  1.00  0.00     0.023 A 
ATOM     62  C   UNL A   1      41.767  26.610  35.047  1.00  0.00     0.012 A 
ATOM     63  C   UNL A   1      44.164  26.850  35.400  1.00  0.00     0.148 A 
ATOM     64  C   UNL A   1      41.732  25.548  35.950  1.00  0.00     0.002 A 
ATOM     65  C   UNL A   1      44.129  25.763  36.263  1.00  0.00     0.091 A 
ATOM     66  F   UNL A   1      45.297  27.521  35.151  1.00  0.00    -0.205 F 
ATOM     67  C   UNL A   1      42.914  25.120  36.550  1.00  0.00     0.022 A 
BRANCH  65  68
ATOM     68  S   UNL A   1      45.610  25.090  37.023  1.00  0.00     0.127 S 
ATOM     69  O   UNL A   1      46.182  26.277  37.655  1.00  0.00    -0.237 OA
ATOM     70  O   UNL A   1      45.059  24.107  37.957  1.00  0.00    -0.237 OA
ATOM     71  O   UNL A   1      46.392  24.519  35.936  1.00  0.00    -0.744 OA
ENDBRANCH  65  68
ENDBRANCH  47  61
BRANCH  48  72
ATOM     72  C   UNL A   1      43.413  35.201  28.759  1.00  0.00     0.023 A 
ATOM     73  C   UNL A   1      42.292  35.655  28.039  1.00  0.00     0.012 A 
ATOM     74  C   UNL A   1      44.639  35.881  28.624  1.00  0.00     0.148 A 
ATOM     75  C   UNL A   1      42.394  36.750  27.180  1.00  0.00     0.002 A 
ATOM     76  C   UNL A   1      44.721  37.003  27.808  1.00  0.00     0.091 A 
ATOM     77  F   UNL A   1      45.699  35.420  29.303  1.00  0.00    -0.205 F 
ATOM     78  C   UNL A   1      43.604  37.430  27.073  1.00  0.00     0.022 A 
BRANCH  76  79
ATOM     79  S   UNL A   1      46.204  38.011  27.696  1.00  0.00     0.127 S 
ATOM     80  O   UNL A   1      46.430  38.368  29.094  1.00  0.00    -0.237 OA
ATOM     81  O   UNL A   1      47.168  37.062  27.137  1.00  0.00    -0.237 OA
ATOM     82  O   UNL A   1      45.864  39.117  26.812  1.00  0.00    -0.744 OA
ENDBRANCH  76  79
ENDBRANCH  48  72
BRANCH  60  83
ATOM     83  C   UNL A   1      43.976  28.308  27.713  1.00  0.00     0.023 A 
ATOM     84  C   UNL A   1      42.903  27.760  26.984  1.00  0.00     0.012 A 
ATOM     85  C   UNL A   1      45.292  28.141  27.235  1.00  0.00     0.148 A 
ATOM     86  C   UNL A   1      43.136  27.036  25.814  1.00  0.00     0.002 A 
ATOM     87  C   UNL A   1      45.513  27.458  26.043  1.00  0.00     0.091 A 
ATOM     88  F   UNL A   1      46.303  28.656  27.950  1.00  0.00    -0.205 F 
ATOM     89  C   UNL A   1      44.437  26.895  25.338  1.00  0.00     0.022 A 
BRANCH  87  90
ATOM     90  S   UNL A   1      47.144  27.313  25.304  1.00  0.00     0.127 S 
ATOM     91  O   UNL A   1      47.921  26.744  26.404  1.00  0.00    -0.237 OA
ATOM     92  O   UNL A   1      46.902  26.396  24.190  1.00  0.00    -0.237 OA
ATOM     93  O   UNL A   1      47.525  28.661  24.903  1.00  0.00    -0.744 OA
ENDBRANCH  87  90
ENDBRANCH  60  83
ENDBRANCH  34  35
ENDBRANCH  27  29
ENDBRANCH  26  27
ENDBRANCH  25  26
ENDBRANCH  24  25
ENDBRANCH  23  24
ENDBRANCH   1  23
TORSDOF 22
ENDMDL
MODEL 3
REMARK VINA RESULT:      -7.8      5.831      7.880
REMARK SMILES CC(C)(C)[C@@H]1CC(C(=O)OCCOCCOCCOC(=O)c2ccc(-c3c4nc(c(-c5cccc(S(=O)(=O)[O-])c5F)c5ccc([nH]5)c(-c5cccc(S(=O)(=O)[O-])c5F)c5nc(c(-c6cccc(S(=O)(=O)[O-])c6F)c6ccc3[nH]6)C=C5)C=C4)cc2)C[C@@H](C(C)(C)C)C1
REMARK SMILES IDX 15 1 14 2 13 3 12 4 11 5 10 6 8 7 9 8 7 9 5 10 6 11 91 12
REMARK SMILES IDX 86 13 85 14 2 15 1 16 3 17 4 18 87 19 88 20 89 21 90 22
REMARK SMILES IDX 16 23 17 24 18 25 19 26 20 27 21 28 22 29 23 30 84 31 24 32
REMARK SMILES IDX 83 33 25 34 26 35 27 36 77 37 28 38 82 39 76 40 78 41 29 42
REMARK SMILES IDX 81 43 75 44 74 45 30 47 62 48 42 49 61 50 43 51 46 52 60 53
REMARK SMILES IDX 79 54 44 55 45 56 59 58 80 59 47 60 31 61 32 62 40 63 33 64
REMARK SMILES IDX 35 65 41 66 34 67 36 68 37 69 38 70 39 71 63 72 64 73 72 74
REMARK SMILES IDX 65 75 67 76 73 77 66 78 68 79 69 80 70 81 71 82 48 83 49 84
REMARK SMILES IDX 57 85 50 86 52 87 58 88 51 89 53 90 54 91 55 92 56 93
REMARK H PARENT 78 46 46 57
REMARK Flexibility Score: inf
ROOT
ATOM      1  C   UNL A   1      49.254  20.364  39.620  1.00  0.00     0.188 C 
ENDROOT
BRANCH   1   2
ATOM      2  C   UNL A   1      48.420  19.431  40.500  1.00  0.00     0.188 C 
BRANCH   2   3
ATOM      3  O   UNL A   1      48.036  18.192  39.911  1.00  0.00    -0.376 OA
BRANCH   3   4
ATOM      4  C   UNL A   1      46.974  17.480  40.542  1.00  0.00     0.202 C 
BRANCH   4   5
ATOM      5  C   UNL A   1      45.584  17.614  39.900  1.00  0.00     0.261 C 
BRANCH   5   6
ATOM      6  O   UNL A   1      44.508  17.750  40.854  1.00  0.00    -0.463 OA
BRANCH   6   7
ATOM      7  C   UNL A   1      43.512  16.831  40.738  1.00  0.00     0.309 C 
ATOM      8  O   UNL A   1      42.684  16.835  39.833  1.00  0.00    -0.252 OA
BRANCH   7   9
ATOM      9  C   UNL A   1      43.603  15.696  41.766  1.00  0.00     0.100 C 
ATOM     10  C   UNL A   1      44.543  14.723  43.943  1.00  0.00    -0.005 C 
ATOM     11  C   UNL A   1      44.605  15.894  42.923  1.00  0.00     0.019 C 
ATOM     12  C   UNL A   1      43.092  14.546  44.433  1.00  0.00     0.008 C 
ATOM     13  C   UNL A   1      42.036  14.336  43.335  1.00  0.00    -0.005 C 
ATOM     14  C   UNL A   1      42.180  15.447  42.288  1.00  0.00     0.019 C 
BRANCH  10  15
ATOM     15  C   UNL A   1      45.565  14.784  45.151  1.00  0.00    -0.035 C 
ATOM     16  C   UNL A   1      46.740  13.795  45.002  1.00  0.00     0.011 C 
ATOM     17  C   UNL A   1      44.882  14.508  46.502  1.00  0.00     0.011 C 
ATOM     18  C   UNL A   1      46.163  16.212  45.223  1.00  0.00     0.011 C 
ENDBRANCH  10  15
BRANCH  13  19
ATOM     19  C   UNL A   1      41.843  12.869  42.783  1.00  0.00    -0.035 C 
ATOM     20  C   UNL A   1      43.045  11.996  43.224  1.00  0.00     0.011 C 
ATOM     21  C   UNL A   1      40.572  12.140  43.245  1.00  0.00     0.011 C 
ATOM     22  C   UNL A   1      41.842  12.886  41.237  1.00  0.00     0.011 C 
ENDBRANCH  13  19
ENDBRANCH   7   9
ENDBRANCH   6   7
ENDBRANCH   5   6
ENDBRANCH   4   5
ENDBRANCH   3   4
ENDBRANCH   2   3
ENDBRANCH   1   2
BRANCH   1  23
ATOM     23  O   UNL A   1      49.842  19.744  38.479  1.00  0.00    -0.376 OA
BRANCH  23  24
ATOM     24  C   UNL A   1      49.367  20.178  37.203  1.00  0.00     0.202 C 
BRANCH  24  25
ATOM     25  C   UNL A   1      47.861  19.995  36.934  1.00  0.00     0.261 C 
BRANCH  25  26
ATOM     26  O   UNL A   1      47.482  20.042  35.544  1.00  0.00    -0.460 OA
BRANCH  26  27
ATOM     27  C   UNL A   1      46.160  20.109  35.256  1.00  0.00     0.338 C 
ATOM     28  O   UNL A   1      45.336  19.227  35.435  1.00  0.00    -0.246 OA
BRANCH  27  29
ATOM     29  C   UNL A   1      45.822  21.520  34.930  1.00  0.00     0.060 A 
ATOM     30  C   UNL A   1      44.471  21.900  34.958  1.00  0.00     0.016 A 
ATOM     31  C   UNL A   1      46.809  22.479  34.674  1.00  0.00     0.016 A 
ATOM     32  C   UNL A   1      44.104  23.219  34.677  1.00  0.00     0.010 A 
ATOM     33  C   UNL A   1      46.439  23.797  34.386  1.00  0.00     0.010 A 
ATOM     34  C   UNL A   1      45.083  24.166  34.347  1.00  0.00    -0.014 A 
BRANCH  34  35
ATOM     35  C   UNL A   1      44.687  25.469  33.755  1.00  0.00     0.031 A 
ATOM     36  C   UNL A   1      44.370  25.513  32.284  1.00  0.00     0.074 A 
ATOM     37  C   UNL A   1      44.617  26.596  34.485  1.00  0.00     0.049 A 
ATOM     38  N   UNL A   1      44.026  26.530  31.538  1.00  0.00    -0.248 NA
ATOM     39  C   UNL A   1      44.457  24.235  31.557  1.00  0.00     0.031 C 
ATOM     40  C   UNL A   1      44.900  26.703  35.914  1.00  0.00     0.029 A 
ATOM     41  N   UNL A   1      44.309  27.882  34.105  1.00  0.00    -0.354 N 
ATOM     42  C   UNL A   1      43.886  26.024  30.252  1.00  0.00     0.074 A 
ATOM     43  C   UNL A   1      44.192  24.612  30.315  1.00  0.00     0.031 C 
ATOM     44  C   UNL A   1      44.785  27.991  36.285  1.00  0.00     0.029 A 
ATOM     45  C   UNL A   1      44.440  28.803  35.117  1.00  0.00     0.049 A 
ATOM     46  H   UNL A   1      44.023  28.120  33.194  1.00  0.00     0.167 HD
ATOM     47  C   UNL A   1      43.520  26.668  29.119  1.00  0.00     0.034 A 
ATOM     48  C   UNL A   1      44.318  30.147  35.100  1.00  0.00     0.034 A 
ATOM     49  C   UNL A   1      43.198  28.066  29.046  1.00  0.00     0.049 A 
ATOM     50  C   UNL A   1      43.933  30.848  33.820  1.00  0.00     0.074 A 
ATOM     51  C   UNL A   1      42.759  28.789  27.952  1.00  0.00     0.029 A 
ATOM     52  N   UNL A   1      43.299  28.958  30.102  1.00  0.00    -0.354 N 
ATOM     53  N   UNL A   1      43.666  30.335  32.643  1.00  0.00    -0.248 NA
ATOM     54  C   UNL A   1      43.799  32.312  33.874  1.00  0.00     0.031 C 
ATOM     55  C   UNL A   1      42.625  30.128  28.339  1.00  0.00     0.029 A 
ATOM     56  C   UNL A   1      42.949  30.230  29.682  1.00  0.00     0.049 A 
ATOM     57  H   UNL A   1      43.579  28.722  31.016  1.00  0.00     0.167 HD
ATOM     58  C   UNL A   1      43.302  31.405  31.830  1.00  0.00     0.074 A 
ATOM     59  C   UNL A   1      43.364  32.595  32.653  1.00  0.00     0.031 C 
ATOM     60  C   UNL A   1      42.961  31.403  30.517  1.00  0.00     0.034 A 
BRANCH  47  61
ATOM     61  C   UNL A   1      43.434  25.850  27.858  1.00  0.00     0.023 A 
ATOM     62  C   UNL A   1      42.173  25.464  27.360  1.00  0.00     0.012 A 
ATOM     63  C   UNL A   1      44.598  25.494  27.151  1.00  0.00     0.148 A 
ATOM     64  C   UNL A   1      42.074  24.705  26.195  1.00  0.00     0.002 A 
ATOM     65  C   UNL A   1      44.488  24.776  25.967  1.00  0.00     0.091 A 
ATOM     66  F   UNL A   1      45.788  25.846  27.658  1.00  0.00    -0.205 F 
ATOM     67  C   UNL A   1      43.230  24.369  25.495  1.00  0.00     0.022 A 
BRANCH  65  68
ATOM     68  S   UNL A   1      45.913  24.364  24.956  1.00  0.00     0.127 S 
ATOM     69  O   UNL A   1      46.724  23.587  25.891  1.00  0.00    -0.237 OA
ATOM     70  O   UNL A   1      45.310  23.581  23.876  1.00  0.00    -0.237 OA
ATOM     71  O   UNL A   1      46.485  25.635  24.535  1.00  0.00    -0.744 OA
ENDBRANCH  65  68
ENDBRANCH  47  61
BRANCH  48  72
ATOM     72  C   UNL A   1      44.540  30.928  36.350  1.00  0.00     0.023 A 
ATOM     73  C   UNL A   1      45.848  31.293  36.722  1.00  0.00     0.012 A 
ATOM     74  C   UNL A   1      43.459  31.319  37.164  1.00  0.00     0.148 A 
ATOM     75  C   UNL A   1      46.079  32.012  37.896  1.00  0.00     0.002 A 
ATOM     76  C   UNL A   1      43.690  32.080  38.304  1.00  0.00     0.091 A 
ATOM     77  F   UNL A   1      42.224  30.943  36.802  1.00  0.00    -0.205 F 
ATOM     78  C   UNL A   1      45.001  32.415  38.680  1.00  0.00     0.022 A 
BRANCH  76  79
ATOM     79  S   UNL A   1      42.359  32.742  39.312  1.00  0.00     0.127 S 
ATOM     80  O   UNL A   1      43.019  33.859  39.984  1.00  0.00    -0.237 OA
ATOM     81  O   UNL A   1      41.378  33.126  38.295  1.00  0.00    -0.237 OA
ATOM     82  O   UNL A   1      41.937  31.648  40.175  1.00  0.00    -0.744 OA
ENDBRANCH  76  79
ENDBRANCH  48  72
BRANCH  60  83
ATOM     83  C   UNL A   1      42.586  32.717  29.877  1.00  0.00     0.023 A 
ATOM     84  C   UNL A   1      41.318  33.282  30.122  1.00  0.00     0.012 A 
ATOM     85  C   UNL A   1      43.525  33.437  29.109  1.00  0.00     0.148 A 
ATOM     86  C   UNL A   1      40.981  34.527  29.590  1.00  0.00     0.002 A 
ATOM     87  C   UNL A   1      43.198  34.698  28.622  1.00  0.00     0.091 A 
ATOM     88  F   UNL A   1      44.720  32.878  28.872  1.00  0.00    -0.205 F 
ATOM     89  C   UNL A   1      41.923  35.240  28.852  1.00  0.00     0.022 A 
BRANCH  87  90
ATOM     90  S   UNL A   1      44.381  35.729  27.745  1.00  0.00     0.127 S 
ATOM     91  O   UNL A   1      45.323  34.734  27.235  1.00  0.00    -0.237 OA
ATOM     92  O   UNL A   1      43.547  36.361  26.723  1.00  0.00    -0.237 OA
ATOM     93  O   UNL A   1      44.921  36.650  28.736  1.00  0.00    -0.744 OA
ENDBRANCH  87  90
ENDBRANCH  60  83
ENDBRANCH  34  35
ENDBRANCH  27  29
ENDBRANCH  26  27
ENDBRANCH  25  26
ENDBRANCH  24  25
ENDBRANCH  23  24
ENDBRANCH   1  23
TORSDOF 22
ENDMDL
