MODEL 1
REMARK VINA RESULT:     -10.7      0.000      0.000
REMARK SMILES O=C(C[C@H]1C[C@H]2CC[C@@H](C1)N2C(=O)c1c[nH]c(=O)[nH]1)OCCOCCOCCOC(=O)c1ccc(-c2c3nc(c(-c4cccc(S(=O)(=O)[O-])c4F)c4ccc([nH]4)c(-c4cccc(S(=O)(=O)[O-])c4F)c4nc(c(-c5cccc(S(=O)(=O)[O-])c5F)c5ccc2[nH]5)C=C4)C=C3)cc1
REMARK SMILES IDX 24 1 23 2 22 3 21 4 20 5 2 6 1 7 3 8 4 9 5 10 10 11 6 12
REMARK SMILES IDX 9 13 7 14 11 15 8 16 12 17 13 18 14 19 15 20 19 21 16 22
REMARK SMILES IDX 17 23 18 26 25 27 26 28 27 29 28 30 29 31 30 32 31 33 32 34
REMARK SMILES IDX 33 35 94 36 34 37 93 38 35 39 36 40 37 41 87 42 38 43 92 44
REMARK SMILES IDX 86 45 88 46 39 47 91 48 85 49 84 50 40 52 72 53 52 54 71 55
REMARK SMILES IDX 53 56 56 57 70 58 89 59 54 60 55 61 69 63 90 64 57 65 41 66
REMARK SMILES IDX 42 67 50 68 43 69 45 70 51 71 44 72 46 73 47 74 48 75 49 76
REMARK SMILES IDX 73 77 74 78 82 79 75 80 77 81 83 82 76 83 78 84 79 85 80 86
REMARK SMILES IDX 81 87 58 88 59 89 67 90 60 91 62 92 68 93 61 94 63 95 64 96
REMARK SMILES IDX 65 97 66 98
REMARK H PARENT 19 24 16 25 88 51 56 62
REMARK Flexibility Score: inf
ROOT
ATOM      1  C   UNL A   1      32.737  29.195  24.941  1.00  0.00     0.188 C 
ENDROOT
BRANCH   1   2
ATOM      2  O   UNL A   1      32.175  28.523  23.827  1.00  0.00    -0.376 OA
BRANCH   2   3
ATOM      3  C   UNL A   1      30.969  29.055  23.312  1.00  0.00     0.202 C 
BRANCH   3   4
ATOM      4  C   UNL A   1      29.945  28.101  22.691  1.00  0.00     0.261 C 
BRANCH   4   5
ATOM      5  O   UNL A   1      29.417  26.952  23.401  1.00  0.00    -0.463 OA
BRANCH   5   6
ATOM      6  C   UNL A   1      29.790  25.938  24.187  1.00  0.00     0.306 C 
ATOM      7  O   UNL A   1      29.260  25.860  25.298  1.00  0.00    -0.252 OA
BRANCH   6   8
ATOM      8  C   UNL A   1      30.861  24.939  23.818  1.00  0.00     0.126 C 
BRANCH   8   9
ATOM      9  C   UNL A   1      31.883  24.580  24.905  1.00  0.00     0.004 C 
ATOM     10  C   UNL A   1      31.842  23.087  25.245  1.00  0.00     0.029 C 
ATOM     11  C   UNL A   1      33.352  25.002  24.564  1.00  0.00     0.029 C 
ATOM     12  C   UNL A   1      32.703  22.193  24.339  1.00  0.00     0.086 C 
ATOM     13  C   UNL A   1      34.203  23.903  23.872  1.00  0.00     0.086 C 
ATOM     14  C   UNL A   1      32.652  22.374  22.818  1.00  0.00     0.027 C 
ATOM     15  N   UNL A   1      34.039  22.649  24.607  1.00  0.00    -0.331 N 
ATOM     16  C   UNL A   1      33.595  23.547  22.512  1.00  0.00     0.027 C 
BRANCH  15  17
ATOM     17  C   UNL A   1      34.884  21.904  25.379  1.00  0.00     0.272 C 
ATOM     18  O   UNL A   1      34.522  20.867  25.943  1.00  0.00    -0.267 OA
BRANCH  17  19
ATOM     19  C   UNL A   1      36.280  22.335  25.503  1.00  0.00     0.125 A 
ATOM     20  C   UNL A   1      37.354  21.961  24.796  1.00  0.00     0.119 A 
ATOM     21  N   UNL A   1      36.650  23.314  26.389  1.00  0.00    -0.302 N 
ATOM     22  N   UNL A   1      38.431  22.680  25.246  1.00  0.00    -0.312 N 
ATOM     23  C   UNL A   1      38.025  23.554  26.265  1.00  0.00     0.323 A 
ATOM     24  H   UNL A   1      36.046  23.776  27.015  1.00  0.00     0.172 HD
ATOM     25  H   UNL A   1      39.351  22.597  24.904  1.00  0.00     0.171 HD
ATOM     26  O   UNL A   1      38.666  24.381  26.877  1.00  0.00    -0.248 OA
ENDBRANCH  17  19
ENDBRANCH  15  17
ENDBRANCH   8   9
ENDBRANCH   6   8
ENDBRANCH   5   6
ENDBRANCH   4   5
ENDBRANCH   3   4
ENDBRANCH   2   3
ENDBRANCH   1   2
BRANCH   1  27
ATOM     27  C   UNL A   1      31.819  29.346  26.154  1.00  0.00     0.188 C 
BRANCH  27  28
ATOM     28  O   UNL A   1      32.000  30.469  27.001  1.00  0.00    -0.376 OA
BRANCH  28  29
ATOM     29  C   UNL A   1      31.386  31.701  26.641  1.00  0.00     0.202 C 
BRANCH  29  30
ATOM     30  C   UNL A   1      32.153  33.029  26.736  1.00  0.00     0.261 C 
BRANCH  30  31
ATOM     31  O   UNL A   1      32.846  33.274  27.968  1.00  0.00    -0.460 OA
BRANCH  31  32
ATOM     32  C   UNL A   1      34.051  33.876  27.818  1.00  0.00     0.338 C 
ATOM     33  O   UNL A   1      34.263  35.034  27.498  1.00  0.00    -0.246 OA
BRANCH  32  34
ATOM     34  C   UNL A   1      35.143  32.937  28.109  1.00  0.00     0.060 A 
ATOM     35  C   UNL A   1      34.867  31.580  28.319  1.00  0.00     0.016 A 
ATOM     36  C   UNL A   1      36.406  33.459  28.382  1.00  0.00     0.016 A 
ATOM     37  C   UNL A   1      35.855  30.747  28.857  1.00  0.00     0.010 A 
ATOM     38  C   UNL A   1      37.391  32.623  28.907  1.00  0.00     0.010 A 
ATOM     39  C   UNL A   1      37.111  31.273  29.190  1.00  0.00    -0.014 A 
BRANCH  39  40
ATOM     40  C   UNL A   1      38.119  30.481  29.943  1.00  0.00     0.031 A 
ATOM     41  C   UNL A   1      38.396  30.820  31.382  1.00  0.00     0.074 A 
ATOM     42  C   UNL A   1      38.860  29.544  29.326  1.00  0.00     0.049 A 
ATOM     43  N   UNL A   1      39.359  30.404  32.160  1.00  0.00    -0.248 NA
ATOM     44  C   UNL A   1      37.465  31.765  32.022  1.00  0.00     0.031 C 
ATOM     45  C   UNL A   1      38.689  29.113  27.943  1.00  0.00     0.029 A 
ATOM     46  N   UNL A   1      39.947  28.832  29.771  1.00  0.00    -0.354 N 
ATOM     47  C   UNL A   1      39.186  31.074  33.366  1.00  0.00     0.074 A 
ATOM     48  C   UNL A   1      38.022  31.921  33.214  1.00  0.00     0.031 C 
ATOM     49  C   UNL A   1      39.677  28.262  27.625  1.00  0.00     0.029 A 
ATOM     50  C   UNL A   1      40.569  28.117  28.773  1.00  0.00     0.049 A 
ATOM     51  H   UNL A   1      40.250  28.831  30.707  1.00  0.00     0.167 HD
ATOM     52  C   UNL A   1      39.930  30.993  34.497  1.00  0.00     0.034 A 
ATOM     53  C   UNL A   1      41.750  27.467  28.764  1.00  0.00     0.034 A 
ATOM     54  C   UNL A   1      41.080  30.142  34.648  1.00  0.00     0.049 A 
ATOM     55  C   UNL A   1      42.586  27.418  30.014  1.00  0.00     0.074 A 
ATOM     56  C   UNL A   1      41.851  29.931  35.778  1.00  0.00     0.029 A 
ATOM     57  N   UNL A   1      41.645  29.385  33.633  1.00  0.00    -0.354 N 
ATOM     58  N   UNL A   1      42.351  27.962  31.182  1.00  0.00    -0.248 NA
ATOM     59  C   UNL A   1      43.835  26.643  29.954  1.00  0.00     0.031 C 
ATOM     60  C   UNL A   1      42.911  29.088  35.432  1.00  0.00     0.029 A 
ATOM     61  C   UNL A   1      42.769  28.728  34.101  1.00  0.00     0.049 A 
ATOM     62  H   UNL A   1      41.297  29.325  32.713  1.00  0.00     0.167 HD
ATOM     63  C   UNL A   1      43.396  27.561  32.009  1.00  0.00     0.074 A 
ATOM     64  C   UNL A   1      44.267  26.728  31.207  1.00  0.00     0.031 C 
ATOM     65  C   UNL A   1      43.608  27.858  33.315  1.00  0.00     0.034 A 
BRANCH  52  66
ATOM     66  C   UNL A   1      39.525  31.860  35.662  1.00  0.00     0.023 A 
ATOM     67  C   UNL A   1      39.959  33.199  35.734  1.00  0.00     0.012 A 
ATOM     68  C   UNL A   1      38.682  31.353  36.670  1.00  0.00     0.148 A 
ATOM     69  C   UNL A   1      39.605  34.003  36.818  1.00  0.00     0.002 A 
ATOM     70  C   UNL A   1      38.292  32.175  37.721  1.00  0.00     0.091 A 
ATOM     71  F   UNL A   1      38.293  30.072  36.597  1.00  0.00    -0.205 F 
ATOM     72  C   UNL A   1      38.766  33.494  37.805  1.00  0.00     0.022 A 
BRANCH  70  73
ATOM     73  S   UNL A   1      37.144  31.635  38.992  1.00  0.00     0.127 S 
ATOM     74  O   UNL A   1      36.070  32.616  38.856  1.00  0.00    -0.237 OA
ATOM     75  O   UNL A   1      36.798  30.285  38.541  1.00  0.00    -0.237 OA
ATOM     76  O   UNL A   1      37.883  31.681  40.245  1.00  0.00    -0.744 OA
ENDBRANCH  70  73
ENDBRANCH  52  66
BRANCH  53  77
ATOM     77  C   UNL A   1      42.214  26.825  27.505  1.00  0.00     0.023 A 
ATOM     78  C   UNL A   1      42.794  27.601  26.484  1.00  0.00     0.012 A 
ATOM     79  C   UNL A   1      42.126  25.430  27.342  1.00  0.00     0.148 A 
ATOM     80  C   UNL A   1      43.266  26.997  25.317  1.00  0.00     0.002 A 
ATOM     81  C   UNL A   1      42.645  24.831  26.201  1.00  0.00     0.091 A 
ATOM     82  F   UNL A   1      41.574  24.714  28.331  1.00  0.00    -0.205 F 
ATOM     83  C   UNL A   1      43.202  25.613  25.180  1.00  0.00     0.022 A 
BRANCH  81  84
ATOM     84  S   UNL A   1      42.667  23.056  25.982  1.00  0.00     0.127 S 
ATOM     85  O   UNL A   1      43.098  22.920  24.595  1.00  0.00    -0.237 OA
ATOM     86  O   UNL A   1      43.656  22.625  26.973  1.00  0.00    -0.237 OA
ATOM     87  O   UNL A   1      41.312  22.610  26.265  1.00  0.00    -0.744 OA
ENDBRANCH  81  84
ENDBRANCH  53  77
BRANCH  65  88
ATOM     88  C   UNL A   1      44.792  27.231  34.005  1.00  0.00     0.023 A 
ATOM     89  C   UNL A   1      45.861  28.028  34.456  1.00  0.00     0.012 A 
ATOM     90  C   UNL A   1      44.785  25.851  34.302  1.00  0.00     0.148 A 
ATOM     91  C   UNL A   1      46.913  27.460  35.176  1.00  0.00     0.002 A 
ATOM     92  C   UNL A   1      45.809  25.303  35.062  1.00  0.00     0.091 A 
ATOM     93  F   UNL A   1      43.767  25.107  33.846  1.00  0.00    -0.205 F 
ATOM     94  C   UNL A   1      46.881  26.102  35.492  1.00  0.00     0.022 A 
BRANCH  92  95
ATOM     95  S   UNL A   1      45.800  23.590  35.604  1.00  0.00     0.127 S 
ATOM     96  O   UNL A   1      47.086  23.488  36.292  1.00  0.00    -0.237 OA
ATOM     97  O   UNL A   1      44.632  23.549  36.483  1.00  0.00    -0.237 OA
ATOM     98  O   UNL A   1      45.678  22.784  34.396  1.00  0.00    -0.744 OA
ENDBRANCH  92  95
ENDBRANCH  65  88
ENDBRANCH  39  40
ENDBRANCH  32  34
ENDBRANCH  31  32
ENDBRANCH  30  31
ENDBRANCH  29  30
ENDBRANCH  28  29
ENDBRANCH  27  28
ENDBRANCH   1  27
TORSDOF 23
ENDMDL
MODEL 2
REMARK VINA RESULT:     -10.4      2.248      7.976
REMARK SMILES O=C(C[C@H]1C[C@H]2CC[C@@H](C1)N2C(=O)c1c[nH]c(=O)[nH]1)OCCOCCOCCOC(=O)c1ccc(-c2c3nc(c(-c4cccc(S(=O)(=O)[O-])c4F)c4ccc([nH]4)c(-c4cccc(S(=O)(=O)[O-])c4F)c4nc(c(-c5cccc(S(=O)(=O)[O-])c5F)c5ccc2[nH]5)C=C4)C=C3)cc1
REMARK SMILES IDX 24 1 23 2 22 3 21 4 20 5 2 6 1 7 3 8 4 9 5 10 10 11 6 12
REMARK SMILES IDX 9 13 7 14 11 15 8 16 12 17 13 18 14 19 15 20 19 21 16 22
REMARK SMILES IDX 17 23 18 26 25 27 26 28 27 29 28 30 29 31 30 32 31 33 32 34
REMARK SMILES IDX 33 35 94 36 34 37 93 38 35 39 36 40 37 41 87 42 38 43 92 44
REMARK SMILES IDX 86 45 88 46 39 47 91 48 85 49 84 50 40 52 72 53 52 54 71 55
REMARK SMILES IDX 53 56 56 57 70 58 89 59 54 60 55 61 69 63 90 64 57 65 41 66
REMARK SMILES IDX 42 67 50 68 43 69 45 70 51 71 44 72 46 73 47 74 48 75 49 76
REMARK SMILES IDX 73 77 74 78 82 79 75 80 77 81 83 82 76 83 78 84 79 85 80 86
REMARK SMILES IDX 81 87 58 88 59 89 67 90 60 91 62 92 68 93 61 94 63 95 64 96
REMARK SMILES IDX 65 97 66 98
REMARK H PARENT 19 24 16 25 88 51 56 62
REMARK Flexibility Score: inf
ROOT
ATOM      1  C   UNL A   1      32.050  25.935  21.498  1.00  0.00     0.188 C 
ENDROOT
BRANCH   1   2
ATOM      2  O   UNL A   1      32.563  24.893  22.309  1.00  0.00    -0.376 OA
BRANCH   2   3
ATOM      3  C   UNL A   1      31.690  23.812  22.575  1.00  0.00     0.202 C 
BRANCH   3   4
ATOM      4  C   UNL A   1      30.586  23.993  23.620  1.00  0.00     0.261 C 
BRANCH   4   5
ATOM      5  O   UNL A   1      30.853  24.465  24.966  1.00  0.00    -0.463 OA
BRANCH   5   6
ATOM      6  C   UNL A   1      31.083  24.028  26.207  1.00  0.00     0.306 C 
ATOM      7  O   UNL A   1      30.133  24.040  26.995  1.00  0.00    -0.252 OA
BRANCH   6   8
ATOM      8  C   UNL A   1      32.440  23.593  26.707  1.00  0.00     0.126 C 
BRANCH   8   9
ATOM      9  C   UNL A   1      32.717  22.083  26.743  1.00  0.00     0.004 C 
ATOM     10  C   UNL A   1      32.609  21.460  25.347  1.00  0.00     0.029 C 
ATOM     11  C   UNL A   1      34.093  21.702  27.384  1.00  0.00     0.029 C 
ATOM     12  C   UNL A   1      33.892  21.532  24.505  1.00  0.00     0.086 C 
ATOM     13  C   UNL A   1      35.266  21.555  26.376  1.00  0.00     0.086 C 
ATOM     14  C   UNL A   1      34.674  22.847  24.418  1.00  0.00     0.027 C 
ATOM     15  N   UNL A   1      34.820  20.731  25.254  1.00  0.00    -0.331 N 
ATOM     16  C   UNL A   1      35.537  22.896  25.687  1.00  0.00     0.027 C 
BRANCH  15  17
ATOM     17  C   UNL A   1      35.153  19.476  24.828  1.00  0.00     0.272 C 
ATOM     18  O   UNL A   1      36.322  19.139  24.619  1.00  0.00    -0.267 OA
BRANCH  17  19
ATOM     19  C   UNL A   1      34.083  18.489  24.656  1.00  0.00     0.125 A 
ATOM     20  C   UNL A   1      33.475  18.076  23.537  1.00  0.00     0.119 A 
ATOM     21  N   UNL A   1      33.603  17.762  25.716  1.00  0.00    -0.302 N 
ATOM     22  N   UNL A   1      32.576  17.099  23.876  1.00  0.00    -0.312 N 
ATOM     23  C   UNL A   1      32.624  16.870  25.260  1.00  0.00     0.323 A 
ATOM     24  H   UNL A   1      33.898  17.854  26.652  1.00  0.00     0.172 HD
ATOM     25  H   UNL A   1      31.986  16.627  23.244  1.00  0.00     0.171 HD
ATOM     26  O   UNL A   1      32.024  16.059  25.932  1.00  0.00    -0.248 OA
ENDBRANCH  17  19
ENDBRANCH  15  17
ENDBRANCH   8   9
ENDBRANCH   6   8
ENDBRANCH   5   6
ENDBRANCH   4   5
ENDBRANCH   3   4
ENDBRANCH   2   3
ENDBRANCH   1   2
BRANCH   1  27
ATOM     27  C   UNL A   1      31.132  26.932  22.206  1.00  0.00     0.188 C 
BRANCH  27  28
ATOM     28  O   UNL A   1      31.687  28.156  22.659  1.00  0.00    -0.376 OA
BRANCH  28  29
ATOM     29  C   UNL A   1      32.681  28.120  23.677  1.00  0.00     0.202 C 
BRANCH  29  30
ATOM     30  C   UNL A   1      33.096  29.394  24.428  1.00  0.00     0.261 C 
BRANCH  30  31
ATOM     31  O   UNL A   1      33.303  29.257  25.841  1.00  0.00    -0.460 OA
BRANCH  31  32
ATOM     32  C   UNL A   1      33.171  30.413  26.537  1.00  0.00     0.338 C 
ATOM     33  O   UNL A   1      32.286  31.245  26.423  1.00  0.00    -0.246 OA
BRANCH  32  34
ATOM     34  C   UNL A   1      34.261  30.564  27.510  1.00  0.00     0.060 A 
ATOM     35  C   UNL A   1      35.046  31.723  27.513  1.00  0.00     0.016 A 
ATOM     36  C   UNL A   1      34.626  29.454  28.269  1.00  0.00     0.016 A 
ATOM     37  C   UNL A   1      36.238  31.752  28.246  1.00  0.00     0.010 A 
ATOM     38  C   UNL A   1      35.809  29.490  29.008  1.00  0.00     0.010 A 
ATOM     39  C   UNL A   1      36.645  30.621  28.967  1.00  0.00    -0.014 A 
BRANCH  39  40
ATOM     40  C   UNL A   1      37.990  30.532  29.595  1.00  0.00     0.031 A 
ATOM     41  C   UNL A   1      39.034  29.643  28.975  1.00  0.00     0.074 A 
ATOM     42  C   UNL A   1      38.248  31.146  30.762  1.00  0.00     0.049 A 
ATOM     43  N   UNL A   1      40.188  29.262  29.455  1.00  0.00    -0.248 NA
ATOM     44  C   UNL A   1      38.726  29.106  27.640  1.00  0.00     0.031 C 
ATOM     45  C   UNL A   1      37.331  32.041  31.462  1.00  0.00     0.029 A 
ATOM     46  N   UNL A   1      39.337  31.058  31.595  1.00  0.00    -0.354 N 
ATOM     47  C   UNL A   1      40.724  28.397  28.508  1.00  0.00     0.074 A 
ATOM     48  C   UNL A   1      39.767  28.315  27.425  1.00  0.00     0.031 C 
ATOM     49  C   UNL A   1      37.862  32.367  32.650  1.00  0.00     0.029 A 
ATOM     50  C   UNL A   1      39.140  31.676  32.808  1.00  0.00     0.049 A 
ATOM     51  H   UNL A   1      40.173  30.601  31.349  1.00  0.00     0.167 HD
ATOM     52  C   UNL A   1      41.903  27.730  28.539  1.00  0.00     0.034 A 
ATOM     53  C   UNL A   1      39.874  31.644  33.939  1.00  0.00     0.034 A 
ATOM     54  C   UNL A   1      42.856  27.823  29.612  1.00  0.00     0.049 A 
ATOM     55  C   UNL A   1      41.161  30.868  33.973  1.00  0.00     0.074 A 
ATOM     56  C   UNL A   1      44.113  27.248  29.698  1.00  0.00     0.029 A 
ATOM     57  N   UNL A   1      42.649  28.507  30.799  1.00  0.00    -0.354 N 
ATOM     58  N   UNL A   1      41.713  30.147  33.028  1.00  0.00    -0.248 NA
ATOM     59  C   UNL A   1      41.943  30.921  35.219  1.00  0.00     0.031 C 
ATOM     60  C   UNL A   1      44.642  27.544  30.958  1.00  0.00     0.029 A 
ATOM     61  C   UNL A   1      43.740  28.349  31.636  1.00  0.00     0.049 A 
ATOM     62  H   UNL A   1      41.842  29.030  31.017  1.00  0.00     0.167 HD
ATOM     63  C   UNL A   1      42.923  29.698  33.545  1.00  0.00     0.074 A 
ATOM     64  C   UNL A   1      43.026  30.228  34.889  1.00  0.00     0.031 C 
ATOM     65  C   UNL A   1      43.863  28.919  32.954  1.00  0.00     0.034 A 
BRANCH  52  66
ATOM     66  C   UNL A   1      42.225  26.829  27.373  1.00  0.00     0.023 A 
ATOM     67  C   UNL A   1      42.843  27.354  26.220  1.00  0.00     0.012 A 
ATOM     68  C   UNL A   1      41.942  25.450  27.437  1.00  0.00     0.148 A 
ATOM     69  C   UNL A   1      43.127  26.532  25.130  1.00  0.00     0.002 A 
ATOM     70  C   UNL A   1      42.274  24.629  26.366  1.00  0.00     0.091 A 
ATOM     71  F   UNL A   1      41.337  24.969  28.533  1.00  0.00    -0.205 F 
ATOM     72  C   UNL A   1      42.851  25.170  25.206  1.00  0.00     0.022 A 
BRANCH  70  73
ATOM     73  S   UNL A   1      42.036  22.849  26.408  1.00  0.00     0.127 S 
ATOM     74  O   UNL A   1      42.527  22.454  25.090  1.00  0.00    -0.237 OA
ATOM     75  O   UNL A   1      42.895  22.449  27.524  1.00  0.00    -0.237 OA
ATOM     76  O   UNL A   1      40.613  22.640  26.637  1.00  0.00    -0.744 OA
ENDBRANCH  70  73
ENDBRANCH  52  66
BRANCH  53  77
ATOM     77  C   UNL A   1      39.380  32.366  35.143  1.00  0.00     0.023 A 
ATOM     78  C   UNL A   1      38.492  31.736  36.034  1.00  0.00     0.012 A 
ATOM     79  C   UNL A   1      39.836  33.666  35.432  1.00  0.00     0.148 A 
ATOM     80  C   UNL A   1      38.057  32.395  37.186  1.00  0.00     0.002 A 
ATOM     81  C   UNL A   1      39.440  34.294  36.605  1.00  0.00     0.091 A 
ATOM     82  F   UNL A   1      40.686  34.241  34.569  1.00  0.00    -0.205 F 
ATOM     83  C   UNL A   1      38.539  33.669  37.477  1.00  0.00     0.022 A 
BRANCH  81  84
ATOM     84  S   UNL A   1      40.071  35.898  37.086  1.00  0.00     0.127 S 
ATOM     85  O   UNL A   1      41.497  35.635  37.251  1.00  0.00    -0.237 OA
ATOM     86  O   UNL A   1      39.735  36.733  35.931  1.00  0.00    -0.237 OA
ATOM     87  O   UNL A   1      39.354  36.251  38.301  1.00  0.00    -0.744 OA
ENDBRANCH  81  84
ENDBRANCH  53  77
BRANCH  65  88
ATOM     88  C   UNL A   1      45.133  28.634  33.715  1.00  0.00     0.023 A 
ATOM     89  C   UNL A   1      46.201  29.550  33.691  1.00  0.00     0.012 A 
ATOM     90  C   UNL A   1      45.216  27.496  34.546  1.00  0.00     0.148 A 
ATOM     91  C   UNL A   1      47.340  29.331  34.467  1.00  0.00     0.002 A 
ATOM     92  C   UNL A   1      46.330  27.311  35.354  1.00  0.00     0.091 A 
ATOM     93  F   UNL A   1      44.196  26.627  34.539  1.00  0.00    -0.205 F 
ATOM     94  C   UNL A   1      47.399  28.221  35.309  1.00  0.00     0.022 A 
BRANCH  92  95
ATOM     95  S   UNL A   1      46.448  25.970  36.543  1.00  0.00     0.127 S 
ATOM     96  O   UNL A   1      47.896  25.811  36.670  1.00  0.00    -0.237 OA
ATOM     97  O   UNL A   1      45.792  26.540  37.719  1.00  0.00    -0.237 OA
ATOM     98  O   UNL A   1      45.750  24.838  35.947  1.00  0.00    -0.744 OA
ENDBRANCH  92  95
ENDBRANCH  65  88
ENDBRANCH  39  40
ENDBRANCH  32  34
ENDBRANCH  31  32
ENDBRANCH  30  31
ENDBRANCH  29  30
ENDBRANCH  28  29
ENDBRANCH  27  28
ENDBRANCH   1  27
TORSDOF 23
ENDMDL
MODEL 3
REMARK VINA RESULT:     -10.3      2.877      4.422
REMARK SMILES O=C(C[C@H]1C[C@H]2CC[C@@H](C1)N2C(=O)c1c[nH]c(=O)[nH]1)OCCOCCOCCOC(=O)c1ccc(-c2c3nc(c(-c4cccc(S(=O)(=O)[O-])c4F)c4ccc([nH]4)c(-c4cccc(S(=O)(=O)[O-])c4F)c4nc(c(-c5cccc(S(=O)(=O)[O-])c5F)c5ccc2[nH]5)C=C4)C=C3)cc1
REMARK SMILES IDX 24 1 23 2 22 3 21 4 20 5 2 6 1 7 3 8 4 9 5 10 10 11 6 12
REMARK SMILES IDX 9 13 7 14 11 15 8 16 12 17 13 18 14 19 15 20 19 21 16 22
REMARK SMILES IDX 17 23 18 26 25 27 26 28 27 29 28 30 29 31 30 32 31 33 32 34
REMARK SMILES IDX 33 35 94 36 34 37 93 38 35 39 36 40 37 41 87 42 38 43 92 44
REMARK SMILES IDX 86 45 88 46 39 47 91 48 85 49 84 50 40 52 72 53 52 54 71 55
REMARK SMILES IDX 53 56 56 57 70 58 89 59 54 60 55 61 69 63 90 64 57 65 41 66
REMARK SMILES IDX 42 67 50 68 43 69 45 70 51 71 44 72 46 73 47 74 48 75 49 76
REMARK SMILES IDX 73 77 74 78 82 79 75 80 77 81 83 82 76 83 78 84 79 85 80 86
REMARK SMILES IDX 81 87 58 88 59 89 67 90 60 91 62 92 68 93 61 94 63 95 64 96
REMARK SMILES IDX 65 97 66 98
REMARK H PARENT 19 24 16 25 88 51 56 62
REMARK Flexibility Score: inf
ROOT
ATOM      1  C   UNL A   1      35.391  32.817  28.825  1.00  0.00     0.188 C 
ENDROOT
BRANCH   1   2
ATOM      2  O   UNL A   1      35.404  31.794  27.845  1.00  0.00    -0.376 OA
BRANCH   2   3
ATOM      3  C   UNL A   1      35.153  30.478  28.303  1.00  0.00     0.202 C 
BRANCH   3   4
ATOM      4  C   UNL A   1      35.127  29.334  27.287  1.00  0.00     0.261 C 
BRANCH   4   5
ATOM      5  O   UNL A   1      34.421  29.427  26.023  1.00  0.00    -0.463 OA
BRANCH   5   6
ATOM      6  C   UNL A   1      33.225  29.209  25.468  1.00  0.00     0.306 C 
ATOM      7  O   UNL A   1      32.311  29.979  25.777  1.00  0.00    -0.252 OA
BRANCH   6   8
ATOM      8  C   UNL A   1      32.923  28.048  24.552  1.00  0.00     0.126 C 
BRANCH   8   9
ATOM      9  C   UNL A   1      33.382  26.658  25.015  1.00  0.00     0.004 C 
ATOM     10  C   UNL A   1      32.657  26.223  26.292  1.00  0.00     0.029 C 
ATOM     11  C   UNL A   1      33.241  25.543  23.925  1.00  0.00     0.029 C 
ATOM     12  C   UNL A   1      31.298  25.543  26.066  1.00  0.00     0.086 C 
ATOM     13  C   UNL A   1      31.906  24.749  23.970  1.00  0.00     0.086 C 
ATOM     14  C   UNL A   1      30.290  26.159  25.090  1.00  0.00     0.027 C 
ATOM     15  N   UNL A   1      31.648  24.346  25.352  1.00  0.00    -0.331 N 
ATOM     16  C   UNL A   1      30.728  25.688  23.696  1.00  0.00     0.027 C 
BRANCH  15  17
ATOM     17  C   UNL A   1      31.637  23.135  25.983  1.00  0.00     0.272 C 
ATOM     18  O   UNL A   1      30.605  22.472  26.124  1.00  0.00    -0.267 OA
BRANCH  17  19
ATOM     19  C   UNL A   1      32.908  22.590  26.471  1.00  0.00     0.125 A 
ATOM     20  C   UNL A   1      33.295  22.320  27.724  1.00  0.00     0.119 A 
ATOM     21  N   UNL A   1      33.895  22.190  25.606  1.00  0.00    -0.302 N 
ATOM     22  N   UNL A   1      34.550  21.772  27.674  1.00  0.00    -0.312 N 
ATOM     23  C   UNL A   1      34.971  21.673  26.339  1.00  0.00     0.323 A 
ATOM     24  H   UNL A   1      33.854  22.257  24.624  1.00  0.00     0.172 HD
ATOM     25  H   UNL A   1      35.076  21.487  28.456  1.00  0.00     0.171 HD
ATOM     26  O   UNL A   1      35.990  21.202  25.880  1.00  0.00    -0.248 OA
ENDBRANCH  17  19
ENDBRANCH  15  17
ENDBRANCH   8   9
ENDBRANCH   6   8
ENDBRANCH   5   6
ENDBRANCH   4   5
ENDBRANCH   3   4
ENDBRANCH   2   3
ENDBRANCH   1   2
BRANCH   1  27
ATOM     27  C   UNL A   1      34.750  34.137  28.393  1.00  0.00     0.188 C 
BRANCH  27  28
ATOM     28  O   UNL A   1      33.625  34.609  29.118  1.00  0.00    -0.376 OA
BRANCH  28  29
ATOM     29  C   UNL A   1      33.224  35.963  28.951  1.00  0.00     0.202 C 
BRANCH  29  30
ATOM     30  C   UNL A   1      32.940  36.864  30.162  1.00  0.00     0.261 C 
BRANCH  30  31
ATOM     31  O   UNL A   1      32.259  36.249  31.264  1.00  0.00    -0.460 OA
BRANCH  31  32
ATOM     32  C   UNL A   1      32.929  36.315  32.440  1.00  0.00     0.338 C 
ATOM     33  O   UNL A   1      32.781  37.137  33.329  1.00  0.00    -0.246 OA
BRANCH  32  34
ATOM     34  C   UNL A   1      33.905  35.221  32.546  1.00  0.00     0.060 A 
ATOM     35  C   UNL A   1      33.554  34.026  33.185  1.00  0.00     0.016 A 
ATOM     36  C   UNL A   1      35.228  35.482  32.196  1.00  0.00     0.016 A 
ATOM     37  C   UNL A   1      34.551  33.102  33.523  1.00  0.00     0.010 A 
ATOM     38  C   UNL A   1      36.217  34.554  32.524  1.00  0.00     0.010 A 
ATOM     39  C   UNL A   1      35.893  33.379  33.228  1.00  0.00    -0.014 A 
BRANCH  39  40
ATOM     40  C   UNL A   1      37.001  32.530  33.740  1.00  0.00     0.031 A 
ATOM     41  C   UNL A   1      37.753  32.964  34.968  1.00  0.00     0.074 A 
ATOM     42  C   UNL A   1      37.407  31.443  33.061  1.00  0.00     0.049 A 
ATOM     43  N   UNL A   1      38.865  32.494  35.467  1.00  0.00    -0.248 NA
ATOM     44  C   UNL A   1      37.177  34.087  35.725  1.00  0.00     0.031 C 
ATOM     45  C   UNL A   1      36.761  30.909  31.866  1.00  0.00     0.029 A 
ATOM     46  N   UNL A   1      38.499  30.631  33.248  1.00  0.00    -0.354 N 
ATOM     47  C   UNL A   1      39.155  33.294  36.566  1.00  0.00     0.074 A 
ATOM     48  C   UNL A   1      38.096  34.278  36.660  1.00  0.00     0.031 C 
ATOM     49  C   UNL A   1      37.504  29.902  31.382  1.00  0.00     0.029 A 
ATOM     50  C   UNL A   1      38.694  29.744  32.215  1.00  0.00     0.049 A 
ATOM     51  H   UNL A   1      39.081  30.679  34.039  1.00  0.00     0.167 HD
ATOM     52  C   UNL A   1      40.207  33.220  37.418  1.00  0.00     0.034 A 
ATOM     53  C   UNL A   1      39.738  28.937  31.936  1.00  0.00     0.034 A 
ATOM     54  C   UNL A   1      41.251  32.234  37.327  1.00  0.00     0.049 A 
ATOM     55  C   UNL A   1      40.917  28.892  32.869  1.00  0.00     0.074 A 
ATOM     56  C   UNL A   1      42.314  32.028  38.188  1.00  0.00     0.029 A 
ATOM     57  N   UNL A   1      41.383  31.312  36.301  1.00  0.00    -0.354 N 
ATOM     58  N   UNL A   1      41.123  29.573  33.969  1.00  0.00    -0.248 NA
ATOM     59  C   UNL A   1      41.996  27.947  32.539  1.00  0.00     0.031 C 
ATOM     60  C   UNL A   1      43.117  31.014  37.655  1.00  0.00     0.029 A 
ATOM     61  C   UNL A   1      42.523  30.551  36.491  1.00  0.00     0.049 A 
ATOM     62  H   UNL A   1      40.757  31.212  35.547  1.00  0.00     0.167 HD
ATOM     63  C   UNL A   1      42.329  29.111  34.485  1.00  0.00     0.074 A 
ATOM     64  C   UNL A   1      42.810  28.090  33.578  1.00  0.00     0.031 C 
ATOM     65  C   UNL A   1      42.975  29.500  35.613  1.00  0.00     0.034 A 
BRANCH  52  66
ATOM     66  C   UNL A   1      40.284  34.243  38.522  1.00  0.00     0.023 A 
ATOM     67  C   UNL A   1      41.064  35.406  38.358  1.00  0.00     0.012 A 
ATOM     68  C   UNL A   1      39.552  34.066  39.713  1.00  0.00     0.148 A 
ATOM     69  C   UNL A   1      41.157  36.349  39.382  1.00  0.00     0.002 A 
ATOM     70  C   UNL A   1      39.610  35.035  40.708  1.00  0.00     0.091 A 
ATOM     71  F   UNL A   1      38.830  32.946  39.861  1.00  0.00    -0.205 F 
ATOM     72  C   UNL A   1      40.424  36.167  40.551  1.00  0.00     0.022 A 
BRANCH  70  73
ATOM     73  S   UNL A   1      38.633  34.930  42.211  1.00  0.00     0.127 S 
ATOM     74  O   UNL A   1      37.275  34.864  41.676  1.00  0.00    -0.237 OA
ATOM     75  O   UNL A   1      39.115  33.681  42.806  1.00  0.00    -0.237 OA
ATOM     76  O   UNL A   1      38.949  36.125  42.979  1.00  0.00    -0.744 OA
ENDBRANCH  70  73
ENDBRANCH  52  66
BRANCH  53  77
ATOM     77  C   UNL A   1      39.709  28.117  30.694  1.00  0.00     0.023 A 
ATOM     78  C   UNL A   1      38.980  26.914  30.655  1.00  0.00     0.012 A 
ATOM     79  C   UNL A   1      40.365  28.561  29.532  1.00  0.00     0.148 A 
ATOM     80  C   UNL A   1      38.917  26.162  29.481  1.00  0.00     0.002 A 
ATOM     81  C   UNL A   1      40.256  27.834  28.354  1.00  0.00     0.091 A 
ATOM     82  F   UNL A   1      41.048  29.713  29.595  1.00  0.00    -0.205 F 
ATOM     83  C   UNL A   1      39.545  26.626  28.328  1.00  0.00     0.022 A 
BRANCH  81  84
ATOM     84  S   UNL A   1      40.970  28.400  26.815  1.00  0.00     0.127 S 
ATOM     85  O   UNL A   1      39.956  29.326  26.323  1.00  0.00    -0.237 OA
ATOM     86  O   UNL A   1      42.214  29.036  27.255  1.00  0.00    -0.237 OA
ATOM     87  O   UNL A   1      41.169  27.204  26.013  1.00  0.00    -0.744 OA
ENDBRANCH  81  84
ENDBRANCH  53  77
BRANCH  65  88
ATOM     88  C   UNL A   1      44.245  28.782  35.990  1.00  0.00     0.023 A 
ATOM     89  C   UNL A   1      45.499  29.306  35.620  1.00  0.00     0.012 A 
ATOM     90  C   UNL A   1      44.190  27.637  36.813  1.00  0.00     0.148 A 
ATOM     91  C   UNL A   1      46.676  28.692  36.047  1.00  0.00     0.002 A 
ATOM     92  C   UNL A   1      45.366  27.062  37.277  1.00  0.00     0.091 A 
ATOM     93  F   UNL A   1      42.986  27.144  37.138  1.00  0.00    -0.205 F 
ATOM     94  C   UNL A   1      46.611  27.580  36.887  1.00  0.00     0.022 A 
BRANCH  92  95
ATOM     95  S   UNL A   1      45.378  25.694  38.441  1.00  0.00     0.127 S 
ATOM     96  O   UNL A   1      46.777  25.271  38.389  1.00  0.00    -0.237 OA
ATOM     97  O   UNL A   1      44.984  26.346  39.689  1.00  0.00    -0.237 OA
ATOM     98  O   UNL A   1      44.418  24.723  37.934  1.00  0.00    -0.744 OA
ENDBRANCH  92  95
ENDBRANCH  65  88
ENDBRANCH  39  40
ENDBRANCH  32  34
ENDBRANCH  31  32
ENDBRANCH  30  31
ENDBRANCH  29  30
ENDBRANCH  28  29
ENDBRANCH  27  28
ENDBRANCH   1  27
TORSDOF 23
ENDMDL
