MODEL 1
REMARK VINA RESULT:      -7.8      0.000      0.000
REMARK SMILES CCc1ccsc1C(=O)N(CC(=O)OCCOCCOCCOC(=O)c1ccc(-c2c3nc(c(-c4cccc(S(=O)(=O)[O-])c4F)c4ccc([nH]4)c(-c4cccc(S(=O)(=O)[O-])c4F)c4nc(c(-c5cccc(S(=O)(=O)[O-])c5F)c5ccc2[nH]5)C=C4)C=C3)cc1)c1ccccc1N
REMARK SMILES IDX 18 1 17 2 16 3 15 4 14 5 12 6 13 7 11 8 10 9 8 10 9 11 7 12
REMARK SMILES IDX 3 13 4 14 5 15 6 16 2 17 1 18 89 19 90 20 94 21 91 22 93 23
REMARK SMILES IDX 92 24 95 25 19 28 20 29 21 30 22 31 23 32 24 33 25 34 26 35
REMARK SMILES IDX 27 36 88 37 28 38 87 39 29 40 30 41 31 42 81 43 32 44 86 45
REMARK SMILES IDX 80 46 82 47 33 48 85 49 79 50 78 51 34 53 66 54 46 55 65 56
REMARK SMILES IDX 47 57 50 58 64 59 83 60 48 61 49 62 63 64 84 65 51 66 35 67
REMARK SMILES IDX 36 68 44 69 37 70 39 71 45 72 38 73 40 74 41 75 42 76 43 77
REMARK SMILES IDX 67 78 68 79 76 80 69 81 71 82 77 83 70 84 72 85 73 86 74 87
REMARK SMILES IDX 75 88 52 89 53 90 61 91 54 92 56 93 62 94 55 95 57 96 58 97
REMARK SMILES IDX 59 98 60 99
REMARK H PARENT 95 26 95 27 82 52 50 63
REMARK Flexibility Score: inf
ROOT
ATOM      1  C   UNL A   1      37.404  32.766  37.754  1.00  0.00     0.188 C 
ENDROOT
BRANCH   1   2
ATOM      2  O   UNL A   1      37.575  31.768  36.754  1.00  0.00    -0.376 OA
BRANCH   2   3
ATOM      3  C   UNL A   1      37.456  32.140  35.389  1.00  0.00     0.202 C 
BRANCH   3   4
ATOM      4  C   UNL A   1      37.059  33.594  35.131  1.00  0.00     0.261 C 
BRANCH   4   5
ATOM      5  O   UNL A   1      35.627  33.830  35.050  1.00  0.00    -0.462 OA
BRANCH   5   6
ATOM      6  C   UNL A   1      35.045  33.630  33.834  1.00  0.00     0.326 C 
ATOM      7  O   UNL A   1      34.000  33.006  33.679  1.00  0.00    -0.250 OA
BRANCH   6   8
ATOM      8  C   UNL A   1      35.838  34.167  32.629  1.00  0.00     0.248 C 
BRANCH   8   9
ATOM      9  N   UNL A   1      36.154  33.309  31.473  1.00  0.00    -0.294 N 
BRANCH   9  10
ATOM     10  C   UNL A   1      35.271  32.659  30.584  1.00  0.00     0.269 C 
ATOM     11  O   UNL A   1      34.121  33.119  30.514  1.00  0.00    -0.268 OA
BRANCH  10  12
ATOM     12  C   UNL A   1      35.587  31.428  29.802  1.00  0.00     0.096 A 
ATOM     13  C   UNL A   1      36.343  30.251  29.936  1.00  0.00    -0.025 A 
ATOM     14  C   UNL A   1      36.324  29.461  28.728  1.00  0.00     0.016 A 
ATOM     15  C   UNL A   1      35.608  30.027  27.709  1.00  0.00     0.066 A 
ATOM     16  S   UNL A   1      34.870  31.465  28.197  1.00  0.00    -0.138 S 
BRANCH  13  17
ATOM     17  C   UNL A   1      37.153  29.811  31.115  1.00  0.00     0.034 C 
ATOM     18  C   UNL A   1      37.940  28.516  31.018  1.00  0.00     0.009 C 
ENDBRANCH  13  17
ENDBRANCH  10  12
ENDBRANCH   9  10
BRANCH   9  19
ATOM     19  C   UNL A   1      37.494  33.535  30.973  1.00  0.00     0.068 A 
ATOM     20  C   UNL A   1      38.588  33.085  31.713  1.00  0.00     0.028 A 
ATOM     21  C   UNL A   1      37.714  34.294  29.798  1.00  0.00     0.056 A 
ATOM     22  C   UNL A   1      39.883  33.481  31.371  1.00  0.00     0.002 A 
ATOM     23  C   UNL A   1      39.010  34.750  29.521  1.00  0.00     0.028 A 
ATOM     24  C   UNL A   1      40.091  34.350  30.304  1.00  0.00     0.002 A 
BRANCH  21  25
ATOM     25  N   UNL A   1      36.660  34.728  28.987  1.00  0.00    -0.397 N 
ATOM     26  H   UNL A   1      36.804  35.457  28.340  1.00  0.00     0.156 HD
ATOM     27  H   UNL A   1      35.774  34.306  29.063  1.00  0.00     0.156 HD
ENDBRANCH  21  25
ENDBRANCH   9  19
ENDBRANCH   8   9
ENDBRANCH   6   8
ENDBRANCH   5   6
ENDBRANCH   4   5
ENDBRANCH   3   4
ENDBRANCH   2   3
ENDBRANCH   1   2
BRANCH   1  28
ATOM     28  C   UNL A   1      37.419  32.318  39.214  1.00  0.00     0.188 C 
BRANCH  28  29
ATOM     29  O   UNL A   1      38.349  33.056  39.997  1.00  0.00    -0.376 OA
BRANCH  29  30
ATOM     30  C   UNL A   1      39.239  33.854  39.223  1.00  0.00     0.202 C 
BRANCH  30  31
ATOM     31  C   UNL A   1      40.024  34.793  40.142  1.00  0.00     0.261 C 
BRANCH  31  32
ATOM     32  O   UNL A   1      40.953  35.632  39.424  1.00  0.00    -0.460 OA
BRANCH  32  33
ATOM     33  C   UNL A   1      40.476  36.192  38.285  1.00  0.00     0.338 C 
ATOM     34  O   UNL A   1      39.768  37.179  38.202  1.00  0.00    -0.246 OA
BRANCH  33  35
ATOM     35  C   UNL A   1      41.102  35.520  37.129  1.00  0.00     0.060 A 
ATOM     36  C   UNL A   1      40.288  34.988  36.120  1.00  0.00     0.016 A 
ATOM     37  C   UNL A   1      42.486  35.369  37.069  1.00  0.00     0.016 A 
ATOM     38  C   UNL A   1      40.849  34.273  35.061  1.00  0.00     0.010 A 
ATOM     39  C   UNL A   1      43.046  34.643  36.015  1.00  0.00     0.010 A 
ATOM     40  C   UNL A   1      42.231  34.068  35.020  1.00  0.00    -0.014 A 
BRANCH  40  41
ATOM     41  C   UNL A   1      42.838  33.135  34.039  1.00  0.00     0.031 A 
ATOM     42  C   UNL A   1      43.155  33.651  32.662  1.00  0.00     0.074 A 
ATOM     43  C   UNL A   1      43.055  31.842  34.338  1.00  0.00     0.049 A 
ATOM     44  N   UNL A   1      43.471  32.990  31.580  1.00  0.00    -0.248 NA
ATOM     45  C   UNL A   1      43.097  35.112  32.482  1.00  0.00     0.031 C 
ATOM     46  C   UNL A   1      42.845  31.227  35.647  1.00  0.00     0.029 A 
ATOM     47  N   UNL A   1      43.462  30.803  33.537  1.00  0.00    -0.354 N 
ATOM     48  C   UNL A   1      43.583  33.943  30.576  1.00  0.00     0.074 A 
ATOM     49  C   UNL A   1      43.325  35.232  31.182  1.00  0.00     0.031 C 
ATOM     50  C   UNL A   1      43.083  29.907  35.551  1.00  0.00     0.029 A 
ATOM     51  C   UNL A   1      43.411  29.579  34.165  1.00  0.00     0.049 A 
ATOM     52  H   UNL A   1      43.761  30.921  32.607  1.00  0.00     0.167 HD
ATOM     53  C   UNL A   1      43.874  33.761  29.267  1.00  0.00     0.034 A 
ATOM     54  C   UNL A   1      43.560  28.336  33.665  1.00  0.00     0.034 A 
ATOM     55  C   UNL A   1      44.177  32.486  28.677  1.00  0.00     0.049 A 
ATOM     56  C   UNL A   1      43.846  28.157  32.195  1.00  0.00     0.074 A 
ATOM     57  C   UNL A   1      44.531  32.208  27.368  1.00  0.00     0.029 A 
ATOM     58  N   UNL A   1      44.161  31.278  29.354  1.00  0.00    -0.354 N 
ATOM     59  N   UNL A   1      44.021  29.068  31.269  1.00  0.00    -0.248 NA
ATOM     60  C   UNL A   1      43.968  26.775  31.704  1.00  0.00     0.031 C 
ATOM     61  C   UNL A   1      44.708  30.825  27.249  1.00  0.00     0.029 A 
ATOM     62  C   UNL A   1      44.487  30.248  28.489  1.00  0.00     0.049 A 
ATOM     63  H   UNL A   1      43.948  31.168  30.308  1.00  0.00     0.167 HD
ATOM     64  C   UNL A   1      44.311  28.373  30.098  1.00  0.00     0.074 A 
ATOM     65  C   UNL A   1      44.304  26.965  30.436  1.00  0.00     0.031 C 
ATOM     66  C   UNL A   1      44.544  28.855  28.852  1.00  0.00     0.034 A 
BRANCH  53  67
ATOM     67  C   UNL A   1      43.884  34.974  28.377  1.00  0.00     0.023 A 
ATOM     68  C   UNL A   1      42.690  35.409  27.771  1.00  0.00     0.012 A 
ATOM     69  C   UNL A   1      45.067  35.717  28.195  1.00  0.00     0.148 A 
ATOM     70  C   UNL A   1      42.678  36.554  26.975  1.00  0.00     0.002 A 
ATOM     71  C   UNL A   1      45.038  36.880  27.434  1.00  0.00     0.091 A 
ATOM     72  F   UNL A   1      46.198  35.269  28.759  1.00  0.00    -0.205 F 
ATOM     73  C   UNL A   1      43.847  37.295  26.816  1.00  0.00     0.022 A 
BRANCH  71  74
ATOM     74  S   UNL A   1      46.474  37.938  27.236  1.00  0.00     0.127 S 
ATOM     75  O   UNL A   1      47.461  37.000  26.704  1.00  0.00    -0.237 OA
ATOM     76  O   UNL A   1      45.996  38.931  26.273  1.00  0.00    -0.237 OA
ATOM     77  O   UNL A   1      46.766  38.471  28.559  1.00  0.00    -0.744 OA
ENDBRANCH  71  74
ENDBRANCH  53  67
BRANCH  54  78
ATOM     78  C   UNL A   1      43.449  27.148  34.561  1.00  0.00     0.023 A 
ATOM     79  C   UNL A   1      42.186  26.565  34.779  1.00  0.00     0.012 A 
ATOM     80  C   UNL A   1      44.578  26.596  35.197  1.00  0.00     0.148 A 
ATOM     81  C   UNL A   1      42.043  25.474  35.636  1.00  0.00     0.002 A 
ATOM     82  C   UNL A   1      44.438  25.475  36.007  1.00  0.00     0.091 A 
ATOM     83  F   UNL A   1      45.769  27.181  35.000  1.00  0.00    -0.205 F 
ATOM     84  C   UNL A   1      43.170  24.923  36.241  1.00  0.00     0.022 A 
BRANCH  82  85
ATOM     85  S   UNL A   1      45.848  24.628  36.729  1.00  0.00     0.127 S 
ATOM     86  O   UNL A   1      45.200  23.567  37.496  1.00  0.00    -0.237 OA
ATOM     87  O   UNL A   1      46.571  24.175  35.540  1.00  0.00    -0.237 OA
ATOM     88  O   UNL A   1      46.552  25.638  37.509  1.00  0.00    -0.744 OA
ENDBRANCH  82  85
ENDBRANCH  54  78
BRANCH  66  89
ATOM     89  C   UNL A   1      44.862  27.865  27.762  1.00  0.00     0.023 A 
ATOM     90  C   UNL A   1      46.201  27.632  27.395  1.00  0.00     0.012 A 
ATOM     91  C   UNL A   1      43.839  27.105  27.159  1.00  0.00     0.148 A 
ATOM     92  C   UNL A   1      46.516  26.680  26.425  1.00  0.00     0.002 A 
ATOM     93  C   UNL A   1      44.162  26.126  26.228  1.00  0.00     0.091 A 
ATOM     94  F   UNL A   1      42.567  27.355  27.508  1.00  0.00    -0.205 F 
ATOM     95  C   UNL A   1      45.499  25.920  25.852  1.00  0.00     0.022 A 
BRANCH  93  96
ATOM     96  S   UNL A   1      42.926  25.038  25.511  1.00  0.00     0.127 S 
ATOM     97  O   UNL A   1      42.051  25.989  24.827  1.00  0.00    -0.237 OA
ATOM     98  O   UNL A   1      43.727  24.198  24.619  1.00  0.00    -0.237 OA
ATOM     99  O   UNL A   1      42.325  24.323  26.629  1.00  0.00    -0.744 OA
ENDBRANCH  93  96
ENDBRANCH  66  89
ENDBRANCH  40  41
ENDBRANCH  33  35
ENDBRANCH  32  33
ENDBRANCH  31  32
ENDBRANCH  30  31
ENDBRANCH  29  30
ENDBRANCH  28  29
ENDBRANCH   1  28
TORSDOF 26
ENDMDL
MODEL 2
REMARK VINA RESULT:      -7.7      3.497      7.928
REMARK SMILES CCc1ccsc1C(=O)N(CC(=O)OCCOCCOCCOC(=O)c1ccc(-c2c3nc(c(-c4cccc(S(=O)(=O)[O-])c4F)c4ccc([nH]4)c(-c4cccc(S(=O)(=O)[O-])c4F)c4nc(c(-c5cccc(S(=O)(=O)[O-])c5F)c5ccc2[nH]5)C=C4)C=C3)cc1)c1ccccc1N
REMARK SMILES IDX 18 1 17 2 16 3 15 4 14 5 12 6 13 7 11 8 10 9 8 10 9 11 7 12
REMARK SMILES IDX 3 13 4 14 5 15 6 16 2 17 1 18 89 19 90 20 94 21 91 22 93 23
REMARK SMILES IDX 92 24 95 25 19 28 20 29 21 30 22 31 23 32 24 33 25 34 26 35
REMARK SMILES IDX 27 36 88 37 28 38 87 39 29 40 30 41 31 42 81 43 32 44 86 45
REMARK SMILES IDX 80 46 82 47 33 48 85 49 79 50 78 51 34 53 66 54 46 55 65 56
REMARK SMILES IDX 47 57 50 58 64 59 83 60 48 61 49 62 63 64 84 65 51 66 35 67
REMARK SMILES IDX 36 68 44 69 37 70 39 71 45 72 38 73 40 74 41 75 42 76 43 77
REMARK SMILES IDX 67 78 68 79 76 80 69 81 71 82 77 83 70 84 72 85 73 86 74 87
REMARK SMILES IDX 75 88 52 89 53 90 61 91 54 92 56 93 62 94 55 95 57 96 58 97
REMARK SMILES IDX 59 98 60 99
REMARK H PARENT 95 26 95 27 82 52 50 63
REMARK Flexibility Score: inf
ROOT
ATOM      1  C   UNL A   1      36.801  33.830  34.421  1.00  0.00     0.188 C 
ENDROOT
BRANCH   1   2
ATOM      2  O   UNL A   1      36.898  32.508  34.941  1.00  0.00    -0.376 OA
BRANCH   2   3
ATOM      3  C   UNL A   1      38.161  32.041  35.391  1.00  0.00     0.202 C 
BRANCH   3   4
ATOM      4  C   UNL A   1      38.571  30.655  34.893  1.00  0.00     0.261 C 
BRANCH   4   5
ATOM      5  O   UNL A   1      39.718  30.642  34.000  1.00  0.00    -0.462 OA
BRANCH   5   6
ATOM      6  C   UNL A   1      40.818  29.963  34.433  1.00  0.00     0.326 C 
ATOM      7  O   UNL A   1      41.525  30.341  35.362  1.00  0.00    -0.250 OA
BRANCH   6   8
ATOM      8  C   UNL A   1      41.182  28.712  33.614  1.00  0.00     0.248 C 
BRANCH   8   9
ATOM      9  N   UNL A   1      42.151  27.720  34.115  1.00  0.00    -0.294 N 
BRANCH   9  10
ATOM     10  C   UNL A   1      41.916  26.567  34.894  1.00  0.00     0.269 C 
ATOM     11  O   UNL A   1      40.728  26.290  35.126  1.00  0.00    -0.268 OA
BRANCH  10  12
ATOM     12  C   UNL A   1      42.972  25.720  35.521  1.00  0.00     0.096 A 
ATOM     13  C   UNL A   1      43.990  25.833  36.484  1.00  0.00    -0.025 A 
ATOM     14  C   UNL A   1      44.779  24.627  36.573  1.00  0.00     0.016 A 
ATOM     15  C   UNL A   1      44.396  23.650  35.696  1.00  0.00     0.066 A 
ATOM     16  S   UNL A   1      43.035  24.112  34.811  1.00  0.00    -0.138 S 
BRANCH  13  17
ATOM     17  C   UNL A   1      44.335  27.027  37.317  1.00  0.00     0.034 C 
ATOM     18  C   UNL A   1      45.794  27.424  37.455  1.00  0.00     0.009 C 
ENDBRANCH  13  17
ENDBRANCH  10  12
ENDBRANCH   9  10
BRANCH   9  19
ATOM     19  C   UNL A   1      43.382  27.722  33.353  1.00  0.00     0.068 A 
ATOM     20  C   UNL A   1      43.516  26.860  32.264  1.00  0.00     0.028 A 
ATOM     21  C   UNL A   1      44.487  28.510  33.756  1.00  0.00     0.056 A 
ATOM     22  C   UNL A   1      44.760  26.682  31.654  1.00  0.00     0.002 A 
ATOM     23  C   UNL A   1      45.743  28.255  33.189  1.00  0.00     0.028 A 
ATOM     24  C   UNL A   1      45.882  27.343  32.144  1.00  0.00     0.002 A 
BRANCH  21  25
ATOM     25  N   UNL A   1      44.398  29.430  34.807  1.00  0.00    -0.397 N 
ATOM     26  H   UNL A   1      45.152  30.033  34.999  1.00  0.00     0.156 HD
ATOM     27  H   UNL A   1      43.581  29.474  35.354  1.00  0.00     0.156 HD
ENDBRANCH  21  25
ENDBRANCH   9  19
ENDBRANCH   8   9
ENDBRANCH   6   8
ENDBRANCH   5   6
ENDBRANCH   4   5
ENDBRANCH   3   4
ENDBRANCH   2   3
ENDBRANCH   1   2
BRANCH   1  28
ATOM     28  C   UNL A   1      35.416  34.471  34.368  1.00  0.00     0.188 C 
BRANCH  28  29
ATOM     29  O   UNL A   1      35.365  35.574  33.471  1.00  0.00    -0.376 OA
BRANCH  29  30
ATOM     30  C   UNL A   1      34.049  36.076  33.259  1.00  0.00     0.202 C 
BRANCH  30  31
ATOM     31  C   UNL A   1      33.403  35.349  32.078  1.00  0.00     0.261 C 
BRANCH  31  32
ATOM     32  O   UNL A   1      34.254  35.308  30.913  1.00  0.00    -0.460 OA
BRANCH  32  33
ATOM     33  C   UNL A   1      34.170  34.178  30.169  1.00  0.00     0.338 C 
ATOM     34  O   UNL A   1      33.228  33.828  29.482  1.00  0.00    -0.246 OA
BRANCH  33  35
ATOM     35  C   UNL A   1      35.488  33.511  30.170  1.00  0.00     0.060 A 
ATOM     36  C   UNL A   1      35.774  32.556  31.155  1.00  0.00     0.016 A 
ATOM     37  C   UNL A   1      36.457  33.869  29.235  1.00  0.00     0.016 A 
ATOM     38  C   UNL A   1      37.040  31.976  31.233  1.00  0.00     0.010 A 
ATOM     39  C   UNL A   1      37.728  33.296  29.320  1.00  0.00     0.010 A 
ATOM     40  C   UNL A   1      38.037  32.368  30.334  1.00  0.00    -0.014 A 
BRANCH  40  41
ATOM     41  C   UNL A   1      39.445  31.941  30.520  1.00  0.00     0.031 A 
ATOM     42  C   UNL A   1      40.329  32.758  31.421  1.00  0.00     0.074 A 
ATOM     43  C   UNL A   1      39.952  30.883  29.862  1.00  0.00     0.049 A 
ATOM     44  N   UNL A   1      41.627  32.723  31.566  1.00  0.00    -0.248 NA
ATOM     45  C   UNL A   1      39.653  33.757  32.268  1.00  0.00     0.031 C 
ATOM     46  C   UNL A   1      39.194  29.975  29.003  1.00  0.00     0.029 A 
ATOM     47  N   UNL A   1      41.244  30.423  29.784  1.00  0.00    -0.354 N 
ATOM     48  C   UNL A   1      41.933  33.737  32.465  1.00  0.00     0.074 A 
ATOM     49  C   UNL A   1      40.682  34.354  32.853  1.00  0.00     0.031 C 
ATOM     50  C   UNL A   1      40.042  29.091  28.449  1.00  0.00     0.029 A 
ATOM     51  C   UNL A   1      41.406  29.403  28.873  1.00  0.00     0.049 A 
ATOM     52  H   UNL A   1      41.982  30.786  30.326  1.00  0.00     0.167 HD
ATOM     53  C   UNL A   1      43.147  34.120  32.925  1.00  0.00     0.034 A 
ATOM     54  C   UNL A   1      42.528  28.827  28.400  1.00  0.00     0.034 A 
ATOM     55  C   UNL A   1      44.383  33.476  32.575  1.00  0.00     0.049 A 
ATOM     56  C   UNL A   1      43.871  29.298  28.900  1.00  0.00     0.074 A 
ATOM     57  C   UNL A   1      45.659  33.763  33.029  1.00  0.00     0.029 A 
ATOM     58  N   UNL A   1      44.501  32.419  31.688  1.00  0.00    -0.354 N 
ATOM     59  N   UNL A   1      44.146  30.207  29.803  1.00  0.00    -0.248 NA
ATOM     60  C   UNL A   1      45.060  28.651  28.323  1.00  0.00     0.031 C 
ATOM     61  C   UNL A   1      46.552  32.890  32.397  1.00  0.00     0.029 A 
ATOM     62  C   UNL A   1      45.828  32.047  31.569  1.00  0.00     0.049 A 
ATOM     63  H   UNL A   1      43.751  31.996  31.212  1.00  0.00     0.167 HD
ATOM     64  C   UNL A   1      45.532  30.214  29.930  1.00  0.00     0.074 A 
ATOM     65  C   UNL A   1      46.040  29.207  29.023  1.00  0.00     0.031 C 
ATOM     66  C   UNL A   1      46.316  30.997  30.714  1.00  0.00     0.034 A 
BRANCH  53  67
ATOM     67  C   UNL A   1      43.200  35.293  33.865  1.00  0.00     0.023 A 
ATOM     68  C   UNL A   1      43.015  35.094  35.247  1.00  0.00     0.012 A 
ATOM     69  C   UNL A   1      43.496  36.583  33.383  1.00  0.00     0.148 A 
ATOM     70  C   UNL A   1      43.101  36.167  36.133  1.00  0.00     0.002 A 
ATOM     71  C   UNL A   1      43.620  37.640  34.276  1.00  0.00     0.091 A 
ATOM     72  F   UNL A   1      43.641  36.754  32.061  1.00  0.00    -0.205 F 
ATOM     73  C   UNL A   1      43.414  37.436  35.651  1.00  0.00     0.022 A 
BRANCH  71  74
ATOM     74  S   UNL A   1      44.095  39.291  33.757  1.00  0.00     0.127 S 
ATOM     75  O   UNL A   1      43.022  39.627  32.823  1.00  0.00    -0.237 OA
ATOM     76  O   UNL A   1      44.061  40.034  35.018  1.00  0.00    -0.237 OA
ATOM     77  O   UNL A   1      45.420  39.161  33.168  1.00  0.00    -0.744 OA
ENDBRANCH  71  74
ENDBRANCH  53  67
BRANCH  54  78
ATOM     78  C   UNL A   1      42.442  27.729  27.394  1.00  0.00     0.023 A 
ATOM     79  C   UNL A   1      42.415  28.050  26.023  1.00  0.00     0.012 A 
ATOM     80  C   UNL A   1      42.384  26.376  27.782  1.00  0.00     0.148 A 
ATOM     81  C   UNL A   1      42.302  27.049  25.059  1.00  0.00     0.002 A 
ATOM     82  C   UNL A   1      42.326  25.380  26.815  1.00  0.00     0.091 A 
ATOM     83  F   UNL A   1      42.383  26.090  29.093  1.00  0.00    -0.205 F 
ATOM     84  C   UNL A   1      42.269  25.714  25.454  1.00  0.00     0.022 A 
BRANCH  82  85
ATOM     85  S   UNL A   1      42.401  23.633  27.228  1.00  0.00     0.127 S 
ATOM     86  O   UNL A   1      42.411  23.012  25.906  1.00  0.00    -0.237 OA
ATOM     87  O   UNL A   1      43.667  23.548  27.958  1.00  0.00    -0.237 OA
ATOM     88  O   UNL A   1      41.221  23.374  28.044  1.00  0.00    -0.744 OA
ENDBRANCH  82  85
ENDBRANCH  54  78
BRANCH  66  89
ATOM     89  C   UNL A   1      47.805  30.769  30.671  1.00  0.00     0.023 A 
ATOM     90  C   UNL A   1      48.406  29.889  31.591  1.00  0.00     0.012 A 
ATOM     91  C   UNL A   1      48.594  31.364  29.666  1.00  0.00     0.148 A 
ATOM     92  C   UNL A   1      49.775  29.627  31.530  1.00  0.00     0.002 A 
ATOM     93  C   UNL A   1      49.948  31.062  29.582  1.00  0.00     0.091 A 
ATOM     94  F   UNL A   1      48.007  32.214  28.810  1.00  0.00    -0.205 F 
ATOM     95  C   UNL A   1      50.542  30.203  30.520  1.00  0.00     0.022 A 
BRANCH  93  96
ATOM     96  S   UNL A   1      50.990  31.684  28.257  1.00  0.00     0.127 S 
ATOM     97  O   UNL A   1      50.346  31.111  27.076  1.00  0.00    -0.237 OA
ATOM     98  O   UNL A   1      50.834  33.133  28.391  1.00  0.00    -0.237 OA
ATOM     99  O   UNL A   1      52.332  31.195  28.540  1.00  0.00    -0.744 OA
ENDBRANCH  93  96
ENDBRANCH  66  89
ENDBRANCH  40  41
ENDBRANCH  33  35
ENDBRANCH  32  33
ENDBRANCH  31  32
ENDBRANCH  30  31
ENDBRANCH  29  30
ENDBRANCH  28  29
ENDBRANCH   1  28
TORSDOF 26
ENDMDL
MODEL 3
REMARK VINA RESULT:      -7.6      1.568      2.162
REMARK SMILES CCc1ccsc1C(=O)N(CC(=O)OCCOCCOCCOC(=O)c1ccc(-c2c3nc(c(-c4cccc(S(=O)(=O)[O-])c4F)c4ccc([nH]4)c(-c4cccc(S(=O)(=O)[O-])c4F)c4nc(c(-c5cccc(S(=O)(=O)[O-])c5F)c5ccc2[nH]5)C=C4)C=C3)cc1)c1ccccc1N
REMARK SMILES IDX 18 1 17 2 16 3 15 4 14 5 12 6 13 7 11 8 10 9 8 10 9 11 7 12
REMARK SMILES IDX 3 13 4 14 5 15 6 16 2 17 1 18 89 19 90 20 94 21 91 22 93 23
REMARK SMILES IDX 92 24 95 25 19 28 20 29 21 30 22 31 23 32 24 33 25 34 26 35
REMARK SMILES IDX 27 36 88 37 28 38 87 39 29 40 30 41 31 42 81 43 32 44 86 45
REMARK SMILES IDX 80 46 82 47 33 48 85 49 79 50 78 51 34 53 66 54 46 55 65 56
REMARK SMILES IDX 47 57 50 58 64 59 83 60 48 61 49 62 63 64 84 65 51 66 35 67
REMARK SMILES IDX 36 68 44 69 37 70 39 71 45 72 38 73 40 74 41 75 42 76 43 77
REMARK SMILES IDX 67 78 68 79 76 80 69 81 71 82 77 83 70 84 72 85 73 86 74 87
REMARK SMILES IDX 75 88 52 89 53 90 61 91 54 92 56 93 62 94 55 95 57 96 58 97
REMARK SMILES IDX 59 98 60 99
REMARK H PARENT 95 26 95 27 82 52 50 63
REMARK Flexibility Score: inf
ROOT
ATOM      1  C   UNL A   1      37.489  32.625  37.710  1.00  0.00     0.188 C 
ENDROOT
BRANCH   1   2
ATOM      2  O   UNL A   1      37.519  31.513  36.822  1.00  0.00    -0.376 OA
BRANCH   2   3
ATOM      3  C   UNL A   1      37.752  31.746  35.441  1.00  0.00     0.202 C 
BRANCH   3   4
ATOM      4  C   UNL A   1      37.596  33.195  34.978  1.00  0.00     0.261 C 
BRANCH   4   5
ATOM      5  O   UNL A   1      36.234  33.589  34.656  1.00  0.00    -0.462 OA
BRANCH   5   6
ATOM      6  C   UNL A   1      35.803  33.310  33.393  1.00  0.00     0.326 C 
ATOM      7  O   UNL A   1      34.686  32.867  33.142  1.00  0.00    -0.250 OA
BRANCH   6   8
ATOM      8  C   UNL A   1      36.851  33.505  32.283  1.00  0.00     0.248 C 
BRANCH   8   9
ATOM      9  N   UNL A   1      37.088  32.469  31.260  1.00  0.00    -0.294 N 
BRANCH   9  10
ATOM     10  C   UNL A   1      36.967  32.565  29.857  1.00  0.00     0.269 C 
ATOM     11  O   UNL A   1      38.008  32.816  29.229  1.00  0.00    -0.268 OA
BRANCH  10  12
ATOM     12  C   UNL A   1      35.688  32.476  29.094  1.00  0.00     0.096 A 
ATOM     13  C   UNL A   1      34.982  31.545  28.312  1.00  0.00    -0.025 A 
ATOM     14  C   UNL A   1      33.791  32.124  27.736  1.00  0.00     0.016 A 
ATOM     15  C   UNL A   1      33.614  33.445  28.043  1.00  0.00     0.066 A 
ATOM     16  S   UNL A   1      34.812  34.001  29.095  1.00  0.00    -0.138 S 
BRANCH  13  17
ATOM     17  C   UNL A   1      35.363  30.132  28.002  1.00  0.00     0.034 C 
ATOM     18  C   UNL A   1      34.331  29.222  27.360  1.00  0.00     0.009 C 
ENDBRANCH  13  17
ENDBRANCH  10  12
ENDBRANCH   9  10
BRANCH   9  19
ATOM     19  C   UNL A   1      37.942  31.405  31.745  1.00  0.00     0.068 A 
ATOM     20  C   UNL A   1      37.381  30.172  32.077  1.00  0.00     0.028 A 
ATOM     21  C   UNL A   1      39.320  31.630  31.983  1.00  0.00     0.056 A 
ATOM     22  C   UNL A   1      38.139  29.211  32.751  1.00  0.00     0.002 A 
ATOM     23  C   UNL A   1      40.038  30.690  32.735  1.00  0.00     0.028 A 
ATOM     24  C   UNL A   1      39.452  29.486  33.121  1.00  0.00     0.002 A 
BRANCH  21  25
ATOM     25  N   UNL A   1      39.950  32.827  31.624  1.00  0.00    -0.397 N 
ATOM     26  H   UNL A   1      40.273  32.956  30.703  1.00  0.00     0.156 HD
ATOM     27  H   UNL A   1      40.069  33.540  32.292  1.00  0.00     0.156 HD
ENDBRANCH  21  25
ENDBRANCH   9  19
ENDBRANCH   8   9
ENDBRANCH   6   8
ENDBRANCH   5   6
ENDBRANCH   4   5
ENDBRANCH   3   4
ENDBRANCH   2   3
ENDBRANCH   1   2
BRANCH   1  28
ATOM     28  C   UNL A   1      37.186  32.350  39.181  1.00  0.00     0.188 C 
BRANCH  28  29
ATOM     29  O   UNL A   1      38.114  32.987  40.052  1.00  0.00    -0.376 OA
BRANCH  29  30
ATOM     30  C   UNL A   1      39.234  33.551  39.377  1.00  0.00     0.202 C 
BRANCH  30  31
ATOM     31  C   UNL A   1      39.752  34.760  40.158  1.00  0.00     0.261 C 
BRANCH  31  32
ATOM     32  O   UNL A   1      40.887  35.390  39.528  1.00  0.00    -0.460 OA
BRANCH  32  33
ATOM     33  C   UNL A   1      40.605  36.157  38.447  1.00  0.00     0.338 C 
ATOM     34  O   UNL A   1      40.087  37.259  38.453  1.00  0.00    -0.246 OA
BRANCH  33  35
ATOM     35  C   UNL A   1      41.194  35.524  37.249  1.00  0.00     0.060 A 
ATOM     36  C   UNL A   1      40.360  35.162  36.183  1.00  0.00     0.016 A 
ATOM     37  C   UNL A   1      42.557  35.240  37.205  1.00  0.00     0.016 A 
ATOM     38  C   UNL A   1      40.877  34.485  35.078  1.00  0.00     0.010 A 
ATOM     39  C   UNL A   1      43.072  34.552  36.103  1.00  0.00     0.010 A 
ATOM     40  C   UNL A   1      42.232  34.146  35.047  1.00  0.00    -0.014 A 
BRANCH  40  41
ATOM     41  C   UNL A   1      42.771  33.241  34.002  1.00  0.00     0.031 A 
ATOM     42  C   UNL A   1      43.052  33.810  32.638  1.00  0.00     0.074 A 
ATOM     43  C   UNL A   1      42.958  31.930  34.235  1.00  0.00     0.049 A 
ATOM     44  N   UNL A   1      43.306  33.191  31.516  1.00  0.00    -0.248 NA
ATOM     45  C   UNL A   1      43.034  35.279  32.526  1.00  0.00     0.031 C 
ATOM     46  C   UNL A   1      42.778  31.262  35.522  1.00  0.00     0.029 A 
ATOM     47  N   UNL A   1      43.301  30.917  33.372  1.00  0.00    -0.354 N 
ATOM     48  C   UNL A   1      43.410  34.185  30.552  1.00  0.00     0.074 A 
ATOM     49  C   UNL A   1      43.216  35.452  31.225  1.00  0.00     0.031 C 
ATOM     50  C   UNL A   1      42.971  29.942  35.357  1.00  0.00     0.029 A 
ATOM     51  C   UNL A   1      43.235  29.667  33.946  1.00  0.00     0.049 A 
ATOM     52  H   UNL A   1      43.568  31.069  32.437  1.00  0.00     0.167 HD
ATOM     53  C   UNL A   1      43.645  34.055  29.226  1.00  0.00     0.034 A 
ATOM     54  C   UNL A   1      43.326  28.445  33.385  1.00  0.00     0.034 A 
ATOM     55  C   UNL A   1      43.885  32.800  28.568  1.00  0.00     0.049 A 
ATOM     56  C   UNL A   1      43.549  28.325  31.899  1.00  0.00     0.074 A 
ATOM     57  C   UNL A   1      44.179  32.571  27.235  1.00  0.00     0.029 A 
ATOM     58  N   UNL A   1      43.856  31.563  29.190  1.00  0.00    -0.354 N 
ATOM     59  N   UNL A   1      43.718  29.272  31.008  1.00  0.00    -0.248 NA
ATOM     60  C   UNL A   1      43.608  26.964  31.342  1.00  0.00     0.031 C 
ATOM     61  C   UNL A   1      44.308  31.191  27.047  1.00  0.00     0.029 A 
ATOM     62  C   UNL A   1      44.116  30.564  28.268  1.00  0.00     0.049 A 
ATOM     63  H   UNL A   1      43.676  31.416  30.146  1.00  0.00     0.167 HD
ATOM     64  C   UNL A   1      43.941  28.623  29.797  1.00  0.00     0.074 A 
ATOM     65  C   UNL A   1      43.902  27.202  30.071  1.00  0.00     0.031 C 
ATOM     66  C   UNL A   1      44.142  29.155  28.565  1.00  0.00     0.034 A 
BRANCH  53  67
ATOM     67  C   UNL A   1      43.660  35.306  28.392  1.00  0.00     0.023 A 
ATOM     68  C   UNL A   1      42.447  35.872  27.953  1.00  0.00     0.012 A 
ATOM     69  C   UNL A   1      44.876  35.955  28.097  1.00  0.00     0.148 A 
ATOM     70  C   UNL A   1      42.445  37.053  27.213  1.00  0.00     0.002 A 
ATOM     71  C   UNL A   1      44.863  37.153  27.393  1.00  0.00     0.091 A 
ATOM     72  F   UNL A   1      46.020  35.384  28.500  1.00  0.00    -0.205 F 
ATOM     73  C   UNL A   1      43.650  37.699  26.942  1.00  0.00     0.022 A 
BRANCH  71  74
ATOM     74  S   UNL A   1      46.356  38.094  27.065  1.00  0.00     0.127 S 
ATOM     75  O   UNL A   1      47.095  37.181  26.195  1.00  0.00    -0.237 OA
ATOM     76  O   UNL A   1      45.830  39.284  26.393  1.00  0.00    -0.237 OA
ATOM     77  O   UNL A   1      46.961  38.352  28.363  1.00  0.00    -0.744 OA
ENDBRANCH  71  74
ENDBRANCH  53  67
BRANCH  54  78
ATOM     78  C   UNL A   1      43.211  27.221  34.230  1.00  0.00     0.023 A 
ATOM     79  C   UNL A   1      41.933  26.736  34.570  1.00  0.00     0.012 A 
ATOM     80  C   UNL A   1      44.351  26.540  34.701  1.00  0.00     0.148 A 
ATOM     81  C   UNL A   1      41.792  25.612  35.386  1.00  0.00     0.002 A 
ATOM     82  C   UNL A   1      44.203  25.390  35.467  1.00  0.00     0.091 A 
ATOM     83  F   UNL A   1      45.559  27.032  34.390  1.00  0.00    -0.205 F 
ATOM     84  C   UNL A   1      42.926  24.934  35.825  1.00  0.00     0.022 A 
BRANCH  82  85
ATOM     85  S   UNL A   1      45.604  24.386  35.975  1.00  0.00     0.127 S 
ATOM     86  O   UNL A   1      46.108  25.134  37.123  1.00  0.00    -0.237 OA
ATOM     87  O   UNL A   1      44.962  23.112  36.303  1.00  0.00    -0.237 OA
ATOM     88  O   UNL A   1      46.484  24.331  34.815  1.00  0.00    -0.744 OA
ENDBRANCH  82  85
ENDBRANCH  54  78
BRANCH  66  89
ATOM     89  C   UNL A   1      44.386  28.207  27.420  1.00  0.00     0.023 A 
ATOM     90  C   UNL A   1      43.297  27.693  26.691  1.00  0.00     0.012 A 
ATOM     91  C   UNL A   1      45.699  27.891  27.015  1.00  0.00     0.148 A 
ATOM     92  C   UNL A   1      43.509  26.856  25.594  1.00  0.00     0.002 A 
ATOM     93  C   UNL A   1      45.904  27.096  25.895  1.00  0.00     0.091 A 
ATOM     94  F   UNL A   1      46.724  28.375  27.734  1.00  0.00    -0.205 F 
ATOM     95  C   UNL A   1      44.810  26.569  25.190  1.00  0.00     0.022 A 
BRANCH  93  96
ATOM     96  S   UNL A   1      47.545  26.752  25.248  1.00  0.00     0.127 S 
ATOM     97  O   UNL A   1      48.002  28.088  24.867  1.00  0.00    -0.237 OA
ATOM     98  O   UNL A   1      48.227  26.186  26.413  1.00  0.00    -0.237 OA
ATOM     99  O   UNL A   1      47.354  25.816  24.149  1.00  0.00    -0.744 OA
ENDBRANCH  93  96
ENDBRANCH  66  89
ENDBRANCH  40  41
ENDBRANCH  33  35
ENDBRANCH  32  33
ENDBRANCH  31  32
ENDBRANCH  30  31
ENDBRANCH  29  30
ENDBRANCH  28  29
ENDBRANCH   1  28
TORSDOF 26
ENDMDL
