MODEL 1
REMARK VINA RESULT:     -10.5      0.000      0.000
REMARK SMILES Cc1cc2nc(C(F)(F)F)c(=O)n([C@H](C)C(=O)OCCOCCOCCOC(=O)c3ccc(-c4c5nc(c(-c6cccc(S(=O)(=O)[O-])c6F)c6ccc([nH]6)c(-c6cccc(S(=O)(=O)[O-])c6F)c6nc(c(-c7cccc(S(=O)(=O)[O-])c7F)c7ccc4[nH]7)C=C6)C=C5)cc3)c2cc1C
REMARK SMILES IDX 23 1 22 2 21 3 20 4 19 5 18 6 16 7 17 8 14 9 15 10 13 11
REMARK SMILES IDX 1 12 2 13 3 14 95 15 4 16 94 17 96 18 5 19 93 20 6 21 11 22
REMARK SMILES IDX 12 23 7 24 8 25 9 26 10 27 24 28 25 29 26 30 27 31 28 32
REMARK SMILES IDX 29 33 30 34 31 35 92 36 32 37 91 38 33 39 34 40 35 41 85 42
REMARK SMILES IDX 36 43 90 44 84 45 86 46 37 47 89 48 83 49 82 50 38 52 70 53
REMARK SMILES IDX 50 54 69 55 51 56 54 57 68 58 87 59 52 60 53 61 67 63 88 64
REMARK SMILES IDX 55 65 39 66 40 67 48 68 41 69 43 70 49 71 42 72 44 73 45 74
REMARK SMILES IDX 46 75 47 76 71 77 72 78 80 79 73 80 75 81 81 82 74 83 76 84
REMARK SMILES IDX 77 85 78 86 79 87 56 88 57 89 65 90 58 91 60 92 66 93 59 94
REMARK SMILES IDX 61 95 62 96 63 97 64 98
REMARK H PARENT 86 51 54 62
REMARK Flexibility Score: inf
ROOT
ATOM      1  C   UNL A   1      34.773  22.443  25.913  1.00  0.00     0.188 C 
ENDROOT
BRANCH   1   2
ATOM      2  C   UNL A   1      34.114  22.959  27.192  1.00  0.00     0.188 C 
BRANCH   2   3
ATOM      3  O   UNL A   1      32.853  22.391  27.520  1.00  0.00    -0.376 OA
BRANCH   3   4
ATOM      4  C   UNL A   1      31.713  22.919  26.846  1.00  0.00     0.202 C 
BRANCH   4   5
ATOM      5  C   UNL A   1      31.750  24.413  26.480  1.00  0.00     0.261 C 
BRANCH   5   6
ATOM      6  O   UNL A   1      31.919  24.676  25.069  1.00  0.00    -0.462 OA
BRANCH   6   7
ATOM      7  C   UNL A   1      31.117  25.655  24.572  1.00  0.00     0.329 C 
ATOM      8  O   UNL A   1      29.933  25.779  24.873  1.00  0.00    -0.250 OA
BRANCH   7   9
ATOM      9  C   UNL A   1      31.799  26.597  23.562  1.00  0.00     0.197 C 
ATOM     10  C   UNL A   1      31.461  26.577  22.071  1.00  0.00     0.044 C 
BRANCH   9  11
ATOM     11  N   UNL A   1      31.818  27.906  24.218  1.00  0.00    -0.291 N 
ATOM     12  C   UNL A   1      28.221  32.258  23.252  1.00  0.00     0.044 C 
ATOM     13  C   UNL A   1      29.075  31.057  23.545  1.00  0.00    -0.046 A 
ATOM     14  C   UNL A   1      30.132  31.185  24.460  1.00  0.00     0.034 A 
ATOM     15  C   UNL A   1      28.807  29.797  22.993  1.00  0.00    -0.046 A 
ATOM     16  C   UNL A   1      30.984  30.115  24.749  1.00  0.00     0.088 A 
ATOM     17  C   UNL A   1      29.637  28.713  23.329  1.00  0.00     0.032 A 
ATOM     18  C   UNL A   1      27.680  29.573  22.018  1.00  0.00     0.044 C 
ATOM     19  N   UNL A   1      31.962  30.304  25.740  1.00  0.00    -0.236 NA
ATOM     20  C   UNL A   1      30.787  28.882  24.109  1.00  0.00     0.071 A 
ATOM     21  C   UNL A   1      32.843  29.357  25.916  1.00  0.00     0.210 A 
ATOM     22  C   UNL A   1      32.947  28.180  24.995  1.00  0.00     0.282 A 
ATOM     23  O   UNL A   1      33.991  27.544  24.966  1.00  0.00    -0.267 OA
BRANCH  21  24
ATOM     24  C   UNL A   1      33.843  29.360  27.039  1.00  0.00     0.438 C 
ATOM     25  F   UNL A   1      33.740  30.467  27.823  1.00  0.00    -0.164 F 
ATOM     26  F   UNL A   1      33.658  28.295  27.878  1.00  0.00    -0.164 F 
ATOM     27  F   UNL A   1      35.143  29.270  26.645  1.00  0.00    -0.164 F 
ENDBRANCH  21  24
ENDBRANCH   9  11
ENDBRANCH   7   9
ENDBRANCH   6   7
ENDBRANCH   5   6
ENDBRANCH   4   5
ENDBRANCH   3   4
ENDBRANCH   2   3
ENDBRANCH   1   2
BRANCH   1  28
ATOM     28  O   UNL A   1      35.424  21.187  25.975  1.00  0.00    -0.376 OA
BRANCH  28  29
ATOM     29  C   UNL A   1      36.469  20.952  25.028  1.00  0.00     0.202 C 
BRANCH  29  30
ATOM     30  C   UNL A   1      37.587  22.007  24.815  1.00  0.00     0.261 C 
BRANCH  30  31
ATOM     31  O   UNL A   1      37.929  22.893  25.905  1.00  0.00    -0.460 OA
BRANCH  31  32
ATOM     32  C   UNL A   1      39.153  22.799  26.481  1.00  0.00     0.338 C 
ATOM     33  O   UNL A   1      39.930  21.866  26.335  1.00  0.00    -0.246 OA
BRANCH  32  34
ATOM     34  C   UNL A   1      39.523  24.142  27.048  1.00  0.00     0.060 A 
ATOM     35  C   UNL A   1      39.210  24.516  28.360  1.00  0.00     0.016 A 
ATOM     36  C   UNL A   1      40.086  25.104  26.191  1.00  0.00     0.016 A 
ATOM     37  C   UNL A   1      39.489  25.818  28.811  1.00  0.00     0.010 A 
ATOM     38  C   UNL A   1      40.359  26.408  26.641  1.00  0.00     0.010 A 
ATOM     39  C   UNL A   1      40.087  26.775  27.966  1.00  0.00    -0.014 A 
BRANCH  39  40
ATOM     40  C   UNL A   1      40.611  28.050  28.546  1.00  0.00     0.031 A 
ATOM     41  C   UNL A   1      42.067  28.292  28.853  1.00  0.00     0.074 A 
ATOM     42  C   UNL A   1      39.718  29.031  28.799  1.00  0.00     0.049 A 
ATOM     43  N   UNL A   1      42.651  29.413  29.201  1.00  0.00    -0.248 NA
ATOM     44  C   UNL A   1      42.980  27.145  28.772  1.00  0.00     0.031 C 
ATOM     45  C   UNL A   1      38.270  28.904  28.620  1.00  0.00     0.029 A 
ATOM     46  N   UNL A   1      39.885  30.321  29.240  1.00  0.00    -0.354 N 
ATOM     47  C   UNL A   1      44.002  29.119  29.360  1.00  0.00     0.074 A 
ATOM     48  C   UNL A   1      44.142  27.697  29.114  1.00  0.00     0.031 C 
ATOM     49  C   UNL A   1      37.688  30.078  28.904  1.00  0.00     0.029 A 
ATOM     50  C   UNL A   1      38.712  31.038  29.304  1.00  0.00     0.049 A 
ATOM     51  H   UNL A   1      40.762  30.698  29.486  1.00  0.00     0.167 HD
ATOM     52  C   UNL A   1      45.029  29.960  29.649  1.00  0.00     0.034 A 
ATOM     53  C   UNL A   1      38.478  32.328  29.625  1.00  0.00     0.034 A 
ATOM     54  C   UNL A   1      44.885  31.376  29.892  1.00  0.00     0.049 A 
ATOM     55  C   UNL A   1      39.639  33.230  29.952  1.00  0.00     0.074 A 
ATOM     56  C   UNL A   1      45.881  32.310  30.131  1.00  0.00     0.029 A 
ATOM     57  N   UNL A   1      43.683  32.063  29.941  1.00  0.00    -0.354 N 
ATOM     58  N   UNL A   1      40.921  32.970  29.912  1.00  0.00    -0.248 NA
ATOM     59  C   UNL A   1      39.320  34.614  30.338  1.00  0.00     0.031 C 
ATOM     60  C   UNL A   1      45.281  33.551  30.352  1.00  0.00     0.029 A 
ATOM     61  C   UNL A   1      43.911  33.401  30.221  1.00  0.00     0.049 A 
ATOM     62  H   UNL A   1      42.796  31.660  29.796  1.00  0.00     0.167 HD
ATOM     63  C   UNL A   1      41.562  34.163  30.234  1.00  0.00     0.074 A 
ATOM     64  C   UNL A   1      40.527  35.153  30.438  1.00  0.00     0.031 C 
ATOM     65  C   UNL A   1      42.888  34.405  30.367  1.00  0.00     0.034 A 
BRANCH  52  66
ATOM     66  C   UNL A   1      46.441  29.416  29.629  1.00  0.00     0.023 A 
ATOM     67  C   UNL A   1      47.015  28.989  30.843  1.00  0.00     0.012 A 
ATOM     68  C   UNL A   1      47.120  29.159  28.418  1.00  0.00     0.148 A 
ATOM     69  C   UNL A   1      48.245  28.330  30.859  1.00  0.00     0.002 A 
ATOM     70  C   UNL A   1      48.326  28.464  28.439  1.00  0.00     0.091 A 
ATOM     71  F   UNL A   1      46.556  29.564  27.272  1.00  0.00    -0.205 F 
ATOM     72  C   UNL A   1      48.893  28.057  29.657  1.00  0.00     0.022 A 
BRANCH  70  73
ATOM     73  S   UNL A   1      49.201  27.970  26.946  1.00  0.00     0.127 S 
ATOM     74  O   UNL A   1      50.394  27.330  27.500  1.00  0.00    -0.237 OA
ATOM     75  O   UNL A   1      48.249  27.048  26.325  1.00  0.00    -0.237 OA
ATOM     76  O   UNL A   1      49.446  29.194  26.197  1.00  0.00    -0.744 OA
ENDBRANCH  70  73
ENDBRANCH  52  66
BRANCH  53  77
ATOM     77  C   UNL A   1      37.092  32.874  29.561  1.00  0.00     0.023 A 
ATOM     78  C   UNL A   1      36.450  32.979  28.311  1.00  0.00     0.012 A 
ATOM     79  C   UNL A   1      36.400  33.275  30.721  1.00  0.00     0.148 A 
ATOM     80  C   UNL A   1      35.162  33.506  28.212  1.00  0.00     0.002 A 
ATOM     81  C   UNL A   1      35.094  33.742  30.623  1.00  0.00     0.091 A 
ATOM     82  F   UNL A   1      37.030  33.181  31.900  1.00  0.00    -0.205 F 
ATOM     83  C   UNL A   1      34.480  33.878  29.368  1.00  0.00     0.022 A 
BRANCH  81  84
ATOM     84  S   UNL A   1      34.092  34.114  32.065  1.00  0.00     0.127 S 
ATOM     85  O   UNL A   1      32.948  34.795  31.467  1.00  0.00    -0.237 OA
ATOM     86  O   UNL A   1      33.811  32.776  32.589  1.00  0.00    -0.237 OA
ATOM     87  O   UNL A   1      34.934  34.932  32.929  1.00  0.00    -0.744 OA
ENDBRANCH  81  84
ENDBRANCH  53  77
BRANCH  65  88
ATOM     88  C   UNL A   1      43.330  35.797  30.745  1.00  0.00     0.023 A 
ATOM     89  C   UNL A   1      43.625  36.090  32.091  1.00  0.00     0.012 A 
ATOM     90  C   UNL A   1      43.579  36.772  29.757  1.00  0.00     0.148 A 
ATOM     91  C   UNL A   1      44.147  37.332  32.451  1.00  0.00     0.002 A 
ATOM     92  C   UNL A   1      44.148  37.989  30.116  1.00  0.00     0.091 A 
ATOM     93  F   UNL A   1      43.279  36.481  28.483  1.00  0.00    -0.205 F 
ATOM     94  C   UNL A   1      44.423  38.274  31.463  1.00  0.00     0.022 A 
BRANCH  92  95
ATOM     95  S   UNL A   1      44.636  39.230  28.910  1.00  0.00     0.127 S 
ATOM     96  O   UNL A   1      45.125  40.307  29.771  1.00  0.00    -0.237 OA
ATOM     97  O   UNL A   1      45.677  38.532  28.157  1.00  0.00    -0.237 OA
ATOM     98  O   UNL A   1      43.438  39.549  28.147  1.00  0.00    -0.744 OA
ENDBRANCH  92  95
ENDBRANCH  65  88
ENDBRANCH  39  40
ENDBRANCH  32  34
ENDBRANCH  31  32
ENDBRANCH  30  31
ENDBRANCH  29  30
ENDBRANCH  28  29
ENDBRANCH   1  28
TORSDOF 22
ENDMDL
MODEL 2
REMARK VINA RESULT:     -10.5      2.630      3.882
REMARK SMILES Cc1cc2nc(C(F)(F)F)c(=O)n([C@H](C)C(=O)OCCOCCOCCOC(=O)c3ccc(-c4c5nc(c(-c6cccc(S(=O)(=O)[O-])c6F)c6ccc([nH]6)c(-c6cccc(S(=O)(=O)[O-])c6F)c6nc(c(-c7cccc(S(=O)(=O)[O-])c7F)c7ccc4[nH]7)C=C6)C=C5)cc3)c2cc1C
REMARK SMILES IDX 23 1 22 2 21 3 20 4 19 5 18 6 16 7 17 8 14 9 15 10 13 11
REMARK SMILES IDX 1 12 2 13 3 14 95 15 4 16 94 17 96 18 5 19 93 20 6 21 11 22
REMARK SMILES IDX 12 23 7 24 8 25 9 26 10 27 24 28 25 29 26 30 27 31 28 32
REMARK SMILES IDX 29 33 30 34 31 35 92 36 32 37 91 38 33 39 34 40 35 41 85 42
REMARK SMILES IDX 36 43 90 44 84 45 86 46 37 47 89 48 83 49 82 50 38 52 70 53
REMARK SMILES IDX 50 54 69 55 51 56 54 57 68 58 87 59 52 60 53 61 67 63 88 64
REMARK SMILES IDX 55 65 39 66 40 67 48 68 41 69 43 70 49 71 42 72 44 73 45 74
REMARK SMILES IDX 46 75 47 76 71 77 72 78 80 79 73 80 75 81 81 82 74 83 76 84
REMARK SMILES IDX 77 85 78 86 79 87 56 88 57 89 65 90 58 91 60 92 66 93 59 94
REMARK SMILES IDX 61 95 62 96 63 97 64 98
REMARK H PARENT 86 51 54 62
REMARK Flexibility Score: inf
ROOT
ATOM      1  C   UNL A   1      33.209  22.291  24.780  1.00  0.00     0.188 C 
ENDROOT
BRANCH   1   2
ATOM      2  C   UNL A   1      32.033  22.311  23.804  1.00  0.00     0.188 C 
BRANCH   2   3
ATOM      3  O   UNL A   1      32.360  22.473  22.430  1.00  0.00    -0.376 OA
BRANCH   3   4
ATOM      4  C   UNL A   1      33.297  23.499  22.107  1.00  0.00     0.202 C 
BRANCH   4   5
ATOM      5  C   UNL A   1      32.727  24.902  21.837  1.00  0.00     0.261 C 
BRANCH   5   6
ATOM      6  O   UNL A   1      33.730  25.924  21.638  1.00  0.00    -0.462 OA
BRANCH   6   7
ATOM      7  C   UNL A   1      33.663  26.966  22.507  1.00  0.00     0.329 C 
ATOM      8  O   UNL A   1      34.071  28.095  22.246  1.00  0.00    -0.250 OA
BRANCH   7   9
ATOM      9  C   UNL A   1      33.058  26.621  23.881  1.00  0.00     0.197 C 
ATOM     10  C   UNL A   1      33.857  25.899  24.966  1.00  0.00     0.044 C 
BRANCH   9  11
ATOM     11  N   UNL A   1      32.330  27.825  24.287  1.00  0.00    -0.291 N 
ATOM     12  C   UNL A   1      33.907  31.565  28.330  1.00  0.00     0.044 C 
ATOM     13  C   UNL A   1      33.586  30.616  27.210  1.00  0.00    -0.046 A 
ATOM     14  C   UNL A   1      32.377  30.773  26.514  1.00  0.00     0.034 A 
ATOM     15  C   UNL A   1      34.485  29.626  26.789  1.00  0.00    -0.046 A 
ATOM     16  C   UNL A   1      32.004  29.902  25.487  1.00  0.00     0.088 A 
ATOM     17  C   UNL A   1      34.125  28.787  25.720  1.00  0.00     0.032 A 
ATOM     18  C   UNL A   1      35.809  29.405  27.471  1.00  0.00     0.044 C 
ATOM     19  N   UNL A   1      30.820  30.183  24.785  1.00  0.00    -0.236 NA
ATOM     20  C   UNL A   1      32.852  28.839  25.140  1.00  0.00     0.071 A 
ATOM     21  C   UNL A   1      30.399  29.300  23.919  1.00  0.00     0.210 A 
ATOM     22  C   UNL A   1      31.032  27.950  23.783  1.00  0.00     0.282 A 
ATOM     23  O   UNL A   1      30.393  27.049  23.259  1.00  0.00    -0.267 OA
BRANCH  21  24
ATOM     24  C   UNL A   1      29.239  29.541  22.994  1.00  0.00     0.438 C 
ATOM     25  F   UNL A   1      29.538  29.251  21.700  1.00  0.00    -0.164 F 
ATOM     26  F   UNL A   1      28.170  28.747  23.313  1.00  0.00    -0.164 F 
ATOM     27  F   UNL A   1      28.747  30.810  23.016  1.00  0.00    -0.164 F 
ENDBRANCH  21  24
ENDBRANCH   9  11
ENDBRANCH   7   9
ENDBRANCH   6   7
ENDBRANCH   5   6
ENDBRANCH   4   5
ENDBRANCH   3   4
ENDBRANCH   2   3
ENDBRANCH   1   2
BRANCH   1  28
ATOM     28  O   UNL A   1      33.678  21.026  25.211  1.00  0.00    -0.376 OA
BRANCH  28  29
ATOM     29  C   UNL A   1      35.009  20.666  24.834  1.00  0.00     0.202 C 
BRANCH  29  30
ATOM     30  C   UNL A   1      36.101  21.757  24.675  1.00  0.00     0.261 C 
BRANCH  30  31
ATOM     31  O   UNL A   1      36.917  22.103  25.818  1.00  0.00    -0.460 OA
BRANCH  31  32
ATOM     32  C   UNL A   1      38.223  21.738  25.839  1.00  0.00     0.338 C 
ATOM     33  O   UNL A   1      38.700  20.792  25.229  1.00  0.00    -0.246 OA
BRANCH  32  34
ATOM     34  C   UNL A   1      39.024  22.852  26.455  1.00  0.00     0.060 A 
ATOM     35  C   UNL A   1      40.156  22.616  27.243  1.00  0.00     0.016 A 
ATOM     36  C   UNL A   1      38.542  24.169  26.346  1.00  0.00     0.016 A 
ATOM     37  C   UNL A   1      40.812  23.686  27.878  1.00  0.00     0.010 A 
ATOM     38  C   UNL A   1      39.196  25.237  26.987  1.00  0.00     0.010 A 
ATOM     39  C   UNL A   1      40.355  25.013  27.741  1.00  0.00    -0.014 A 
BRANCH  39  40
ATOM     40  C   UNL A   1      41.218  26.144  28.202  1.00  0.00     0.031 A 
ATOM     41  C   UNL A   1      42.652  26.327  27.777  1.00  0.00     0.074 A 
ATOM     42  C   UNL A   1      40.665  27.047  29.041  1.00  0.00     0.049 A 
ATOM     43  N   UNL A   1      43.438  27.356  27.983  1.00  0.00    -0.248 NA
ATOM     44  C   UNL A   1      43.291  25.227  27.043  1.00  0.00     0.031 C 
ATOM     45  C   UNL A   1      39.311  26.950  29.591  1.00  0.00     0.029 A 
ATOM     46  N   UNL A   1      41.152  28.219  29.565  1.00  0.00    -0.354 N 
ATOM     47  C   UNL A   1      44.658  27.043  27.388  1.00  0.00     0.074 A 
ATOM     48  C   UNL A   1      44.518  25.704  26.851  1.00  0.00     0.031 C 
ATOM     49  C   UNL A   1      39.061  28.037  30.336  1.00  0.00     0.029 A 
ATOM     50  C   UNL A   1      40.238  28.900  30.336  1.00  0.00     0.049 A 
ATOM     51  H   UNL A   1      42.069  28.542  29.403  1.00  0.00     0.167 HD
ATOM     52  C   UNL A   1      45.771  27.813  27.271  1.00  0.00     0.034 A 
ATOM     53  C   UNL A   1      40.320  30.095  30.959  1.00  0.00     0.034 A 
ATOM     54  C   UNL A   1      45.904  29.148  27.806  1.00  0.00     0.049 A 
ATOM     55  C   UNL A   1      41.573  30.917  30.819  1.00  0.00     0.074 A 
ATOM     56  C   UNL A   1      46.975  30.018  27.679  1.00  0.00     0.029 A 
ATOM     57  N   UNL A   1      44.954  29.802  28.573  1.00  0.00    -0.354 N 
ATOM     58  N   UNL A   1      42.638  30.679  30.096  1.00  0.00    -0.248 NA
ATOM     59  C   UNL A   1      41.622  32.190  31.556  1.00  0.00     0.031 C 
ATOM     60  C   UNL A   1      46.686  31.184  28.392  1.00  0.00     0.029 A 
ATOM     61  C   UNL A   1      45.421  31.055  28.939  1.00  0.00     0.049 A 
ATOM     62  H   UNL A   1      44.076  29.432  28.822  1.00  0.00     0.167 HD
ATOM     63  C   UNL A   1      43.467  31.783  30.264  1.00  0.00     0.074 A 
ATOM     64  C   UNL A   1      42.769  32.704  31.135  1.00  0.00     0.031 C 
ATOM     65  C   UNL A   1      44.705  32.001  29.757  1.00  0.00     0.034 A 
BRANCH  52  66
ATOM     66  C   UNL A   1      46.930  27.294  26.449  1.00  0.00     0.023 A 
ATOM     67  C   UNL A   1      47.676  26.207  26.948  1.00  0.00     0.012 A 
ATOM     68  C   UNL A   1      47.166  27.743  25.131  1.00  0.00     0.148 A 
ATOM     69  C   UNL A   1      48.646  25.585  26.162  1.00  0.00     0.002 A 
ATOM     70  C   UNL A   1      48.106  27.090  24.338  1.00  0.00     0.091 A 
ATOM     71  F   UNL A   1      46.442  28.772  24.669  1.00  0.00    -0.205 F 
ATOM     72  C   UNL A   1      48.851  26.018  24.854  1.00  0.00     0.022 A 
BRANCH  70  73
ATOM     73  S   UNL A   1      48.384  27.498  22.608  1.00  0.00     0.127 S 
ATOM     74  O   UNL A   1      49.625  28.268  22.682  1.00  0.00    -0.237 OA
ATOM     75  O   UNL A   1      48.524  26.175  22.000  1.00  0.00    -0.237 OA
ATOM     76  O   UNL A   1      47.214  28.250  22.177  1.00  0.00    -0.744 OA
ENDBRANCH  70  73
ENDBRANCH  52  66
BRANCH  53  77
ATOM     77  C   UNL A   1      39.141  30.634  31.698  1.00  0.00     0.023 A 
ATOM     78  C   UNL A   1      38.935  30.248  33.038  1.00  0.00     0.012 A 
ATOM     79  C   UNL A   1      38.236  31.531  31.097  1.00  0.00     0.148 A 
ATOM     80  C   UNL A   1      37.831  30.716  33.752  1.00  0.00     0.002 A 
ATOM     81  C   UNL A   1      37.173  32.040  31.833  1.00  0.00     0.091 A 
ATOM     82  F   UNL A   1      38.442  31.877  29.818  1.00  0.00    -0.205 F 
ATOM     83  C   UNL A   1      36.956  31.618  33.154  1.00  0.00     0.022 A 
BRANCH  81  84
ATOM     84  S   UNL A   1      36.078  33.310  31.192  1.00  0.00     0.127 S 
ATOM     85  O   UNL A   1      34.765  32.708  31.406  1.00  0.00    -0.237 OA
ATOM     86  O   UNL A   1      36.388  34.443  32.064  1.00  0.00    -0.237 OA
ATOM     87  O   UNL A   1      36.467  33.499  29.801  1.00  0.00    -0.744 OA
ENDBRANCH  81  84
ENDBRANCH  53  77
BRANCH  65  88
ATOM     88  C   UNL A   1      45.409  33.288  30.109  1.00  0.00     0.023 A 
ATOM     89  C   UNL A   1      46.285  33.321  31.212  1.00  0.00     0.012 A 
ATOM     90  C   UNL A   1      45.308  34.421  29.275  1.00  0.00     0.148 A 
ATOM     91  C   UNL A   1      47.038  34.462  31.489  1.00  0.00     0.002 A 
ATOM     92  C   UNL A   1      46.100  35.537  29.527  1.00  0.00     0.091 A 
ATOM     93  F   UNL A   1      44.460  34.377  28.237  1.00  0.00    -0.205 F 
ATOM     94  C   UNL A   1      46.957  35.562  30.638  1.00  0.00     0.022 A 
BRANCH  92  95
ATOM     95  S   UNL A   1      46.148  36.965  28.435  1.00  0.00     0.127 S 
ATOM     96  O   UNL A   1      45.556  38.004  29.278  1.00  0.00    -0.237 OA
ATOM     97  O   UNL A   1      47.582  37.118  28.194  1.00  0.00    -0.237 OA
ATOM     98  O   UNL A   1      45.365  36.605  27.261  1.00  0.00    -0.744 OA
ENDBRANCH  92  95
ENDBRANCH  65  88
ENDBRANCH  39  40
ENDBRANCH  32  34
ENDBRANCH  31  32
ENDBRANCH  30  31
ENDBRANCH  29  30
ENDBRANCH  28  29
ENDBRANCH   1  28
TORSDOF 22
ENDMDL
MODEL 3
REMARK VINA RESULT:     -10.3      5.687      9.399
REMARK SMILES Cc1cc2nc(C(F)(F)F)c(=O)n([C@H](C)C(=O)OCCOCCOCCOC(=O)c3ccc(-c4c5nc(c(-c6cccc(S(=O)(=O)[O-])c6F)c6ccc([nH]6)c(-c6cccc(S(=O)(=O)[O-])c6F)c6nc(c(-c7cccc(S(=O)(=O)[O-])c7F)c7ccc4[nH]7)C=C6)C=C5)cc3)c2cc1C
REMARK SMILES IDX 23 1 22 2 21 3 20 4 19 5 18 6 16 7 17 8 14 9 15 10 13 11
REMARK SMILES IDX 1 12 2 13 3 14 95 15 4 16 94 17 96 18 5 19 93 20 6 21 11 22
REMARK SMILES IDX 12 23 7 24 8 25 9 26 10 27 24 28 25 29 26 30 27 31 28 32
REMARK SMILES IDX 29 33 30 34 31 35 92 36 32 37 91 38 33 39 34 40 35 41 85 42
REMARK SMILES IDX 36 43 90 44 84 45 86 46 37 47 89 48 83 49 82 50 38 52 70 53
REMARK SMILES IDX 50 54 69 55 51 56 54 57 68 58 87 59 52 60 53 61 67 63 88 64
REMARK SMILES IDX 55 65 39 66 40 67 48 68 41 69 43 70 49 71 42 72 44 73 45 74
REMARK SMILES IDX 46 75 47 76 71 77 72 78 80 79 73 80 75 81 81 82 74 83 76 84
REMARK SMILES IDX 77 85 78 86 79 87 56 88 57 89 65 90 58 91 60 92 66 93 59 94
REMARK SMILES IDX 61 95 62 96 63 97 64 98
REMARK H PARENT 86 51 54 62
REMARK Flexibility Score: inf
ROOT
ATOM      1  C   UNL A   1      34.451  34.277  28.620  1.00  0.00     0.188 C 
ENDROOT
BRANCH   1   2
ATOM      2  C   UNL A   1      35.447  33.226  28.131  1.00  0.00     0.188 C 
BRANCH   2   3
ATOM      3  O   UNL A   1      34.889  32.010  27.650  1.00  0.00    -0.376 OA
BRANCH   3   4
ATOM      4  C   UNL A   1      35.535  30.802  28.049  1.00  0.00     0.202 C 
BRANCH   4   5
ATOM      5  C   UNL A   1      35.152  29.522  27.286  1.00  0.00     0.261 C 
BRANCH   5   6
ATOM      6  O   UNL A   1      33.921  29.622  26.535  1.00  0.00    -0.462 OA
BRANCH   6   7
ATOM      7  C   UNL A   1      33.497  28.457  25.979  1.00  0.00     0.329 C 
ATOM      8  O   UNL A   1      34.002  27.963  24.973  1.00  0.00    -0.250 OA
BRANCH   7   9
ATOM      9  C   UNL A   1      32.296  27.803  26.687  1.00  0.00     0.197 C 
ATOM     10  C   UNL A   1      31.517  28.512  27.795  1.00  0.00     0.044 C 
BRANCH   9  11
ATOM     11  N   UNL A   1      31.510  27.193  25.613  1.00  0.00    -0.291 N 
ATOM     12  C   UNL A   1      27.904  29.888  22.069  1.00  0.00     0.044 C 
ATOM     13  C   UNL A   1      28.935  29.241  22.952  1.00  0.00    -0.046 A 
ATOM     14  C   UNL A   1      29.116  27.852  22.876  1.00  0.00     0.034 A 
ATOM     15  C   UNL A   1      29.772  29.988  23.793  1.00  0.00    -0.046 A 
ATOM     16  C   UNL A   1      30.033  27.187  23.695  1.00  0.00     0.088 A 
ATOM     17  C   UNL A   1      30.728  29.317  24.574  1.00  0.00     0.032 A 
ATOM     18  C   UNL A   1      29.654  31.484  23.916  1.00  0.00     0.044 C 
ATOM     19  N   UNL A   1      30.213  25.808  23.494  1.00  0.00    -0.236 NA
ATOM     20  C   UNL A   1      30.792  27.920  24.621  1.00  0.00     0.071 A 
ATOM     21  C   UNL A   1      30.964  25.160  24.344  1.00  0.00     0.210 A 
ATOM     22  C   UNL A   1      31.485  25.795  25.596  1.00  0.00     0.282 A 
ATOM     23  O   UNL A   1      31.843  25.075  26.517  1.00  0.00    -0.267 OA
BRANCH  21  24
ATOM     24  C   UNL A   1      31.364  23.722  24.161  1.00  0.00     0.438 C 
ATOM     25  F   UNL A   1      32.710  23.543  24.246  1.00  0.00    -0.164 F 
ATOM     26  F   UNL A   1      30.823  22.924  25.133  1.00  0.00    -0.164 F 
ATOM     27  F   UNL A   1      30.960  23.163  22.988  1.00  0.00    -0.164 F 
ENDBRANCH  21  24
ENDBRANCH   9  11
ENDBRANCH   7   9
ENDBRANCH   6   7
ENDBRANCH   5   6
ENDBRANCH   4   5
ENDBRANCH   3   4
ENDBRANCH   2   3
ENDBRANCH   1   2
BRANCH   1  28
ATOM     28  O   UNL A   1      34.391  35.500  27.908  1.00  0.00    -0.376 OA
BRANCH  28  29
ATOM     29  C   UNL A   1      33.699  36.582  28.535  1.00  0.00     0.202 C 
BRANCH  29  30
ATOM     30  C   UNL A   1      32.625  36.302  29.621  1.00  0.00     0.261 C 
BRANCH  30  31
ATOM     31  O   UNL A   1      32.817  36.839  30.949  1.00  0.00    -0.460 OA
BRANCH  31  32
ATOM     32  C   UNL A   1      32.491  36.083  32.027  1.00  0.00     0.338 C 
ATOM     33  O   UNL A   1      31.358  35.921  32.458  1.00  0.00    -0.246 OA
BRANCH  32  34
ATOM     34  C   UNL A   1      33.677  35.235  32.397  1.00  0.00     0.060 A 
ATOM     35  C   UNL A   1      34.985  35.573  32.031  1.00  0.00     0.016 A 
ATOM     36  C   UNL A   1      33.451  33.994  33.017  1.00  0.00     0.016 A 
ATOM     37  C   UNL A   1      36.048  34.697  32.315  1.00  0.00     0.010 A 
ATOM     38  C   UNL A   1      34.515  33.116  33.295  1.00  0.00     0.010 A 
ATOM     39  C   UNL A   1      35.831  33.468  32.970  1.00  0.00    -0.014 A 
BRANCH  39  40
ATOM     40  C   UNL A   1      36.999  32.691  33.492  1.00  0.00     0.031 A 
ATOM     41  C   UNL A   1      37.621  31.527  32.764  1.00  0.00     0.074 A 
ATOM     42  C   UNL A   1      37.517  33.071  34.680  1.00  0.00     0.049 A 
ATOM     43  N   UNL A   1      38.732  30.892  33.043  1.00  0.00    -0.248 NA
ATOM     44  C   UNL A   1      36.913  31.002  31.589  1.00  0.00     0.031 C 
ATOM     45  C   UNL A   1      36.967  34.133  35.526  1.00  0.00     0.029 A 
ATOM     46  N   UNL A   1      38.616  32.630  35.375  1.00  0.00    -0.354 N 
ATOM     47  C   UNL A   1      38.875  29.905  32.071  1.00  0.00     0.074 A 
ATOM     48  C   UNL A   1      37.706  30.000  31.219  1.00  0.00     0.031 C 
ATOM     49  C   UNL A   1      37.754  34.290  36.600  1.00  0.00     0.029 A 
ATOM     50  C   UNL A   1      38.853  33.333  36.535  1.00  0.00     0.049 A 
ATOM     51  H   UNL A   1      39.182  31.883  35.072  1.00  0.00     0.167 HD
ATOM     52  C   UNL A   1      39.898  29.031  31.889  1.00  0.00     0.034 A 
ATOM     53  C   UNL A   1      39.852  33.240  37.438  1.00  0.00     0.034 A 
ATOM     54  C   UNL A   1      41.062  28.942  32.740  1.00  0.00     0.049 A 
ATOM     55  C   UNL A   1      40.964  32.251  37.212  1.00  0.00     0.074 A 
ATOM     56  C   UNL A   1      42.172  28.125  32.589  1.00  0.00     0.029 A 
ATOM     57  N   UNL A   1      41.266  29.674  33.897  1.00  0.00    -0.354 N 
ATOM     58  N   UNL A   1      41.169  31.462  36.187  1.00  0.00    -0.248 NA
ATOM     59  C   UNL A   1      42.001  32.164  38.253  1.00  0.00     0.031 C 
ATOM     60  C   UNL A   1      43.032  28.343  33.669  1.00  0.00     0.029 A 
ATOM     61  C   UNL A   1      42.474  29.318  34.478  1.00  0.00     0.049 A 
ATOM     62  H   UNL A   1      40.646  30.349  34.256  1.00  0.00     0.167 HD
ATOM     63  C   UNL A   1      42.372  30.811  36.443  1.00  0.00     0.074 A 
ATOM     64  C   UNL A   1      42.864  31.318  37.706  1.00  0.00     0.031 C 
ATOM     65  C   UNL A   1      42.997  29.863  35.705  1.00  0.00     0.034 A 
BRANCH  52  66
ATOM     66  C   UNL A   1      39.886  28.143  30.663  1.00  0.00     0.023 A 
ATOM     67  C   UNL A   1      39.037  27.018  30.656  1.00  0.00     0.012 A 
ATOM     68  C   UNL A   1      40.554  28.508  29.475  1.00  0.00     0.148 A 
ATOM     69  C   UNL A   1      38.862  26.261  29.497  1.00  0.00     0.002 A 
ATOM     70  C   UNL A   1      40.342  27.773  28.311  1.00  0.00     0.091 A 
ATOM     71  F   UNL A   1      41.351  29.586  29.496  1.00  0.00    -0.205 F 
ATOM     72  C   UNL A   1      39.504  26.647  28.323  1.00  0.00     0.022 A 
BRANCH  70  73
ATOM     73  S   UNL A   1      41.039  28.235  26.718  1.00  0.00     0.127 S 
ATOM     74  O   UNL A   1      40.991  26.965  25.995  1.00  0.00    -0.237 OA
ATOM     75  O   UNL A   1      40.084  29.239  26.246  1.00  0.00    -0.237 OA
ATOM     76  O   UNL A   1      42.376  28.742  26.992  1.00  0.00    -0.744 OA
ENDBRANCH  70  73
ENDBRANCH  52  66
BRANCH  53  77
ATOM     77  C   UNL A   1      39.898  34.176  38.599  1.00  0.00     0.023 A 
ATOM     78  C   UNL A   1      40.655  35.361  38.497  1.00  0.00     0.012 A 
ATOM     79  C   UNL A   1      39.192  33.915  39.790  1.00  0.00     0.148 A 
ATOM     80  C   UNL A   1      40.738  36.248  39.571  1.00  0.00     0.002 A 
ATOM     81  C   UNL A   1      39.230  34.833  40.834  1.00  0.00     0.091 A 
ATOM     82  F   UNL A   1      38.488  32.778  39.873  1.00  0.00    -0.205 F 
ATOM     83  C   UNL A   1      40.019  35.989  40.735  1.00  0.00     0.022 A 
BRANCH  81  84
ATOM     84  S   UNL A   1      38.229  34.652  42.312  1.00  0.00     0.127 S 
ATOM     85  O   UNL A   1      38.580  35.855  43.060  1.00  0.00    -0.237 OA
ATOM     86  O   UNL A   1      36.874  34.642  41.759  1.00  0.00    -0.237 OA
ATOM     87  O   UNL A   1      38.641  33.390  42.914  1.00  0.00    -0.744 OA
ENDBRANCH  81  84
ENDBRANCH  53  77
BRANCH  65  88
ATOM     88  C   UNL A   1      44.298  29.295  36.217  1.00  0.00     0.023 A 
ATOM     89  C   UNL A   1      45.499  29.994  35.986  1.00  0.00     0.012 A 
ATOM     90  C   UNL A   1      44.315  28.146  37.035  1.00  0.00     0.148 A 
ATOM     91  C   UNL A   1      46.698  29.554  36.548  1.00  0.00     0.002 A 
ATOM     92  C   UNL A   1      45.504  27.743  37.634  1.00  0.00     0.091 A 
ATOM     93  F   UNL A   1      43.165  27.485  37.233  1.00  0.00    -0.205 F 
ATOM     94  C   UNL A   1      46.697  28.439  37.383  1.00  0.00     0.022 A 
BRANCH  92  95
ATOM     95  S   UNL A   1      45.592  26.383  38.807  1.00  0.00     0.127 S 
ATOM     96  O   UNL A   1      46.992  26.441  39.227  1.00  0.00    -0.237 OA
ATOM     97  O   UNL A   1      44.631  26.797  39.828  1.00  0.00    -0.237 OA
ATOM     98  O   UNL A   1      45.221  25.185  38.067  1.00  0.00    -0.744 OA
ENDBRANCH  92  95
ENDBRANCH  65  88
ENDBRANCH  39  40
ENDBRANCH  32  34
ENDBRANCH  31  32
ENDBRANCH  30  31
ENDBRANCH  29  30
ENDBRANCH  28  29
ENDBRANCH   1  28
TORSDOF 22
ENDMDL
