MODEL 1
REMARK VINA RESULT:      -9.9      0.000      0.000
REMARK SMILES O=C(OCCOCCOCCOC(=O)c1ccccc1C(=O)Nc1ccc(N2C(=O)[C@H]3[C@@H]4CC[C@@H](C4)[C@@H]3C2=O)cc1)c1ccc(-c2c3nc(c(-c4cccc(S(=O)(=O)[O-])c4F)c4ccc([nH]4)c(-c4cccc(S(=O)(=O)[O-])c4F)c4nc(c(-c5cccc(S(=O)(=O)[O-])c5F)c5ccc2[nH]5)C=C4)C=C3)cc1
REMARK SMILES IDX 7 1 6 2 5 3 4 4 3 5 2 6 1 7 42 8 43 9 104 10 44 11 103 12
REMARK SMILES IDX 45 13 46 14 47 15 97 16 48 17 102 18 96 19 98 20 49 21
REMARK SMILES IDX 101 22 95 23 94 24 50 26 82 27 62 28 81 29 63 30 66 31 80 32
REMARK SMILES IDX 99 33 64 34 65 35 79 37 100 38 67 39 51 40 52 41 60 42 53 43
REMARK SMILES IDX 55 44 61 45 54 46 56 47 57 48 58 49 59 50 83 51 84 52 92 53
REMARK SMILES IDX 85 54 87 55 93 56 86 57 88 58 89 59 90 60 91 61 68 62 69 63
REMARK SMILES IDX 77 64 70 65 72 66 78 67 71 68 73 69 74 70 75 71 76 72 8 73
REMARK SMILES IDX 9 74 10 75 11 76 12 77 13 78 14 79 15 80 16 81 20 82 17 83
REMARK SMILES IDX 19 84 18 85 21 86 22 87 23 88 24 90 25 91 41 92 26 93 40 94
REMARK SMILES IDX 27 95 28 96 29 97 38 98 30 99 31 100 37 101 39 102 32 103
REMARK SMILES IDX 35 104 33 105 36 106 34 107
REMARK H PARENT 98 25 66 36 23 89
REMARK Flexibility Score: inf
ROOT
ATOM      1  C   UNL A   1      45.377  43.397  30.956  1.00  0.00     0.188 C 
ENDROOT
BRANCH   1   2
ATOM      2  O   UNL A   1      44.818  43.170  32.274  1.00  0.00    -0.376 OA
BRANCH   2   3
ATOM      3  C   UNL A   1      43.409  42.845  32.320  1.00  0.00     0.202 C 
BRANCH   3   4
ATOM      4  C   UNL A   1      42.799  42.352  33.630  1.00  0.00     0.261 C 
BRANCH   4   5
ATOM      5  O   UNL A   1      42.624  40.938  33.610  1.00  0.00    -0.460 OA
BRANCH   5   6
ATOM      6  C   UNL A   1      43.546  40.051  34.059  1.00  0.00     0.338 C 
ATOM      7  O   UNL A   1      44.196  40.303  35.068  1.00  0.00    -0.246 OA
BRANCH   6   8
ATOM      8  C   UNL A   1      43.682  38.716  33.417  1.00  0.00     0.060 A 
ATOM      9  C   UNL A   1      43.823  38.543  32.042  1.00  0.00     0.016 A 
ATOM     10  C   UNL A   1      43.706  37.587  34.234  1.00  0.00     0.016 A 
ATOM     11  C   UNL A   1      43.812  37.282  31.462  1.00  0.00     0.010 A 
ATOM     12  C   UNL A   1      43.810  36.313  33.664  1.00  0.00     0.010 A 
ATOM     13  C   UNL A   1      43.814  36.148  32.268  1.00  0.00    -0.014 A 
BRANCH  13  14
ATOM     14  C   UNL A   1      43.681  34.807  31.650  1.00  0.00     0.031 A 
ATOM     15  C   UNL A   1      44.907  34.180  31.063  1.00  0.00     0.074 A 
ATOM     16  C   UNL A   1      42.518  34.127  31.672  1.00  0.00     0.049 A 
ATOM     17  N   UNL A   1      45.008  33.160  30.258  1.00  0.00    -0.248 NA
ATOM     18  C   UNL A   1      46.196  34.802  31.416  1.00  0.00     0.031 C 
ATOM     19  C   UNL A   1      41.292  34.575  32.326  1.00  0.00     0.029 A 
ATOM     20  N   UNL A   1      42.181  32.904  31.148  1.00  0.00    -0.354 N 
ATOM     21  C   UNL A   1      46.351  33.092  29.916  1.00  0.00     0.074 A 
ATOM     22  C   UNL A   1      47.036  34.141  30.636  1.00  0.00     0.031 C 
ATOM     23  C   UNL A   1      40.352  33.625  32.213  1.00  0.00     0.029 A 
ATOM     24  C   UNL A   1      40.873  32.543  31.385  1.00  0.00     0.049 A 
ATOM     25  H   UNL A   1      42.814  32.338  30.649  1.00  0.00     0.167 HD
ATOM     26  C   UNL A   1      46.949  32.233  29.063  1.00  0.00     0.034 A 
ATOM     27  C   UNL A   1      40.168  31.480  30.949  1.00  0.00     0.034 A 
ATOM     28  C   UNL A   1      46.261  31.142  28.436  1.00  0.00     0.049 A 
ATOM     29  C   UNL A   1      40.863  30.508  30.032  1.00  0.00     0.074 A 
ATOM     30  C   UNL A   1      46.730  30.241  27.501  1.00  0.00     0.029 A 
ATOM     31  N   UNL A   1      44.951  30.784  28.723  1.00  0.00    -0.354 N 
ATOM     32  N   UNL A   1      42.112  30.506  29.628  1.00  0.00    -0.248 NA
ATOM     33  C   UNL A   1      40.057  29.402  29.496  1.00  0.00     0.031 C 
ATOM     34  C   UNL A   1      45.704  29.326  27.233  1.00  0.00     0.029 A 
ATOM     35  C   UNL A   1      44.597  29.661  28.003  1.00  0.00     0.049 A 
ATOM     36  H   UNL A   1      44.360  31.262  29.349  1.00  0.00     0.167 HD
ATOM     37  C   UNL A   1      42.245  29.406  28.791  1.00  0.00     0.074 A 
ATOM     38  C   UNL A   1      40.957  28.740  28.777  1.00  0.00     0.031 C 
ATOM     39  C   UNL A   1      43.318  29.002  28.066  1.00  0.00     0.034 A 
BRANCH  26  40
ATOM     40  C   UNL A   1      48.399  32.480  28.763  1.00  0.00     0.023 A 
ATOM     41  C   UNL A   1      49.395  31.851  29.535  1.00  0.00     0.012 A 
ATOM     42  C   UNL A   1      48.772  33.387  27.752  1.00  0.00     0.148 A 
ATOM     43  C   UNL A   1      50.742  32.149  29.325  1.00  0.00     0.002 A 
ATOM     44  C   UNL A   1      50.117  33.655  27.530  1.00  0.00     0.091 A 
ATOM     45  F   UNL A   1      47.806  34.007  27.059  1.00  0.00    -0.205 F 
ATOM     46  C   UNL A   1      51.104  33.044  28.321  1.00  0.00     0.022 A 
BRANCH  44  47
ATOM     47  S   UNL A   1      50.669  34.774  26.238  1.00  0.00     0.127 S 
ATOM     48  O   UNL A   1      50.074  36.039  26.665  1.00  0.00    -0.237 OA
ATOM     49  O   UNL A   1      52.126  34.711  26.370  1.00  0.00    -0.237 OA
ATOM     50  O   UNL A   1      50.154  34.222  24.992  1.00  0.00    -0.744 OA
ENDBRANCH  44  47
ENDBRANCH  26  40
BRANCH  27  51
ATOM     51  C   UNL A   1      38.753  31.286  31.386  1.00  0.00     0.023 A 
ATOM     52  C   UNL A   1      38.479  30.497  32.520  1.00  0.00     0.012 A 
ATOM     53  C   UNL A   1      37.680  31.937  30.745  1.00  0.00     0.148 A 
ATOM     54  C   UNL A   1      37.173  30.359  33.000  1.00  0.00     0.002 A 
ATOM     55  C   UNL A   1      36.393  31.855  31.271  1.00  0.00     0.091 A 
ATOM     56  F   UNL A   1      37.928  32.660  29.643  1.00  0.00    -0.205 F 
ATOM     57  C   UNL A   1      36.131  31.053  32.388  1.00  0.00     0.022 A 
BRANCH  55  58
ATOM     58  S   UNL A   1      35.085  32.896  30.612  1.00  0.00     0.127 S 
ATOM     59  O   UNL A   1      35.751  34.187  30.475  1.00  0.00    -0.237 OA
ATOM     60  O   UNL A   1      34.747  32.245  29.344  1.00  0.00    -0.237 OA
ATOM     61  O   UNL A   1      34.027  32.807  31.614  1.00  0.00    -0.744 OA
ENDBRANCH  55  58
ENDBRANCH  27  51
BRANCH  39  62
ATOM     62  C   UNL A   1      43.141  27.788  27.201  1.00  0.00     0.023 A 
ATOM     63  C   UNL A   1      42.735  27.956  25.864  1.00  0.00     0.012 A 
ATOM     64  C   UNL A   1      43.475  26.507  27.675  1.00  0.00     0.148 A 
ATOM     65  C   UNL A   1      42.654  26.858  25.009  1.00  0.00     0.002 A 
ATOM     66  C   UNL A   1      43.421  25.422  26.808  1.00  0.00     0.091 A 
ATOM     67  F   UNL A   1      43.834  26.366  28.960  1.00  0.00    -0.205 F 
ATOM     68  C   UNL A   1      43.008  25.595  25.477  1.00  0.00     0.022 A 
BRANCH  66  69
ATOM     69  S   UNL A   1      43.947  23.789  27.336  1.00  0.00     0.127 S 
ATOM     70  O   UNL A   1      43.826  23.018  26.101  1.00  0.00    -0.237 OA
ATOM     71  O   UNL A   1      45.324  24.018  27.778  1.00  0.00    -0.237 OA
ATOM     72  O   UNL A   1      43.032  23.423  28.410  1.00  0.00    -0.744 OA
ENDBRANCH  66  69
ENDBRANCH  39  62
ENDBRANCH  13  14
ENDBRANCH   6   8
ENDBRANCH   5   6
ENDBRANCH   4   5
ENDBRANCH   3   4
ENDBRANCH   2   3
ENDBRANCH   1   2
BRANCH   1  73
ATOM     73  C   UNL A   1      44.585  44.326  29.852  1.00  0.00     0.188 C 
BRANCH  73  74
ATOM     74  O   UNL A   1      45.202  44.566  28.545  1.00  0.00    -0.376 OA
BRANCH  74  75
ATOM     75  C   UNL A   1      46.615  44.301  28.184  1.00  0.00     0.202 C 
BRANCH  75  76
ATOM     76  C   UNL A   1      47.542  45.380  27.037  1.00  0.00     0.261 C 
BRANCH  76  77
ATOM     77  O   UNL A   1      47.661  45.054  25.017  1.00  0.00    -0.460 OA
BRANCH  77  78
ATOM     78  C   UNL A   1      48.045  45.309  23.633  1.00  0.00     0.339 C 
ATOM     79  O   UNL A   1      48.660  46.348  23.375  1.00  0.00    -0.246 OA
BRANCH  78  80
ATOM     80  C   UNL A   1      47.620  44.453  22.408  1.00  0.00     0.072 A 
ATOM     81  C   UNL A   1      48.605  43.685  21.741  1.00  0.00     0.016 A 
ATOM     82  C   UNL A   1      46.304  44.352  21.916  1.00  0.00     0.054 A 
ATOM     83  C   UNL A   1      48.283  42.772  20.717  1.00  0.00     0.001 A 
ATOM     84  C   UNL A   1      45.986  43.403  20.910  1.00  0.00     0.015 A 
ATOM     85  C   UNL A   1      46.963  42.601  20.329  1.00  0.00     0.001 A 
BRANCH  82  86
ATOM     86  C   UNL A   1      45.161  45.192  22.335  1.00  0.00     0.256 C 
ATOM     87  O   UNL A   1      45.086  46.355  21.940  1.00  0.00    -0.269 OA
ATOM     88  N   UNL A   1      44.164  44.724  23.155  1.00  0.00    -0.322 N 
ATOM     89  H   UNL A   1      43.500  45.384  23.456  1.00  0.00     0.170 HD
BRANCH  88  90
ATOM     90  C   UNL A   1      43.991  43.419  23.608  1.00  0.00     0.041 A 
ATOM     91  C   UNL A   1      44.966  43.088  25.063  1.00  0.00     0.028 A 
ATOM     92  C   UNL A   1      42.471  42.503  23.304  1.00  0.00     0.028 A 
ATOM     93  C   UNL A   1      44.442  41.929  26.295  1.00  0.00     0.029 A 
ATOM     94  C   UNL A   1      41.883  41.373  24.624  1.00  0.00     0.029 A 
ATOM     95  C   UNL A   1      42.951  41.000  26.094  1.00  0.00     0.052 A 
BRANCH  95  96
ATOM     96  N   UNL A   1      43.034  39.670  26.751  1.00  0.00    -0.250 N 
ATOM     97  C   UNL A   1      44.183  38.841  26.826  1.00  0.00     0.237 C 
ATOM     98  C   UNL A   1      42.218  39.198  27.776  1.00  0.00     0.237 C 
ATOM     99  O   UNL A   1      45.367  39.109  26.913  1.00  0.00    -0.274 OA
ATOM    100  C   UNL A   1      43.563  37.472  26.909  1.00  0.00     0.095 C 
ATOM    101  C   UNL A   1      42.658  37.764  28.082  1.00  0.00     0.095 C 
ATOM    102  O   UNL A   1      41.403  39.807  28.451  1.00  0.00    -0.274 OA
ATOM    103  C   UNL A   1      43.793  35.957  26.997  1.00  0.00     0.002 C 
ATOM    104  C   UNL A   1      41.933  36.413  28.211  1.00  0.00     0.002 C 
ATOM    105  C   UNL A   1      42.653  35.332  26.125  1.00  0.00     0.005 C 
ATOM    106  C   UNL A   1      43.210  35.542  28.365  1.00  0.00     0.009 C 
ATOM    107  C   UNL A   1      41.380  35.794  26.893  1.00  0.00     0.005 C 
ENDBRANCH  95  96
ENDBRANCH  88  90
ENDBRANCH  82  86
ENDBRANCH  78  80
ENDBRANCH  77  78
ENDBRANCH  76  77
ENDBRANCH  75  76
ENDBRANCH  74  75
ENDBRANCH  73  74
ENDBRANCH   1  73
TORSDOF 23
ENDMDL
MODEL 2
REMARK VINA RESULT:      -9.8      8.362     17.507
REMARK SMILES O=C(OCCOCCOCCOC(=O)c1ccccc1C(=O)Nc1ccc(N2C(=O)[C@H]3[C@@H]4CC[C@@H](C4)[C@@H]3C2=O)cc1)c1ccc(-c2c3nc(c(-c4cccc(S(=O)(=O)[O-])c4F)c4ccc([nH]4)c(-c4cccc(S(=O)(=O)[O-])c4F)c4nc(c(-c5cccc(S(=O)(=O)[O-])c5F)c5ccc2[nH]5)C=C4)C=C3)cc1
REMARK SMILES IDX 7 1 6 2 5 3 4 4 3 5 2 6 1 7 42 8 43 9 104 10 44 11 103 12
REMARK SMILES IDX 45 13 46 14 47 15 97 16 48 17 102 18 96 19 98 20 49 21
REMARK SMILES IDX 101 22 95 23 94 24 50 26 82 27 62 28 81 29 63 30 66 31 80 32
REMARK SMILES IDX 99 33 64 34 65 35 79 37 100 38 67 39 51 40 52 41 60 42 53 43
REMARK SMILES IDX 55 44 61 45 54 46 56 47 57 48 58 49 59 50 83 51 84 52 92 53
REMARK SMILES IDX 85 54 87 55 93 56 86 57 88 58 89 59 90 60 91 61 68 62 69 63
REMARK SMILES IDX 77 64 70 65 72 66 78 67 71 68 73 69 74 70 75 71 76 72 8 73
REMARK SMILES IDX 9 74 10 75 11 76 12 77 13 78 14 79 15 80 16 81 20 82 17 83
REMARK SMILES IDX 19 84 18 85 21 86 22 87 23 88 24 90 25 91 41 92 26 93 40 94
REMARK SMILES IDX 27 95 28 96 29 97 38 98 30 99 31 100 37 101 39 102 32 103
REMARK SMILES IDX 35 104 33 105 36 106 34 107
REMARK H PARENT 98 25 66 36 23 89
REMARK Flexibility Score: inf
ROOT
ATOM      1  C   UNL A   1      38.643  28.750  28.674  1.00  0.00     0.188 C 
ENDROOT
BRANCH   1   2
ATOM      2  O   UNL A   1      38.377  28.144  29.964  1.00  0.00    -0.376 OA
BRANCH   2   3
ATOM      3  C   UNL A   1      37.624  28.950  30.901  1.00  0.00     0.202 C 
BRANCH   3   4
ATOM      4  C   UNL A   1      36.589  29.938  30.371  1.00  0.00     0.261 C 
BRANCH   4   5
ATOM      5  O   UNL A   1      35.691  30.338  31.403  1.00  0.00    -0.460 OA
BRANCH   5   6
ATOM      6  C   UNL A   1      35.526  31.619  31.813  1.00  0.00     0.338 C 
ATOM      7  O   UNL A   1      34.687  32.331  31.273  1.00  0.00    -0.246 OA
BRANCH   6   8
ATOM      8  C   UNL A   1      36.261  32.130  33.003  1.00  0.00     0.060 A 
ATOM      9  C   UNL A   1      35.877  33.272  33.702  1.00  0.00     0.016 A 
ATOM     10  C   UNL A   1      37.363  31.409  33.459  1.00  0.00     0.016 A 
ATOM     11  C   UNL A   1      36.659  33.797  34.722  1.00  0.00     0.010 A 
ATOM     12  C   UNL A   1      38.092  31.870  34.562  1.00  0.00     0.010 A 
ATOM     13  C   UNL A   1      37.774  33.097  35.171  1.00  0.00    -0.014 A 
BRANCH  13  14
ATOM     14  C   UNL A   1      38.674  33.713  36.176  1.00  0.00     0.031 A 
ATOM     15  C   UNL A   1      38.443  33.386  37.618  1.00  0.00     0.074 A 
ATOM     16  C   UNL A   1      39.716  34.487  35.816  1.00  0.00     0.049 A 
ATOM     17  N   UNL A   1      38.909  33.977  38.683  1.00  0.00    -0.248 NA
ATOM     18  C   UNL A   1      37.549  32.249  37.900  1.00  0.00     0.031 C 
ATOM     19  C   UNL A   1      40.119  34.772  34.442  1.00  0.00     0.029 A 
ATOM     20  N   UNL A   1      40.640  35.161  36.574  1.00  0.00    -0.354 N 
ATOM     21  C   UNL A   1      38.274  33.363  39.752  1.00  0.00     0.074 A 
ATOM     22  C   UNL A   1      37.427  32.322  39.216  1.00  0.00     0.031 C 
ATOM     23  C   UNL A   1      41.235  35.515  34.448  1.00  0.00     0.029 A 
ATOM     24  C   UNL A   1      41.569  35.852  35.827  1.00  0.00     0.049 A 
ATOM     25  H   UNL A   1      40.641  35.152  37.559  1.00  0.00     0.167 HD
ATOM     26  C   UNL A   1      38.384  33.658  41.066  1.00  0.00     0.034 A 
ATOM     27  C   UNL A   1      42.550  36.692  36.214  1.00  0.00     0.034 A 
ATOM     28  C   UNL A   1      39.303  34.632  41.578  1.00  0.00     0.049 A 
ATOM     29  C   UNL A   1      42.687  36.978  37.687  1.00  0.00     0.074 A 
ATOM     30  C   UNL A   1      39.468  35.076  42.875  1.00  0.00     0.029 A 
ATOM     31  N   UNL A   1      40.250  35.287  40.802  1.00  0.00    -0.354 N 
ATOM     32  N   UNL A   1      42.011  36.468  38.690  1.00  0.00    -0.248 NA
ATOM     33  C   UNL A   1      43.703  37.960  38.086  1.00  0.00     0.031 C 
ATOM     34  C   UNL A   1      40.528  35.990  42.885  1.00  0.00     0.029 A 
ATOM     35  C   UNL A   1      41.021  36.115  41.593  1.00  0.00     0.049 A 
ATOM     36  H   UNL A   1      40.356  35.177  39.829  1.00  0.00     0.167 HD
ATOM     37  C   UNL A   1      42.516  37.066  39.838  1.00  0.00     0.074 A 
ATOM     38  C   UNL A   1      43.584  37.948  39.408  1.00  0.00     0.031 C 
ATOM     39  C   UNL A   1      42.111  36.933  41.126  1.00  0.00     0.034 A 
BRANCH  26  40
ATOM     40  C   UNL A   1      37.465  32.927  42.000  1.00  0.00     0.023 A 
ATOM     41  C   UNL A   1      37.906  31.760  42.654  1.00  0.00     0.012 A 
ATOM     42  C   UNL A   1      36.138  33.366  42.183  1.00  0.00     0.148 A 
ATOM     43  C   UNL A   1      37.029  31.022  43.450  1.00  0.00     0.002 A 
ATOM     44  C   UNL A   1      35.280  32.641  43.000  1.00  0.00     0.091 A 
ATOM     45  F   UNL A   1      35.727  34.454  41.517  1.00  0.00    -0.205 F 
ATOM     46  C   UNL A   1      35.720  31.464  43.628  1.00  0.00     0.022 A 
BRANCH  44  47
ATOM     47  S   UNL A   1      33.587  33.158  43.305  1.00  0.00     0.127 S 
ATOM     48  O   UNL A   1      33.155  32.186  44.308  1.00  0.00    -0.237 OA
ATOM     49  O   UNL A   1      33.761  34.520  43.812  1.00  0.00    -0.237 OA
ATOM     50  O   UNL A   1      32.912  33.078  42.017  1.00  0.00    -0.744 OA
ENDBRANCH  44  47
ENDBRANCH  26  40
BRANCH  27  51
ATOM     51  C   UNL A   1      43.468  37.294  35.201  1.00  0.00     0.023 A 
ATOM     52  C   UNL A   1      43.050  38.423  34.471  1.00  0.00     0.012 A 
ATOM     53  C   UNL A   1      44.779  36.817  35.008  1.00  0.00     0.148 A 
ATOM     54  C   UNL A   1      43.914  39.057  33.572  1.00  0.00     0.002 A 
ATOM     55  C   UNL A   1      45.658  37.496  34.167  1.00  0.00     0.091 A 
ATOM     56  F   UNL A   1      45.173  35.719  35.672  1.00  0.00    -0.205 F 
ATOM     57  C   UNL A   1      45.224  38.606  33.433  1.00  0.00     0.022 A 
BRANCH  55  58
ATOM     58  S   UNL A   1      47.397  37.043  34.130  1.00  0.00     0.127 S 
ATOM     59  O   UNL A   1      47.827  37.342  35.493  1.00  0.00    -0.237 OA
ATOM     60  O   UNL A   1      47.364  35.618  33.799  1.00  0.00    -0.237 OA
ATOM     61  O   UNL A   1      47.954  37.877  33.070  1.00  0.00    -0.744 OA
ENDBRANCH  55  58
ENDBRANCH  27  51
BRANCH  39  62
ATOM     62  C   UNL A   1      42.824  37.759  42.156  1.00  0.00     0.023 A 
ATOM     63  C   UNL A   1      42.314  39.030  42.484  1.00  0.00     0.012 A 
ATOM     64  C   UNL A   1      43.922  37.242  42.865  1.00  0.00     0.148 A 
ATOM     65  C   UNL A   1      42.898  39.781  43.503  1.00  0.00     0.002 A 
ATOM     66  C   UNL A   1      44.479  37.983  43.900  1.00  0.00     0.091 A 
ATOM     67  F   UNL A   1      44.408  36.040  42.517  1.00  0.00    -0.205 F 
ATOM     68  C   UNL A   1      43.970  39.253  44.218  1.00  0.00     0.022 A 
BRANCH  66  69
ATOM     69  S   UNL A   1      45.807  37.316  44.907  1.00  0.00     0.127 S 
ATOM     70  O   UNL A   1      45.828  38.246  46.033  1.00  0.00    -0.237 OA
ATOM     71  O   UNL A   1      45.322  35.973  45.235  1.00  0.00    -0.237 OA
ATOM     72  O   UNL A   1      46.981  37.329  44.045  1.00  0.00    -0.744 OA
ENDBRANCH  66  69
ENDBRANCH  39  62
ENDBRANCH  13  14
ENDBRANCH   6   8
ENDBRANCH   5   6
ENDBRANCH   4   5
ENDBRANCH   3   4
ENDBRANCH   2   3
ENDBRANCH   1   2
BRANCH   1  73
ATOM     73  C   UNL A   1      39.714  28.068  27.626  1.00  0.00     0.188 C 
BRANCH  73  74
ATOM     74  O   UNL A   1      40.156  26.691  27.850  1.00  0.00    -0.376 OA
BRANCH  74  75
ATOM     75  C   UNL A   1      39.302  25.480  27.805  1.00  0.00     0.202 C 
BRANCH  75  76
ATOM     76  C   UNL A   1      39.146  24.459  26.297  1.00  0.00     0.261 C 
BRANCH  76  77
ATOM     77  O   UNL A   1      37.397  23.569  25.705  1.00  0.00    -0.460 OA
BRANCH  77  78
ATOM     78  C   UNL A   1      36.484  22.477  25.386  1.00  0.00     0.339 C 
ATOM     79  O   UNL A   1      36.848  21.320  25.616  1.00  0.00    -0.246 OA
BRANCH  78  80
ATOM     80  C   UNL A   1      35.132  22.624  24.636  1.00  0.00     0.072 A 
ATOM     81  C   UNL A   1      35.150  22.953  23.259  1.00  0.00     0.016 A 
ATOM     82  C   UNL A   1      33.864  22.422  25.217  1.00  0.00     0.054 A 
ATOM     83  C   UNL A   1      33.982  22.963  22.470  1.00  0.00     0.001 A 
ATOM     84  C   UNL A   1      32.700  22.398  24.407  1.00  0.00     0.015 A 
ATOM     85  C   UNL A   1      32.758  22.643  23.039  1.00  0.00     0.001 A 
BRANCH  82  86
ATOM     86  C   UNL A   1      33.597  22.251  26.662  1.00  0.00     0.256 C 
ATOM     87  O   UNL A   1      34.151  21.342  27.278  1.00  0.00    -0.269 OA
ATOM     88  N   UNL A   1      32.748  23.077  27.357  1.00  0.00    -0.322 N 
ATOM     89  H   UNL A   1      32.560  22.825  28.289  1.00  0.00     0.170 HD
BRANCH  88  90
ATOM     90  C   UNL A   1      32.123  24.228  26.887  1.00  0.00     0.041 A 
ATOM     91  C   UNL A   1      33.282  25.346  26.121  1.00  0.00     0.028 A 
ATOM     92  C   UNL A   1      30.391  24.234  26.393  1.00  0.00     0.028 A 
ATOM     93  C   UNL A   1      32.804  26.427  24.802  1.00  0.00     0.029 A 
ATOM     94  C   UNL A   1      29.921  25.285  24.965  1.00  0.00     0.029 A 
ATOM     95  C   UNL A   1      31.132  26.484  24.233  1.00  0.00     0.052 A 
BRANCH  95  96
ATOM     96  N   UNL A   1      30.768  27.829  23.717  1.00  0.00    -0.250 N 
ATOM     97  C   UNL A   1      30.908  29.060  24.408  1.00  0.00     0.237 C 
ATOM     98  C   UNL A   1      30.679  28.209  22.380  1.00  0.00     0.237 C 
ATOM     99  O   UNL A   1      31.737  29.444  25.213  1.00  0.00    -0.274 OA
ATOM    100  C   UNL A   1      29.809  29.881  23.789  1.00  0.00     0.095 C 
ATOM    101  C   UNL A   1      30.225  29.671  22.353  1.00  0.00     0.095 C 
ATOM    102  O   UNL A   1      31.032  27.599  21.383  1.00  0.00    -0.274 OA
ATOM    103  C   UNL A   1      29.067  31.224  23.758  1.00  0.00     0.002 C 
ATOM    104  C   UNL A   1      29.111  30.446  21.628  1.00  0.00     0.002 C 
ATOM    105  C   UNL A   1      27.570  30.843  23.501  1.00  0.00     0.005 C 
ATOM    106  C   UNL A   1      29.340  31.801  22.352  1.00  0.00     0.009 C 
ATOM    107  C   UNL A   1      27.653  30.167  22.101  1.00  0.00     0.005 C 
ENDBRANCH  95  96
ENDBRANCH  88  90
ENDBRANCH  82  86
ENDBRANCH  78  80
ENDBRANCH  77  78
ENDBRANCH  76  77
ENDBRANCH  75  76
ENDBRANCH  74  75
ENDBRANCH  73  74
ENDBRANCH   1  73
TORSDOF 23
ENDMDL
MODEL 3
REMARK VINA RESULT:      -9.7      1.832      2.132
REMARK SMILES O=C(OCCOCCOCCOC(=O)c1ccccc1C(=O)Nc1ccc(N2C(=O)[C@H]3[C@@H]4CC[C@@H](C4)[C@@H]3C2=O)cc1)c1ccc(-c2c3nc(c(-c4cccc(S(=O)(=O)[O-])c4F)c4ccc([nH]4)c(-c4cccc(S(=O)(=O)[O-])c4F)c4nc(c(-c5cccc(S(=O)(=O)[O-])c5F)c5ccc2[nH]5)C=C4)C=C3)cc1
REMARK SMILES IDX 7 1 6 2 5 3 4 4 3 5 2 6 1 7 42 8 43 9 104 10 44 11 103 12
REMARK SMILES IDX 45 13 46 14 47 15 97 16 48 17 102 18 96 19 98 20 49 21
REMARK SMILES IDX 101 22 95 23 94 24 50 26 82 27 62 28 81 29 63 30 66 31 80 32
REMARK SMILES IDX 99 33 64 34 65 35 79 37 100 38 67 39 51 40 52 41 60 42 53 43
REMARK SMILES IDX 55 44 61 45 54 46 56 47 57 48 58 49 59 50 83 51 84 52 92 53
REMARK SMILES IDX 85 54 87 55 93 56 86 57 88 58 89 59 90 60 91 61 68 62 69 63
REMARK SMILES IDX 77 64 70 65 72 66 78 67 71 68 73 69 74 70 75 71 76 72 8 73
REMARK SMILES IDX 9 74 10 75 11 76 12 77 13 78 14 79 15 80 16 81 20 82 17 83
REMARK SMILES IDX 19 84 18 85 21 86 22 87 23 88 24 90 25 91 41 92 26 93 40 94
REMARK SMILES IDX 27 95 28 96 29 97 38 98 30 99 31 100 37 101 39 102 32 103
REMARK SMILES IDX 35 104 33 105 36 106 34 107
REMARK H PARENT 98 25 66 36 23 89
REMARK Flexibility Score: inf
ROOT
ATOM      1  C   UNL A   1      45.219  43.207  30.661  1.00  0.00     0.188 C 
ENDROOT
BRANCH   1   2
ATOM      2  O   UNL A   1      44.707  42.892  31.981  1.00  0.00    -0.376 OA
BRANCH   2   3
ATOM      3  C   UNL A   1      43.344  42.409  32.035  1.00  0.00     0.202 C 
BRANCH   3   4
ATOM      4  C   UNL A   1      42.711  42.114  33.392  1.00  0.00     0.261 C 
BRANCH   4   5
ATOM      5  O   UNL A   1      42.475  40.718  33.551  1.00  0.00    -0.460 OA
BRANCH   5   6
ATOM      6  C   UNL A   1      43.405  39.834  33.990  1.00  0.00     0.338 C 
ATOM      7  O   UNL A   1      44.138  40.133  34.925  1.00  0.00    -0.246 OA
BRANCH   6   8
ATOM      8  C   UNL A   1      43.453  38.454  33.436  1.00  0.00     0.060 A 
ATOM      9  C   UNL A   1      43.917  38.164  32.154  1.00  0.00     0.016 A 
ATOM     10  C   UNL A   1      43.048  37.398  34.250  1.00  0.00     0.016 A 
ATOM     11  C   UNL A   1      43.823  36.887  31.618  1.00  0.00     0.010 A 
ATOM     12  C   UNL A   1      43.059  36.089  33.756  1.00  0.00     0.010 A 
ATOM     13  C   UNL A   1      43.400  35.829  32.417  1.00  0.00    -0.014 A 
BRANCH  13  14
ATOM     14  C   UNL A   1      43.186  34.492  31.813  1.00  0.00     0.031 A 
ATOM     15  C   UNL A   1      44.392  33.664  31.497  1.00  0.00     0.074 A 
ATOM     16  C   UNL A   1      41.951  33.991  31.616  1.00  0.00     0.049 A 
ATOM     17  N   UNL A   1      44.491  32.600  30.749  1.00  0.00    -0.248 NA
ATOM     18  C   UNL A   1      45.668  34.108  32.087  1.00  0.00     0.031 C 
ATOM     19  C   UNL A   1      40.704  34.646  32.001  1.00  0.00     0.029 A 
ATOM     20  N   UNL A   1      41.539  32.806  31.060  1.00  0.00    -0.354 N 
ATOM     21  C   UNL A   1      45.847  32.320  30.685  1.00  0.00     0.074 A 
ATOM     22  C   UNL A   1      46.532  33.293  31.505  1.00  0.00     0.031 C 
ATOM     23  C   UNL A   1      39.670  33.839  31.722  1.00  0.00     0.029 A 
ATOM     24  C   UNL A   1      40.170  32.652  31.038  1.00  0.00     0.049 A 
ATOM     25  H   UNL A   1      42.162  32.128  30.710  1.00  0.00     0.167 HD
ATOM     26  C   UNL A   1      46.462  31.340  29.986  1.00  0.00     0.034 A 
ATOM     27  C   UNL A   1      39.410  31.683  30.492  1.00  0.00     0.034 A 
ATOM     28  C   UNL A   1      45.750  30.331  29.257  1.00  0.00     0.049 A 
ATOM     29  C   UNL A   1      40.113  30.574  29.752  1.00  0.00     0.074 A 
ATOM     30  C   UNL A   1      46.248  29.325  28.453  1.00  0.00     0.029 A 
ATOM     31  N   UNL A   1      44.370  30.184  29.283  1.00  0.00    -0.354 N 
ATOM     32  N   UNL A   1      41.401  30.369  29.607  1.00  0.00    -0.248 NA
ATOM     33  C   UNL A   1      39.267  29.572  29.089  1.00  0.00     0.031 C 
ATOM     34  C   UNL A   1      45.166  28.558  28.005  1.00  0.00     0.029 A 
ATOM     35  C   UNL A   1      43.996  29.089  28.530  1.00  0.00     0.049 A 
ATOM     36  H   UNL A   1      43.749  30.774  29.768  1.00  0.00     0.167 HD
ATOM     37  C   UNL A   1      41.525  29.220  28.837  1.00  0.00     0.074 A 
ATOM     38  C   UNL A   1      40.177  28.750  28.579  1.00  0.00     0.031 C 
ATOM     39  C   UNL A   1      42.643  28.628  28.350  1.00  0.00     0.034 A 
BRANCH  26  40
ATOM     40  C   UNL A   1      47.962  31.358  29.978  1.00  0.00     0.023 A 
ATOM     41  C   UNL A   1      48.653  32.161  29.050  1.00  0.00     0.012 A 
ATOM     42  C   UNL A   1      48.689  30.527  30.854  1.00  0.00     0.148 A 
ATOM     43  C   UNL A   1      50.046  32.111  28.972  1.00  0.00     0.002 A 
ATOM     44  C   UNL A   1      50.077  30.506  30.790  1.00  0.00     0.091 A 
ATOM     45  F   UNL A   1      48.010  29.739  31.699  1.00  0.00    -0.205 F 
ATOM     46  C   UNL A   1      50.757  31.290  29.844  1.00  0.00     0.022 A 
BRANCH  44  47
ATOM     47  S   UNL A   1      51.069  29.498  31.896  1.00  0.00     0.127 S 
ATOM     48  O   UNL A   1      50.843  30.155  33.182  1.00  0.00    -0.237 OA
ATOM     49  O   UNL A   1      50.444  28.180  31.766  1.00  0.00    -0.237 OA
ATOM     50  O   UNL A   1      52.430  29.569  31.381  1.00  0.00    -0.744 OA
ENDBRANCH  44  47
ENDBRANCH  26  40
BRANCH  27  51
ATOM     51  C   UNL A   1      37.924  31.719  30.640  1.00  0.00     0.023 A 
ATOM     52  C   UNL A   1      37.332  31.225  31.819  1.00  0.00     0.012 A 
ATOM     53  C   UNL A   1      37.093  32.311  29.669  1.00  0.00     0.148 A 
ATOM     54  C   UNL A   1      35.951  31.316  32.021  1.00  0.00     0.002 A 
ATOM     55  C   UNL A   1      35.729  32.465  29.908  1.00  0.00     0.091 A 
ATOM     56  F   UNL A   1      37.644  32.752  28.527  1.00  0.00    -0.205 F 
ATOM     57  C   UNL A   1      35.151  31.953  31.076  1.00  0.00     0.022 A 
BRANCH  55  58
ATOM     58  S   UNL A   1      34.727  33.454  28.792  1.00  0.00     0.127 S 
ATOM     59  O   UNL A   1      33.430  33.467  29.462  1.00  0.00    -0.237 OA
ATOM     60  O   UNL A   1      35.419  34.744  28.775  1.00  0.00    -0.237 OA
ATOM     61  O   UNL A   1      34.801  32.735  27.523  1.00  0.00    -0.744 OA
ENDBRANCH  55  58
ENDBRANCH  27  51
BRANCH  39  62
ATOM     62  C   UNL A   1      42.455  27.411  27.492  1.00  0.00     0.023 A 
ATOM     63  C   UNL A   1      42.240  27.575  26.110  1.00  0.00     0.012 A 
ATOM     64  C   UNL A   1      42.594  26.119  28.029  1.00  0.00     0.148 A 
ATOM     65  C   UNL A   1      42.156  26.464  25.273  1.00  0.00     0.002 A 
ATOM     66  C   UNL A   1      42.540  25.018  27.183  1.00  0.00     0.091 A 
ATOM     67  F   UNL A   1      42.771  25.984  29.352  1.00  0.00    -0.205 F 
ATOM     68  C   UNL A   1      42.318  25.188  25.807  1.00  0.00     0.022 A 
BRANCH  66  69
ATOM     69  S   UNL A   1      42.826  23.358  27.805  1.00  0.00     0.127 S 
ATOM     70  O   UNL A   1      41.526  23.023  28.381  1.00  0.00    -0.237 OA
ATOM     71  O   UNL A   1      43.165  22.611  26.592  1.00  0.00    -0.237 OA
ATOM     72  O   UNL A   1      43.929  23.490  28.749  1.00  0.00    -0.744 OA
ENDBRANCH  66  69
ENDBRANCH  39  62
ENDBRANCH  13  14
ENDBRANCH   6   8
ENDBRANCH   5   6
ENDBRANCH   4   5
ENDBRANCH   3   4
ENDBRANCH   2   3
ENDBRANCH   1   2
BRANCH   1  73
ATOM     73  C   UNL A   1      44.560  44.420  29.767  1.00  0.00     0.188 C 
BRANCH  73  74
ATOM     74  O   UNL A   1      45.247  44.870  28.554  1.00  0.00    -0.376 OA
BRANCH  74  75
ATOM     75  C   UNL A   1      46.616  44.490  28.134  1.00  0.00     0.202 C 
BRANCH  75  76
ATOM     76  C   UNL A   1      47.589  45.504  26.966  1.00  0.00     0.261 C 
BRANCH  76  77
ATOM     77  O   UNL A   1      47.655  45.161  24.946  1.00  0.00    -0.460 OA
BRANCH  77  78
ATOM     78  C   UNL A   1      48.009  45.399  23.551  1.00  0.00     0.339 C 
ATOM     79  O   UNL A   1      48.663  46.409  23.276  1.00  0.00    -0.246 OA
BRANCH  78  80
ATOM     80  C   UNL A   1      47.509  44.566  22.339  1.00  0.00     0.072 A 
ATOM     81  C   UNL A   1      48.453  43.821  21.592  1.00  0.00     0.016 A 
ATOM     82  C   UNL A   1      46.164  44.464  21.934  1.00  0.00     0.054 A 
ATOM     83  C   UNL A   1      48.070  42.926  20.572  1.00  0.00     0.001 A 
ATOM     84  C   UNL A   1      45.786  43.534  20.932  1.00  0.00     0.015 A 
ATOM     85  C   UNL A   1      46.728  42.753  20.270  1.00  0.00     0.001 A 
BRANCH  82  86
ATOM     86  C   UNL A   1      45.045  45.286  22.446  1.00  0.00     0.256 C 
ATOM     87  O   UNL A   1      44.934  46.455  22.079  1.00  0.00    -0.269 OA
ATOM     88  N   UNL A   1      44.112  44.793  23.323  1.00  0.00    -0.322 N 
ATOM     89  H   UNL A   1      43.464  45.441  23.682  1.00  0.00     0.170 HD
BRANCH  88  90
ATOM     90  C   UNL A   1      43.981  43.479  23.763  1.00  0.00     0.041 A 
ATOM     91  C   UNL A   1      44.904  43.185  25.259  1.00  0.00     0.028 A 
ATOM     92  C   UNL A   1      42.521  42.494  23.387  1.00  0.00     0.028 A 
ATOM     93  C   UNL A   1      44.382  41.994  26.461  1.00  0.00     0.029 A 
ATOM     94  C   UNL A   1      41.930  41.329  24.675  1.00  0.00     0.029 A 
ATOM     95  C   UNL A   1      42.948  40.997  26.190  1.00  0.00     0.052 A 
BRANCH  95  96
ATOM     96  N   UNL A   1      43.065  39.669  26.845  1.00  0.00    -0.250 N 
ATOM     97  C   UNL A   1      44.216  38.840  26.861  1.00  0.00     0.237 C 
ATOM     98  C   UNL A   1      42.302  39.198  27.910  1.00  0.00     0.237 C 
ATOM     99  O   UNL A   1      45.403  39.108  26.887  1.00  0.00    -0.274 OA
ATOM    100  C   UNL A   1      43.601  37.471  26.979  1.00  0.00     0.095 C 
ATOM    101  C   UNL A   1      42.757  37.765  28.197  1.00  0.00     0.095 C 
ATOM    102  O   UNL A   1      41.522  39.809  28.625  1.00  0.00    -0.274 OA
ATOM    103  C   UNL A   1      43.836  35.956  27.059  1.00  0.00     0.002 C 
ATOM    104  C   UNL A   1      42.040  36.414  28.365  1.00  0.00     0.002 C 
ATOM    105  C   UNL A   1      42.653  35.329  26.248  1.00  0.00     0.005 C 
ATOM    106  C   UNL A   1      43.324  35.544  28.455  1.00  0.00     0.009 C 
ATOM    107  C   UNL A   1      41.421  35.793  27.079  1.00  0.00     0.005 C 
ENDBRANCH  95  96
ENDBRANCH  88  90
ENDBRANCH  82  86
ENDBRANCH  78  80
ENDBRANCH  77  78
ENDBRANCH  76  77
ENDBRANCH  75  76
ENDBRANCH  74  75
ENDBRANCH  73  74
ENDBRANCH   1  73
TORSDOF 23
ENDMDL
