MODEL 1
REMARK VINA RESULT:     -12.3      0.000      0.000
REMARK SMILES Cc1ccc(C(=O)N2CCCC[C@@H]2C(=O)OCCOCCOCCOC(=O)c2ccc(-c3c4nc(c(-c5cccc(S(=O)(=O)[O-])c5F)c5ccc([nH]5)c(-c5cccc(S(=O)(=O)[O-])c5F)c5nc(c(-c6cccc(S(=O)(=O)[O-])c6F)c6ccc3[nH]6)C=C5)C=C4)cc2)cc1S(=O)(=O)N1CCCCC1
REMARK SMILES IDX 20 1 19 2 18 3 17 4 16 5 14 6 15 7 13 8 8 9 9 10 10 11 12 12
REMARK SMILES IDX 11 13 6 14 7 15 5 16 1 17 2 18 3 19 92 20 4 21 91 22 93 23
REMARK SMILES IDX 94 24 95 25 96 26 97 27 101 28 98 29 100 30 99 31 21 32
REMARK SMILES IDX 22 33 23 34 24 35 25 36 26 37 27 38 28 39 29 40 90 41 30 42
REMARK SMILES IDX 89 43 31 44 32 45 33 46 83 47 34 48 88 49 82 50 84 51 35 52
REMARK SMILES IDX 87 53 81 54 80 55 36 57 68 58 48 59 67 60 49 61 52 62 66 63
REMARK SMILES IDX 85 64 50 65 51 66 65 68 86 69 53 70 37 71 38 72 46 73 39 74
REMARK SMILES IDX 41 75 47 76 40 77 42 78 43 79 44 80 45 81 69 82 70 83 78 84
REMARK SMILES IDX 71 85 73 86 79 87 72 88 74 89 75 90 76 91 77 92 54 93 55 94
REMARK SMILES IDX 63 95 56 96 58 97 64 98 57 99 59 100 60 101 61 102 62 103
REMARK H PARENT 84 56 52 67
REMARK Flexibility Score: inf
ROOT
ATOM      1  C   UNL A   1      32.884  29.529  25.281  1.00  0.00     0.188 C 
ENDROOT
BRANCH   1   2
ATOM      2  O   UNL A   1      32.585  29.491  23.850  1.00  0.00    -0.376 OA
BRANCH   2   3
ATOM      3  C   UNL A   1      31.988  28.417  22.987  1.00  0.00     0.202 C 
BRANCH   3   4
ATOM      4  C   UNL A   1      32.088  26.601  22.601  1.00  0.00     0.261 C 
BRANCH   4   5
ATOM      5  O   UNL A   1      33.132  25.224  23.312  1.00  0.00    -0.462 OA
BRANCH   5   6
ATOM      6  C   UNL A   1      33.378  23.614  23.047  1.00  0.00     0.328 C 
ATOM      7  O   UNL A   1      33.234  23.023  21.968  1.00  0.00    -0.250 OA
BRANCH   6   8
ATOM      8  C   UNL A   1      33.655  22.588  24.111  1.00  0.00     0.195 C 
ATOM      9  N   UNL A   1      34.977  21.822  24.052  1.00  0.00    -0.325 N 
ATOM     10  C   UNL A   1      35.056  20.657  24.917  1.00  0.00     0.121 C 
ATOM     11  C   UNL A   1      33.748  19.954  25.230  1.00  0.00     0.022 C 
ATOM     12  C   UNL A   1      32.392  21.838  24.447  1.00  0.00     0.037 C 
ATOM     13  C   UNL A   1      32.670  20.941  25.632  1.00  0.00     0.005 C 
BRANCH   9  14
ATOM     14  C   UNL A   1      36.335  22.333  23.904  1.00  0.00     0.254 C 
ATOM     15  O   UNL A   1      36.639  22.935  22.860  1.00  0.00    -0.269 OA
BRANCH  14  16
ATOM     16  C   UNL A   1      37.399  22.436  24.945  1.00  0.00     0.041 A 
ATOM     17  C   UNL A   1      41.102  24.514  28.144  1.00  0.00     0.046 C 
ATOM     18  C   UNL A   1      39.613  23.399  26.894  1.00  0.00    -0.031 A 
ATOM     19  C   UNL A   1      38.240  24.020  26.493  1.00  0.00     0.005 A 
ATOM     20  C   UNL A   1      39.607  21.966  26.234  1.00  0.00     0.086 A 
ATOM     21  C   UNL A   1      37.357  23.675  25.495  1.00  0.00     0.014 A 
ATOM     22  C   UNL A   1      38.503  21.583  25.283  1.00  0.00     0.035 A 
BRANCH  20  23
ATOM     23  S   UNL A   1      40.770  20.302  26.596  1.00  0.00     0.243 S 
ATOM     24  O   UNL A   1      40.750  20.081  28.020  1.00  0.00    -0.207 OA
ATOM     25  O   UNL A   1      40.253  19.318  25.660  1.00  0.00    -0.207 OA
BRANCH  23  26
ATOM     26  N   UNL A   1      42.544  20.347  26.273  1.00  0.00    -0.198 NA
ATOM     27  C   UNL A   1      43.142  19.141  25.670  1.00  0.00     0.102 C 
ATOM     28  C   UNL A   1      43.280  21.659  26.323  1.00  0.00     0.102 C 
ATOM     29  C   UNL A   1      44.452  19.339  24.890  1.00  0.00     0.017 C 
ATOM     30  C   UNL A   1      44.539  21.790  25.419  1.00  0.00     0.017 C 
ATOM     31  C   UNL A   1      44.773  20.724  24.352  1.00  0.00     0.003 C 
ENDBRANCH  23  26
ENDBRANCH  20  23
ENDBRANCH  14  16
ENDBRANCH   9  14
ENDBRANCH   6   8
ENDBRANCH   5   6
ENDBRANCH   4   5
ENDBRANCH   3   4
ENDBRANCH   2   3
ENDBRANCH   1   2
BRANCH   1  32
ATOM     32  C   UNL A   1      33.230  28.244  25.919  1.00  0.00     0.188 C 
BRANCH  32  33
ATOM     33  O   UNL A   1      34.162  28.648  26.870  1.00  0.00    -0.376 OA
BRANCH  33  34
ATOM     34  C   UNL A   1      34.293  29.973  27.237  1.00  0.00     0.202 C 
BRANCH  34  35
ATOM     35  C   UNL A   1      35.533  30.070  28.083  1.00  0.00     0.261 C 
BRANCH  35  36
ATOM     36  O   UNL A   1      35.842  31.475  28.436  1.00  0.00    -0.460 OA
BRANCH  36  37
ATOM     37  C   UNL A   1      35.816  31.971  29.733  1.00  0.00     0.338 C 
ATOM     38  O   UNL A   1      34.828  31.882  30.448  1.00  0.00    -0.246 OA
BRANCH  37  39
ATOM     39  C   UNL A   1      37.110  32.584  30.228  1.00  0.00     0.060 A 
ATOM     40  C   UNL A   1      38.207  32.889  29.391  1.00  0.00     0.016 A 
ATOM     41  C   UNL A   1      37.422  32.384  31.518  1.00  0.00     0.016 A 
ATOM     42  C   UNL A   1      39.577  32.432  29.672  1.00  0.00     0.010 A 
ATOM     43  C   UNL A   1      38.719  31.884  31.714  1.00  0.00     0.010 A 
ATOM     44  C   UNL A   1      39.923  31.658  30.786  1.00  0.00    -0.014 A 
BRANCH  44  45
ATOM     45  C   UNL A   1      41.615  30.900  31.213  1.00  0.00     0.031 A 
ATOM     46  C   UNL A   1      42.499  29.543  30.261  1.00  0.00     0.074 A 
ATOM     47  C   UNL A   1      42.417  31.311  32.236  1.00  0.00     0.049 A 
ATOM     48  N   UNL A   1      43.804  29.372  30.132  1.00  0.00    -0.248 NA
ATOM     49  C   UNL A   1      41.909  28.543  29.207  1.00  0.00     0.031 C 
ATOM     50  C   UNL A   1      43.885  31.204  32.392  1.00  0.00     0.029 A 
ATOM     51  N   UNL A   1      42.121  32.127  33.325  1.00  0.00    -0.354 N 
ATOM     52  C   UNL A   1      44.058  28.452  29.071  1.00  0.00     0.074 A 
ATOM     53  C   UNL A   1      42.867  28.200  28.381  1.00  0.00     0.031 C 
ATOM     54  C   UNL A   1      44.231  31.626  33.630  1.00  0.00     0.029 A 
ATOM     55  C   UNL A   1      42.991  31.801  34.347  1.00  0.00     0.049 A 
ATOM     56  H   UNL A   1      41.416  32.814  33.360  1.00  0.00     0.167 HD
ATOM     57  C   UNL A   1      45.085  27.578  28.950  1.00  0.00     0.034 A 
ATOM     58  C   UNL A   1      42.476  31.027  35.328  1.00  0.00     0.034 A 
ATOM     59  C   UNL A   1      45.754  27.483  30.212  1.00  0.00     0.049 A 
ATOM     60  C   UNL A   1      43.231  29.683  35.305  1.00  0.00     0.074 A 
ATOM     61  C   UNL A   1      46.605  28.365  30.831  1.00  0.00     0.029 A 
ATOM     62  N   UNL A   1      45.304  26.577  31.152  1.00  0.00    -0.354 N 
ATOM     63  N   UNL A   1      44.339  29.098  34.177  1.00  0.00    -0.248 NA
ATOM     64  C   UNL A   1      43.019  28.204  36.667  1.00  0.00     0.031 C 
ATOM     65  C   UNL A   1      46.576  28.065  32.206  1.00  0.00     0.029 A 
ATOM     66  C   UNL A   1      45.754  26.967  32.404  1.00  0.00     0.049 A 
ATOM     67  H   UNL A   1      44.754  25.783  30.964  1.00  0.00     0.167 HD
ATOM     68  C   UNL A   1      44.721  27.275  34.495  1.00  0.00     0.074 A 
ATOM     69  C   UNL A   1      43.792  26.840  36.135  1.00  0.00     0.031 C 
ATOM     70  C   UNL A   1      45.200  26.359  33.591  1.00  0.00     0.034 A 
BRANCH  57  71
ATOM     71  C   UNL A   1      45.600  26.950  27.648  1.00  0.00     0.023 A 
ATOM     72  C   UNL A   1      45.712  25.548  27.743  1.00  0.00     0.012 A 
ATOM     73  C   UNL A   1      46.165  27.531  26.471  1.00  0.00     0.148 A 
ATOM     74  C   UNL A   1      46.467  24.787  26.854  1.00  0.00     0.002 A 
ATOM     75  C   UNL A   1      46.896  26.760  25.557  1.00  0.00     0.091 A 
ATOM     76  F   UNL A   1      46.039  28.830  26.199  1.00  0.00    -0.205 F 
ATOM     77  C   UNL A   1      47.084  25.395  25.775  1.00  0.00     0.022 A 
BRANCH  75  78
ATOM     78  S   UNL A   1      47.717  27.441  24.095  1.00  0.00     0.127 S 
ATOM     79  O   UNL A   1      46.761  28.459  23.659  1.00  0.00    -0.237 OA
ATOM     80  O   UNL A   1      48.957  27.978  24.655  1.00  0.00    -0.237 OA
ATOM     81  O   UNL A   1      47.896  26.338  23.160  1.00  0.00    -0.744 OA
ENDBRANCH  75  78
ENDBRANCH  57  71
BRANCH  58  82
ATOM     82  C   UNL A   1      40.957  31.331  35.509  1.00  0.00     0.023 A 
ATOM     83  C   UNL A   1      39.998  30.524  34.835  1.00  0.00     0.012 A 
ATOM     84  C   UNL A   1      40.431  32.073  36.592  1.00  0.00     0.148 A 
ATOM     85  C   UNL A   1      38.663  30.412  35.291  1.00  0.00     0.002 A 
ATOM     86  C   UNL A   1      39.062  32.141  36.903  1.00  0.00     0.091 A 
ATOM     87  F   UNL A   1      41.294  32.610  37.437  1.00  0.00    -0.205 F 
ATOM     88  C   UNL A   1      38.195  31.222  36.322  1.00  0.00     0.022 A 
BRANCH  86  89
ATOM     89  S   UNL A   1      38.404  33.290  38.166  1.00  0.00     0.127 S 
ATOM     90  O   UNL A   1      38.861  32.683  39.420  1.00  0.00    -0.237 OA
ATOM     91  O   UNL A   1      39.031  34.575  37.895  1.00  0.00    -0.237 OA
ATOM     92  O   UNL A   1      36.960  33.244  37.989  1.00  0.00    -0.744 OA
ENDBRANCH  86  89
ENDBRANCH  58  82
BRANCH  70  93
ATOM     93  C   UNL A   1      45.050  24.856  33.804  1.00  0.00     0.023 A 
ATOM     94  C   UNL A   1      43.916  24.112  33.408  1.00  0.00     0.012 A 
ATOM     95  C   UNL A   1      46.072  24.095  34.404  1.00  0.00     0.148 A 
ATOM     96  C   UNL A   1      43.649  22.816  33.860  1.00  0.00     0.002 A 
ATOM     97  C   UNL A   1      45.870  22.754  34.735  1.00  0.00     0.091 A 
ATOM     98  F   UNL A   1      47.250  24.670  34.669  1.00  0.00    -0.205 F 
ATOM     99  C   UNL A   1      44.629  22.139  34.551  1.00  0.00     0.022 A 
BRANCH  97 100
ATOM    100  S   UNL A   1      47.197  21.728  35.365  1.00  0.00     0.127 S 
ATOM    101  O   UNL A   1      46.541  20.424  35.442  1.00  0.00    -0.237 OA
ATOM    102  O   UNL A   1      48.205  21.844  34.310  1.00  0.00    -0.237 OA
ATOM    103  O   UNL A   1      47.584  22.322  36.637  1.00  0.00    -0.744 OA
ENDBRANCH  97 100
ENDBRANCH  70  93
ENDBRANCH  44  45
ENDBRANCH  37  39
ENDBRANCH  36  37
ENDBRANCH  35  36
ENDBRANCH  34  35
ENDBRANCH  33  34
ENDBRANCH  32  33
ENDBRANCH   1  32
TORSDOF 24
ENDMDL
MODEL 2
REMARK VINA RESULT:     -12.1      3.563     11.347
REMARK SMILES Cc1ccc(C(=O)N2CCCC[C@@H]2C(=O)OCCOCCOCCOC(=O)c2ccc(-c3c4nc(c(-c5cccc(S(=O)(=O)[O-])c5F)c5ccc([nH]5)c(-c5cccc(S(=O)(=O)[O-])c5F)c5nc(c(-c6cccc(S(=O)(=O)[O-])c6F)c6ccc3[nH]6)C=C5)C=C4)cc2)cc1S(=O)(=O)N1CCCCC1
REMARK SMILES IDX 20 1 19 2 18 3 17 4 16 5 14 6 15 7 13 8 8 9 9 10 10 11 12 12
REMARK SMILES IDX 11 13 6 14 7 15 5 16 1 17 2 18 3 19 92 20 4 21 91 22 93 23
REMARK SMILES IDX 94 24 95 25 96 26 97 27 101 28 98 29 100 30 99 31 21 32
REMARK SMILES IDX 22 33 23 34 24 35 25 36 26 37 27 38 28 39 29 40 90 41 30 42
REMARK SMILES IDX 89 43 31 44 32 45 33 46 83 47 34 48 88 49 82 50 84 51 35 52
REMARK SMILES IDX 87 53 81 54 80 55 36 57 68 58 48 59 67 60 49 61 52 62 66 63
REMARK SMILES IDX 85 64 50 65 51 66 65 68 86 69 53 70 37 71 38 72 46 73 39 74
REMARK SMILES IDX 41 75 47 76 40 77 42 78 43 79 44 80 45 81 69 82 70 83 78 84
REMARK SMILES IDX 71 85 73 86 79 87 72 88 74 89 75 90 76 91 77 92 54 93 55 94
REMARK SMILES IDX 63 95 56 96 58 97 64 98 57 99 59 100 60 101 61 102 62 103
REMARK H PARENT 84 56 52 67
REMARK Flexibility Score: inf
ROOT
ATOM      1  C   UNL A   1      35.533  21.381  25.853  1.00  0.00     0.188 C 
ENDROOT
BRANCH   1   2
ATOM      2  O   UNL A   1      34.143  20.947  25.727  1.00  0.00    -0.376 OA
BRANCH   2   3
ATOM      3  C   UNL A   1      32.853  21.611  26.118  1.00  0.00     0.202 C 
BRANCH   3   4
ATOM      4  C   UNL A   1      32.154  23.171  26.848  1.00  0.00     0.261 C 
BRANCH   4   5
ATOM      5  O   UNL A   1      32.052  24.921  26.202  1.00  0.00    -0.462 OA
BRANCH   5   6
ATOM      6  C   UNL A   1      32.958  25.934  25.265  1.00  0.00     0.328 C 
ATOM      7  O   UNL A   1      34.169  25.819  25.028  1.00  0.00    -0.250 OA
BRANCH   6   8
ATOM      8  C   UNL A   1      32.489  27.242  24.690  1.00  0.00     0.195 C 
ATOM      9  N   UNL A   1      31.816  28.245  25.627  1.00  0.00    -0.325 N 
ATOM     10  C   UNL A   1      31.130  29.343  24.967  1.00  0.00     0.121 C 
ATOM     11  C   UNL A   1      30.581  29.066  23.580  1.00  0.00     0.022 C 
ATOM     12  C   UNL A   1      31.908  27.024  23.316  1.00  0.00     0.037 C 
ATOM     13  C   UNL A   1      31.608  28.373  22.705  1.00  0.00     0.005 C 
BRANCH   9  14
ATOM     14  C   UNL A   1      32.262  28.742  26.923  1.00  0.00     0.254 C 
ATOM     15  O   UNL A   1      31.886  28.156  27.953  1.00  0.00    -0.269 OA
BRANCH  14  16
ATOM     16  C   UNL A   1      33.319  29.757  27.207  1.00  0.00     0.041 A 
ATOM     17  C   UNL A   1      37.789  31.963  29.055  1.00  0.00     0.046 C 
ATOM     18  C   UNL A   1      35.838  31.279  28.189  1.00  0.00    -0.031 A 
ATOM     19  C   UNL A   1      35.654  29.850  27.593  1.00  0.00     0.005 A 
ATOM     20  C   UNL A   1      34.429  31.965  28.013  1.00  0.00     0.086 A 
ATOM     21  C   UNL A   1      34.512  29.126  27.335  1.00  0.00     0.014 A 
ATOM     22  C   UNL A   1      33.251  31.150  27.547  1.00  0.00     0.035 A 
BRANCH  20  23
ATOM     23  S   UNL A   1      33.868  33.948  28.087  1.00  0.00     0.243 S 
ATOM     24  O   UNL A   1      34.794  34.675  27.254  1.00  0.00    -0.207 OA
ATOM     25  O   UNL A   1      32.445  33.909  27.797  1.00  0.00    -0.207 OA
BRANCH  23  26
ATOM     26  N   UNL A   1      33.992  34.868  29.633  1.00  0.00    -0.198 NA
ATOM     27  C   UNL A   1      33.323  36.182  29.681  1.00  0.00     0.102 C 
ATOM     28  C   UNL A   1      34.473  34.176  30.880  1.00  0.00     0.102 C 
ATOM     29  C   UNL A   1      32.931  36.705  31.072  1.00  0.00     0.017 C 
ATOM     30  C   UNL A   1      33.938  34.722  32.234  1.00  0.00     0.017 C 
ATOM     31  C   UNL A   1      32.768  35.703  32.203  1.00  0.00     0.003 C 
ENDBRANCH  23  26
ENDBRANCH  20  23
ENDBRANCH  14  16
ENDBRANCH   9  14
ENDBRANCH   6   8
ENDBRANCH   5   6
ENDBRANCH   4   5
ENDBRANCH   3   4
ENDBRANCH   2   3
ENDBRANCH   1   2
BRANCH   1  32
ATOM     32  C   UNL A   1      36.385  21.230  24.657  1.00  0.00     0.188 C 
BRANCH  32  33
ATOM     33  O   UNL A   1      37.638  21.041  25.231  1.00  0.00    -0.376 OA
BRANCH  33  34
ATOM     34  C   UNL A   1      38.386  22.104  25.701  1.00  0.00     0.202 C 
BRANCH  34  35
ATOM     35  C   UNL A   1      39.609  21.521  26.354  1.00  0.00     0.261 C 
BRANCH  35  36
ATOM     36  O   UNL A   1      40.852  22.024  25.727  1.00  0.00    -0.460 OA
BRANCH  36  37
ATOM     37  C   UNL A   1      42.047  22.206  26.413  1.00  0.00     0.338 C 
ATOM     38  O   UNL A   1      42.638  21.282  26.953  1.00  0.00    -0.246 OA
BRANCH  37  39
ATOM     39  C   UNL A   1      42.600  23.616  26.405  1.00  0.00     0.060 A 
ATOM     40  C   UNL A   1      43.925  23.945  26.768  1.00  0.00     0.016 A 
ATOM     41  C   UNL A   1      41.713  24.616  26.537  1.00  0.00     0.016 A 
ATOM     42  C   UNL A   1      44.248  24.981  27.762  1.00  0.00     0.010 A 
ATOM     43  C   UNL A   1      42.044  25.534  27.547  1.00  0.00     0.010 A 
ATOM     44  C   UNL A   1      43.281  25.735  28.437  1.00  0.00    -0.014 A 
BRANCH  44  45
ATOM     45  C   UNL A   1      43.541  27.014  29.821  1.00  0.00     0.031 A 
ATOM     46  C   UNL A   1      42.286  28.278  30.418  1.00  0.00     0.074 A 
ATOM     47  C   UNL A   1      44.663  27.114  30.589  1.00  0.00     0.049 A 
ATOM     48  N   UNL A   1      42.158  28.766  31.641  1.00  0.00    -0.248 NA
ATOM     49  C   UNL A   1      40.982  28.776  29.704  1.00  0.00     0.031 C 
ATOM     50  C   UNL A   1      44.831  27.659  31.954  1.00  0.00     0.029 A 
ATOM     51  N   UNL A   1      45.922  26.550  30.401  1.00  0.00    -0.354 N 
ATOM     52  C   UNL A   1      40.895  29.422  31.758  1.00  0.00     0.074 A 
ATOM     53  C   UNL A   1      40.125  29.151  30.622  1.00  0.00     0.031 C 
ATOM     54  C   UNL A   1      46.148  27.677  32.266  1.00  0.00     0.029 A 
ATOM     55  C   UNL A   1      46.845  27.351  31.045  1.00  0.00     0.049 A 
ATOM     56  H   UNL A   1      46.119  25.726  29.898  1.00  0.00     0.167 HD
ATOM     57  C   UNL A   1      40.575  30.486  32.531  1.00  0.00     0.034 A 
ATOM     58  C   UNL A   1      47.562  28.173  30.247  1.00  0.00     0.034 A 
ATOM     59  C   UNL A   1      41.785  31.079  33.016  1.00  0.00     0.049 A 
ATOM     60  C   UNL A   1      47.199  29.623  30.626  1.00  0.00     0.074 A 
ATOM     61  C   UNL A   1      42.647  30.653  33.996  1.00  0.00     0.029 A 
ATOM     62  N   UNL A   1      42.429  32.030  32.250  1.00  0.00    -0.354 N 
ATOM     63  N   UNL A   1      45.992  30.188  31.657  1.00  0.00    -0.248 NA
ATOM     64  C   UNL A   1      48.102  31.278  29.896  1.00  0.00     0.031 C 
ATOM     65  C   UNL A   1      43.888  31.269  33.746  1.00  0.00     0.029 A 
ATOM     66  C   UNL A   1      43.754  32.110  32.651  1.00  0.00     0.049 A 
ATOM     67  H   UNL A   1      42.015  32.567  31.536  1.00  0.00     0.167 HD
ATOM     68  C   UNL A   1      45.816  32.064  31.519  1.00  0.00     0.074 A 
ATOM     69  C   UNL A   1      47.245  32.623  30.342  1.00  0.00     0.031 C 
ATOM     70  C   UNL A   1      44.713  32.818  31.837  1.00  0.00     0.034 A 
BRANCH  57  71
ATOM     71  C   UNL A   1      39.169  30.884  33.000  1.00  0.00     0.023 A 
ATOM     72  C   UNL A   1      38.160  30.221  32.272  1.00  0.00     0.012 A 
ATOM     73  C   UNL A   1      38.716  31.925  33.867  1.00  0.00     0.148 A 
ATOM     74  C   UNL A   1      36.835  30.650  32.253  1.00  0.00     0.002 A 
ATOM     75  C   UNL A   1      37.375  32.335  33.874  1.00  0.00     0.091 A 
ATOM     76  F   UNL A   1      39.546  32.564  34.691  1.00  0.00    -0.205 F 
ATOM     77  C   UNL A   1      36.445  31.725  33.032  1.00  0.00     0.022 A 
BRANCH  75  78
ATOM     78  S   UNL A   1      36.746  33.705  34.875  1.00  0.00     0.127 S 
ATOM     79  O   UNL A   1      37.111  34.865  34.061  1.00  0.00    -0.237 OA
ATOM     80  O   UNL A   1      35.312  33.427  34.921  1.00  0.00    -0.237 OA
ATOM     81  O   UNL A   1      37.425  33.631  36.162  1.00  0.00    -0.744 OA
ENDBRANCH  75  78
ENDBRANCH  57  71
BRANCH  58  82
ATOM     82  C   UNL A   1      47.769  27.515  28.848  1.00  0.00     0.023 A 
ATOM     83  C   UNL A   1      48.382  26.234  28.763  1.00  0.00     0.012 A 
ATOM     84  C   UNL A   1      47.045  27.890  27.692  1.00  0.00     0.148 A 
ATOM     85  C   UNL A   1      48.184  25.385  27.648  1.00  0.00     0.002 A 
ATOM     86  C   UNL A   1      47.038  27.149  26.498  1.00  0.00     0.091 A 
ATOM     87  F   UNL A   1      46.218  28.916  27.798  1.00  0.00    -0.205 F 
ATOM     88  C   UNL A   1      47.517  25.843  26.515  1.00  0.00     0.022 A 
BRANCH  86  89
ATOM     89  S   UNL A   1      46.278  27.783  24.960  1.00  0.00     0.127 S 
ATOM     90  O   UNL A   1      44.846  27.596  25.210  1.00  0.00    -0.237 OA
ATOM     91  O   UNL A   1      46.662  29.184  24.878  1.00  0.00    -0.237 OA
ATOM     92  O   UNL A   1      46.803  26.924  23.908  1.00  0.00    -0.744 OA
ENDBRANCH  86  89
ENDBRANCH  58  82
BRANCH  70  93
ATOM     93  C   UNL A   1      44.505  34.225  31.282  1.00  0.00     0.023 A 
ATOM     94  C   UNL A   1      44.785  35.407  32.004  1.00  0.00     0.012 A 
ATOM     95  C   UNL A   1      44.031  34.433  29.973  1.00  0.00     0.148 A 
ATOM     96  C   UNL A   1      44.323  36.670  31.620  1.00  0.00     0.002 A 
ATOM     97  C   UNL A   1      43.698  35.712  29.524  1.00  0.00     0.091 A 
ATOM     98  F   UNL A   1      43.889  33.387  29.151  1.00  0.00    -0.205 F 
ATOM     99  C   UNL A   1      43.753  36.818  30.375  1.00  0.00     0.022 A 
BRANCH  97 100
ATOM    100  S   UNL A   1      43.231  36.022  27.822  1.00  0.00     0.127 S 
ATOM    101  O   UNL A   1      42.164  37.008  27.992  1.00  0.00    -0.237 OA
ATOM    102  O   UNL A   1      44.470  36.554  27.253  1.00  0.00    -0.237 OA
ATOM    103  O   UNL A   1      42.824  34.732  27.284  1.00  0.00    -0.744 OA
ENDBRANCH  97 100
ENDBRANCH  70  93
ENDBRANCH  44  45
ENDBRANCH  37  39
ENDBRANCH  36  37
ENDBRANCH  35  36
ENDBRANCH  34  35
ENDBRANCH  33  34
ENDBRANCH  32  33
ENDBRANCH   1  32
TORSDOF 24
ENDMDL
MODEL 3
REMARK VINA RESULT:     -12.0      2.792      5.545
REMARK SMILES Cc1ccc(C(=O)N2CCCC[C@@H]2C(=O)OCCOCCOCCOC(=O)c2ccc(-c3c4nc(c(-c5cccc(S(=O)(=O)[O-])c5F)c5ccc([nH]5)c(-c5cccc(S(=O)(=O)[O-])c5F)c5nc(c(-c6cccc(S(=O)(=O)[O-])c6F)c6ccc3[nH]6)C=C5)C=C4)cc2)cc1S(=O)(=O)N1CCCCC1
REMARK SMILES IDX 20 1 19 2 18 3 17 4 16 5 14 6 15 7 13 8 8 9 9 10 10 11 12 12
REMARK SMILES IDX 11 13 6 14 7 15 5 16 1 17 2 18 3 19 92 20 4 21 91 22 93 23
REMARK SMILES IDX 94 24 95 25 96 26 97 27 101 28 98 29 100 30 99 31 21 32
REMARK SMILES IDX 22 33 23 34 24 35 25 36 26 37 27 38 28 39 29 40 90 41 30 42
REMARK SMILES IDX 89 43 31 44 32 45 33 46 83 47 34 48 88 49 82 50 84 51 35 52
REMARK SMILES IDX 87 53 81 54 80 55 36 57 68 58 48 59 67 60 49 61 52 62 66 63
REMARK SMILES IDX 85 64 50 65 51 66 65 68 86 69 53 70 37 71 38 72 46 73 39 74
REMARK SMILES IDX 41 75 47 76 40 77 42 78 43 79 44 80 45 81 69 82 70 83 78 84
REMARK SMILES IDX 71 85 73 86 79 87 72 88 74 89 75 90 76 91 77 92 54 93 55 94
REMARK SMILES IDX 63 95 56 96 58 97 64 98 57 99 59 100 60 101 61 102 62 103
REMARK H PARENT 84 56 52 67
REMARK Flexibility Score: inf
ROOT
ATOM      1  C   UNL A   1      34.501  32.423  29.513  1.00  0.00     0.188 C 
ENDROOT
BRANCH   1   2
ATOM      2  O   UNL A   1      35.424  31.954  28.481  1.00  0.00    -0.376 OA
BRANCH   2   3
ATOM      3  C   UNL A   1      35.587  30.610  27.828  1.00  0.00     0.202 C 
BRANCH   3   4
ATOM      4  C   UNL A   1      34.630  29.186  27.113  1.00  0.00     0.261 C 
BRANCH   4   5
ATOM      5  O   UNL A   1      33.130  29.116  26.001  1.00  0.00    -0.462 OA
BRANCH   5   6
ATOM      6  C   UNL A   1      31.871  30.098  25.580  1.00  0.00     0.328 C 
ATOM      7  O   UNL A   1      31.540  31.144  26.156  1.00  0.00    -0.250 OA
BRANCH   6   8
ATOM      8  C   UNL A   1      30.834  29.787  24.537  1.00  0.00     0.195 C 
ATOM      9  N   UNL A   1      31.249  28.940  23.334  1.00  0.00    -0.325 N 
ATOM     10  C   UNL A   1      30.301  28.925  22.232  1.00  0.00     0.121 C 
ATOM     11  C   UNL A   1      29.429  30.155  22.069  1.00  0.00     0.022 C 
ATOM     12  C   UNL A   1      29.950  30.987  24.314  1.00  0.00     0.037 C 
ATOM     13  C   UNL A   1      28.822  30.585  23.391  1.00  0.00     0.005 C 
BRANCH   9  14
ATOM     14  C   UNL A   1      31.957  27.666  23.301  1.00  0.00     0.254 C 
ATOM     15  O   UNL A   1      33.143  27.648  22.928  1.00  0.00    -0.269 OA
BRANCH  14  16
ATOM     16  C   UNL A   1      31.527  26.357  23.875  1.00  0.00     0.041 A 
ATOM     17  C   UNL A   1      29.596  22.769  27.289  1.00  0.00     0.046 C 
ATOM     18  C   UNL A   1      30.470  24.073  25.690  1.00  0.00    -0.031 A 
ATOM     19  C   UNL A   1      29.940  25.515  25.418  1.00  0.00     0.005 A 
ATOM     20  C   UNL A   1      31.632  23.876  24.643  1.00  0.00     0.086 A 
ATOM     21  C   UNL A   1      30.519  26.573  24.756  1.00  0.00     0.014 A 
ATOM     22  C   UNL A   1      32.099  25.042  23.811  1.00  0.00     0.035 A 
BRANCH  20  23
ATOM     23  S   UNL A   1      32.574  22.169  23.968  1.00  0.00     0.243 S 
ATOM     24  O   UNL A   1      32.128  21.087  24.808  1.00  0.00    -0.207 OA
ATOM     25  O   UNL A   1      32.319  22.185  22.538  1.00  0.00    -0.207 OA
BRANCH  23  26
ATOM     26  N   UNL A   1      34.364  22.006  24.108  1.00  0.00    -0.198 NA
ATOM     27  C   UNL A   1      35.180  22.774  23.149  1.00  0.00     0.102 C 
ATOM     28  C   UNL A   1      34.965  21.379  25.338  1.00  0.00     0.102 C 
ATOM     29  C   UNL A   1      36.619  23.103  23.577  1.00  0.00     0.017 C 
ATOM     30  C   UNL A   1      36.390  21.854  25.741  1.00  0.00     0.017 C 
ATOM     31  C   UNL A   1      36.953  23.099  25.059  1.00  0.00     0.003 C 
ENDBRANCH  23  26
ENDBRANCH  20  23
ENDBRANCH  14  16
ENDBRANCH   9  14
ENDBRANCH   6   8
ENDBRANCH   5   6
ENDBRANCH   4   5
ENDBRANCH   3   4
ENDBRANCH   2   3
ENDBRANCH   1   2
BRANCH   1  32
ATOM     32  C   UNL A   1      34.400  33.884  29.695  1.00  0.00     0.188 C 
BRANCH  32  33
ATOM     33  O   UNL A   1      34.539  34.002  31.074  1.00  0.00    -0.376 OA
BRANCH  33  34
ATOM     34  C   UNL A   1      35.777  33.936  31.684  1.00  0.00     0.202 C 
BRANCH  34  35
ATOM     35  C   UNL A   1      35.644  32.977  32.835  1.00  0.00     0.261 C 
BRANCH  35  36
ATOM     36  O   UNL A   1      36.742  31.983  32.845  1.00  0.00    -0.460 OA
BRANCH  36  37
ATOM     37  C   UNL A   1      36.981  31.084  31.814  1.00  0.00     0.338 C 
ATOM     38  O   UNL A   1      36.262  30.116  31.610  1.00  0.00    -0.246 OA
BRANCH  37  39
ATOM     39  C   UNL A   1      38.162  31.406  30.922  1.00  0.00     0.060 A 
ATOM     40  C   UNL A   1      38.609  30.572  29.873  1.00  0.00     0.016 A 
ATOM     41  C   UNL A   1      39.096  32.229  31.426  1.00  0.00     0.016 A 
ATOM     42  C   UNL A   1      40.008  30.136  29.739  1.00  0.00     0.010 A 
ATOM     43  C   UNL A   1      40.403  31.727  31.327  1.00  0.00     0.010 A 
ATOM     44  C   UNL A   1      41.023  30.506  30.630  1.00  0.00    -0.014 A 
BRANCH  44  45
ATOM     45  C   UNL A   1      42.836  29.931  30.651  1.00  0.00     0.031 A 
ATOM     46  C   UNL A   1      43.504  28.329  29.931  1.00  0.00     0.074 A 
ATOM     47  C   UNL A   1      43.879  30.659  31.142  1.00  0.00     0.049 A 
ATOM     48  N   UNL A   1      44.703  28.120  29.413  1.00  0.00    -0.248 NA
ATOM     49  C   UNL A   1      42.718  27.035  29.525  1.00  0.00     0.031 C 
ATOM     50  C   UNL A   1      45.317  30.606  30.797  1.00  0.00     0.029 A 
ATOM     51  N   UNL A   1      43.869  31.794  31.947  1.00  0.00    -0.354 N 
ATOM     52  C   UNL A   1      44.694  26.896  28.679  1.00  0.00     0.074 A 
ATOM     53  C   UNL A   1      43.380  26.431  28.569  1.00  0.00     0.031 C 
ATOM     54  C   UNL A   1      46.004  31.418  31.633  1.00  0.00     0.029 A 
ATOM     55  C   UNL A   1      45.061  31.828  32.645  1.00  0.00     0.049 A 
ATOM     56  H   UNL A   1      43.142  32.455  32.009  1.00  0.00     0.167 HD
ATOM     57  C   UNL A   1      45.717  26.030  28.487  1.00  0.00     0.034 A 
ATOM     58  C   UNL A   1      44.994  31.431  33.935  1.00  0.00     0.034 A 
ATOM     59  C   UNL A   1      46.773  26.362  29.395  1.00  0.00     0.049 A 
ATOM     60  C   UNL A   1      45.848  30.155  34.074  1.00  0.00     0.074 A 
ATOM     61  C   UNL A   1      47.674  27.398  29.362  1.00  0.00     0.029 A 
ATOM     62  N   UNL A   1      46.768  25.827  30.667  1.00  0.00    -0.354 N 
ATOM     63  N   UNL A   1      46.578  29.221  32.876  1.00  0.00    -0.248 NA
ATOM     64  C   UNL A   1      46.271  29.221  35.817  1.00  0.00     0.031 C 
ATOM     65  C   UNL A   1      48.137  27.578  30.679  1.00  0.00     0.029 A 
ATOM     66  C   UNL A   1      47.560  26.613  31.490  1.00  0.00     0.049 A 
ATOM     67  H   UNL A   1      46.282  25.017  30.946  1.00  0.00     0.167 HD
ATOM     68  C   UNL A   1      47.252  27.610  33.598  1.00  0.00     0.074 A 
ATOM     69  C   UNL A   1      46.976  27.755  35.507  1.00  0.00     0.031 C 
ATOM     70  C   UNL A   1      47.506  26.442  32.923  1.00  0.00     0.034 A 
BRANCH  57  71
ATOM     71  C   UNL A   1      45.839  24.998  27.358  1.00  0.00     0.023 A 
ATOM     72  C   UNL A   1      46.947  25.252  26.524  1.00  0.00     0.012 A 
ATOM     73  C   UNL A   1      44.942  23.987  26.893  1.00  0.00     0.148 A 
ATOM     74  C   UNL A   1      47.082  24.696  25.254  1.00  0.00     0.002 A 
ATOM     75  C   UNL A   1      45.097  23.401  25.629  1.00  0.00     0.091 A 
ATOM     76  F   UNL A   1      43.912  23.570  27.630  1.00  0.00    -0.205 F 
ATOM     77  C   UNL A   1      46.143  23.791  24.793  1.00  0.00     0.022 A 
BRANCH  75  78
ATOM     78  S   UNL A   1      43.950  22.184  24.937  1.00  0.00     0.127 S 
ATOM     79  O   UNL A   1      44.474  22.013  23.581  1.00  0.00    -0.237 OA
ATOM     80  O   UNL A   1      44.153  21.030  25.813  1.00  0.00    -0.237 OA
ATOM     81  O   UNL A   1      42.620  22.775  25.003  1.00  0.00    -0.744 OA
ENDBRANCH  75  78
ENDBRANCH  57  71
BRANCH  58  82
ATOM     82  C   UNL A   1      43.596  31.783  34.532  1.00  0.00     0.023 A 
ATOM     83  C   UNL A   1      43.205  33.148  34.636  1.00  0.00     0.012 A 
ATOM     84  C   UNL A   1      42.524  30.865  34.607  1.00  0.00     0.148 A 
ATOM     85  C   UNL A   1      41.844  33.531  34.705  1.00  0.00     0.002 A 
ATOM     86  C   UNL A   1      41.200  31.230  34.905  1.00  0.00     0.091 A 
ATOM     87  F   UNL A   1      42.761  29.620  34.232  1.00  0.00    -0.205 F 
ATOM     88  C   UNL A   1      40.843  32.573  34.843  1.00  0.00     0.022 A 
BRANCH  86  89
ATOM     89  S   UNL A   1      39.892  29.990  35.218  1.00  0.00     0.127 S 
ATOM     90  O   UNL A   1      39.750  29.339  33.912  1.00  0.00    -0.237 OA
ATOM     91  O   UNL A   1      40.425  29.102  36.239  1.00  0.00    -0.237 OA
ATOM     92  O   UNL A   1      38.728  30.772  35.608  1.00  0.00    -0.744 OA
ENDBRANCH  86  89
ENDBRANCH  58  82
BRANCH  70  93
ATOM     93  C   UNL A   1      47.610  25.098  33.638  1.00  0.00     0.023 A 
ATOM     94  C   UNL A   1      48.833  24.492  34.005  1.00  0.00     0.012 A 
ATOM     95  C   UNL A   1      46.461  24.373  34.006  1.00  0.00     0.148 A 
ATOM     96  C   UNL A   1      48.944  23.151  34.382  1.00  0.00     0.002 A 
ATOM     97  C   UNL A   1      46.561  23.079  34.520  1.00  0.00     0.091 A 
ATOM     98  F   UNL A   1      45.254  24.930  33.850  1.00  0.00    -0.205 F 
ATOM     99  C   UNL A   1      47.794  22.431  34.620  1.00  0.00     0.022 A 
BRANCH  97 100
ATOM    100  S   UNL A   1      45.127  22.192  35.127  1.00  0.00     0.127 S 
ATOM    101  O   UNL A   1      45.643  20.826  35.198  1.00  0.00    -0.237 OA
ATOM    102  O   UNL A   1      44.898  22.827  36.426  1.00  0.00    -0.237 OA
ATOM    103  O   UNL A   1      44.076  22.424  34.147  1.00  0.00    -0.744 OA
ENDBRANCH  97 100
ENDBRANCH  70  93
ENDBRANCH  44  45
ENDBRANCH  37  39
ENDBRANCH  36  37
ENDBRANCH  35  36
ENDBRANCH  34  35
ENDBRANCH  33  34
ENDBRANCH  32  33
ENDBRANCH   1  32
TORSDOF 24
ENDMDL
