MODEL 1
REMARK VINA RESULT:      -8.9      0.000      0.000
REMARK SMILES CC(C)(C)c1ccc(C(=O)N/C(=C/c2ccc(O)cc2)C(=O)OCCOCCOCCOC(=O)c2ccc(-c3c4nc(c(-c5cccc(S(=O)(=O)[O-])c5F)c5ccc([nH]5)c(-c5cccc(S(=O)(=O)[O-])c5F)c5nc(c(-c6cccc(S(=O)(=O)[O-])c6F)c6ccc3[nH]6)C=C5)C=C4)cc2)cc1
REMARK SMILES IDX 27 1 26 2 25 3 24 4 23 5 21 6 22 7 12 8 13 9 11 10 9 11
REMARK SMILES IDX 10 12 8 14 5 15 6 16 99 17 7 18 98 19 2 20 1 21 3 22 4 23
REMARK SMILES IDX 14 24 15 25 20 26 16 27 19 28 17 29 18 30 28 32 29 33 30 34
REMARK SMILES IDX 31 35 32 36 33 37 34 38 35 39 36 40 97 41 37 42 96 43 38 44
REMARK SMILES IDX 39 45 40 46 90 47 41 48 95 49 89 50 91 51 42 52 94 53 88 54
REMARK SMILES IDX 87 55 43 57 75 58 55 59 74 60 56 61 59 62 73 63 92 64 57 65
REMARK SMILES IDX 58 66 72 68 93 69 60 70 44 71 45 72 53 73 46 74 48 75 54 76
REMARK SMILES IDX 47 77 49 78 50 79 51 80 52 81 76 82 77 83 85 84 78 85 80 86
REMARK SMILES IDX 86 87 79 88 81 89 82 90 83 91 84 92 61 93 62 94 70 95 63 96
REMARK SMILES IDX 65 97 71 98 64 99 66 100 67 101 68 102 69 103
REMARK H PARENT 11 13 18 31 91 56 59 67
REMARK Flexibility Score: inf
ROOT
ATOM      1  C   UNL A   1      34.339  34.711  30.351  1.00  0.00     0.188 C 
ENDROOT
BRANCH   1   2
ATOM      2  O   UNL A   1      33.982  35.151  29.046  1.00  0.00    -0.376 OA
BRANCH   2   3
ATOM      3  C   UNL A   1      32.720  34.778  28.506  1.00  0.00     0.202 C 
BRANCH   3   4
ATOM      4  C   UNL A   1      32.687  33.508  27.667  1.00  0.00     0.261 C 
BRANCH   4   5
ATOM      5  O   UNL A   1      33.400  32.496  28.370  1.00  0.00    -0.459 OA
BRANCH   5   6
ATOM      6  C   UNL A   1      34.470  31.971  27.748  1.00  0.00     0.354 C 
ATOM      7  O   UNL A   1      35.568  32.495  27.614  1.00  0.00    -0.244 OA
BRANCH   6   8
ATOM      8  C   UNL A   1      34.071  30.675  27.141  1.00  0.00     0.128 C 
ATOM      9  C   UNL A   1      34.866  29.607  27.402  1.00  0.00     0.042 C 
BRANCH   8  10
ATOM     10  N   UNL A   1      32.944  30.523  26.358  1.00  0.00    -0.316 N 
ATOM     11  C   UNL A   1      32.357  29.512  25.621  1.00  0.00     0.255 C 
ATOM     12  O   UNL A   1      31.294  29.788  25.061  1.00  0.00    -0.269 OA
ATOM     13  H   UNL A   1      32.418  31.355  26.314  1.00  0.00     0.170 HD
BRANCH  11  14
ATOM     14  C   UNL A   1      32.795  28.094  25.603  1.00  0.00     0.040 A 
ATOM     15  C   UNL A   1      33.582  25.370  25.281  1.00  0.00    -0.043 A 
ATOM     16  C   UNL A   1      34.077  26.371  24.434  1.00  0.00     0.005 A 
ATOM     17  C   UNL A   1      32.781  25.796  26.358  1.00  0.00     0.005 A 
ATOM     18  C   UNL A   1      33.673  27.707  24.585  1.00  0.00     0.014 A 
ATOM     19  C   UNL A   1      32.438  27.146  26.547  1.00  0.00     0.014 A 
BRANCH  15  20
ATOM     20  C   UNL A   1      33.858  23.870  25.049  1.00  0.00    -0.013 C 
ATOM     21  C   UNL A   1      34.644  23.188  26.192  1.00  0.00     0.016 C 
ATOM     22  C   UNL A   1      34.704  23.709  23.767  1.00  0.00     0.016 C 
ATOM     23  C   UNL A   1      32.542  23.084  24.871  1.00  0.00     0.016 C 
ENDBRANCH  15  20
ENDBRANCH  11  14
ENDBRANCH   8  10
BRANCH   9  24
ATOM     24  C   UNL A   1      36.154  29.678  28.126  1.00  0.00    -0.023 A 
ATOM     25  C   UNL A   1      36.157  29.610  29.525  1.00  0.00     0.012 A 
ATOM     26  C   UNL A   1      37.382  29.681  27.446  1.00  0.00     0.012 A 
ATOM     27  C   UNL A   1      37.358  29.433  30.220  1.00  0.00     0.047 A 
ATOM     28  C   UNL A   1      38.576  29.462  28.134  1.00  0.00     0.047 A 
ATOM     29  C   UNL A   1      38.549  29.315  29.515  1.00  0.00     0.115 A 
BRANCH  29  30
ATOM     30  O   UNL A   1      39.683  29.022  30.213  1.00  0.00    -0.508 OA
ATOM     31  H   UNL A   1      39.680  28.326  30.841  1.00  0.00     0.293 HD
ENDBRANCH  29  30
ENDBRANCH   9  24
ENDBRANCH   6   8
ENDBRANCH   5   6
ENDBRANCH   4   5
ENDBRANCH   3   4
ENDBRANCH   2   3
ENDBRANCH   1   2
BRANCH   1  32
ATOM     32  C   UNL A   1      33.706  35.367  31.595  1.00  0.00     0.188 C 
BRANCH  32  33
ATOM     33  O   UNL A   1      33.983  34.930  32.918  1.00  0.00    -0.376 OA
BRANCH  33  34
ATOM     34  C   UNL A   1      35.257  34.409  33.234  1.00  0.00     0.202 C 
BRANCH  34  35
ATOM     35  C   UNL A   1      35.581  34.188  34.712  1.00  0.00     0.261 C 
BRANCH  35  36
ATOM     36  O   UNL A   1      36.977  34.123  35.028  1.00  0.00    -0.460 OA
BRANCH  36  37
ATOM     37  C   UNL A   1      37.353  33.032  35.731  1.00  0.00     0.338 C 
ATOM     38  O   UNL A   1      36.870  32.632  36.786  1.00  0.00    -0.246 OA
BRANCH  37  39
ATOM     39  C   UNL A   1      38.403  32.293  35.007  1.00  0.00     0.060 A 
ATOM     40  C   UNL A   1      39.727  32.420  35.442  1.00  0.00     0.016 A 
ATOM     41  C   UNL A   1      38.107  31.573  33.845  1.00  0.00     0.016 A 
ATOM     42  C   UNL A   1      40.766  31.877  34.687  1.00  0.00     0.010 A 
ATOM     43  C   UNL A   1      39.152  31.039  33.082  1.00  0.00     0.010 A 
ATOM     44  C   UNL A   1      40.488  31.227  33.476  1.00  0.00    -0.014 A 
BRANCH  44  45
ATOM     45  C   UNL A   1      41.601  30.896  32.550  1.00  0.00     0.031 A 
ATOM     46  C   UNL A   1      42.274  29.558  32.672  1.00  0.00     0.074 A 
ATOM     47  C   UNL A   1      42.000  31.765  31.606  1.00  0.00     0.049 A 
ATOM     48  N   UNL A   1      43.264  29.066  31.974  1.00  0.00    -0.248 NA
ATOM     49  C   UNL A   1      41.774  28.661  33.727  1.00  0.00     0.031 C 
ATOM     50  C   UNL A   1      41.433  33.092  31.405  1.00  0.00     0.029 A 
ATOM     51  N   UNL A   1      42.980  31.673  30.649  1.00  0.00    -0.354 N 
ATOM     52  C   UNL A   1      43.528  27.818  32.522  1.00  0.00     0.074 A 
ATOM     53  C   UNL A   1      42.600  27.629  33.616  1.00  0.00     0.031 C 
ATOM     54  C   UNL A   1      42.063  33.696  30.386  1.00  0.00     0.029 A 
ATOM     55  C   UNL A   1      43.115  32.814  29.890  1.00  0.00     0.049 A 
ATOM     56  H   UNL A   1      43.533  30.869  30.518  1.00  0.00     0.167 HD
ATOM     57  C   UNL A   1      44.454  26.907  32.142  1.00  0.00     0.034 A 
ATOM     58  C   UNL A   1      44.001  33.122  28.922  1.00  0.00     0.034 A 
ATOM     59  C   UNL A   1      45.365  27.096  31.045  1.00  0.00     0.049 A 
ATOM     60  C   UNL A   1      45.027  32.094  28.526  1.00  0.00     0.074 A 
ATOM     61  C   UNL A   1      46.314  26.215  30.556  1.00  0.00     0.029 A 
ATOM     62  N   UNL A   1      45.452  28.245  30.276  1.00  0.00    -0.354 N 
ATOM     63  N   UNL A   1      45.191  30.875  28.980  1.00  0.00    -0.248 NA
ATOM     64  C   UNL A   1      45.976  32.473  27.469  1.00  0.00     0.031 C 
ATOM     65  C   UNL A   1      46.992  26.845  29.506  1.00  0.00     0.029 A 
ATOM     66  C   UNL A   1      46.447  28.106  29.323  1.00  0.00     0.049 A 
ATOM     67  H   UNL A   1      44.888  29.045  30.390  1.00  0.00     0.167 HD
ATOM     68  C   UNL A   1      46.240  30.332  28.247  1.00  0.00     0.074 A 
ATOM     69  C   UNL A   1      46.657  31.348  27.302  1.00  0.00     0.031 C 
ATOM     70  C   UNL A   1      46.817  29.110  28.358  1.00  0.00     0.034 A 
BRANCH  57  71
ATOM     71  C   UNL A   1      44.515  25.618  32.915  1.00  0.00     0.023 A 
ATOM     72  C   UNL A   1      43.977  24.442  32.355  1.00  0.00     0.012 A 
ATOM     73  C   UNL A   1      45.134  25.563  34.179  1.00  0.00     0.148 A 
ATOM     74  C   UNL A   1      44.023  23.237  33.057  1.00  0.00     0.002 A 
ATOM     75  C   UNL A   1      45.214  24.350  34.853  1.00  0.00     0.091 A 
ATOM     76  F   UNL A   1      45.618  26.697  34.704  1.00  0.00    -0.205 F 
ATOM     77  C   UNL A   1      44.649  23.189  34.299  1.00  0.00     0.022 A 
BRANCH  75  78
ATOM     78  S   UNL A   1      46.061  24.171  36.426  1.00  0.00     0.127 S 
ATOM     79  O   UNL A   1      47.455  24.048  35.999  1.00  0.00    -0.237 OA
ATOM     80  O   UNL A   1      45.738  25.432  37.094  1.00  0.00    -0.237 OA
ATOM     81  O   UNL A   1      45.494  22.987  37.056  1.00  0.00    -0.744 OA
ENDBRANCH  75  78
ENDBRANCH  57  71
BRANCH  58  82
ATOM     82  C   UNL A   1      43.944  34.451  28.249  1.00  0.00     0.023 A 
ATOM     83  C   UNL A   1      43.079  34.640  27.153  1.00  0.00     0.012 A 
ATOM     84  C   UNL A   1      44.728  35.533  28.696  1.00  0.00     0.148 A 
ATOM     85  C   UNL A   1      43.016  35.871  26.499  1.00  0.00     0.002 A 
ATOM     86  C   UNL A   1      44.620  36.772  28.075  1.00  0.00     0.091 A 
ATOM     87  F   UNL A   1      45.562  35.331  29.726  1.00  0.00    -0.205 F 
ATOM     88  C   UNL A   1      43.778  36.939  26.965  1.00  0.00     0.022 A 
BRANCH  86  89
ATOM     89  S   UNL A   1      45.474  38.231  28.685  1.00  0.00     0.127 S 
ATOM     90  O   UNL A   1      46.081  38.755  27.464  1.00  0.00    -0.237 OA
ATOM     91  O   UNL A   1      44.370  39.031  29.216  1.00  0.00    -0.237 OA
ATOM     92  O   UNL A   1      46.405  37.747  29.696  1.00  0.00    -0.744 OA
ENDBRANCH  86  89
ENDBRANCH  58  82
BRANCH  70  93
ATOM     93  C   UNL A   1      47.945  28.785  27.413  1.00  0.00     0.023 A 
ATOM     94  C   UNL A   1      49.280  28.934  27.838  1.00  0.00     0.012 A 
ATOM     95  C   UNL A   1      47.680  28.264  26.132  1.00  0.00     0.148 A 
ATOM     96  C   UNL A   1      50.334  28.600  26.990  1.00  0.00     0.002 A 
ATOM     97  C   UNL A   1      48.735  27.885  25.311  1.00  0.00     0.091 A 
ATOM     98  F   UNL A   1      46.403  28.148  25.739  1.00  0.00    -0.205 F 
ATOM     99  C   UNL A   1      50.062  28.064  25.733  1.00  0.00     0.022 A 
BRANCH  97 100
ATOM    100  S   UNL A   1      48.479  27.097  23.717  1.00  0.00     0.127 S 
ATOM    101  O   UNL A   1      47.174  26.464  23.905  1.00  0.00    -0.237 OA
ATOM    102  O   UNL A   1      48.477  28.238  22.802  1.00  0.00    -0.237 OA
ATOM    103  O   UNL A   1      49.598  26.182  23.538  1.00  0.00    -0.744 OA
ENDBRANCH  97 100
ENDBRANCH  70  93
ENDBRANCH  44  45
ENDBRANCH  37  39
ENDBRANCH  36  37
ENDBRANCH  35  36
ENDBRANCH  34  35
ENDBRANCH  33  34
ENDBRANCH  32  33
ENDBRANCH   1  32
TORSDOF 25
ENDMDL
MODEL 2
REMARK VINA RESULT:      -8.6      1.905      3.783
REMARK SMILES CC(C)(C)c1ccc(C(=O)N/C(=C/c2ccc(O)cc2)C(=O)OCCOCCOCCOC(=O)c2ccc(-c3c4nc(c(-c5cccc(S(=O)(=O)[O-])c5F)c5ccc([nH]5)c(-c5cccc(S(=O)(=O)[O-])c5F)c5nc(c(-c6cccc(S(=O)(=O)[O-])c6F)c6ccc3[nH]6)C=C5)C=C4)cc2)cc1
REMARK SMILES IDX 27 1 26 2 25 3 24 4 23 5 21 6 22 7 12 8 13 9 11 10 9 11
REMARK SMILES IDX 10 12 8 14 5 15 6 16 99 17 7 18 98 19 2 20 1 21 3 22 4 23
REMARK SMILES IDX 14 24 15 25 20 26 16 27 19 28 17 29 18 30 28 32 29 33 30 34
REMARK SMILES IDX 31 35 32 36 33 37 34 38 35 39 36 40 97 41 37 42 96 43 38 44
REMARK SMILES IDX 39 45 40 46 90 47 41 48 95 49 89 50 91 51 42 52 94 53 88 54
REMARK SMILES IDX 87 55 43 57 75 58 55 59 74 60 56 61 59 62 73 63 92 64 57 65
REMARK SMILES IDX 58 66 72 68 93 69 60 70 44 71 45 72 53 73 46 74 48 75 54 76
REMARK SMILES IDX 47 77 49 78 50 79 51 80 52 81 76 82 77 83 85 84 78 85 80 86
REMARK SMILES IDX 86 87 79 88 81 89 82 90 83 91 84 92 61 93 62 94 70 95 63 96
REMARK SMILES IDX 65 97 71 98 64 99 66 100 67 101 68 102 69 103
REMARK H PARENT 11 13 18 31 91 56 59 67
REMARK Flexibility Score: inf
ROOT
ATOM      1  C   UNL A   1      34.184  34.141  29.147  1.00  0.00     0.188 C 
ENDROOT
BRANCH   1   2
ATOM      2  O   UNL A   1      33.617  34.298  27.851  1.00  0.00    -0.376 OA
BRANCH   2   3
ATOM      3  C   UNL A   1      32.281  33.871  27.618  1.00  0.00     0.202 C 
BRANCH   3   4
ATOM      4  C   UNL A   1      32.097  32.437  27.140  1.00  0.00     0.261 C 
BRANCH   4   5
ATOM      5  O   UNL A   1      33.370  31.941  26.735  1.00  0.00    -0.459 OA
BRANCH   5   6
ATOM      6  C   UNL A   1      33.446  30.626  26.470  1.00  0.00     0.354 C 
ATOM      7  O   UNL A   1      33.015  30.055  25.476  1.00  0.00    -0.244 OA
BRANCH   6   8
ATOM      8  C   UNL A   1      34.048  29.943  27.643  1.00  0.00     0.128 C 
ATOM      9  C   UNL A   1      33.988  28.589  27.661  1.00  0.00     0.042 C 
BRANCH   8  10
ATOM     10  N   UNL A   1      34.663  30.622  28.677  1.00  0.00    -0.316 N 
ATOM     11  C   UNL A   1      35.902  30.617  29.291  1.00  0.00     0.255 C 
ATOM     12  O   UNL A   1      36.064  31.429  30.205  1.00  0.00    -0.269 OA
ATOM     13  H   UNL A   1      34.060  31.286  29.085  1.00  0.00     0.170 HD
BRANCH  11  14
ATOM     14  C   UNL A   1      37.090  29.860  28.825  1.00  0.00     0.040 A 
ATOM     15  C   UNL A   1      39.496  28.464  28.188  1.00  0.00    -0.043 A 
ATOM     16  C   UNL A   1      38.823  28.232  29.395  1.00  0.00     0.005 A 
ATOM     17  C   UNL A   1      38.863  29.325  27.269  1.00  0.00     0.005 A 
ATOM     18  C   UNL A   1      37.649  28.934  29.712  1.00  0.00     0.014 A 
ATOM     19  C   UNL A   1      37.650  29.969  27.563  1.00  0.00     0.014 A 
BRANCH  15  20
ATOM     20  C   UNL A   1      40.876  27.850  27.872  1.00  0.00    -0.013 C 
ATOM     21  C   UNL A   1      41.498  27.059  29.045  1.00  0.00     0.016 C 
ATOM     22  C   UNL A   1      41.863  28.987  27.527  1.00  0.00     0.016 C 
ATOM     23  C   UNL A   1      40.795  26.889  26.668  1.00  0.00     0.016 C 
ENDBRANCH  15  20
ENDBRANCH  11  14
ENDBRANCH   8  10
BRANCH   9  24
ATOM     24  C   UNL A   1      33.254  27.770  26.671  1.00  0.00    -0.023 A 
ATOM     25  C   UNL A   1      33.969  27.119  25.658  1.00  0.00     0.012 A 
ATOM     26  C   UNL A   1      31.879  27.521  26.796  1.00  0.00     0.012 A 
ATOM     27  C   UNL A   1      33.344  26.155  24.861  1.00  0.00     0.047 A 
ATOM     28  C   UNL A   1      31.263  26.529  26.031  1.00  0.00     0.047 A 
ATOM     29  C   UNL A   1      32.010  25.836  25.086  1.00  0.00     0.115 A 
BRANCH  29  30
ATOM     30  O   UNL A   1      31.465  24.809  24.375  1.00  0.00    -0.508 OA
ATOM     31  H   UNL A   1      31.152  24.957  23.503  1.00  0.00     0.293 HD
ENDBRANCH  29  30
ENDBRANCH   9  24
ENDBRANCH   6   8
ENDBRANCH   5   6
ENDBRANCH   4   5
ENDBRANCH   3   4
ENDBRANCH   2   3
ENDBRANCH   1   2
BRANCH   1  32
ATOM     32  C   UNL A   1      33.720  35.034  30.315  1.00  0.00     0.188 C 
BRANCH  32  33
ATOM     33  O   UNL A   1      34.007  34.734  31.672  1.00  0.00    -0.376 OA
BRANCH  33  34
ATOM     34  C   UNL A   1      35.301  34.300  32.037  1.00  0.00     0.202 C 
BRANCH  34  35
ATOM     35  C   UNL A   1      35.693  34.416  33.511  1.00  0.00     0.261 C 
BRANCH  35  36
ATOM     36  O   UNL A   1      37.071  34.150  33.799  1.00  0.00    -0.460 OA
BRANCH  36  37
ATOM     37  C   UNL A   1      37.288  33.133  34.662  1.00  0.00     0.338 C 
ATOM     38  O   UNL A   1      36.654  32.884  35.683  1.00  0.00    -0.246 OA
BRANCH  37  39
ATOM     39  C   UNL A   1      38.372  32.264  34.167  1.00  0.00     0.060 A 
ATOM     40  C   UNL A   1      39.681  32.528  34.589  1.00  0.00     0.016 A 
ATOM     41  C   UNL A   1      38.124  31.274  33.213  1.00  0.00     0.016 A 
ATOM     42  C   UNL A   1      40.751  31.841  34.016  1.00  0.00     0.010 A 
ATOM     43  C   UNL A   1      39.199  30.595  32.630  1.00  0.00     0.010 A 
ATOM     44  C   UNL A   1      40.520  30.907  32.997  1.00  0.00    -0.014 A 
BRANCH  44  45
ATOM     45  C   UNL A   1      41.665  30.386  32.207  1.00  0.00     0.031 A 
ATOM     46  C   UNL A   1      42.263  29.060  32.584  1.00  0.00     0.074 A 
ATOM     47  C   UNL A   1      42.159  31.073  31.164  1.00  0.00     0.049 A 
ATOM     48  N   UNL A   1      43.264  28.422  32.037  1.00  0.00    -0.248 NA
ATOM     49  C   UNL A   1      41.661  28.366  33.735  1.00  0.00     0.031 C 
ATOM     50  C   UNL A   1      41.671  32.372  30.719  1.00  0.00     0.029 A 
ATOM     51  N   UNL A   1      43.185  30.788  30.298  1.00  0.00    -0.354 N 
ATOM     52  C   UNL A   1      43.436  27.269  32.793  1.00  0.00     0.074 A 
ATOM     53  C   UNL A   1      42.439  27.298  33.842  1.00  0.00     0.031 C 
ATOM     54  C   UNL A   1      42.386  32.777  29.658  1.00  0.00     0.029 A 
ATOM     55  C   UNL A   1      43.419  31.784  29.377  1.00  0.00     0.049 A 
ATOM     56  H   UNL A   1      43.704  29.952  30.332  1.00  0.00     0.167 HD
ATOM     57  C   UNL A   1      44.335  26.272  32.622  1.00  0.00     0.034 A 
ATOM     58  C   UNL A   1      44.372  31.896  28.431  1.00  0.00     0.034 A 
ATOM     59  C   UNL A   1      45.314  26.244  31.569  1.00  0.00     0.049 A 
ATOM     60  C   UNL A   1      45.366  30.777  28.269  1.00  0.00     0.074 A 
ATOM     61  C   UNL A   1      46.244  25.258  31.288  1.00  0.00     0.029 A 
ATOM     62  N   UNL A   1      45.501  27.249  30.634  1.00  0.00    -0.354 N 
ATOM     63  N   UNL A   1      45.444  29.642  28.922  1.00  0.00    -0.248 NA
ATOM     64  C   UNL A   1      46.391  30.942  27.228  1.00  0.00     0.031 C 
ATOM     65  C   UNL A   1      47.011  25.683  30.197  1.00  0.00     0.029 A 
ATOM     66  C   UNL A   1      46.539  26.917  29.780  1.00  0.00     0.049 A 
ATOM     67  H   UNL A   1      44.972  28.079  30.583  1.00  0.00     0.167 HD
ATOM     68  C   UNL A   1      46.504  28.945  28.352  1.00  0.00     0.074 A 
ATOM     69  C   UNL A   1      47.023  29.778  27.286  1.00  0.00     0.031 C 
ATOM     70  C   UNL A   1      47.013  27.736  28.693  1.00  0.00     0.034 A 
BRANCH  57  71
ATOM     71  C   UNL A   1      44.288  25.125  33.594  1.00  0.00     0.023 A 
ATOM     72  C   UNL A   1      43.449  24.022  33.333  1.00  0.00     0.012 A 
ATOM     73  C   UNL A   1      45.099  25.120  34.746  1.00  0.00     0.148 A 
ATOM     74  C   UNL A   1      43.391  22.949  34.222  1.00  0.00     0.002 A 
ATOM     75  C   UNL A   1      45.067  24.027  35.604  1.00  0.00     0.091 A 
ATOM     76  F   UNL A   1      45.871  26.188  34.988  1.00  0.00    -0.205 F 
ATOM     77  C   UNL A   1      44.206  22.947  35.350  1.00  0.00     0.022 A 
BRANCH  75  78
ATOM     78  S   UNL A   1      46.129  23.899  37.046  1.00  0.00     0.127 S 
ATOM     79  O   UNL A   1      47.458  24.015  36.446  1.00  0.00    -0.237 OA
ATOM     80  O   UNL A   1      45.714  25.057  37.837  1.00  0.00    -0.237 OA
ATOM     81  O   UNL A   1      45.828  22.610  37.654  1.00  0.00    -0.744 OA
ENDBRANCH  75  78
ENDBRANCH  57  71
BRANCH  58  82
ATOM     82  C   UNL A   1      44.419  33.100  27.552  1.00  0.00     0.023 A 
ATOM     83  C   UNL A   1      43.763  33.077  26.306  1.00  0.00     0.012 A 
ATOM     84  C   UNL A   1      45.095  34.270  27.949  1.00  0.00     0.148 A 
ATOM     85  C   UNL A   1      43.803  34.187  25.460  1.00  0.00     0.002 A 
ATOM     86  C   UNL A   1      45.084  35.391  27.126  1.00  0.00     0.091 A 
ATOM     87  F   UNL A   1      45.733  34.267  29.128  1.00  0.00    -0.205 F 
ATOM     88  C   UNL A   1      44.454  35.346  25.873  1.00  0.00     0.022 A 
BRANCH  86  89
ATOM     89  S   UNL A   1      45.795  36.962  27.632  1.00  0.00     0.127 S 
ATOM     90  O   UNL A   1      45.488  37.813  26.485  1.00  0.00    -0.237 OA
ATOM     91  O   UNL A   1      45.033  37.265  28.845  1.00  0.00    -0.237 OA
ATOM     92  O   UNL A   1      47.209  36.697  27.863  1.00  0.00    -0.744 OA
ENDBRANCH  86  89
ENDBRANCH  58  82
BRANCH  70  93
ATOM     93  C   UNL A   1      48.174  27.217  27.885  1.00  0.00     0.023 A 
ATOM     94  C   UNL A   1      47.938  26.558  26.663  1.00  0.00     0.012 A 
ATOM     95  C   UNL A   1      49.499  27.450  28.302  1.00  0.00     0.148 A 
ATOM     96  C   UNL A   1      49.003  26.108  25.884  1.00  0.00     0.002 A 
ATOM     97  C   UNL A   1      50.556  27.044  27.497  1.00  0.00     0.091 A 
ATOM     98  F   UNL A   1      49.702  28.063  29.477  1.00  0.00    -0.205 F 
ATOM     99  C   UNL A   1      50.310  26.362  26.294  1.00  0.00     0.022 A 
BRANCH  97 100
ATOM    100  S   UNL A   1      52.268  27.415  27.896  1.00  0.00     0.127 S 
ATOM    101  O   UNL A   1      52.235  27.432  29.358  1.00  0.00    -0.237 OA
ATOM    102  O   UNL A   1      52.977  26.275  27.315  1.00  0.00    -0.237 OA
ATOM    103  O   UNL A   1      52.559  28.694  27.262  1.00  0.00    -0.744 OA
ENDBRANCH  97 100
ENDBRANCH  70  93
ENDBRANCH  44  45
ENDBRANCH  37  39
ENDBRANCH  36  37
ENDBRANCH  35  36
ENDBRANCH  34  35
ENDBRANCH  33  34
ENDBRANCH  32  33
ENDBRANCH   1  32
TORSDOF 25
ENDMDL
MODEL 3
REMARK VINA RESULT:      -8.5      4.400     12.481
REMARK SMILES CC(C)(C)c1ccc(C(=O)N/C(=C/c2ccc(O)cc2)C(=O)OCCOCCOCCOC(=O)c2ccc(-c3c4nc(c(-c5cccc(S(=O)(=O)[O-])c5F)c5ccc([nH]5)c(-c5cccc(S(=O)(=O)[O-])c5F)c5nc(c(-c6cccc(S(=O)(=O)[O-])c6F)c6ccc3[nH]6)C=C5)C=C4)cc2)cc1
REMARK SMILES IDX 27 1 26 2 25 3 24 4 23 5 21 6 22 7 12 8 13 9 11 10 9 11
REMARK SMILES IDX 10 12 8 14 5 15 6 16 99 17 7 18 98 19 2 20 1 21 3 22 4 23
REMARK SMILES IDX 14 24 15 25 20 26 16 27 19 28 17 29 18 30 28 32 29 33 30 34
REMARK SMILES IDX 31 35 32 36 33 37 34 38 35 39 36 40 97 41 37 42 96 43 38 44
REMARK SMILES IDX 39 45 40 46 90 47 41 48 95 49 89 50 91 51 42 52 94 53 88 54
REMARK SMILES IDX 87 55 43 57 75 58 55 59 74 60 56 61 59 62 73 63 92 64 57 65
REMARK SMILES IDX 58 66 72 68 93 69 60 70 44 71 45 72 53 73 46 74 48 75 54 76
REMARK SMILES IDX 47 77 49 78 50 79 51 80 52 81 76 82 77 83 85 84 78 85 80 86
REMARK SMILES IDX 86 87 79 88 81 89 82 90 83 91 84 92 61 93 62 94 70 95 63 96
REMARK SMILES IDX 65 97 71 98 64 99 66 100 67 101 68 102 69 103
REMARK H PARENT 11 13 18 31 91 56 59 67
REMARK Flexibility Score: inf
ROOT
ATOM      1  C   UNL A   1      51.925  26.470  32.818  1.00  0.00     0.188 C 
ENDROOT
BRANCH   1   2
ATOM      2  O   UNL A   1      50.719  27.206  32.648  1.00  0.00    -0.376 OA
BRANCH   2   3
ATOM      3  C   UNL A   1      49.697  26.686  31.806  1.00  0.00     0.202 C 
BRANCH   3   4
ATOM      4  C   UNL A   1      48.808  27.704  31.105  1.00  0.00     0.261 C 
BRANCH   4   5
ATOM      5  O   UNL A   1      47.775  26.994  30.428  1.00  0.00    -0.459 OA
BRANCH   5   6
ATOM      6  C   UNL A   1      47.307  27.547  29.296  1.00  0.00     0.354 C 
ATOM      7  O   UNL A   1      46.194  28.026  29.123  1.00  0.00    -0.244 OA
BRANCH   6   8
ATOM      8  C   UNL A   1      48.333  27.385  28.235  1.00  0.00     0.128 C 
ATOM      9  C   UNL A   1      48.606  28.476  27.476  1.00  0.00     0.042 C 
BRANCH   8  10
ATOM     10  N   UNL A   1      49.010  26.202  28.014  1.00  0.00    -0.316 N 
ATOM     11  C   UNL A   1      49.581  25.554  26.934  1.00  0.00     0.255 C 
ATOM     12  O   UNL A   1      50.132  24.476  27.172  1.00  0.00    -0.269 OA
ATOM     13  H   UNL A   1      49.114  25.682  28.844  1.00  0.00     0.170 HD
BRANCH  11  14
ATOM     14  C   UNL A   1      49.746  26.126  25.576  1.00  0.00     0.040 A 
ATOM     15  C   UNL A   1      49.951  26.979  22.860  1.00  0.00    -0.043 A 
ATOM     16  C   UNL A   1      48.757  26.443  23.362  1.00  0.00     0.005 A 
ATOM     17  C   UNL A   1      50.990  27.180  23.789  1.00  0.00     0.005 A 
ATOM     18  C   UNL A   1      48.666  26.008  24.694  1.00  0.00     0.014 A 
ATOM     19  C   UNL A   1      50.869  26.809  25.139  1.00  0.00     0.014 A 
BRANCH  15  20
ATOM     20  C   UNL A   1      50.153  27.307  21.366  1.00  0.00    -0.013 C 
ATOM     21  C   UNL A   1      51.358  26.585  20.719  1.00  0.00     0.016 C 
ATOM     22  C   UNL A   1      50.408  28.823  21.216  1.00  0.00     0.016 C 
ATOM     23  C   UNL A   1      48.904  26.934  20.540  1.00  0.00     0.016 C 
ENDBRANCH  15  20
ENDBRANCH  11  14
ENDBRANCH   8  10
BRANCH   9  24
ATOM     24  C   UNL A   1      47.863  29.753  27.547  1.00  0.00    -0.023 A 
ATOM     25  C   UNL A   1      48.320  30.763  28.404  1.00  0.00     0.012 A 
ATOM     26  C   UNL A   1      46.791  30.031  26.686  1.00  0.00     0.012 A 
ATOM     27  C   UNL A   1      47.789  32.054  28.318  1.00  0.00     0.047 A 
ATOM     28  C   UNL A   1      46.290  31.327  26.569  1.00  0.00     0.047 A 
ATOM     29  C   UNL A   1      46.813  32.334  27.370  1.00  0.00     0.115 A 
BRANCH  29  30
ATOM     30  O   UNL A   1      46.405  33.628  27.231  1.00  0.00    -0.508 OA
ATOM     31  H   UNL A   1      46.837  34.192  26.619  1.00  0.00     0.293 HD
ENDBRANCH  29  30
ENDBRANCH   9  24
ENDBRANCH   6   8
ENDBRANCH   5   6
ENDBRANCH   4   5
ENDBRANCH   3   4
ENDBRANCH   2   3
ENDBRANCH   1   2
BRANCH   1  32
ATOM     32  C   UNL A   1      51.949  25.207  33.703  1.00  0.00     0.188 C 
BRANCH  32  33
ATOM     33  O   UNL A   1      50.910  24.890  34.617  1.00  0.00    -0.376 OA
BRANCH  33  34
ATOM     34  C   UNL A   1      49.979  23.876  34.299  1.00  0.00     0.202 C 
BRANCH  34  35
ATOM     35  C   UNL A   1      48.549  24.311  33.970  1.00  0.00     0.261 C 
BRANCH  35  36
ATOM     36  O   UNL A   1      47.616  24.211  35.053  1.00  0.00    -0.460 OA
BRANCH  36  37
ATOM     37  C   UNL A   1      47.543  25.302  35.846  1.00  0.00     0.338 C 
ATOM     38  O   UNL A   1      48.339  25.635  36.718  1.00  0.00    -0.246 OA
BRANCH  37  39
ATOM     39  C   UNL A   1      46.385  26.134  35.467  1.00  0.00     0.060 A 
ATOM     40  C   UNL A   1      45.105  25.578  35.572  1.00  0.00     0.016 A 
ATOM     41  C   UNL A   1      46.561  27.403  34.909  1.00  0.00     0.016 A 
ATOM     42  C   UNL A   1      44.002  26.266  35.068  1.00  0.00     0.010 A 
ATOM     43  C   UNL A   1      45.455  28.086  34.392  1.00  0.00     0.010 A 
ATOM     44  C   UNL A   1      44.178  27.501  34.428  1.00  0.00    -0.014 A 
BRANCH  44  45
ATOM     45  C   UNL A   1      43.054  28.094  33.658  1.00  0.00     0.031 A 
ATOM     46  C   UNL A   1      42.888  27.719  32.212  1.00  0.00     0.074 A 
ATOM     47  C   UNL A   1      42.186  28.941  34.236  1.00  0.00     0.049 A 
ATOM     48  N   UNL A   1      41.985  28.118  31.356  1.00  0.00    -0.248 NA
ATOM     49  C   UNL A   1      43.876  26.781  31.654  1.00  0.00     0.031 C 
ATOM     50  C   UNL A   1      42.258  29.386  35.622  1.00  0.00     0.029 A 
ATOM     51  N   UNL A   1      41.085  29.590  33.735  1.00  0.00    -0.354 N 
ATOM     52  C   UNL A   1      42.311  27.508  30.151  1.00  0.00     0.074 A 
ATOM     53  C   UNL A   1      43.499  26.717  30.385  1.00  0.00     0.031 C 
ATOM     54  C   UNL A   1      41.245  30.229  35.872  1.00  0.00     0.029 A 
ATOM     55  C   UNL A   1      40.477  30.423  34.646  1.00  0.00     0.049 A 
ATOM     56  H   UNL A   1      40.762  29.471  32.812  1.00  0.00     0.167 HD
ATOM     57  C   UNL A   1      41.671  27.592  28.962  1.00  0.00     0.034 A 
ATOM     58  C   UNL A   1      39.435  31.265  34.502  1.00  0.00     0.034 A 
ATOM     59  C   UNL A   1      40.483  28.370  28.740  1.00  0.00     0.049 A 
ATOM     60  C   UNL A   1      38.748  31.346  33.165  1.00  0.00     0.074 A 
ATOM     61  C   UNL A   1      39.737  28.489  27.579  1.00  0.00     0.029 A 
ATOM     62  N   UNL A   1      39.872  29.173  29.691  1.00  0.00    -0.354 N 
ATOM     63  N   UNL A   1      39.002  30.677  32.066  1.00  0.00    -0.248 NA
ATOM     64  C   UNL A   1      37.619  32.281  33.051  1.00  0.00     0.031 C 
ATOM     65  C   UNL A   1      38.691  29.385  27.824  1.00  0.00     0.029 A 
ATOM     66  C   UNL A   1      38.767  29.802  29.143  1.00  0.00     0.049 A 
ATOM     67  H   UNL A   1      40.180  29.281  30.620  1.00  0.00     0.167 HD
ATOM     68  C   UNL A   1      38.048  31.086  31.140  1.00  0.00     0.074 A 
ATOM     69  C   UNL A   1      37.197  32.044  31.816  1.00  0.00     0.031 C 
ATOM     70  C   UNL A   1      37.902  30.716  29.844  1.00  0.00     0.034 A 
BRANCH  57  71
ATOM     71  C   UNL A   1      42.244  26.808  27.812  1.00  0.00     0.023 A 
ATOM     72  C   UNL A   1      43.134  27.434  26.915  1.00  0.00     0.012 A 
ATOM     73  C   UNL A   1      41.929  25.446  27.638  1.00  0.00     0.148 A 
ATOM     74  C   UNL A   1      43.675  26.725  25.842  1.00  0.00     0.002 A 
ATOM     75  C   UNL A   1      42.506  24.736  26.592  1.00  0.00     0.091 A 
ATOM     76  F   UNL A   1      41.062  24.877  28.487  1.00  0.00    -0.205 F 
ATOM     77  C   UNL A   1      43.369  25.376  25.687  1.00  0.00     0.022 A 
BRANCH  75  78
ATOM     78  S   UNL A   1      42.229  22.978  26.348  1.00  0.00     0.127 S 
ATOM     79  O   UNL A   1      40.769  22.901  26.391  1.00  0.00    -0.237 OA
ATOM     80  O   UNL A   1      42.813  22.756  25.025  1.00  0.00    -0.237 OA
ATOM     81  O   UNL A   1      42.922  22.307  27.438  1.00  0.00    -0.744 OA
ENDBRANCH  75  78
ENDBRANCH  57  71
BRANCH  58  82
ATOM     82  C   UNL A   1      38.965  32.081  35.658  1.00  0.00     0.023 A 
ATOM     83  C   UNL A   1      39.236  33.463  35.690  1.00  0.00     0.012 A 
ATOM     84  C   UNL A   1      38.239  31.502  36.718  1.00  0.00     0.148 A 
ATOM     85  C   UNL A   1      38.818  34.246  36.767  1.00  0.00     0.002 A 
ATOM     86  C   UNL A   1      37.778  32.297  37.760  1.00  0.00     0.091 A 
ATOM     87  F   UNL A   1      38.008  30.181  36.682  1.00  0.00    -0.205 F 
ATOM     88  C   UNL A   1      38.081  33.667  37.796  1.00  0.00     0.022 A 
BRANCH  86  89
ATOM     89  S   UNL A   1      36.720  31.655  39.064  1.00  0.00     0.127 S 
ATOM     90  O   UNL A   1      36.627  30.242  38.704  1.00  0.00    -0.237 OA
ATOM     91  O   UNL A   1      37.511  31.933  40.263  1.00  0.00    -0.237 OA
ATOM     92  O   UNL A   1      35.480  32.414  38.974  1.00  0.00    -0.744 OA
ENDBRANCH  86  89
ENDBRANCH  58  82
BRANCH  70  93
ATOM     93  C   UNL A   1      36.758  31.323  29.073  1.00  0.00     0.023 A 
ATOM     94  C   UNL A   1      36.775  32.696  28.760  1.00  0.00     0.012 A 
ATOM     95  C   UNL A   1      35.706  30.517  28.597  1.00  0.00     0.148 A 
ATOM     96  C   UNL A   1      35.745  33.265  28.012  1.00  0.00     0.002 A 
ATOM     97  C   UNL A   1      34.709  31.080  27.810  1.00  0.00     0.091 A 
ATOM     98  F   UNL A   1      35.698  29.216  28.922  1.00  0.00    -0.205 F 
ATOM     99  C   UNL A   1      34.720  32.456  27.528  1.00  0.00     0.022 A 
BRANCH  97 100
ATOM    100  S   UNL A   1      33.404  30.098  27.062  1.00  0.00     0.127 S 
ATOM    101  O   UNL A   1      33.255  29.013  28.032  1.00  0.00    -0.237 OA
ATOM    102  O   UNL A   1      32.286  31.041  27.025  1.00  0.00    -0.237 OA
ATOM    103  O   UNL A   1      33.903  29.701  25.752  1.00  0.00    -0.744 OA
ENDBRANCH  97 100
ENDBRANCH  70  93
ENDBRANCH  44  45
ENDBRANCH  37  39
ENDBRANCH  36  37
ENDBRANCH  35  36
ENDBRANCH  34  35
ENDBRANCH  33  34
ENDBRANCH  32  33
ENDBRANCH   1  32
TORSDOF 25
ENDMDL
