MODEL 1
REMARK VINA RESULT:     -10.2      0.000      0.000
REMARK SMILES CC(C)(C)OC(=O)N1CC[N@H+](Cc2ccc(Cl)nc2)[C@H](C(=O)OCCOCCOCCOC(=O)c2ccc(-c3c4nc(c(-c5cccc(S(=O)(=O)[O-])c5F)c5ccc([nH]5)c(-c5cccc(S(=O)(=O)[O-])c5F)c5nc(c(-c6cccc(S(=O)(=O)[O-])c6F)c6ccc3[nH]6)C=C5)C=C4)cc2)C1
REMARK SMILES IDX 27 1 26 2 25 3 24 4 23 5 21 6 22 7 20 8 8 9 9 10 98 11 10 12
REMARK SMILES IDX 11 13 6 15 7 16 5 17 2 18 1 19 3 20 4 21 12 22 13 23 14 24
REMARK SMILES IDX 19 25 15 26 18 27 16 28 17 29 28 30 29 31 30 32 31 33 32 34
REMARK SMILES IDX 33 35 34 36 35 37 36 38 97 39 37 40 96 41 38 42 39 43 40 44
REMARK SMILES IDX 90 45 41 46 95 47 89 48 91 49 42 50 94 51 88 52 87 53 43 55
REMARK SMILES IDX 75 56 55 57 74 58 56 59 59 60 73 61 92 62 57 63 58 64 72 66
REMARK SMILES IDX 93 67 60 68 44 69 45 70 53 71 46 72 48 73 54 74 47 75 49 76
REMARK SMILES IDX 50 77 51 78 52 79 76 80 77 81 85 82 78 83 80 84 86 85 79 86
REMARK SMILES IDX 81 87 82 88 83 89 84 90 61 91 62 92 70 93 63 94 65 95 71 96
REMARK SMILES IDX 64 97 66 98 67 99 68 100 69 101
REMARK H PARENT 11 14 91 54 59 65
REMARK Flexibility Score: inf
ROOT
ATOM      1  C   UNL A   1      33.251  20.941  24.211  1.00  0.00     0.188 C 
ENDROOT
BRANCH   1   2
ATOM      2  O   UNL A   1      32.025  21.619  24.448  1.00  0.00    -0.376 OA
BRANCH   2   3
ATOM      3  C   UNL A   1      31.729  22.083  25.753  1.00  0.00     0.202 C 
BRANCH   3   4
ATOM      4  C   UNL A   1      31.625  23.599  25.973  1.00  0.00     0.261 C 
BRANCH   4   5
ATOM      5  O   UNL A   1      32.822  24.299  26.401  1.00  0.00    -0.459 OA
BRANCH   5   6
ATOM      6  C   UNL A   1      33.312  25.224  25.525  1.00  0.00     0.366 C 
ATOM      7  O   UNL A   1      34.401  25.111  24.971  1.00  0.00    -0.245 OA
BRANCH   6   8
ATOM      8  C   UNL A   1      32.442  26.484  25.363  1.00  0.00     0.315 C 
ATOM      9  N   UNL A   1      31.072  28.098  24.066  1.00  0.00    -0.296 N 
ATOM     10  C   UNL A   1      30.905  28.898  25.281  1.00  0.00     0.184 C 
ATOM     11  C   UNL A   1      32.071  27.006  23.980  1.00  0.00     0.200 C 
ATOM     12  C   UNL A   1      31.561  28.358  26.557  1.00  0.00     0.285 C 
ATOM     13  N   UNL A   1      32.780  27.583  26.318  1.00  0.00    -0.316 N 
ATOM     14  H   UNL A   1      33.112  27.096  27.150  1.00  0.00     0.349 HD
BRANCH   9  15
ATOM     15  C   UNL A   1      30.379  28.558  22.970  1.00  0.00     0.410 C 
ATOM     16  O   UNL A   1      30.460  28.053  21.864  1.00  0.00    -0.224 OA
BRANCH  15  17
ATOM     17  O   UNL A   1      29.801  29.752  23.245  1.00  0.00    -0.444 OA
BRANCH  17  18
ATOM     18  C   UNL A   1      28.446  29.970  22.789  1.00  0.00     0.106 C 
ATOM     19  C   UNL A   1      27.953  31.156  23.628  1.00  0.00     0.056 C 
ATOM     20  C   UNL A   1      27.603  28.731  23.082  1.00  0.00     0.056 C 
ATOM     21  C   UNL A   1      28.362  30.391  21.307  1.00  0.00     0.056 C 
ENDBRANCH  17  18
ENDBRANCH  15  17
ENDBRANCH   9  15
BRANCH  13  22
ATOM     22  C   UNL A   1      33.978  28.412  26.117  1.00  0.00     0.301 C 
BRANCH  22  23
ATOM     23  C   UNL A   1      34.256  29.641  26.973  1.00  0.00     0.025 A 
ATOM     24  C   UNL A   1      35.431  29.787  27.723  1.00  0.00     0.014 A 
ATOM     25  C   UNL A   1      33.385  30.728  27.020  1.00  0.00     0.122 A 
ATOM     26  C   UNL A   1      35.614  30.904  28.546  1.00  0.00     0.041 A 
ATOM     27  N   UNL A   1      33.542  31.841  27.772  1.00  0.00    -0.244 NA
ATOM     28  C   UNL A   1      34.644  31.887  28.537  1.00  0.00     0.129 A 
ATOM     29  Cl  UNL A   1      34.758  33.272  29.540  1.00  0.00    -0.062 Cl
ENDBRANCH  22  23
ENDBRANCH  13  22
ENDBRANCH   6   8
ENDBRANCH   5   6
ENDBRANCH   4   5
ENDBRANCH   3   4
ENDBRANCH   2   3
ENDBRANCH   1   2
BRANCH   1  30
ATOM     30  C   UNL A   1      34.557  21.624  24.629  1.00  0.00     0.188 C 
BRANCH  30  31
ATOM     31  O   UNL A   1      35.158  22.375  23.590  1.00  0.00    -0.376 OA
BRANCH  31  32
ATOM     32  C   UNL A   1      36.530  22.678  23.776  1.00  0.00     0.202 C 
BRANCH  32  33
ATOM     33  C   UNL A   1      37.245  21.674  24.691  1.00  0.00     0.261 C 
BRANCH  33  34
ATOM     34  O   UNL A   1      37.830  22.268  25.871  1.00  0.00    -0.460 OA
BRANCH  34  35
ATOM     35  C   UNL A   1      39.102  21.924  26.174  1.00  0.00     0.338 C 
ATOM     36  O   UNL A   1      39.654  20.872  25.906  1.00  0.00    -0.246 OA
BRANCH  35  37
ATOM     37  C   UNL A   1      39.790  23.082  26.788  1.00  0.00     0.060 A 
ATOM     38  C   UNL A   1      39.589  24.352  26.243  1.00  0.00     0.016 A 
ATOM     39  C   UNL A   1      40.718  22.917  27.813  1.00  0.00     0.016 A 
ATOM     40  C   UNL A   1      40.302  25.460  26.706  1.00  0.00     0.010 A 
ATOM     41  C   UNL A   1      41.441  24.029  28.278  1.00  0.00     0.010 A 
ATOM     42  C   UNL A   1      41.255  25.308  27.715  1.00  0.00    -0.014 A 
BRANCH  42  43
ATOM     43  C   UNL A   1      42.154  26.441  28.072  1.00  0.00     0.031 A 
ATOM     44  C   UNL A   1      41.593  27.596  28.857  1.00  0.00     0.074 A 
ATOM     45  C   UNL A   1      43.457  26.453  27.732  1.00  0.00     0.049 A 
ATOM     46  N   UNL A   1      42.120  28.765  29.110  1.00  0.00    -0.248 NA
ATOM     47  C   UNL A   1      40.254  27.400  29.434  1.00  0.00     0.031 C 
ATOM     48  C   UNL A   1      44.169  25.368  27.060  1.00  0.00     0.029 A 
ATOM     49  N   UNL A   1      44.408  27.438  27.880  1.00  0.00    -0.354 N 
ATOM     50  C   UNL A   1      41.149  29.475  29.807  1.00  0.00     0.074 A 
ATOM     51  C   UNL A   1      40.012  28.591  29.960  1.00  0.00     0.031 C 
ATOM     52  C   UNL A   1      45.431  25.759  26.817  1.00  0.00     0.029 A 
ATOM     53  C   UNL A   1      45.596  27.145  27.252  1.00  0.00     0.049 A 
ATOM     54  H   UNL A   1      44.253  28.267  28.386  1.00  0.00     0.167 HD
ATOM     55  C   UNL A   1      41.195  30.748  30.268  1.00  0.00     0.034 A 
ATOM     56  C   UNL A   1      46.670  27.921  26.994  1.00  0.00     0.034 A 
ATOM     57  C   UNL A   1      42.337  31.613  30.146  1.00  0.00     0.049 A 
ATOM     58  C   UNL A   1      46.679  29.356  27.456  1.00  0.00     0.074 A 
ATOM     59  C   UNL A   1      42.486  32.911  30.602  1.00  0.00     0.029 A 
ATOM     60  N   UNL A   1      43.522  31.276  29.510  1.00  0.00    -0.354 N 
ATOM     61  N   UNL A   1      45.769  30.011  28.136  1.00  0.00    -0.248 NA
ATOM     62  C   UNL A   1      47.871  30.154  27.127  1.00  0.00     0.031 C 
ATOM     63  C   UNL A   1      43.745  33.373  30.204  1.00  0.00     0.029 A 
ATOM     64  C   UNL A   1      44.401  32.345  29.544  1.00  0.00     0.049 A 
ATOM     65  H   UNL A   1      43.711  30.404  29.095  1.00  0.00     0.167 HD
ATOM     66  C   UNL A   1      46.289  31.286  28.343  1.00  0.00     0.074 A 
ATOM     67  C   UNL A   1      47.602  31.305  27.731  1.00  0.00     0.031 C 
ATOM     68  C   UNL A   1      45.725  32.345  28.973  1.00  0.00     0.034 A 
BRANCH  55  69
ATOM     69  C   UNL A   1      39.946  31.293  30.912  1.00  0.00     0.023 A 
ATOM     70  C   UNL A   1      38.947  31.907  30.131  1.00  0.00     0.012 A 
ATOM     71  C   UNL A   1      39.763  31.185  32.305  1.00  0.00     0.148 A 
ATOM     72  C   UNL A   1      37.811  32.450  30.731  1.00  0.00     0.002 A 
ATOM     73  C   UNL A   1      38.606  31.682  32.890  1.00  0.00     0.091 A 
ATOM     74  F   UNL A   1      40.733  30.618  33.035  1.00  0.00    -0.205 F 
ATOM     75  C   UNL A   1      37.637  32.331  32.108  1.00  0.00     0.022 A 
BRANCH  73  76
ATOM     76  S   UNL A   1      38.257  31.501  34.642  1.00  0.00     0.127 S 
ATOM     77  O   UNL A   1      39.360  32.252  35.242  1.00  0.00    -0.237 OA
ATOM     78  O   UNL A   1      36.947  32.142  34.763  1.00  0.00    -0.237 OA
ATOM     79  O   UNL A   1      38.257  30.069  34.905  1.00  0.00    -0.744 OA
ENDBRANCH  73  76
ENDBRANCH  55  69
BRANCH  56  80
ATOM     80  C   UNL A   1      47.820  27.362  26.226  1.00  0.00     0.023 A 
ATOM     81  C   UNL A   1      47.873  27.517  24.828  1.00  0.00     0.012 A 
ATOM     82  C   UNL A   1      48.875  26.696  26.884  1.00  0.00     0.148 A 
ATOM     83  C   UNL A   1      48.946  27.004  24.097  1.00  0.00     0.002 A 
ATOM     84  C   UNL A   1      49.967  26.240  26.157  1.00  0.00     0.091 A 
ATOM     85  F   UNL A   1      48.794  26.540  28.212  1.00  0.00    -0.205 F 
ATOM     86  C   UNL A   1      49.997  26.379  24.761  1.00  0.00     0.022 A 
BRANCH  84  87
ATOM     87  S   UNL A   1      51.422  25.532  26.937  1.00  0.00     0.127 S 
ATOM     88  O   UNL A   1      50.826  24.676  27.961  1.00  0.00    -0.237 OA
ATOM     89  O   UNL A   1      52.039  24.817  25.820  1.00  0.00    -0.237 OA
ATOM     90  O   UNL A   1      52.195  26.660  27.436  1.00  0.00    -0.744 OA
ENDBRANCH  84  87
ENDBRANCH  56  80
BRANCH  68  91
ATOM     91  C   UNL A   1      46.534  33.613  29.089  1.00  0.00     0.023 A 
ATOM     92  C   UNL A   1      47.409  33.800  30.178  1.00  0.00     0.012 A 
ATOM     93  C   UNL A   1      46.485  34.587  28.070  1.00  0.00     0.148 A 
ATOM     94  C   UNL A   1      48.198  34.948  30.266  1.00  0.00     0.002 A 
ATOM     95  C   UNL A   1      47.311  35.703  28.138  1.00  0.00     0.091 A 
ATOM     96  F   UNL A   1      45.633  34.401  27.051  1.00  0.00    -0.205 F 
ATOM     97  C   UNL A   1      48.158  35.891  29.242  1.00  0.00     0.022 A 
BRANCH  95  98
ATOM     98  S   UNL A   1      47.401  36.917  26.818  1.00  0.00     0.127 S 
ATOM     99  O   UNL A   1      48.733  37.483  27.023  1.00  0.00    -0.237 OA
ATOM    100  O   UNL A   1      47.268  36.085  25.622  1.00  0.00    -0.237 OA
ATOM    101  O   UNL A   1      46.293  37.837  27.040  1.00  0.00    -0.744 OA
ENDBRANCH  95  98
ENDBRANCH  68  91
ENDBRANCH  42  43
ENDBRANCH  35  37
ENDBRANCH  34  35
ENDBRANCH  33  34
ENDBRANCH  32  33
ENDBRANCH  31  32
ENDBRANCH  30  31
ENDBRANCH   1  30
TORSDOF 25
ENDMDL
MODEL 2
REMARK VINA RESULT:      -9.9      3.182      5.425
REMARK SMILES CC(C)(C)OC(=O)N1CC[N@H+](Cc2ccc(Cl)nc2)[C@H](C(=O)OCCOCCOCCOC(=O)c2ccc(-c3c4nc(c(-c5cccc(S(=O)(=O)[O-])c5F)c5ccc([nH]5)c(-c5cccc(S(=O)(=O)[O-])c5F)c5nc(c(-c6cccc(S(=O)(=O)[O-])c6F)c6ccc3[nH]6)C=C5)C=C4)cc2)C1
REMARK SMILES IDX 27 1 26 2 25 3 24 4 23 5 21 6 22 7 20 8 8 9 9 10 98 11 10 12
REMARK SMILES IDX 11 13 6 15 7 16 5 17 2 18 1 19 3 20 4 21 12 22 13 23 14 24
REMARK SMILES IDX 19 25 15 26 18 27 16 28 17 29 28 30 29 31 30 32 31 33 32 34
REMARK SMILES IDX 33 35 34 36 35 37 36 38 97 39 37 40 96 41 38 42 39 43 40 44
REMARK SMILES IDX 90 45 41 46 95 47 89 48 91 49 42 50 94 51 88 52 87 53 43 55
REMARK SMILES IDX 75 56 55 57 74 58 56 59 59 60 73 61 92 62 57 63 58 64 72 66
REMARK SMILES IDX 93 67 60 68 44 69 45 70 53 71 46 72 48 73 54 74 47 75 49 76
REMARK SMILES IDX 50 77 51 78 52 79 76 80 77 81 85 82 78 83 80 84 86 85 79 86
REMARK SMILES IDX 81 87 82 88 83 89 84 90 61 91 62 92 70 93 63 94 65 95 71 96
REMARK SMILES IDX 64 97 66 98 67 99 68 100 69 101
REMARK H PARENT 11 14 91 54 59 65
REMARK Flexibility Score: inf
ROOT
ATOM      1  C   UNL A   1      40.297  22.790  26.616  1.00  0.00     0.188 C 
ENDROOT
BRANCH   1   2
ATOM      2  O   UNL A   1      39.136  22.211  26.039  1.00  0.00    -0.376 OA
BRANCH   2   3
ATOM      3  C   UNL A   1      37.949  22.977  25.946  1.00  0.00     0.202 C 
BRANCH   3   4
ATOM      4  C   UNL A   1      36.902  22.563  24.902  1.00  0.00     0.261 C 
BRANCH   4   5
ATOM      5  O   UNL A   1      35.576  23.142  25.013  1.00  0.00    -0.459 OA
BRANCH   5   6
ATOM      6  C   UNL A   1      34.982  23.489  23.834  1.00  0.00     0.366 C 
ATOM      7  O   UNL A   1      35.563  23.446  22.753  1.00  0.00    -0.245 OA
BRANCH   6   8
ATOM      8  C   UNL A   1      33.554  24.048  23.971  1.00  0.00     0.315 C 
ATOM      9  N   UNL A   1      31.804  25.469  25.010  1.00  0.00    -0.296 N 
ATOM     10  C   UNL A   1      30.824  24.903  24.081  1.00  0.00     0.184 C 
ATOM     11  C   UNL A   1      33.149  24.873  25.186  1.00  0.00     0.200 C 
ATOM     12  C   UNL A   1      31.349  23.881  23.065  1.00  0.00     0.285 C 
ATOM     13  N   UNL A   1      32.485  23.094  23.545  1.00  0.00    -0.316 N 
ATOM     14  H   UNL A   1      32.924  22.540  22.810  1.00  0.00     0.349 HD
BRANCH   9  15
ATOM     15  C   UNL A   1      31.317  26.460  25.831  1.00  0.00     0.410 C 
ATOM     16  O   UNL A   1      30.728  26.238  26.874  1.00  0.00    -0.224 OA
BRANCH  15  17
ATOM     17  O   UNL A   1      31.385  27.662  25.210  1.00  0.00    -0.444 OA
BRANCH  17  18
ATOM     18  C   UNL A   1      32.492  28.533  25.537  1.00  0.00     0.106 C 
ATOM     19  C   UNL A   1      31.852  29.921  25.671  1.00  0.00     0.056 C 
ATOM     20  C   UNL A   1      33.501  28.528  24.391  1.00  0.00     0.056 C 
ATOM     21  C   UNL A   1      33.151  28.199  26.891  1.00  0.00     0.056 C 
ENDBRANCH  17  18
ENDBRANCH  15  17
ENDBRANCH   9  15
BRANCH  13  22
ATOM     22  C   UNL A   1      32.101  21.963  24.403  1.00  0.00     0.301 C 
BRANCH  22  23
ATOM     23  C   UNL A   1      32.559  20.540  24.108  1.00  0.00     0.025 A 
ATOM     24  C   UNL A   1      32.120  19.825  22.984  1.00  0.00     0.014 A 
ATOM     25  C   UNL A   1      33.489  19.877  24.905  1.00  0.00     0.122 A 
ATOM     26  C   UNL A   1      32.517  18.497  22.789  1.00  0.00     0.041 A 
ATOM     27  N   UNL A   1      33.926  18.609  24.731  1.00  0.00    -0.244 NA
ATOM     28  C   UNL A   1      33.406  17.943  23.688  1.00  0.00     0.129 A 
ATOM     29  Cl  UNL A   1      33.918  16.313  23.557  1.00  0.00    -0.062 Cl
ENDBRANCH  22  23
ENDBRANCH  13  22
ENDBRANCH   6   8
ENDBRANCH   5   6
ENDBRANCH   4   5
ENDBRANCH   3   4
ENDBRANCH   2   3
ENDBRANCH   1   2
BRANCH   1  30
ATOM     30  C   UNL A   1      41.137  21.943  27.577  1.00  0.00     0.188 C 
BRANCH  30  31
ATOM     31  O   UNL A   1      40.797  20.569  27.562  1.00  0.00    -0.376 OA
BRANCH  31  32
ATOM     32  C   UNL A   1      41.891  19.672  27.655  1.00  0.00     0.202 C 
BRANCH  32  33
ATOM     33  C   UNL A   1      42.280  19.062  26.303  1.00  0.00     0.261 C 
BRANCH  33  34
ATOM     34  O   UNL A   1      42.489  20.036  25.256  1.00  0.00    -0.460 OA
BRANCH  34  35
ATOM     35  C   UNL A   1      43.744  20.163  24.767  1.00  0.00     0.338 C 
ATOM     36  O   UNL A   1      44.332  19.365  24.060  1.00  0.00    -0.246 OA
BRANCH  35  37
ATOM     37  C   UNL A   1      44.275  21.499  25.120  1.00  0.00     0.060 A 
ATOM     38  C   UNL A   1      45.196  21.604  26.165  1.00  0.00     0.016 A 
ATOM     39  C   UNL A   1      43.790  22.657  24.518  1.00  0.00     0.016 A 
ATOM     40  C   UNL A   1      45.640  22.847  26.618  1.00  0.00     0.010 A 
ATOM     41  C   UNL A   1      44.231  23.911  24.975  1.00  0.00     0.010 A 
ATOM     42  C   UNL A   1      45.144  24.020  26.043  1.00  0.00    -0.014 A 
BRANCH  42  43
ATOM     43  C   UNL A   1      45.460  25.343  26.650  1.00  0.00     0.031 A 
ATOM     44  C   UNL A   1      44.332  26.190  27.176  1.00  0.00     0.074 A 
ATOM     45  C   UNL A   1      46.724  25.795  26.760  1.00  0.00     0.049 A 
ATOM     46  N   UNL A   1      44.338  27.439  27.561  1.00  0.00    -0.248 NA
ATOM     47  C   UNL A   1      43.021  25.532  27.281  1.00  0.00     0.031 C 
ATOM     48  C   UNL A   1      47.926  25.053  26.389  1.00  0.00     0.029 A 
ATOM     49  N   UNL A   1      47.200  27.013  27.191  1.00  0.00    -0.354 N 
ATOM     50  C   UNL A   1      43.020  27.743  27.879  1.00  0.00     0.074 A 
ATOM     51  C   UNL A   1      42.248  26.536  27.669  1.00  0.00     0.031 C 
ATOM     52  C   UNL A   1      48.999  25.841  26.568  1.00  0.00     0.029 A 
ATOM     53  C   UNL A   1      48.554  27.165  26.999  1.00  0.00     0.049 A 
ATOM     54  H   UNL A   1      46.629  27.704  27.597  1.00  0.00     0.167 HD
ATOM     55  C   UNL A   1      42.497  28.920  28.299  1.00  0.00     0.034 A 
ATOM     56  C   UNL A   1      49.338  28.260  27.092  1.00  0.00     0.034 A 
ATOM     57  C   UNL A   1      43.270  30.109  28.541  1.00  0.00     0.049 A 
ATOM     58  C   UNL A   1      48.730  29.579  27.497  1.00  0.00     0.074 A 
ATOM     59  C   UNL A   1      42.832  31.342  28.988  1.00  0.00     0.029 A 
ATOM     60  N   UNL A   1      44.638  30.219  28.342  1.00  0.00    -0.354 N 
ATOM     61  N   UNL A   1      47.490  29.852  27.820  1.00  0.00    -0.248 NA
ATOM     62  C   UNL A   1      49.635  30.737  27.562  1.00  0.00     0.031 C 
ATOM     63  C   UNL A   1      43.930  32.211  29.019  1.00  0.00     0.029 A 
ATOM     64  C   UNL A   1      45.059  31.504  28.639  1.00  0.00     0.049 A 
ATOM     65  H   UNL A   1      45.224  29.490  28.034  1.00  0.00     0.167 HD
ATOM     66  C   UNL A   1      47.469  31.202  28.157  1.00  0.00     0.074 A 
ATOM     67  C   UNL A   1      48.826  31.688  28.014  1.00  0.00     0.031 C 
ATOM     68  C   UNL A   1      46.420  31.971  28.539  1.00  0.00     0.034 A 
BRANCH  55  69
ATOM     69  C   UNL A   1      41.003  28.986  28.479  1.00  0.00     0.023 A 
ATOM     70  C   UNL A   1      40.151  29.098  27.362  1.00  0.00     0.012 A 
ATOM     71  C   UNL A   1      40.442  28.925  29.771  1.00  0.00     0.148 A 
ATOM     72  C   UNL A   1      38.770  29.202  27.531  1.00  0.00     0.002 A 
ATOM     73  C   UNL A   1      39.064  28.978  29.928  1.00  0.00     0.091 A 
ATOM     74  F   UNL A   1      41.269  28.840  30.823  1.00  0.00    -0.205 F 
ATOM     75  C   UNL A   1      38.226  29.135  28.812  1.00  0.00     0.022 A 
BRANCH  73  76
ATOM     76  S   UNL A   1      38.270  28.814  31.530  1.00  0.00     0.127 S 
ATOM     77  O   UNL A   1      38.650  27.454  31.911  1.00  0.00    -0.237 OA
ATOM     78  O   UNL A   1      38.923  29.869  32.307  1.00  0.00    -0.237 OA
ATOM     79  O   UNL A   1      36.849  29.026  31.298  1.00  0.00    -0.744 OA
ENDBRANCH  73  76
ENDBRANCH  55  69
BRANCH  56  80
ATOM     80  C   UNL A   1      50.790  28.161  26.763  1.00  0.00     0.023 A 
ATOM     81  C   UNL A   1      51.735  28.008  27.795  1.00  0.00     0.012 A 
ATOM     82  C   UNL A   1      51.234  28.196  25.425  1.00  0.00     0.148 A 
ATOM     83  C   UNL A   1      53.096  27.908  27.503  1.00  0.00     0.002 A 
ATOM     84  C   UNL A   1      52.583  28.037  25.139  1.00  0.00     0.091 A 
ATOM     85  F   UNL A   1      50.320  28.364  24.459  1.00  0.00    -0.205 F 
ATOM     86  C   UNL A   1      53.519  27.910  26.177  1.00  0.00     0.022 A 
BRANCH  84  87
ATOM     87  S   UNL A   1      53.207  27.905  23.460  1.00  0.00     0.127 S 
ATOM     88  O   UNL A   1      52.956  29.247  22.939  1.00  0.00    -0.237 OA
ATOM     89  O   UNL A   1      54.616  27.588  23.691  1.00  0.00    -0.237 OA
ATOM     90  O   UNL A   1      52.441  26.837  22.833  1.00  0.00    -0.744 OA
ENDBRANCH  84  87
ENDBRANCH  56  80
BRANCH  68  91
ATOM     91  C   UNL A   1      46.689  33.414  28.886  1.00  0.00     0.023 A 
ATOM     92  C   UNL A   1      47.126  33.765  30.178  1.00  0.00     0.012 A 
ATOM     93  C   UNL A   1      46.582  34.417  27.899  1.00  0.00     0.148 A 
ATOM     94  C   UNL A   1      47.424  35.092  30.492  1.00  0.00     0.002 A 
ATOM     95  C   UNL A   1      46.931  35.728  28.204  1.00  0.00     0.091 A 
ATOM     96  F   UNL A   1      46.147  34.068  26.680  1.00  0.00    -0.205 F 
ATOM     97  C   UNL A   1      47.339  36.069  29.503  1.00  0.00     0.022 A 
BRANCH  95  98
ATOM     98  S   UNL A   1      46.948  37.032  26.969  1.00  0.00     0.127 S 
ATOM     99  O   UNL A   1      47.376  36.306  25.775  1.00  0.00    -0.237 OA
ATOM    100  O   UNL A   1      45.549  37.462  26.954  1.00  0.00    -0.237 OA
ATOM    101  O   UNL A   1      47.884  38.037  27.456  1.00  0.00    -0.744 OA
ENDBRANCH  95  98
ENDBRANCH  68  91
ENDBRANCH  42  43
ENDBRANCH  35  37
ENDBRANCH  34  35
ENDBRANCH  33  34
ENDBRANCH  32  33
ENDBRANCH  31  32
ENDBRANCH  30  31
ENDBRANCH   1  30
TORSDOF 25
ENDMDL
MODEL 3
REMARK VINA RESULT:      -9.5      3.102      8.468
REMARK SMILES CC(C)(C)OC(=O)N1CC[N@H+](Cc2ccc(Cl)nc2)[C@H](C(=O)OCCOCCOCCOC(=O)c2ccc(-c3c4nc(c(-c5cccc(S(=O)(=O)[O-])c5F)c5ccc([nH]5)c(-c5cccc(S(=O)(=O)[O-])c5F)c5nc(c(-c6cccc(S(=O)(=O)[O-])c6F)c6ccc3[nH]6)C=C5)C=C4)cc2)C1
REMARK SMILES IDX 27 1 26 2 25 3 24 4 23 5 21 6 22 7 20 8 8 9 9 10 98 11 10 12
REMARK SMILES IDX 11 13 6 15 7 16 5 17 2 18 1 19 3 20 4 21 12 22 13 23 14 24
REMARK SMILES IDX 19 25 15 26 18 27 16 28 17 29 28 30 29 31 30 32 31 33 32 34
REMARK SMILES IDX 33 35 34 36 35 37 36 38 97 39 37 40 96 41 38 42 39 43 40 44
REMARK SMILES IDX 90 45 41 46 95 47 89 48 91 49 42 50 94 51 88 52 87 53 43 55
REMARK SMILES IDX 75 56 55 57 74 58 56 59 59 60 73 61 92 62 57 63 58 64 72 66
REMARK SMILES IDX 93 67 60 68 44 69 45 70 53 71 46 72 48 73 54 74 47 75 49 76
REMARK SMILES IDX 50 77 51 78 52 79 76 80 77 81 85 82 78 83 80 84 86 85 79 86
REMARK SMILES IDX 81 87 82 88 83 89 84 90 61 91 62 92 70 93 63 94 65 95 71 96
REMARK SMILES IDX 64 97 66 98 67 99 68 100 69 101
REMARK H PARENT 11 14 91 54 59 65
REMARK Flexibility Score: inf
ROOT
ATOM      1  C   UNL A   1      38.389  22.445  25.958  1.00  0.00     0.188 C 
ENDROOT
BRANCH   1   2
ATOM      2  O   UNL A   1      37.782  21.600  24.991  1.00  0.00    -0.376 OA
BRANCH   2   3
ATOM      3  C   UNL A   1      36.453  21.860  24.579  1.00  0.00     0.202 C 
BRANCH   3   4
ATOM      4  C   UNL A   1      36.241  22.608  23.255  1.00  0.00     0.261 C 
BRANCH   4   5
ATOM      5  O   UNL A   1      35.489  23.849  23.296  1.00  0.00    -0.459 OA
BRANCH   5   6
ATOM      6  C   UNL A   1      34.249  23.808  22.729  1.00  0.00     0.366 C 
ATOM      7  O   UNL A   1      34.035  23.329  21.619  1.00  0.00    -0.245 OA
BRANCH   6   8
ATOM      8  C   UNL A   1      33.144  24.510  23.540  1.00  0.00     0.315 C 
ATOM      9  N   UNL A   1      32.291  26.167  25.180  1.00  0.00    -0.296 N 
ATOM     10  C   UNL A   1      30.943  25.628  24.990  1.00  0.00     0.184 C 
ATOM     11  C   UNL A   1      33.493  25.460  24.679  1.00  0.00     0.200 C 
ATOM     12  C   UNL A   1      30.795  24.486  23.977  1.00  0.00     0.285 C 
ATOM     13  N   UNL A   1      31.978  23.632  23.864  1.00  0.00    -0.316 N 
ATOM     14  H   UNL A   1      31.928  22.984  23.079  1.00  0.00     0.349 HD
BRANCH   9  15
ATOM     15  C   UNL A   1      32.365  27.260  26.012  1.00  0.00     0.410 C 
ATOM     16  O   UNL A   1      33.106  27.319  26.978  1.00  0.00    -0.224 OA
BRANCH  15  17
ATOM     17  O   UNL A   1      31.360  28.128  25.741  1.00  0.00    -0.444 OA
BRANCH  17  18
ATOM     18  C   UNL A   1      31.697  29.371  25.083  1.00  0.00     0.106 C 
ATOM     19  C   UNL A   1      30.508  29.636  24.150  1.00  0.00     0.056 C 
ATOM     20  C   UNL A   1      32.975  29.186  24.267  1.00  0.00     0.056 C 
ATOM     21  C   UNL A   1      31.796  30.566  26.052  1.00  0.00     0.056 C 
ENDBRANCH  17  18
ENDBRANCH  15  17
ENDBRANCH   9  15
BRANCH  13  22
ATOM     22  C   UNL A   1      32.074  22.612  24.920  1.00  0.00     0.301 C 
BRANCH  22  23
ATOM     23  C   UNL A   1      32.393  21.157  24.602  1.00  0.00     0.025 A 
ATOM     24  C   UNL A   1      32.864  20.260  25.572  1.00  0.00     0.014 A 
ATOM     25  C   UNL A   1      32.181  20.606  23.340  1.00  0.00     0.122 A 
ATOM     26  C   UNL A   1      33.206  18.950  25.220  1.00  0.00     0.041 A 
ATOM     27  N   UNL A   1      32.463  19.337  22.969  1.00  0.00    -0.244 NA
ATOM     28  C   UNL A   1      32.993  18.548  23.916  1.00  0.00     0.129 A 
ATOM     29  Cl  UNL A   1      33.417  16.976  23.380  1.00  0.00    -0.062 Cl
ENDBRANCH  22  23
ENDBRANCH  13  22
ENDBRANCH   6   8
ENDBRANCH   5   6
ENDBRANCH   4   5
ENDBRANCH   3   4
ENDBRANCH   2   3
ENDBRANCH   1   2
BRANCH   1  30
ATOM     30  C   UNL A   1      39.895  22.309  26.207  1.00  0.00     0.188 C 
BRANCH  30  31
ATOM     31  O   UNL A   1      40.374  20.986  26.053  1.00  0.00    -0.376 OA
BRANCH  31  32
ATOM     32  C   UNL A   1      41.569  20.689  26.755  1.00  0.00     0.202 C 
BRANCH  32  33
ATOM     33  C   UNL A   1      42.318  19.482  26.177  1.00  0.00     0.261 C 
BRANCH  33  34
ATOM     34  O   UNL A   1      43.044  19.768  24.960  1.00  0.00    -0.460 OA
BRANCH  34  35
ATOM     35  C   UNL A   1      44.389  19.873  25.049  1.00  0.00     0.338 C 
ATOM     36  O   UNL A   1      45.198  18.970  24.932  1.00  0.00    -0.246 OA
BRANCH  35  37
ATOM     37  C   UNL A   1      44.761  21.299  25.194  1.00  0.00     0.060 A 
ATOM     38  C   UNL A   1      45.208  21.756  26.436  1.00  0.00     0.016 A 
ATOM     39  C   UNL A   1      44.562  22.211  24.161  1.00  0.00     0.016 A 
ATOM     40  C   UNL A   1      45.459  23.111  26.661  1.00  0.00     0.010 A 
ATOM     41  C   UNL A   1      44.809  23.576  24.386  1.00  0.00     0.010 A 
ATOM     42  C   UNL A   1      45.240  24.042  25.644  1.00  0.00    -0.014 A 
BRANCH  42  43
ATOM     43  C   UNL A   1      45.314  25.502  25.937  1.00  0.00     0.031 A 
ATOM     44  C   UNL A   1      46.651  26.190  25.869  1.00  0.00     0.074 A 
ATOM     45  C   UNL A   1      44.220  26.225  26.240  1.00  0.00     0.049 A 
ATOM     46  N   UNL A   1      46.991  27.388  26.267  1.00  0.00    -0.248 NA
ATOM     47  C   UNL A   1      47.749  25.419  25.268  1.00  0.00     0.031 C 
ATOM     48  C   UNL A   1      42.847  25.725  26.249  1.00  0.00     0.029 A 
ATOM     49  N   UNL A   1      44.102  27.540  26.633  1.00  0.00    -0.354 N 
ATOM     50  C   UNL A   1      48.359  27.487  26.039  1.00  0.00     0.074 A 
ATOM     51  C   UNL A   1      48.777  26.237  25.441  1.00  0.00     0.031 C 
ATOM     52  C   UNL A   1      42.029  26.705  26.667  1.00  0.00     0.029 A 
ATOM     53  C   UNL A   1      42.825  27.877  27.022  1.00  0.00     0.049 A 
ATOM     54  H   UNL A   1      44.854  28.173  26.635  1.00  0.00     0.167 HD
ATOM     55  C   UNL A   1      49.192  28.520  26.311  1.00  0.00     0.034 A 
ATOM     56  C   UNL A   1      42.360  28.976  27.654  1.00  0.00     0.034 A 
ATOM     57  C   UNL A   1      48.770  29.774  26.874  1.00  0.00     0.049 A 
ATOM     58  C   UNL A   1      43.312  30.089  28.010  1.00  0.00     0.074 A 
ATOM     59  C   UNL A   1      49.538  30.888  27.165  1.00  0.00     0.029 A 
ATOM     60  N   UNL A   1      47.470  30.079  27.246  1.00  0.00    -0.354 N 
ATOM     61  N   UNL A   1      44.597  30.186  27.768  1.00  0.00    -0.248 NA
ATOM     62  C   UNL A   1      42.746  31.250  28.713  1.00  0.00     0.031 C 
ATOM     63  C   UNL A   1      48.709  31.850  27.752  1.00  0.00     0.029 A 
ATOM     64  C   UNL A   1      47.415  31.355  27.781  1.00  0.00     0.049 A 
ATOM     65  H   UNL A   1      46.699  29.476  27.145  1.00  0.00     0.167 HD
ATOM     66  C   UNL A   1      44.987  31.429  28.261  1.00  0.00     0.074 A 
ATOM     67  C   UNL A   1      43.797  32.056  28.799  1.00  0.00     0.031 C 
ATOM     68  C   UNL A   1      46.219  31.993  28.274  1.00  0.00     0.034 A 
BRANCH  55  69
ATOM     69  C   UNL A   1      50.660  28.311  26.041  1.00  0.00     0.023 A 
ATOM     70  C   UNL A   1      51.199  28.578  24.767  1.00  0.00     0.012 A 
ATOM     71  C   UNL A   1      51.511  27.854  27.068  1.00  0.00     0.148 A 
ATOM     72  C   UNL A   1      52.549  28.345  24.504  1.00  0.00     0.002 A 
ATOM     73  C   UNL A   1      52.864  27.673  26.813  1.00  0.00     0.091 A 
ATOM     74  F   UNL A   1      50.977  27.585  28.267  1.00  0.00    -0.205 F 
ATOM     75  C   UNL A   1      53.382  27.900  25.528  1.00  0.00     0.022 A 
BRANCH  73  76
ATOM     76  S   UNL A   1      54.027  27.183  28.090  1.00  0.00     0.127 S 
ATOM     77  O   UNL A   1      55.277  27.748  27.584  1.00  0.00    -0.237 OA
ATOM     78  O   UNL A   1      53.489  27.857  29.272  1.00  0.00    -0.237 OA
ATOM     79  O   UNL A   1      53.973  25.729  28.146  1.00  0.00    -0.744 OA
ENDBRANCH  73  76
ENDBRANCH  55  69
BRANCH  56  80
ATOM     80  C   UNL A   1      40.917  29.062  28.022  1.00  0.00     0.023 A 
ATOM     81  C   UNL A   1      39.948  29.263  27.020  1.00  0.00     0.012 A 
ATOM     82  C   UNL A   1      40.501  28.924  29.362  1.00  0.00     0.148 A 
ATOM     83  C   UNL A   1      38.594  29.340  27.348  1.00  0.00     0.002 A 
ATOM     84  C   UNL A   1      39.147  28.943  29.673  1.00  0.00     0.091 A 
ATOM     85  F   UNL A   1      41.441  28.755  30.302  1.00  0.00    -0.205 F 
ATOM     86  C   UNL A   1      38.193  29.168  28.670  1.00  0.00     0.022 A 
BRANCH  84  87
ATOM     87  S   UNL A   1      38.529  28.610  31.326  1.00  0.00     0.127 S 
ATOM     88  O   UNL A   1      37.088  28.767  31.145  1.00  0.00    -0.237 OA
ATOM     89  O   UNL A   1      38.977  27.233  31.538  1.00  0.00    -0.237 OA
ATOM     90  O   UNL A   1      39.162  29.593  32.193  1.00  0.00    -0.744 OA
ENDBRANCH  84  87
ENDBRANCH  56  80
BRANCH  68  91
ATOM     91  C   UNL A   1      46.355  33.384  28.842  1.00  0.00     0.023 A 
ATOM     92  C   UNL A   1      46.721  33.568  30.190  1.00  0.00     0.012 A 
ATOM     93  C   UNL A   1      46.197  34.513  28.012  1.00  0.00     0.148 A 
ATOM     94  C   UNL A   1      46.897  34.851  30.710  1.00  0.00     0.002 A 
ATOM     95  C   UNL A   1      46.425  35.785  28.522  1.00  0.00     0.091 A 
ATOM     96  F   UNL A   1      45.832  34.319  26.736  1.00  0.00    -0.205 F 
ATOM     97  C   UNL A   1      46.761  35.957  29.874  1.00  0.00     0.022 A 
BRANCH  95  98
ATOM     98  S   UNL A   1      46.373  37.259  27.496  1.00  0.00     0.127 S 
ATOM     99  O   UNL A   1      44.962  37.308  27.117  1.00  0.00    -0.237 OA
ATOM    100  O   UNL A   1      46.791  38.303  28.432  1.00  0.00    -0.237 OA
ATOM    101  O   UNL A   1      47.304  37.022  26.401  1.00  0.00    -0.744 OA
ENDBRANCH  95  98
ENDBRANCH  68  91
ENDBRANCH  42  43
ENDBRANCH  35  37
ENDBRANCH  34  35
ENDBRANCH  33  34
ENDBRANCH  32  33
ENDBRANCH  31  32
ENDBRANCH  30  31
ENDBRANCH   1  30
TORSDOF 25
ENDMDL
