MODEL 1
REMARK VINA RESULT:     -11.8      0.000      0.000
REMARK SMILES O=C(OCCOCCOCCOC(=O)c1cn(-c2cc(F)cc(F)c2F)c(=O)[nH]c1=O)c1ccc(-c2c3nc(c(-c4cccc(S(=O)(=O)[O-])c4F)c4ccc([nH]4)c(-c4cccc(S(=O)(=O)[O-])c4F)c4nc(c(-c5cccc(S(=O)(=O)[O-])c5F)c5ccc2[nH]5)C=C4)C=C3)cc1
REMARK SMILES IDX 7 1 6 2 5 3 4 4 3 5 2 6 1 7 32 8 33 9 94 10 34 11 93 12
REMARK SMILES IDX 35 13 36 14 37 15 87 16 38 17 92 18 86 19 88 20 39 21 91 22
REMARK SMILES IDX 85 23 84 24 40 26 72 27 52 28 71 29 53 30 56 31 70 32 89 33
REMARK SMILES IDX 54 34 55 35 69 37 90 38 57 39 41 40 42 41 50 42 43 43 45 44
REMARK SMILES IDX 51 45 44 46 46 47 47 48 48 49 49 50 73 51 74 52 82 53 75 54
REMARK SMILES IDX 77 55 83 56 76 57 78 58 79 59 80 60 81 61 58 62 59 63 67 64
REMARK SMILES IDX 60 65 62 66 68 67 61 68 63 69 64 70 65 71 66 72 8 73 9 74
REMARK SMILES IDX 10 75 11 76 12 77 13 78 14 79 15 80 16 81 30 82 17 83 29 84
REMARK SMILES IDX 31 85 27 86 28 88 18 89 19 90 25 91 20 92 23 93 26 94 21 95
REMARK SMILES IDX 22 96 24 97
REMARK H PARENT 88 25 56 36 29 87
REMARK Flexibility Score: inf
ROOT
ATOM      1  C   UNL A   1      33.798  21.528  26.574  1.00  0.00     0.188 C 
ENDROOT
BRANCH   1   2
ATOM      2  O   UNL A   1      35.148  21.923  26.311  1.00  0.00    -0.376 OA
BRANCH   2   3
ATOM      3  C   UNL A   1      35.265  23.237  25.757  1.00  0.00     0.202 C 
BRANCH   3   4
ATOM      4  C   UNL A   1      36.663  23.676  25.272  1.00  0.00     0.261 C 
BRANCH   4   5
ATOM      5  O   UNL A   1      37.746  22.771  25.554  1.00  0.00    -0.460 OA
BRANCH   5   6
ATOM      6  C   UNL A   1      38.840  22.909  26.343  1.00  0.00     0.338 C 
ATOM      7  O   UNL A   1      39.442  21.886  26.672  1.00  0.00    -0.246 OA
BRANCH   6   8
ATOM      8  C   UNL A   1      39.319  24.212  26.905  1.00  0.00     0.060 A 
ATOM      9  C   UNL A   1      40.069  25.052  26.058  1.00  0.00     0.016 A 
ATOM     10  C   UNL A   1      39.103  24.644  28.210  1.00  0.00     0.016 A 
ATOM     11  C   UNL A   1      40.621  26.252  26.530  1.00  0.00     0.010 A 
ATOM     12  C   UNL A   1      39.623  25.838  28.679  1.00  0.00     0.010 A 
ATOM     13  C   UNL A   1      40.411  26.635  27.859  1.00  0.00    -0.014 A 
BRANCH  13  14
ATOM     14  C   UNL A   1      40.848  27.927  28.411  1.00  0.00     0.031 A 
ATOM     15  C   UNL A   1      42.245  28.131  28.916  1.00  0.00     0.074 A 
ATOM     16  C   UNL A   1      39.894  28.831  28.685  1.00  0.00     0.049 A 
ATOM     17  N   UNL A   1      42.824  29.236  29.301  1.00  0.00    -0.248 NA
ATOM     18  C   UNL A   1      43.111  26.945  29.040  1.00  0.00     0.031 C 
ATOM     19  C   UNL A   1      38.456  28.604  28.521  1.00  0.00     0.029 A 
ATOM     20  N   UNL A   1      39.980  30.068  29.254  1.00  0.00    -0.354 N 
ATOM     21  C   UNL A   1      44.157  28.899  29.508  1.00  0.00     0.074 A 
ATOM     22  C   UNL A   1      44.243  27.472  29.491  1.00  0.00     0.031 C 
ATOM     23  C   UNL A   1      37.791  29.637  29.055  1.00  0.00     0.029 A 
ATOM     24  C   UNL A   1      38.757  30.614  29.545  1.00  0.00     0.049 A 
ATOM     25  H   UNL A   1      40.833  30.523  29.438  1.00  0.00     0.167 HD
ATOM     26  C   UNL A   1      45.198  29.760  29.460  1.00  0.00     0.034 A 
ATOM     27  C   UNL A   1      38.454  31.779  30.141  1.00  0.00     0.034 A 
ATOM     28  C   UNL A   1      44.987  31.147  29.924  1.00  0.00     0.049 A 
ATOM     29  C   UNL A   1      39.571  32.721  30.451  1.00  0.00     0.074 A 
ATOM     30  C   UNL A   1      45.895  32.101  30.359  1.00  0.00     0.029 A 
ATOM     31  N   UNL A   1      43.733  31.757  30.048  1.00  0.00    -0.354 N 
ATOM     32  N   UNL A   1      40.860  32.519  30.317  1.00  0.00    -0.248 NA
ATOM     33  C   UNL A   1      39.208  34.063  30.915  1.00  0.00     0.031 C 
ATOM     34  C   UNL A   1      45.218  33.295  30.627  1.00  0.00     0.029 A 
ATOM     35  C   UNL A   1      43.864  33.074  30.465  1.00  0.00     0.049 A 
ATOM     36  H   UNL A   1      42.874  31.312  29.865  1.00  0.00     0.167 HD
ATOM     37  C   UNL A   1      41.467  33.717  30.652  1.00  0.00     0.074 A 
ATOM     38  C   UNL A   1      40.401  34.646  30.981  1.00  0.00     0.031 C 
ATOM     39  C   UNL A   1      42.789  34.008  30.705  1.00  0.00     0.034 A 
BRANCH  26  40
ATOM     40  C   UNL A   1      46.716  29.287  28.870  1.00  0.00     0.023 A 
ATOM     41  C   UNL A   1      48.419  28.453  29.615  1.00  0.00     0.012 A 
ATOM     42  C   UNL A   1      46.282  28.823  27.172  1.00  0.00     0.148 A 
ATOM     43  C   UNL A   1      49.326  27.258  28.618  1.00  0.00     0.002 A 
ATOM     44  C   UNL A   1      47.263  27.649  26.327  1.00  0.00     0.091 A 
ATOM     45  F   UNL A   1      45.247  29.436  26.580  1.00  0.00    -0.205 F 
ATOM     46  C   UNL A   1      48.708  26.876  27.023  1.00  0.00     0.022 A 
BRANCH  44  47
ATOM     47  S   UNL A   1      47.085  27.500  24.547  1.00  0.00     0.127 S 
ATOM     48  O   UNL A   1      48.349  26.880  24.159  1.00  0.00    -0.237 OA
ATOM     49  O   UNL A   1      45.913  26.635  24.434  1.00  0.00    -0.237 OA
ATOM     50  O   UNL A   1      46.892  28.870  24.096  1.00  0.00    -0.744 OA
ENDBRANCH  44  47
ENDBRANCH  26  40
BRANCH  27  51
ATOM     51  C   UNL A   1      37.024  32.099  30.355  1.00  0.00     0.023 A 
ATOM     52  C   UNL A   1      36.440  31.850  31.609  1.00  0.00     0.012 A 
ATOM     53  C   UNL A   1      36.311  32.830  29.383  1.00  0.00     0.148 A 
ATOM     54  C   UNL A   1      35.166  32.335  31.898  1.00  0.00     0.002 A 
ATOM     55  C   UNL A   1      35.056  33.336  29.690  1.00  0.00     0.091 A 
ATOM     56  F   UNL A   1      36.909  33.066  28.206  1.00  0.00    -0.205 F 
ATOM     57  C   UNL A   1      34.481  33.088  30.946  1.00  0.00     0.022 A 
BRANCH  55  58
ATOM     58  S   UNL A   1      34.147  34.409  28.572  1.00  0.00     0.127 S 
ATOM     59  O   UNL A   1      34.179  33.637  27.331  1.00  0.00    -0.237 OA
ATOM     60  O   UNL A   1      32.838  34.478  29.222  1.00  0.00    -0.237 OA
ATOM     61  O   UNL A   1      34.878  35.668  28.544  1.00  0.00    -0.744 OA
ENDBRANCH  55  58
ENDBRANCH  27  51
BRANCH  39  62
ATOM     62  C   UNL A   1      43.167  35.396  31.148  1.00  0.00     0.023 A 
ATOM     63  C   UNL A   1      43.314  35.650  32.525  1.00  0.00     0.012 A 
ATOM     64  C   UNL A   1      43.460  36.412  30.217  1.00  0.00     0.148 A 
ATOM     65  C   UNL A   1      43.740  36.898  32.975  1.00  0.00     0.002 A 
ATOM     66  C   UNL A   1      43.905  37.649  30.672  1.00  0.00     0.091 A 
ATOM     67  F   UNL A   1      43.305  36.148  28.912  1.00  0.00    -0.205 F 
ATOM     68  C   UNL A   1      44.044  37.892  32.049  1.00  0.00     0.022 A 
BRANCH  66  69
ATOM     69  S   UNL A   1      44.350  38.996  29.569  1.00  0.00     0.127 S 
ATOM     70  O   UNL A   1      44.679  40.060  30.518  1.00  0.00    -0.237 OA
ATOM     71  O   UNL A   1      45.499  38.441  28.854  1.00  0.00    -0.237 OA
ATOM     72  O   UNL A   1      43.177  39.249  28.743  1.00  0.00    -0.744 OA
ENDBRANCH  66  69
ENDBRANCH  39  62
ENDBRANCH  13  14
ENDBRANCH   6   8
ENDBRANCH   5   6
ENDBRANCH   4   5
ENDBRANCH   3   4
ENDBRANCH   2   3
ENDBRANCH   1   2
BRANCH   1  73
ATOM     73  C   UNL A   1      33.340  20.213  25.941  1.00  0.00     0.188 C 
BRANCH  73  74
ATOM     74  O   UNL A   1      32.202  20.244  25.091  1.00  0.00    -0.376 OA
BRANCH  74  75
ATOM     75  C   UNL A   1      32.429  20.175  23.689  1.00  0.00     0.202 C 
BRANCH  75  76
ATOM     76  C   UNL A   1      32.173  21.416  22.815  1.00  0.00     0.261 C 
BRANCH  76  77
ATOM     77  O   UNL A   1      32.631  22.675  23.345  1.00  0.00    -0.459 OA
BRANCH  77  78
ATOM     78  C   UNL A   1      31.701  23.668  23.379  1.00  0.00     0.345 C 
ATOM     79  O   UNL A   1      30.539  23.555  23.738  1.00  0.00    -0.246 OA
BRANCH  78  80
ATOM     80  C   UNL A   1      32.249  24.925  22.852  1.00  0.00     0.141 A 
ATOM     81  C   UNL A   1      32.261  25.960  23.694  1.00  0.00     0.118 A 
ATOM     82  C   UNL A   1      32.927  25.083  21.568  1.00  0.00     0.268 A 
ATOM     83  N   UNL A   1      32.891  27.182  23.453  1.00  0.00    -0.265 N 
ATOM     84  N   UNL A   1      33.451  26.332  21.337  1.00  0.00    -0.273 N 
ATOM     85  O   UNL A   1      33.026  24.176  20.750  1.00  0.00    -0.268 OA
ATOM     86  C   UNL A   1      33.515  27.398  22.220  1.00  0.00     0.333 A 
ATOM     87  H   UNL A   1      33.823  26.488  20.439  1.00  0.00     0.175 HD
ATOM     88  O   UNL A   1      34.151  28.392  21.883  1.00  0.00    -0.247 OA
BRANCH  83  89
ATOM     89  C   UNL A   1      32.954  28.173  24.521  1.00  0.00     0.092 A 
ATOM     90  C   UNL A   1      34.125  28.094  25.869  1.00  0.00     0.069 A 
ATOM     91  C   UNL A   1      31.697  29.391  24.441  1.00  0.00     0.183 A 
ATOM     92  C   UNL A   1      34.104  29.233  27.247  1.00  0.00     0.128 A 
ATOM     93  C   UNL A   1      31.549  30.582  25.720  1.00  0.00     0.163 A 
ATOM     94  F   UNL A   1      30.692  29.325  23.553  1.00  0.00    -0.201 F 
ATOM     95  F   UNL A   1      34.951  29.078  28.270  1.00  0.00    -0.207 F 
ATOM     96  C   UNL A   1      32.859  30.554  27.259  1.00  0.00     0.081 A 
ATOM     97  F   UNL A   1      30.428  31.324  25.504  1.00  0.00    -0.204 F 
ENDBRANCH  83  89
ENDBRANCH  78  80
ENDBRANCH  77  78
ENDBRANCH  76  77
ENDBRANCH  75  76
ENDBRANCH  74  75
ENDBRANCH  73  74
ENDBRANCH   1  73
TORSDOF 21
ENDMDL
MODEL 2
REMARK VINA RESULT:     -11.7      1.404      2.064
REMARK SMILES O=C(OCCOCCOCCOC(=O)c1cn(-c2cc(F)cc(F)c2F)c(=O)[nH]c1=O)c1ccc(-c2c3nc(c(-c4cccc(S(=O)(=O)[O-])c4F)c4ccc([nH]4)c(-c4cccc(S(=O)(=O)[O-])c4F)c4nc(c(-c5cccc(S(=O)(=O)[O-])c5F)c5ccc2[nH]5)C=C4)C=C3)cc1
REMARK SMILES IDX 7 1 6 2 5 3 4 4 3 5 2 6 1 7 32 8 33 9 94 10 34 11 93 12
REMARK SMILES IDX 35 13 36 14 37 15 87 16 38 17 92 18 86 19 88 20 39 21 91 22
REMARK SMILES IDX 85 23 84 24 40 26 72 27 52 28 71 29 53 30 56 31 70 32 89 33
REMARK SMILES IDX 54 34 55 35 69 37 90 38 57 39 41 40 42 41 50 42 43 43 45 44
REMARK SMILES IDX 51 45 44 46 46 47 47 48 48 49 49 50 73 51 74 52 82 53 75 54
REMARK SMILES IDX 77 55 83 56 76 57 78 58 79 59 80 60 81 61 58 62 59 63 67 64
REMARK SMILES IDX 60 65 62 66 68 67 61 68 63 69 64 70 65 71 66 72 8 73 9 74
REMARK SMILES IDX 10 75 11 76 12 77 13 78 14 79 15 80 16 81 30 82 17 83 29 84
REMARK SMILES IDX 31 85 27 86 28 88 18 89 19 90 25 91 20 92 23 93 26 94 21 95
REMARK SMILES IDX 22 96 24 97
REMARK H PARENT 88 25 56 36 29 87
REMARK Flexibility Score: inf
ROOT
ATOM      1  C   UNL A   1      34.148  22.931  26.965  1.00  0.00     0.188 C 
ENDROOT
BRANCH   1   2
ATOM      2  O   UNL A   1      35.470  23.466  26.846  1.00  0.00    -0.376 OA
BRANCH   2   3
ATOM      3  C   UNL A   1      35.732  24.072  25.577  1.00  0.00     0.202 C 
BRANCH   3   4
ATOM      4  C   UNL A   1      36.954  23.556  24.787  1.00  0.00     0.261 C 
BRANCH   4   5
ATOM      5  O   UNL A   1      37.789  22.599  25.465  1.00  0.00    -0.460 OA
BRANCH   5   6
ATOM      6  C   UNL A   1      38.931  22.761  26.177  1.00  0.00     0.338 C 
ATOM      7  O   UNL A   1      39.596  21.755  26.430  1.00  0.00    -0.246 OA
BRANCH   6   8
ATOM      8  C   UNL A   1      39.398  24.066  26.743  1.00  0.00     0.060 A 
ATOM      9  C   UNL A   1      39.024  24.375  28.066  1.00  0.00     0.016 A 
ATOM     10  C   UNL A   1      40.152  25.011  26.053  1.00  0.00     0.016 A 
ATOM     11  C   UNL A   1      39.353  25.609  28.644  1.00  0.00     0.010 A 
ATOM     12  C   UNL A   1      40.502  26.222  26.622  1.00  0.00     0.010 A 
ATOM     13  C   UNL A   1      40.082  26.548  27.905  1.00  0.00    -0.014 A 
BRANCH  13  14
ATOM     14  C   UNL A   1      40.574  27.817  28.463  1.00  0.00     0.031 A 
ATOM     15  C   UNL A   1      41.966  27.946  29.006  1.00  0.00     0.074 A 
ATOM     16  C   UNL A   1      39.666  28.775  28.704  1.00  0.00     0.049 A 
ATOM     17  N   UNL A   1      42.595  29.020  29.402  1.00  0.00    -0.248 NA
ATOM     18  C   UNL A   1      42.760  26.714  29.161  1.00  0.00     0.031 C 
ATOM     19  C   UNL A   1      38.222  28.627  28.500  1.00  0.00     0.029 A 
ATOM     20  N   UNL A   1      39.804  30.009  29.269  1.00  0.00    -0.354 N 
ATOM     21  C   UNL A   1      43.900  28.610  29.649  1.00  0.00     0.074 A 
ATOM     22  C   UNL A   1      43.907  27.181  29.641  1.00  0.00     0.031 C 
ATOM     23  C   UNL A   1      37.601  29.700  29.009  1.00  0.00     0.029 A 
ATOM     24  C   UNL A   1      38.606  30.623  29.522  1.00  0.00     0.049 A 
ATOM     25  H   UNL A   1      40.676  30.416  29.476  1.00  0.00     0.167 HD
ATOM     26  C   UNL A   1      44.989  29.411  29.626  1.00  0.00     0.034 A 
ATOM     27  C   UNL A   1      38.351  31.808  30.104  1.00  0.00     0.034 A 
ATOM     28  C   UNL A   1      44.842  30.811  30.076  1.00  0.00     0.049 A 
ATOM     29  C   UNL A   1      39.510  32.688  30.440  1.00  0.00     0.074 A 
ATOM     30  C   UNL A   1      45.790  31.715  30.533  1.00  0.00     0.029 A 
ATOM     31  N   UNL A   1      43.622  31.491  30.162  1.00  0.00    -0.354 N 
ATOM     32  N   UNL A   1      40.789  32.413  30.345  1.00  0.00    -0.248 NA
ATOM     33  C   UNL A   1      39.211  34.052  30.887  1.00  0.00     0.031 C 
ATOM     34  C   UNL A   1      45.174  32.947  30.775  1.00  0.00     0.029 A 
ATOM     35  C   UNL A   1      43.815  32.801  30.575  1.00  0.00     0.049 A 
ATOM     36  H   UNL A   1      42.744  31.093  29.957  1.00  0.00     0.167 HD
ATOM     37  C   UNL A   1      41.453  33.578  30.691  1.00  0.00     0.074 A 
ATOM     38  C   UNL A   1      40.432  34.567  30.985  1.00  0.00     0.031 C 
ATOM     39  C   UNL A   1      42.787  33.795  30.780  1.00  0.00     0.034 A 
BRANCH  26  40
ATOM     40  C   UNL A   1      46.494  28.850  29.083  1.00  0.00     0.023 A 
ATOM     41  C   UNL A   1      48.068  27.806  29.846  1.00  0.00     0.012 A 
ATOM     42  C   UNL A   1      46.129  28.567  27.329  1.00  0.00     0.148 A 
ATOM     43  C   UNL A   1      48.929  26.617  28.801  1.00  0.00     0.002 A 
ATOM     44  C   UNL A   1      47.055  27.380  26.442  1.00  0.00     0.091 A 
ATOM     45  F   UNL A   1      45.190  29.318  26.736  1.00  0.00    -0.205 F 
ATOM     46  C   UNL A   1      48.381  26.424  27.147  1.00  0.00     0.022 A 
BRANCH  44  47
ATOM     47  S   UNL A   1      46.977  27.392  24.649  1.00  0.00     0.127 S 
ATOM     48  O   UNL A   1      48.101  28.254  24.294  1.00  0.00    -0.237 OA
ATOM     49  O   UNL A   1      47.158  25.978  24.330  1.00  0.00    -0.237 OA
ATOM     50  O   UNL A   1      45.656  27.930  24.358  1.00  0.00    -0.744 OA
ENDBRANCH  44  47
ENDBRANCH  26  40
BRANCH  27  51
ATOM     51  C   UNL A   1      36.936  32.209  30.274  1.00  0.00     0.023 A 
ATOM     52  C   UNL A   1      36.313  32.028  31.521  1.00  0.00     0.012 A 
ATOM     53  C   UNL A   1      36.285  32.947  29.266  1.00  0.00     0.148 A 
ATOM     54  C   UNL A   1      35.061  32.588  31.767  1.00  0.00     0.002 A 
ATOM     55  C   UNL A   1      35.052  33.527  29.529  1.00  0.00     0.091 A 
ATOM     56  F   UNL A   1      36.920  33.117  28.097  1.00  0.00    -0.205 F 
ATOM     57  C   UNL A   1      34.438  33.347  30.778  1.00  0.00     0.022 A 
BRANCH  55  58
ATOM     58  S   UNL A   1      34.226  34.613  28.360  1.00  0.00     0.127 S 
ATOM     59  O   UNL A   1      34.627  35.931  28.846  1.00  0.00    -0.237 OA
ATOM     60  O   UNL A   1      34.836  34.210  27.094  1.00  0.00    -0.237 OA
ATOM     61  O   UNL A   1      32.805  34.311  28.471  1.00  0.00    -0.744 OA
ENDBRANCH  55  58
ENDBRANCH  27  51
BRANCH  39  62
ATOM     62  C   UNL A   1      43.229  35.163  31.226  1.00  0.00     0.023 A 
ATOM     63  C   UNL A   1      43.580  36.112  30.246  1.00  0.00     0.012 A 
ATOM     64  C   UNL A   1      43.212  35.537  32.584  1.00  0.00     0.148 A 
ATOM     65  C   UNL A   1      43.917  37.415  30.609  1.00  0.00     0.002 A 
ATOM     66  C   UNL A   1      43.528  36.845  32.938  1.00  0.00     0.091 A 
ATOM     67  F   UNL A   1      42.881  34.614  33.497  1.00  0.00    -0.205 F 
ATOM     68  C   UNL A   1      43.882  37.782  31.952  1.00  0.00     0.022 A 
BRANCH  66  69
ATOM     69  S   UNL A   1      43.492  37.437  34.633  1.00  0.00     0.127 S 
ATOM     70  O   UNL A   1      42.096  37.195  35.003  1.00  0.00    -0.237 OA
ATOM     71  O   UNL A   1      44.456  36.554  35.288  1.00  0.00    -0.237 OA
ATOM     72  O   UNL A   1      43.880  38.840  34.582  1.00  0.00    -0.744 OA
ENDBRANCH  66  69
ENDBRANCH  39  62
ENDBRANCH  13  14
ENDBRANCH   6   8
ENDBRANCH   5   6
ENDBRANCH   4   5
ENDBRANCH   3   4
ENDBRANCH   2   3
ENDBRANCH   1   2
BRANCH   1  73
ATOM     73  C   UNL A   1      34.032  21.406  26.981  1.00  0.00     0.188 C 
BRANCH  73  74
ATOM     74  O   UNL A   1      33.312  20.782  25.926  1.00  0.00    -0.376 OA
BRANCH  74  75
ATOM     75  C   UNL A   1      33.745  21.037  24.596  1.00  0.00     0.202 C 
BRANCH  75  76
ATOM     76  C   UNL A   1      32.865  21.883  23.658  1.00  0.00     0.261 C 
BRANCH  76  77
ATOM     77  O   UNL A   1      32.378  23.129  24.193  1.00  0.00    -0.459 OA
BRANCH  77  78
ATOM     78  C   UNL A   1      31.486  23.792  23.408  1.00  0.00     0.345 C 
ATOM     79  O   UNL A   1      30.383  23.388  23.071  1.00  0.00    -0.246 OA
BRANCH  78  80
ATOM     80  C   UNL A   1      32.039  25.068  22.937  1.00  0.00     0.141 A 
ATOM     81  C   UNL A   1      31.919  26.104  23.768  1.00  0.00     0.118 A 
ATOM     82  C   UNL A   1      32.848  25.250  21.734  1.00  0.00     0.268 A 
ATOM     83  N   UNL A   1      32.525  27.349  23.590  1.00  0.00    -0.265 N 
ATOM     84  N   UNL A   1      33.346  26.517  21.554  1.00  0.00    -0.273 N 
ATOM     85  O   UNL A   1      33.071  24.345  20.937  1.00  0.00    -0.268 OA
ATOM     86  C   UNL A   1      33.272  27.587  22.432  1.00  0.00     0.333 A 
ATOM     87  H   UNL A   1      33.808  26.686  20.702  1.00  0.00     0.175 HD
ATOM     88  O   UNL A   1      33.903  28.604  22.160  1.00  0.00    -0.247 OA
BRANCH  83  89
ATOM     89  C   UNL A   1      32.432  28.344  24.652  1.00  0.00     0.092 A 
ATOM     90  C   UNL A   1      31.335  29.755  24.584  1.00  0.00     0.069 A 
ATOM     91  C   UNL A   1      33.579  28.111  25.955  1.00  0.00     0.183 A 
ATOM     92  C   UNL A   1      31.328  31.044  25.822  1.00  0.00     0.128 A 
ATOM     93  C   UNL A   1      33.689  29.291  27.247  1.00  0.00     0.163 A 
ATOM     94  F   UNL A   1      34.544  27.179  25.901  1.00  0.00    -0.201 F 
ATOM     95  F   UNL A   1      30.545  32.120  25.680  1.00  0.00    -0.207 F 
ATOM     96  C   UNL A   1      32.459  30.896  27.234  1.00  0.00     0.081 A 
ATOM     97  F   UNL A   1      34.734  28.964  28.057  1.00  0.00    -0.204 F 
ENDBRANCH  83  89
ENDBRANCH  78  80
ENDBRANCH  77  78
ENDBRANCH  76  77
ENDBRANCH  75  76
ENDBRANCH  74  75
ENDBRANCH  73  74
ENDBRANCH   1  73
TORSDOF 21
ENDMDL
MODEL 3
REMARK VINA RESULT:     -11.5      1.381      2.188
REMARK SMILES O=C(OCCOCCOCCOC(=O)c1cn(-c2cc(F)cc(F)c2F)c(=O)[nH]c1=O)c1ccc(-c2c3nc(c(-c4cccc(S(=O)(=O)[O-])c4F)c4ccc([nH]4)c(-c4cccc(S(=O)(=O)[O-])c4F)c4nc(c(-c5cccc(S(=O)(=O)[O-])c5F)c5ccc2[nH]5)C=C4)C=C3)cc1
REMARK SMILES IDX 7 1 6 2 5 3 4 4 3 5 2 6 1 7 32 8 33 9 94 10 34 11 93 12
REMARK SMILES IDX 35 13 36 14 37 15 87 16 38 17 92 18 86 19 88 20 39 21 91 22
REMARK SMILES IDX 85 23 84 24 40 26 72 27 52 28 71 29 53 30 56 31 70 32 89 33
REMARK SMILES IDX 54 34 55 35 69 37 90 38 57 39 41 40 42 41 50 42 43 43 45 44
REMARK SMILES IDX 51 45 44 46 46 47 47 48 48 49 49 50 73 51 74 52 82 53 75 54
REMARK SMILES IDX 77 55 83 56 76 57 78 58 79 59 80 60 81 61 58 62 59 63 67 64
REMARK SMILES IDX 60 65 62 66 68 67 61 68 63 69 64 70 65 71 66 72 8 73 9 74
REMARK SMILES IDX 10 75 11 76 12 77 13 78 14 79 15 80 16 81 30 82 17 83 29 84
REMARK SMILES IDX 31 85 27 86 28 88 18 89 19 90 25 91 20 92 23 93 26 94 21 95
REMARK SMILES IDX 22 96 24 97
REMARK H PARENT 88 25 56 36 29 87
REMARK Flexibility Score: inf
ROOT
ATOM      1  C   UNL A   1      33.851  21.971  26.043  1.00  0.00     0.188 C 
ENDROOT
BRANCH   1   2
ATOM      2  O   UNL A   1      35.169  21.485  25.772  1.00  0.00    -0.376 OA
BRANCH   2   3
ATOM      3  C   UNL A   1      36.208  22.357  26.227  1.00  0.00     0.202 C 
BRANCH   3   4
ATOM      4  C   UNL A   1      37.224  22.854  25.177  1.00  0.00     0.261 C 
BRANCH   4   5
ATOM      5  O   UNL A   1      38.594  22.465  25.387  1.00  0.00    -0.460 OA
BRANCH   5   6
ATOM      6  C   UNL A   1      39.425  22.664  26.440  1.00  0.00     0.338 C 
ATOM      7  O   UNL A   1      39.819  21.671  27.053  1.00  0.00    -0.246 OA
BRANCH   6   8
ATOM      8  C   UNL A   1      39.830  24.010  26.957  1.00  0.00     0.060 A 
ATOM      9  C   UNL A   1      39.439  24.352  28.267  1.00  0.00     0.016 A 
ATOM     10  C   UNL A   1      40.542  24.961  26.232  1.00  0.00     0.016 A 
ATOM     11  C   UNL A   1      39.710  25.621  28.797  1.00  0.00     0.010 A 
ATOM     12  C   UNL A   1      40.835  26.208  26.754  1.00  0.00     0.010 A 
ATOM     13  C   UNL A   1      40.397  26.563  28.023  1.00  0.00    -0.014 A 
BRANCH  13  14
ATOM     14  C   UNL A   1      40.830  27.873  28.532  1.00  0.00     0.031 A 
ATOM     15  C   UNL A   1      42.239  28.111  28.986  1.00  0.00     0.074 A 
ATOM     16  C   UNL A   1      39.871  28.768  28.818  1.00  0.00     0.049 A 
ATOM     17  N   UNL A   1      42.812  29.234  29.328  1.00  0.00    -0.248 NA
ATOM     18  C   UNL A   1      43.129  26.942  29.107  1.00  0.00     0.031 C 
ATOM     19  C   UNL A   1      38.432  28.514  28.706  1.00  0.00     0.029 A 
ATOM     20  N   UNL A   1      39.954  30.018  29.357  1.00  0.00    -0.354 N 
ATOM     21  C   UNL A   1      44.156  28.923  29.498  1.00  0.00     0.074 A 
ATOM     22  C   UNL A   1      44.265  27.497  29.508  1.00  0.00     0.031 C 
ATOM     23  C   UNL A   1      37.767  29.548  29.239  1.00  0.00     0.029 A 
ATOM     24  C   UNL A   1      38.732  30.550  29.676  1.00  0.00     0.049 A 
ATOM     25  H   UNL A   1      40.805  30.490  29.503  1.00  0.00     0.167 HD
ATOM     26  C   UNL A   1      45.181  29.799  29.397  1.00  0.00     0.034 A 
ATOM     27  C   UNL A   1      38.429  31.723  30.257  1.00  0.00     0.034 A 
ATOM     28  C   UNL A   1      44.961  31.192  29.837  1.00  0.00     0.049 A 
ATOM     29  C   UNL A   1      39.540  32.690  30.509  1.00  0.00     0.074 A 
ATOM     30  C   UNL A   1      45.867  32.170  30.221  1.00  0.00     0.029 A 
ATOM     31  N   UNL A   1      43.702  31.785  29.989  1.00  0.00    -0.354 N 
ATOM     32  N   UNL A   1      40.827  32.506  30.337  1.00  0.00    -0.248 NA
ATOM     33  C   UNL A   1      39.170  34.036  30.956  1.00  0.00     0.031 C 
ATOM     34  C   UNL A   1      45.179  33.358  30.485  1.00  0.00     0.029 A 
ATOM     35  C   UNL A   1      43.825  33.112  30.373  1.00  0.00     0.049 A 
ATOM     36  H   UNL A   1      42.845  31.322  29.845  1.00  0.00     0.167 HD
ATOM     37  C   UNL A   1      41.425  33.720  30.626  1.00  0.00     0.074 A 
ATOM     38  C   UNL A   1      40.355  34.639  30.970  1.00  0.00     0.031 C 
ATOM     39  C   UNL A   1      42.743  34.034  30.629  1.00  0.00     0.034 A 
BRANCH  26  40
ATOM     40  C   UNL A   1      46.686  29.337  28.767  1.00  0.00     0.023 A 
ATOM     41  C   UNL A   1      48.427  28.549  29.473  1.00  0.00     0.012 A 
ATOM     42  C   UNL A   1      46.204  28.826  27.095  1.00  0.00     0.148 A 
ATOM     43  C   UNL A   1      49.321  27.347  28.474  1.00  0.00     0.002 A 
ATOM     44  C   UNL A   1      47.177  27.649  26.246  1.00  0.00     0.091 A 
ATOM     45  F   UNL A   1      45.140  29.407  26.524  1.00  0.00    -0.205 F 
ATOM     46  C   UNL A   1      48.657  26.917  26.910  1.00  0.00     0.022 A 
BRANCH  44  47
ATOM     47  S   UNL A   1      46.942  27.455  24.476  1.00  0.00     0.127 S 
ATOM     48  O   UNL A   1      48.190  26.816  24.066  1.00  0.00    -0.237 OA
ATOM     49  O   UNL A   1      45.762  26.596  24.422  1.00  0.00    -0.237 OA
ATOM     50  O   UNL A   1      46.744  28.814  23.996  1.00  0.00    -0.744 OA
ENDBRANCH  44  47
ENDBRANCH  26  40
BRANCH  27  51
ATOM     51  C   UNL A   1      37.002  32.026  30.511  1.00  0.00     0.023 A 
ATOM     52  C   UNL A   1      36.485  31.877  31.809  1.00  0.00     0.012 A 
ATOM     53  C   UNL A   1      36.223  32.646  29.513  1.00  0.00     0.148 A 
ATOM     54  C   UNL A   1      35.212  32.354  32.116  1.00  0.00     0.002 A 
ATOM     55  C   UNL A   1      34.970  33.146  29.835  1.00  0.00     0.091 A 
ATOM     56  F   UNL A   1      36.758  32.790  28.292  1.00  0.00    -0.205 F 
ATOM     57  C   UNL A   1      34.461  32.999  31.136  1.00  0.00     0.022 A 
BRANCH  55  58
ATOM     58  S   UNL A   1      33.977  34.089  28.671  1.00  0.00     0.127 S 
ATOM     59  O   UNL A   1      34.954  35.047  28.158  1.00  0.00    -0.237 OA
ATOM     60  O   UNL A   1      33.568  33.056  27.720  1.00  0.00    -0.237 OA
ATOM     61  O   UNL A   1      32.888  34.662  29.449  1.00  0.00    -0.744 OA
ENDBRANCH  55  58
ENDBRANCH  27  51
BRANCH  39  62
ATOM     62  C   UNL A   1      43.111  35.438  31.028  1.00  0.00     0.023 A 
ATOM     63  C   UNL A   1      43.316  35.720  32.393  1.00  0.00     0.012 A 
ATOM     64  C   UNL A   1      43.340  36.441  30.067  1.00  0.00     0.148 A 
ATOM     65  C   UNL A   1      43.736  36.984  32.800  1.00  0.00     0.002 A 
ATOM     66  C   UNL A   1      43.780  37.695  30.478  1.00  0.00     0.091 A 
ATOM     67  F   UNL A   1      43.131  36.150  28.776  1.00  0.00    -0.205 F 
ATOM     68  C   UNL A   1      43.977  37.967  31.843  1.00  0.00     0.022 A 
BRANCH  66  69
ATOM     69  S   UNL A   1      44.146  39.029  29.332  1.00  0.00     0.127 S 
ATOM     70  O   UNL A   1      44.516  40.112  30.245  1.00  0.00    -0.237 OA
ATOM     71  O   UNL A   1      45.258  38.476  28.561  1.00  0.00    -0.237 OA
ATOM     72  O   UNL A   1      42.925  39.257  28.571  1.00  0.00    -0.744 OA
ENDBRANCH  66  69
ENDBRANCH  39  62
ENDBRANCH  13  14
ENDBRANCH   6   8
ENDBRANCH   5   6
ENDBRANCH   4   5
ENDBRANCH   3   4
ENDBRANCH   2   3
ENDBRANCH   1   2
BRANCH   1  73
ATOM     73  C   UNL A   1      32.744  20.919  26.129  1.00  0.00     0.188 C 
BRANCH  73  74
ATOM     74  O   UNL A   1      31.899  20.747  24.999  1.00  0.00    -0.376 OA
BRANCH  74  75
ATOM     75  C   UNL A   1      32.519  20.665  23.723  1.00  0.00     0.202 C 
BRANCH  75  76
ATOM     76  C   UNL A   1      32.141  21.677  22.627  1.00  0.00     0.261 C 
BRANCH  76  77
ATOM     77  O   UNL A   1      32.058  23.057  23.033  1.00  0.00    -0.459 OA
BRANCH  77  78
ATOM     78  C   UNL A   1      32.822  23.924  22.315  1.00  0.00     0.345 C 
ATOM     79  O   UNL A   1      33.452  23.662  21.302  1.00  0.00    -0.246 OA
BRANCH  78  80
ATOM     80  C   UNL A   1      32.864  25.246  22.954  1.00  0.00     0.141 A 
ATOM     81  C   UNL A   1      31.874  26.083  22.639  1.00  0.00     0.118 A 
ATOM     82  C   UNL A   1      33.785  25.648  24.015  1.00  0.00     0.268 A 
ATOM     83  N   UNL A   1      31.632  27.309  23.262  1.00  0.00    -0.265 N 
ATOM     84  N   UNL A   1      33.564  26.901  24.531  1.00  0.00    -0.273 N 
ATOM     85  O   UNL A   1      34.690  24.928  24.420  1.00  0.00    -0.268 OA
ATOM     86  C   UNL A   1      32.512  27.758  24.252  1.00  0.00     0.333 A 
ATOM     87  H   UNL A   1      34.233  27.230  25.175  1.00  0.00     0.175 HD
ATOM     88  O   UNL A   1      32.405  28.781  24.921  1.00  0.00    -0.247 OA
BRANCH  83  89
ATOM     89  C   UNL A   1      30.426  28.054  22.921  1.00  0.00     0.092 A 
ATOM     90  C   UNL A   1      30.444  29.588  22.002  1.00  0.00     0.069 A 
ATOM     91  C   UNL A   1      28.956  27.385  23.598  1.00  0.00     0.183 A 
ATOM     92  C   UNL A   1      28.977  30.567  21.710  1.00  0.00     0.128 A 
ATOM     93  C   UNL A   1      27.433  28.230  23.394  1.00  0.00     0.163 A 
ATOM     94  F   UNL A   1      28.969  26.358  24.463  1.00  0.00    -0.201 F 
ATOM     95  F   UNL A   1      29.061  31.748  21.088  1.00  0.00    -0.207 F 
ATOM     96  C   UNL A   1      27.390  29.958  22.345  1.00  0.00     0.081 A 
ATOM     97  F   UNL A   1      26.472  27.590  24.116  1.00  0.00    -0.204 F 
ENDBRANCH  83  89
ENDBRANCH  78  80
ENDBRANCH  77  78
ENDBRANCH  76  77
ENDBRANCH  75  76
ENDBRANCH  74  75
ENDBRANCH  73  74
ENDBRANCH   1  73
TORSDOF 21
ENDMDL
